MODEL        1
REMARK 921   NORMALIZED FREE ENERGY PREDICTED BY IDOCK:   -8.45 KCAL/MOL
REMARK 922        TOTAL FREE ENERGY PREDICTED BY IDOCK:  -11.94 KCAL/MOL
REMARK 923 INTER-LIGAND FREE ENERGY PREDICTED BY IDOCK:  -10.92 KCAL/MOL
REMARK 924 INTRA-LIGAND FREE ENERGY PREDICTED BY IDOCK:   -1.01 KCAL/MOL
REMARK 927      BINDING AFFINITY PREDICTED BY RF-SCORE:    0.00 PKD
ROOT
HETATM    1  C   UNL     1      -5.404  19.992  67.615  1.00  0.00    -0.180 C  
HETATM    2  C   UNL     1      -5.191  18.481  67.416  1.00  0.00    -0.144 C  
HETATM    3  C   UNL     1      -6.209  20.345  68.859  1.00  0.00    -0.360 C  
HETATM    4  N   UNL     1      -6.286  17.830  66.700  1.00  0.00    -0.159 NA 
HETATM    5  C   UNL     1      -6.768  18.537  65.510  1.00  0.00    -0.235 C  
HETATM    6  C   UNL     1      -8.324  20.381  66.405  1.00  0.00    -0.136 C  
HETATM    7  C   UNL     1      -6.982  20.043  65.763  1.00  0.00    -0.294 C  
HETATM    8  O   UNL     1      -5.884  20.669  66.442  1.00  0.00    -0.177 OA 
ENDROOT
BRANCH   4   9
HETATM    9  C   UNL     1      -7.174  17.014  67.378  1.00  0.00    -0.156 A  
HETATM   10  C   UNL     1      -8.022  16.194  66.639  1.00  0.00    -0.305 A  
HETATM   11  C   UNL     1      -8.952  15.376  67.274  1.00  0.00    -0.213 A  
HETATM   12  C   UNL     1      -9.045  15.378  68.659  1.00  0.00    -0.195 A  
HETATM   13  N   UNL     1      -7.214  16.998  68.726  1.00  0.00    -0.216 NA 
HETATM   14  C   UNL     1      -8.150  16.210  69.326  1.00  0.00    -0.186 A  
BRANCH  12  15
HETATM   15  N   UNL     1     -10.007  14.617  69.376  1.00  0.00    -0.416 N  
HETATM   16  C   UNL     1     -11.370  14.886  69.382  1.00  0.00    -0.290 C  
HETATM   17  H   UNL     1      -9.675  13.821  69.921  1.00  0.00     0.000 HD 
HETATM   18  O   UNL     1     -11.910  15.716  68.660  1.00  0.00    -0.372 OA 
BRANCH  16  19
HETATM   19  C   UNL     1     -12.259  14.059  70.265  1.00  0.00    -0.430 A  
HETATM   20  C   UNL     1     -12.965  14.663  71.313  1.00  0.00    -0.407 A  
HETATM   21  C   UNL     1     -13.631  13.873  72.243  1.00  0.00    -0.642 A  
HETATM   22  C   UNL     1     -13.507  12.483  72.197  1.00  0.00    -0.523 A  
HETATM   23  C   UNL     1     -12.781  11.826  71.180  1.00  0.00    -0.405 A  
HETATM   24  C   UNL     1     -11.723  12.014  68.860  1.00  0.00    -0.383 C  
HETATM   25  C   UNL     1     -12.261  12.637  70.133  1.00  0.00    -0.310 A  
BRANCH  23  26
HETATM   26  C   UNL     1     -12.518  10.359  71.304  1.00  0.00    -0.521 A  
HETATM   27  C   UNL     1     -11.238   9.807  71.127  1.00  0.00    -0.444 A  
HETATM   28  C   UNL     1     -11.025   8.422  71.182  1.00  0.00    -0.292 A  
HETATM   29  C   UNL     1     -12.072   7.541  71.455  1.00  0.00    -0.327 A  
HETATM   30  C   UNL     1     -13.356   8.052  71.592  1.00  0.00    -0.364 A  
HETATM   31  C   UNL     1     -13.567   9.436  71.502  1.00  0.00    -0.408 A  
BRANCH  29  32
HETATM   32  O   UNL     1     -11.717   6.228  71.505  1.00  0.00    -0.307 OA 
HETATM   33  C   UNL     1     -11.310   5.671  72.746  1.00  0.00    -0.299 C  
HETATM   34  F   UNL     1     -12.267   4.835  73.203  1.00  0.00    -0.358 F  
HETATM   35  F   UNL     1     -11.035   6.586  73.699  1.00  0.00    -0.269 F  
HETATM   36  F   UNL     1     -10.187   4.946  72.536  1.00  0.00    -0.203 F  
ENDBRANCH  29  32
ENDBRANCH  23  26
ENDBRANCH  16  19
ENDBRANCH  12  15
ENDBRANCH   4   9
TORSDOF 5
ENDMDL
MODEL        2
REMARK 921   NORMALIZED FREE ENERGY PREDICTED BY IDOCK:   -8.25 KCAL/MOL
REMARK 922        TOTAL FREE ENERGY PREDICTED BY IDOCK:  -11.68 KCAL/MOL
REMARK 923 INTER-LIGAND FREE ENERGY PREDICTED BY IDOCK:  -11.05 KCAL/MOL
REMARK 924 INTRA-LIGAND FREE ENERGY PREDICTED BY IDOCK:   -0.63 KCAL/MOL
REMARK 927      BINDING AFFINITY PREDICTED BY RF-SCORE:    0.00 PKD
ROOT
HETATM    1  C   UNL     1      -9.057   6.599  72.926  1.00  0.00    -0.128 C  
HETATM    2  C   UNL     1      -9.994   7.719  73.409  1.00  0.00    -0.284 C  
HETATM    3  C   UNL     1      -8.083   7.033  71.838  1.00  0.00    -0.098 C  
HETATM    4  N   UNL     1     -11.204   7.855  72.600  1.00  0.00    -0.373 NA 
HETATM    5  C   UNL     1     -11.881   6.599  72.266  1.00  0.00    -0.252 C  
HETATM    6  C   UNL     1     -10.554   5.619  70.291  1.00  0.00    -0.370 C  
HETATM    7  C   UNL     1     -10.904   5.513  71.772  1.00  0.00    -0.211 C  
HETATM    8  O   UNL     1      -9.737   5.377  72.595  1.00  0.00    -0.150 OA 
ENDROOT
BRANCH   4   9
HETATM    9  C   UNL     1     -11.345   8.921  71.730  1.00  0.00    -0.361 A  
HETATM   10  C   UNL     1     -12.563   9.595  71.695  1.00  0.00    -0.493 A  
HETATM   11  C   UNL     1     -12.763  10.657  70.818  1.00  0.00    -0.468 A  
HETATM   12  C   UNL     1     -11.743  11.050  69.961  1.00  0.00    -0.355 A  
HETATM   13  N   UNL     1     -10.325   9.315  70.941  1.00  0.00    -0.272 NA 
HETATM   14  C   UNL     1     -10.551  10.340  70.071  1.00  0.00    -0.269 A  
BRANCH  12  15
HETATM   15  N   UNL     1     -11.891  12.084  68.998  1.00  0.00    -0.320 N  
HETATM   16  C   UNL     1     -11.626  11.934  67.642  1.00  0.00    -0.312 C  
HETATM   17  H   UNL     1     -12.213  12.996  69.323  1.00  0.00     0.000 HD 
HETATM   18  O   UNL     1     -11.375  10.861  67.106  1.00  0.00    -0.394 OA 
BRANCH  16  19
HETATM   19  C   UNL     1     -11.729  13.140  66.754  1.00  0.00    -0.439 A  
HETATM   20  C   UNL     1     -12.360  13.043  65.509  1.00  0.00    -0.527 A  
HETATM   21  C   UNL     1     -12.285  14.102  64.611  1.00  0.00    -0.465 A  
HETATM   22  C   UNL     1     -11.492  15.213  64.906  1.00  0.00    -0.374 A  
HETATM   23  C   UNL     1     -10.810  15.346  66.134  1.00  0.00    -0.313 A  
HETATM   24  C   UNL     1     -10.599  14.535  68.549  1.00  0.00    -0.252 C  
HETATM   25  C   UNL     1     -11.046  14.342  67.114  1.00  0.00    -0.318 A  
BRANCH  23  26
HETATM   26  C   UNL     1      -9.822  16.457  66.302  1.00  0.00    -0.336 A  
HETATM   27  C   UNL     1     -10.214  17.803  66.400  1.00  0.00    -0.365 A  
HETATM   28  C   UNL     1      -9.269  18.835  66.492  1.00  0.00    -0.336 A  
HETATM   29  C   UNL     1      -7.901  18.560  66.528  1.00  0.00    -0.258 A  
HETATM   30  C   UNL     1      -7.481  17.244  66.390  1.00  0.00    -0.336 A  
HETATM   31  C   UNL     1      -8.432  16.219  66.265  1.00  0.00    -0.369 A  
BRANCH  29  32
HETATM   32  O   UNL     1      -7.101  19.654  66.646  1.00  0.00    -0.207 OA 
HETATM   33  C   UNL     1      -6.520  19.951  67.907  1.00  0.00    -0.233 C  
HETATM   34  F   UNL     1      -5.194  19.698  67.866  1.00  0.00    -0.168 F  
HETATM   35  F   UNL     1      -7.064  19.273  68.939  1.00  0.00    -0.319 F  
HETATM   36  F   UNL     1      -6.687  21.271  68.148  1.00  0.00    -0.321 F  
ENDBRANCH  29  32
ENDBRANCH  23  26
ENDBRANCH  16  19
ENDBRANCH  12  15
ENDBRANCH   4   9
TORSDOF 5
ENDMDL
MODEL        3
REMARK 921   NORMALIZED FREE ENERGY PREDICTED BY IDOCK:   -8.14 KCAL/MOL
REMARK 922        TOTAL FREE ENERGY PREDICTED BY IDOCK:  -11.54 KCAL/MOL
REMARK 923 INTER-LIGAND FREE ENERGY PREDICTED BY IDOCK:  -10.15 KCAL/MOL
REMARK 924 INTRA-LIGAND FREE ENERGY PREDICTED BY IDOCK:   -1.39 KCAL/MOL
REMARK 927      BINDING AFFINITY PREDICTED BY RF-SCORE:    0.00 PKD
ROOT
HETATM    1  C   UNL     1      -8.764   5.267  74.565  1.00  0.00    -0.107 C  
HETATM    2  C   UNL     1      -9.864   6.335  74.439  1.00  0.00    -0.306 C  
HETATM    3  C   UNL     1      -7.591   5.473  73.616  1.00  0.00    -0.098 C  
HETATM    4  N   UNL     1     -10.852   6.032  73.405  1.00  0.00    -0.255 NA 
HETATM    5  C   UNL     1     -11.342   4.651  73.389  1.00  0.00    -0.305 C  
HETATM    6  C   UNL     1      -9.517   3.302  72.176  1.00  0.00    -0.194 C  
HETATM    7  C   UNL     1     -10.202   3.618  73.501  1.00  0.00    -0.144 C  
HETATM    8  O   UNL     1      -9.259   3.919  74.539  1.00  0.00    -0.097 OA 
ENDROOT
BRANCH   4   9
HETATM    9  C   UNL     1     -10.856   6.738  72.216  1.00  0.00    -0.231 A  
HETATM   10  C   UNL     1     -10.636   8.112  72.256  1.00  0.00    -0.378 A  
HETATM   11  C   UNL     1     -10.658   8.870  71.088  1.00  0.00    -0.335 A  
HETATM   12  C   UNL     1     -10.907   8.256  69.868  1.00  0.00    -0.213 A  
HETATM   13  N   UNL     1     -11.054   6.113  71.037  1.00  0.00    -0.292 NA 
HETATM   14  C   UNL     1     -11.097   6.878  69.909  1.00  0.00    -0.288 A  
BRANCH  12  15
HETATM   15  N   UNL     1     -11.004   8.969  68.644  1.00  0.00    -0.448 N  
HETATM   16  C   UNL     1      -9.914   9.478  67.946  1.00  0.00    -0.172 C  
HETATM   17  H   UNL     1     -11.933   9.119  68.250  1.00  0.00     0.000 HD 
HETATM   18  O   UNL     1      -8.745   9.245  68.233  1.00  0.00    -0.128 OA 
BRANCH  16  19
HETATM   19  C   UNL     1     -10.171  10.300  66.717  1.00  0.00    -0.286 A  
HETATM   20  C   UNL     1     -10.020   9.730  65.448  1.00  0.00    -0.302 A  
HETATM   21  C   UNL     1     -10.069  10.537  64.317  1.00  0.00    -0.380 A  
HETATM   22  C   UNL     1     -10.156  11.924  64.451  1.00  0.00    -0.310 A  
HETATM   23  C   UNL     1     -10.277  12.552  65.709  1.00  0.00    -0.289 A  
HETATM   24  C   UNL     1     -10.834  12.260  68.187  1.00  0.00    -0.258 C  
HETATM   25  C   UNL     1     -10.413  11.702  66.843  1.00  0.00    -0.262 A  
BRANCH  23  26
HETATM   26  C   UNL     1     -10.162  14.041  65.795  1.00  0.00    -0.343 A  
HETATM   27  C   UNL     1     -11.056  14.903  65.137  1.00  0.00    -0.399 A  
HETATM   28  C   UNL     1     -10.891  16.295  65.177  1.00  0.00    -0.333 A  
HETATM   29  C   UNL     1      -9.853  16.879  65.905  1.00  0.00    -0.215 A  
HETATM   30  C   UNL     1      -8.929  16.052  66.530  1.00  0.00    -0.327 A  
HETATM   31  C   UNL     1      -9.081  14.659  66.458  1.00  0.00    -0.267 A  
BRANCH  29  32
HETATM   32  O   UNL     1      -9.830  18.239  65.877  1.00  0.00    -0.527 OA 
HETATM   33  C   UNL     1     -10.279  18.960  67.016  1.00  0.00    -0.378 C  
HETATM   34  F   UNL     1      -9.223  19.527  67.638  1.00  0.00    -0.326 F  
HETATM   35  F   UNL     1     -10.963  18.213  67.907  1.00  0.00    -0.397 F  
HETATM   36  F   UNL     1     -11.097  19.950  66.594  1.00  0.00    -0.558 F  
ENDBRANCH  29  32
ENDBRANCH  23  26
ENDBRANCH  16  19
ENDBRANCH  12  15
ENDBRANCH   4   9
TORSDOF 5
ENDMDL
MODEL        4
REMARK 921   NORMALIZED FREE ENERGY PREDICTED BY IDOCK:   -8.10 KCAL/MOL
REMARK 922        TOTAL FREE ENERGY PREDICTED BY IDOCK:  -11.48 KCAL/MOL
REMARK 923 INTER-LIGAND FREE ENERGY PREDICTED BY IDOCK:   -9.95 KCAL/MOL
REMARK 924 INTRA-LIGAND FREE ENERGY PREDICTED BY IDOCK:   -1.53 KCAL/MOL
REMARK 927      BINDING AFFINITY PREDICTED BY RF-SCORE:    0.00 PKD
ROOT
HETATM    1  C   UNL     1     -10.524   5.239  71.948  1.00  0.00    -0.219 C  
HETATM    2  C   UNL     1      -9.933   5.346  70.532  1.00  0.00    -0.221 C  
HETATM    3  C   UNL     1     -11.727   6.143  72.186  1.00  0.00    -0.361 C  
HETATM    4  N   UNL     1      -8.954   6.422  70.391  1.00  0.00    -0.154 NA 
HETATM    5  C   UNL     1      -7.967   6.519  71.470  1.00  0.00    -0.104 C  
HETATM    6  C   UNL     1      -9.176   7.741  73.384  1.00  0.00    -0.344 C  
HETATM    7  C   UNL     1      -8.609   6.423  72.869  1.00  0.00    -0.124 C  
HETATM    8  O   UNL     1      -9.546   5.344  72.994  1.00  0.00    -0.146 OA 
ENDROOT
BRANCH   4   9
HETATM    9  C   UNL     1      -9.279   7.576  69.701  1.00  0.00    -0.146 A  
HETATM   10  C   UNL     1     -10.186   7.489  68.648  1.00  0.00    -0.210 A  
HETATM   11  C   UNL     1     -10.524   8.618  67.906  1.00  0.00    -0.269 A  
HETATM   12  C   UNL     1      -9.950   9.845  68.211  1.00  0.00    -0.151 A  
HETATM   13  N   UNL     1      -8.745   8.765  70.045  1.00  0.00    -0.137 NA 
HETATM   14  C   UNL     1      -9.070   9.852  69.289  1.00  0.00    -0.189 A  
BRANCH  12  15
HETATM   15  N   UNL     1     -10.200  11.027  67.464  1.00  0.00    -0.183 N  
HETATM   16  C   UNL     1     -11.377  11.761  67.531  1.00  0.00    -0.310 C  
HETATM   17  H   UNL     1      -9.466  11.358  66.836  1.00  0.00     0.000 HD 
HETATM   18  O   UNL     1     -12.271  11.554  68.345  1.00  0.00    -0.540 OA 
BRANCH  16  19
HETATM   19  C   UNL     1     -11.545  12.934  66.610  1.00  0.00    -0.428 A  
HETATM   20  C   UNL     1     -12.147  12.763  65.358  1.00  0.00    -0.512 A  
HETATM   21  C   UNL     1     -12.127  13.802  64.433  1.00  0.00    -0.474 A  
HETATM   22  C   UNL     1     -11.414  14.970  64.709  1.00  0.00    -0.403 A  
HETATM   23  C   UNL     1     -10.762  15.179  65.943  1.00  0.00    -0.341 A  
HETATM   24  C   UNL     1     -10.538  14.447  68.382  1.00  0.00    -0.248 C  
HETATM   25  C   UNL     1     -10.948  14.187  66.947  1.00  0.00    -0.302 A  
BRANCH  23  26
HETATM   26  C   UNL     1      -9.852  16.357  66.096  1.00  0.00    -0.362 A  
HETATM   27  C   UNL     1      -8.458  16.219  66.214  1.00  0.00    -0.369 A  
HETATM   28  C   UNL     1      -7.630  17.331  66.423  1.00  0.00    -0.349 A  
HETATM   29  C   UNL     1      -8.155  18.622  66.482  1.00  0.00    -0.284 A  
HETATM   30  C   UNL     1      -9.532  18.786  66.411  1.00  0.00    -0.336 A  
HETATM   31  C   UNL     1     -10.358  17.666  66.236  1.00  0.00    -0.342 A  
BRANCH  29  32
HETATM   32  O   UNL     1      -7.233  19.607  66.662  1.00  0.00    -0.217 OA 
HETATM   33  C   UNL     1      -6.855  19.965  67.983  1.00  0.00    -0.274 C  
HETATM   34  F   UNL     1      -5.598  19.535  68.226  1.00  0.00    -0.193 F  
HETATM   35  F   UNL     1      -7.676  19.485  68.941  1.00  0.00    -0.367 F  
HETATM   36  F   UNL     1      -6.861  21.314  68.074  1.00  0.00    -0.338 F  
ENDBRANCH  29  32
ENDBRANCH  23  26
ENDBRANCH  16  19
ENDBRANCH  12  15
ENDBRANCH   4   9
TORSDOF 5
ENDMDL
MODEL        5
REMARK 921   NORMALIZED FREE ENERGY PREDICTED BY IDOCK:   -8.05 KCAL/MOL
REMARK 922        TOTAL FREE ENERGY PREDICTED BY IDOCK:  -11.42 KCAL/MOL
REMARK 923 INTER-LIGAND FREE ENERGY PREDICTED BY IDOCK:  -10.18 KCAL/MOL
REMARK 924 INTRA-LIGAND FREE ENERGY PREDICTED BY IDOCK:   -1.24 KCAL/MOL
REMARK 927      BINDING AFFINITY PREDICTED BY RF-SCORE:    0.00 PKD
ROOT
HETATM    1  C   UNL     1      -7.488  19.501  66.919  1.00  0.00    -0.231 C  
HETATM    2  C   UNL     1      -7.799  18.215  66.134  1.00  0.00    -0.204 C  
HETATM    3  C   UNL     1      -7.132  19.264  68.381  1.00  0.00    -0.328 C  
HETATM    4  N   UNL     1      -9.194  17.792  66.241  1.00  0.00    -0.440 NA 
HETATM    5  C   UNL     1     -10.188  18.857  66.080  1.00  0.00    -0.433 C  
HETATM    6  C   UNL     1     -10.276  20.050  68.358  1.00  0.00    -0.510 C  
HETATM    7  C   UNL     1      -9.842  20.118  66.898  1.00  0.00    -0.454 C  
HETATM    8  O   UNL     1      -8.476  20.532  66.757  1.00  0.00    -0.240 OA 
ENDROOT
BRANCH   4   9
HETATM    9  C   UNL     1      -9.533  16.696  67.014  1.00  0.00    -0.230 A  
HETATM   10  C   UNL     1      -8.703  15.579  66.987  1.00  0.00    -0.258 A  
HETATM   11  C   UNL     1      -9.017  14.442  67.727  1.00  0.00    -0.192 A  
HETATM   12  C   UNL     1     -10.172  14.413  68.497  1.00  0.00    -0.243 A  
HETATM   13  N   UNL     1     -10.636  16.709  67.791  1.00  0.00    -0.336 NA 
HETATM   14  C   UNL     1     -10.938  15.576  68.486  1.00  0.00    -0.288 A  
BRANCH  12  15
HETATM   15  N   UNL     1     -10.590  13.271  69.230  1.00  0.00    -0.434 N  
HETATM   16  C   UNL     1     -11.599  12.406  68.824  1.00  0.00    -0.326 C  
HETATM   17  H   UNL     1     -10.118  13.072  70.112  1.00  0.00     0.000 HD 
HETATM   18  O   UNL     1     -12.140  12.450  67.725  1.00  0.00    -0.447 OA 
BRANCH  16  19
HETATM   19  C   UNL     1     -12.005  11.295  69.747  1.00  0.00    -0.431 A  
HETATM   20  C   UNL     1     -12.772  11.572  70.885  1.00  0.00    -0.372 A  
HETATM   21  C   UNL     1     -12.983  10.580  71.836  1.00  0.00    -0.553 A  
HETATM   22  C   UNL     1     -12.342   9.346  71.712  1.00  0.00    -0.471 A  
HETATM   23  C   UNL     1     -11.533   9.026  70.601  1.00  0.00    -0.291 A  
HETATM   24  C   UNL     1     -10.881   9.624  68.202  1.00  0.00    -0.241 C  
HETATM   25  C   UNL     1     -11.477   9.982  69.548  1.00  0.00    -0.176 A  
BRANCH  23  26
HETATM   26  C   UNL     1     -10.717   7.772  70.629  1.00  0.00    -0.233 A  
HETATM   27  C   UNL     1     -11.211   6.545  70.155  1.00  0.00    -0.437 A  
HETATM   28  C   UNL     1     -10.455   5.367  70.251  1.00  0.00    -0.355 A  
HETATM   29  C   UNL     1      -9.166   5.378  70.786  1.00  0.00    -0.149 A  
HETATM   30  C   UNL     1      -8.668   6.568  71.301  1.00  0.00    -0.130 A  
HETATM   31  C   UNL     1      -9.443   7.735  71.233  1.00  0.00    -0.173 A  
BRANCH  29  32
HETATM   32  O   UNL     1      -8.539   4.171  70.792  1.00  0.00    -0.073 OA 
HETATM   33  C   UNL     1      -9.015   3.151  71.658  1.00  0.00    -0.095 C  
HETATM   34  F   UNL     1      -9.621   2.187  70.932  1.00  0.00    -0.188 F  
HETATM   35  F   UNL     1      -9.869   3.587  72.607  1.00  0.00    -0.164 F  
HETATM   36  F   UNL     1      -7.952   2.597  72.284  1.00  0.00    -0.050 F  
ENDBRANCH  29  32
ENDBRANCH  23  26
ENDBRANCH  16  19
ENDBRANCH  12  15
ENDBRANCH   4   9
TORSDOF 5
ENDMDL
MODEL        6
REMARK 921   NORMALIZED FREE ENERGY PREDICTED BY IDOCK:   -7.89 KCAL/MOL
REMARK 922        TOTAL FREE ENERGY PREDICTED BY IDOCK:  -11.21 KCAL/MOL
REMARK 923 INTER-LIGAND FREE ENERGY PREDICTED BY IDOCK:   -9.81 KCAL/MOL
REMARK 924 INTRA-LIGAND FREE ENERGY PREDICTED BY IDOCK:   -1.39 KCAL/MOL
REMARK 927      BINDING AFFINITY PREDICTED BY RF-SCORE:    0.00 PKD
ROOT
HETATM    1  C   UNL     1      -7.631  19.565  66.908  1.00  0.00    -0.246 C  
HETATM    2  C   UNL     1      -7.976  18.301  66.102  1.00  0.00    -0.184 C  
HETATM    3  C   UNL     1      -7.189  19.286  68.338  1.00  0.00    -0.338 C  
HETATM    4  N   UNL     1      -9.359  17.861  66.276  1.00  0.00    -0.446 NA 
HETATM    5  C   UNL     1     -10.370  18.921  66.206  1.00  0.00    -0.453 C  
HETATM    6  C   UNL     1     -10.335  20.042  68.521  1.00  0.00    -0.425 C  
HETATM    7  C   UNL     1      -9.987  20.159  67.041  1.00  0.00    -0.456 C  
HETATM    8  O   UNL     1      -8.634  20.591  66.835  1.00  0.00    -0.274 OA 
ENDROOT
BRANCH   4   9
HETATM    9  C   UNL     1      -9.644  16.739  67.033  1.00  0.00    -0.239 A  
HETATM   10  C   UNL     1      -8.814  15.628  66.917  1.00  0.00    -0.279 A  
HETATM   11  C   UNL     1      -9.076  14.466  67.638  1.00  0.00    -0.194 A  
HETATM   12  C   UNL     1     -10.179  14.405  68.478  1.00  0.00    -0.243 A  
HETATM   13  N   UNL     1     -10.695  16.720  67.878  1.00  0.00    -0.354 NA 
HETATM   14  C   UNL     1     -10.948  15.563  68.554  1.00  0.00    -0.288 A  
BRANCH  12  15
HETATM   15  N   UNL     1     -10.544  13.237  69.199  1.00  0.00    -0.432 N  
HETATM   16  C   UNL     1     -11.553  12.362  68.812  1.00  0.00    -0.326 C  
HETATM   17  H   UNL     1     -10.034  13.026  70.056  1.00  0.00     0.000 HD 
HETATM   18  O   UNL     1     -12.139  12.422  67.737  1.00  0.00    -0.447 OA 
BRANCH  16  19
HETATM   19  C   UNL     1     -11.900  11.221  69.723  1.00  0.00    -0.437 A  
HETATM   20  C   UNL     1     -12.653  11.451  70.880  1.00  0.00    -0.453 A  
HETATM   21  C   UNL     1     -12.808  10.435  71.817  1.00  0.00    -0.561 A  
HETATM   22  C   UNL     1     -12.126   9.228  71.658  1.00  0.00    -0.451 A  
HETATM   23  C   UNL     1     -11.329   8.957  70.526  1.00  0.00    -0.268 A  
HETATM   24  C   UNL     1     -10.747   9.620  68.126  1.00  0.00    -0.266 C  
HETATM   25  C   UNL     1     -11.329   9.933  69.490  1.00  0.00    -0.172 A  
BRANCH  23  26
HETATM   26  C   UNL     1     -10.468   7.733  70.515  1.00  0.00    -0.217 A  
HETATM   27  C   UNL     1     -10.978   6.459  70.211  1.00  0.00    -0.378 A  
HETATM   28  C   UNL     1     -10.169   5.316  70.270  1.00  0.00    -0.345 A  
HETATM   29  C   UNL     1      -8.815   5.405  70.598  1.00  0.00    -0.132 A  
HETATM   30  C   UNL     1      -8.293   6.644  70.946  1.00  0.00    -0.125 A  
HETATM   31  C   UNL     1      -9.117   7.779  70.916  1.00  0.00    -0.150 A  
BRANCH  29  32
HETATM   32  O   UNL     1      -8.146   4.220  70.592  1.00  0.00    -0.061 OA 
HETATM   33  C   UNL     1      -7.301   3.911  69.493  1.00  0.00    -0.053 C  
HETATM   34  F   UNL     1      -6.009   3.981  69.881  1.00  0.00    -0.016 F  
HETATM   35  F   UNL     1      -7.479   4.708  68.418  1.00  0.00    -0.062 F  
HETATM   36  F   UNL     1      -7.554   2.640  69.109  1.00  0.00    -0.044 F  
ENDBRANCH  29  32
ENDBRANCH  23  26
ENDBRANCH  16  19
ENDBRANCH  12  15
ENDBRANCH   4   9
TORSDOF 5
ENDMDL
MODEL        7
REMARK 921   NORMALIZED FREE ENERGY PREDICTED BY IDOCK:   -7.85 KCAL/MOL
REMARK 922        TOTAL FREE ENERGY PREDICTED BY IDOCK:  -11.15 KCAL/MOL
REMARK 923 INTER-LIGAND FREE ENERGY PREDICTED BY IDOCK:   -9.61 KCAL/MOL
REMARK 924 INTRA-LIGAND FREE ENERGY PREDICTED BY IDOCK:   -1.55 KCAL/MOL
REMARK 927      BINDING AFFINITY PREDICTED BY RF-SCORE:    0.00 PKD
ROOT
HETATM    1  C   UNL     1      -5.962  19.020  66.228  1.00  0.00    -0.162 C  
HETATM    2  C   UNL     1      -7.339  18.503  65.780  1.00  0.00    -0.144 C  
HETATM    3  C   UNL     1      -5.183  18.039  67.094  1.00  0.00    -0.143 C  
HETATM    4  N   UNL     1      -8.401  18.761  66.751  1.00  0.00    -0.271 NA 
HETATM    5  C   UNL     1      -8.416  20.111  67.322  1.00  0.00    -0.342 C  
HETATM    6  C   UNL     1      -6.613  20.089  69.156  1.00  0.00    -0.345 C  
HETATM    7  C   UNL     1      -7.017  20.579  67.770  1.00  0.00    -0.315 C  
HETATM    8  O   UNL     1      -5.995  20.341  66.792  1.00  0.00    -0.173 OA 
ENDROOT
BRANCH   4   9
HETATM    9  C   UNL     1      -8.918  17.727  67.510  1.00  0.00    -0.244 A  
HETATM   10  C   UNL     1      -8.474  16.431  67.264  1.00  0.00    -0.196 A  
HETATM   11  C   UNL     1      -8.985  15.355  67.983  1.00  0.00    -0.171 A  
HETATM   12  C   UNL     1      -9.954  15.569  68.954  1.00  0.00    -0.218 A  
HETATM   13  N   UNL     1      -9.824  17.965  68.481  1.00  0.00    -0.348 NA 
HETATM   14  C   UNL     1     -10.331  16.893  69.155  1.00  0.00    -0.319 A  
BRANCH  12  15
HETATM   15  N   UNL     1     -10.565  14.517  69.687  1.00  0.00    -0.435 N  
HETATM   16  C   UNL     1     -11.681  13.808  69.257  1.00  0.00    -0.327 C  
HETATM   17  H   UNL     1     -10.159  14.264  70.588  1.00  0.00     0.000 HD 
HETATM   18  O   UNL     1     -12.172  13.914  68.139  1.00  0.00    -0.329 OA 
BRANCH  16  19
HETATM   19  C   UNL     1     -12.283  12.789  70.180  1.00  0.00    -0.320 A  
HETATM   20  C   UNL     1     -13.117  13.197  71.227  1.00  0.00    -0.275 A  
HETATM   21  C   UNL     1     -13.515  12.277  72.191  1.00  0.00    -0.431 A  
HETATM   22  C   UNL     1     -12.998  10.981  72.178  1.00  0.00    -0.244 A  
HETATM   23  C   UNL     1     -12.128  10.529  71.162  1.00  0.00    -0.473 A  
HETATM   24  C   UNL     1     -11.202  10.942  68.815  1.00  0.00    -0.329 C  
HETATM   25  C   UNL     1     -11.878  11.423  70.083  1.00  0.00    -0.440 A  
BRANCH  23  26
HETATM   26  C   UNL     1     -11.453   9.203  71.317  1.00  0.00    -0.405 A  
HETATM   27  C   UNL     1     -12.085   7.994  70.979  1.00  0.00    -0.232 A  
HETATM   28  C   UNL     1     -11.460   6.758  71.193  1.00  0.00    -0.361 A  
HETATM   29  C   UNL     1     -10.168   6.683  71.715  1.00  0.00    -0.187 A  
HETATM   30  C   UNL     1      -9.534   7.857  72.098  1.00  0.00    -0.234 A  
HETATM   31  C   UNL     1     -10.180   9.089  71.912  1.00  0.00    -0.342 A  
BRANCH  29  32
HETATM   32  O   UNL     1      -9.675   5.421  71.844  1.00  0.00    -0.158 OA 
HETATM   33  C   UNL     1      -9.953   4.691  73.030  1.00  0.00    -0.149 C  
HETATM   34  F   UNL     1     -10.832   3.702  72.757  1.00  0.00    -0.237 F  
HETATM   35  F   UNL     1     -10.439   5.442  74.040  1.00  0.00    -0.214 F  
HETATM   36  F   UNL     1      -8.803   4.122  73.456  1.00  0.00    -0.094 F  
ENDBRANCH  29  32
ENDBRANCH  23  26
ENDBRANCH  16  19
ENDBRANCH  12  15
ENDBRANCH   4   9
TORSDOF 5
ENDMDL
MODEL        8
REMARK 921   NORMALIZED FREE ENERGY PREDICTED BY IDOCK:   -7.74 KCAL/MOL
REMARK 922        TOTAL FREE ENERGY PREDICTED BY IDOCK:  -11.01 KCAL/MOL
REMARK 923 INTER-LIGAND FREE ENERGY PREDICTED BY IDOCK:   -9.59 KCAL/MOL
REMARK 924 INTRA-LIGAND FREE ENERGY PREDICTED BY IDOCK:   -1.42 KCAL/MOL
REMARK 927      BINDING AFFINITY PREDICTED BY RF-SCORE:    0.00 PKD
ROOT
HETATM    1  C   UNL     1      -7.574  19.353  66.634  1.00  0.00    -0.254 C  
HETATM    2  C   UNL     1      -8.037  18.082  65.902  1.00  0.00     0.026 C  
HETATM    3  C   UNL     1      -7.083  19.105  68.054  1.00  0.00    -0.271 C  
HETATM    4  N   UNL     1      -9.436  17.743  66.157  1.00  0.00    -0.501 NA 
HETATM    5  C   UNL     1     -10.378  18.863  66.084  1.00  0.00    -0.460 C  
HETATM    6  C   UNL     1     -10.161  20.075  68.344  1.00  0.00    -0.510 C  
HETATM    7  C   UNL     1      -9.877  20.107  66.845  1.00  0.00    -0.454 C  
HETATM    8  O   UNL     1      -8.511  20.439  66.560  1.00  0.00    -0.225 OA 
ENDROOT
BRANCH   4   9
HETATM    9  C   UNL     1      -9.757  16.674  66.975  1.00  0.00    -0.249 A  
HETATM   10  C   UNL     1      -8.890  15.585  67.020  1.00  0.00    -0.255 A  
HETATM   11  C   UNL     1      -9.184  14.476  67.807  1.00  0.00    -0.194 A  
HETATM   12  C   UNL     1     -10.354  14.445  68.553  1.00  0.00    -0.248 A  
HETATM   13  N   UNL     1     -10.876  16.687  67.727  1.00  0.00    -0.325 NA 
HETATM   14  C   UNL     1     -11.157  15.579  68.470  1.00  0.00    -0.307 A  
BRANCH  12  15
HETATM   15  N   UNL     1     -10.750  13.325  69.332  1.00  0.00    -0.438 N  
HETATM   16  C   UNL     1     -11.574  12.304  68.873  1.00  0.00    -0.316 C  
HETATM   17  H   UNL     1     -10.409  13.267  70.292  1.00  0.00     0.000 HD 
HETATM   18  O   UNL     1     -11.930  12.181  67.707  1.00  0.00    -0.506 OA 
BRANCH  16  19
HETATM   19  C   UNL     1     -11.994  11.233  69.837  1.00  0.00    -0.440 A  
HETATM   20  C   UNL     1     -12.969  11.503  70.804  1.00  0.00    -0.103 A  
HETATM   21  C   UNL     1     -13.217  10.578  71.813  1.00  0.00    -0.522 A  
HETATM   22  C   UNL     1     -12.421   9.438  71.927  1.00  0.00    -0.468 A  
HETATM   23  C   UNL     1     -11.403   9.135  70.997  1.00  0.00    -0.377 A  
HETATM   24  C   UNL     1     -10.431   9.603  68.679  1.00  0.00    -0.235 C  
HETATM   25  C   UNL     1     -11.285   9.993  69.868  1.00  0.00    -0.327 A  
BRANCH  23  26
HETATM   26  C   UNL     1     -10.459   8.012  71.290  1.00  0.00    -0.238 A  
HETATM   27  C   UNL     1      -9.127   8.232  71.683  1.00  0.00    -0.242 A  
HETATM   28  C   UNL     1      -8.241   7.166  71.888  1.00  0.00    -0.104 A  
HETATM   29  C   UNL     1      -8.658   5.842  71.748  1.00  0.00    -0.131 A  
HETATM   30  C   UNL     1      -9.955   5.593  71.319  1.00  0.00    -0.248 A  
HETATM   31  C   UNL     1     -10.827   6.666  71.082  1.00  0.00    -0.284 A  
BRANCH  29  32
HETATM   32  O   UNL     1      -7.700   4.909  72.004  1.00  0.00    -0.094 OA 
HETATM   33  C   UNL     1      -7.694   4.256  73.264  1.00  0.00    -0.082 C  
HETATM   34  F   UNL     1      -8.088   2.973  73.111  1.00  0.00    -0.063 F  
HETATM   35  F   UNL     1      -8.472   4.845  74.196  1.00  0.00    -0.104 F  
HETATM   36  F   UNL     1      -6.425   4.251  73.731  1.00  0.00    -0.041 F  
ENDBRANCH  29  32
ENDBRANCH  23  26
ENDBRANCH  16  19
ENDBRANCH  12  15
ENDBRANCH   4   9
TORSDOF 5
ENDMDL
MODEL        9
REMARK 921   NORMALIZED FREE ENERGY PREDICTED BY IDOCK:   -7.67 KCAL/MOL
REMARK 922        TOTAL FREE ENERGY PREDICTED BY IDOCK:  -10.93 KCAL/MOL
REMARK 923 INTER-LIGAND FREE ENERGY PREDICTED BY IDOCK:   -9.33 KCAL/MOL
REMARK 924 INTRA-LIGAND FREE ENERGY PREDICTED BY IDOCK:   -1.60 KCAL/MOL
REMARK 927      BINDING AFFINITY PREDICTED BY RF-SCORE:    0.00 PKD
ROOT
HETATM    1  C   UNL     1      -8.900  19.816  66.170  1.00  0.00    -0.336 C  
HETATM    2  C   UNL     1     -10.199  18.998  66.070  1.00  0.00    -0.401 C  
HETATM    3  C   UNL     1      -7.657  19.061  65.721  1.00  0.00    -0.127 C  
HETATM    4  N   UNL     1     -10.462  18.179  67.251  1.00  0.00    -0.392 NA 
HETATM    5  C   UNL     1     -10.266  18.851  68.539  1.00  0.00    -0.347 C  
HETATM    6  C   UNL     1      -7.727  18.796  68.950  1.00  0.00    -0.298 C  
HETATM    7  C   UNL     1      -8.945  19.644  68.597  1.00  0.00    -0.283 C  
HETATM    8  O   UNL     1      -8.719  20.462  67.441  1.00  0.00    -0.343 OA 
ENDROOT
BRANCH   4   9
HETATM    9  C   UNL     1     -10.293  16.807  67.201  1.00  0.00    -0.297 A  
HETATM   10  C   UNL     1     -10.326  16.087  68.392  1.00  0.00    -0.251 A  
HETATM   11  C   UNL     1     -10.133  14.708  68.395  1.00  0.00    -0.237 A  
HETATM   12  C   UNL     1      -9.899  14.038  67.201  1.00  0.00    -0.240 A  
HETATM   13  N   UNL     1     -10.114  16.172  66.024  1.00  0.00    -0.329 NA 
HETATM   14  C   UNL     1      -9.901  14.825  66.053  1.00  0.00    -0.324 A  
BRANCH  12  15
HETATM   15  N   UNL     1      -9.635  12.645  67.131  1.00  0.00    -0.202 N  
HETATM   16  C   UNL     1     -10.598  11.656  67.295  1.00  0.00    -0.228 C  
HETATM   17  H   UNL     1      -8.676  12.349  66.948  1.00  0.00     0.000 HD 
HETATM   18  O   UNL     1     -11.802  11.877  67.375  1.00  0.00    -0.571 OA 
BRANCH  16  19
HETATM   19  C   UNL     1     -10.160  10.221  67.295  1.00  0.00    -0.249 A  
HETATM   20  C   UNL     1     -10.002   9.535  66.086  1.00  0.00    -0.342 A  
HETATM   21  C   UNL     1      -9.785   8.161  66.093  1.00  0.00    -0.154 A  
HETATM   22  C   UNL     1      -9.835   7.452  67.294  1.00  0.00    -0.230 A  
HETATM   23  C   UNL     1     -10.024   8.092  68.538  1.00  0.00    -0.206 A  
HETATM   24  C   UNL     1      -9.966  10.300  69.825  1.00  0.00    -0.222 C  
HETATM   25  C   UNL     1     -10.057   9.515  68.532  1.00  0.00    -0.198 A  
BRANCH  23  26
HETATM   26  C   UNL     1     -10.269   7.259  69.756  1.00  0.00    -0.214 A  
HETATM   27  C   UNL     1     -11.564   6.962  70.215  1.00  0.00    -0.362 A  
HETATM   28  C   UNL     1     -11.772   6.235  71.396  1.00  0.00    -0.316 A  
HETATM   29  C   UNL     1     -10.699   5.744  72.140  1.00  0.00    -0.231 A  
HETATM   30  C   UNL     1      -9.408   6.057  71.736  1.00  0.00    -0.158 A  
HETATM   31  C   UNL     1      -9.208   6.814  70.571  1.00  0.00    -0.156 A  
BRANCH  29  32
HETATM   32  O   UNL     1     -11.048   5.034  73.247  1.00  0.00    -0.289 OA 
HETATM   33  C   UNL     1     -10.739   3.649  73.303  1.00  0.00    -0.198 C  
HETATM   34  F   UNL     1      -9.741   3.442  74.189  1.00  0.00    -0.110 F  
HETATM   35  F   UNL     1     -10.389   3.113  72.115  1.00  0.00    -0.232 F  
HETATM   36  F   UNL     1     -11.834   2.990  73.745  1.00  0.00    -0.253 F  
ENDBRANCH  29  32
ENDBRANCH  23  26
ENDBRANCH  16  19
ENDBRANCH  12  15
ENDBRANCH   4   9
TORSDOF 5
ENDMDL
MODEL       10
REMARK 921   NORMALIZED FREE ENERGY PREDICTED BY IDOCK:   -7.65 KCAL/MOL
REMARK 922        TOTAL FREE ENERGY PREDICTED BY IDOCK:  -10.90 KCAL/MOL
REMARK 923 INTER-LIGAND FREE ENERGY PREDICTED BY IDOCK:   -9.93 KCAL/MOL
REMARK 924 INTRA-LIGAND FREE ENERGY PREDICTED BY IDOCK:   -0.96 KCAL/MOL
REMARK 927      BINDING AFFINITY PREDICTED BY RF-SCORE:    0.00 PKD
ROOT
HETATM    1  C   UNL     1      -9.830   5.497  73.806  1.00  0.00    -0.171 C  
HETATM    2  C   UNL     1     -10.822   5.150  72.684  1.00  0.00    -0.247 C  
HETATM    3  C   UNL     1      -9.657   6.992  74.039  1.00  0.00    -0.308 C  
HETATM    4  N   UNL     1     -10.212   5.125  71.356  1.00  0.00    -0.209 NA 
HETATM    5  C   UNL     1      -8.927   4.426  71.267  1.00  0.00    -0.122 C  
HETATM    6  C   UNL     1      -7.184   6.105  72.142  1.00  0.00    -0.092 C  
HETATM    7  C   UNL     1      -7.961   4.819  72.404  1.00  0.00    -0.099 C  
HETATM    8  O   UNL     1      -8.572   4.810  73.701  1.00  0.00    -0.105 OA 
ENDROOT
BRANCH   4   9
HETATM    9  C   UNL     1     -10.463   6.143  70.454  1.00  0.00    -0.230 A  
HETATM   10  C   UNL     1     -10.479   5.841  69.095  1.00  0.00    -0.346 A  
HETATM   11  C   UNL     1     -10.700   6.838  68.148  1.00  0.00    -0.295 A  
HETATM   12  C   UNL     1     -10.900   8.149  68.556  1.00  0.00     0.093 A  
HETATM   13  N   UNL     1     -10.701   7.402  70.876  1.00  0.00    -0.232 NA 
HETATM   14  C   UNL     1     -10.889   8.366  69.931  1.00  0.00    -0.207 A  
BRANCH  12  15
HETATM   15  N   UNL     1     -11.072   9.228  67.648  1.00  0.00    -0.447 N  
HETATM   16  C   UNL     1     -10.032  10.004  67.148  1.00  0.00    -0.201 C  
HETATM   17  H   UNL     1     -12.020   9.449  67.343  1.00  0.00     0.000 HD 
HETATM   18  O   UNL     1      -8.845   9.753  67.320  1.00  0.00    -0.131 OA 
BRANCH  16  19
HETATM   19  C   UNL     1     -10.369  11.176  66.274  1.00  0.00    -0.299 A  
HETATM   20  C   UNL     1     -10.457  11.016  64.887  1.00  0.00    -0.371 A  
HETATM   21  C   UNL     1     -10.577  12.133  64.067  1.00  0.00    -0.429 A  
HETATM   22  C   UNL     1     -10.499  13.414  64.616  1.00  0.00    -0.428 A  
HETATM   23  C   UNL     1     -10.377  13.631  66.006  1.00  0.00    -0.305 A  
HETATM   24  C   UNL     1     -10.612  12.625  68.345  1.00  0.00    -0.258 C  
HETATM   25  C   UNL     1     -10.443  12.484  66.845  1.00  0.00    -0.244 A  
BRANCH  23  26
HETATM   26  C   UNL     1     -10.095  15.012  66.506  1.00  0.00    -0.286 A  
HETATM   27  C   UNL     1      -8.945  15.727  66.130  1.00  0.00    -0.372 A  
HETATM   28  C   UNL     1      -8.667  16.995  66.661  1.00  0.00    -0.282 A  
HETATM   29  C   UNL     1      -9.542  17.611  67.556  1.00  0.00    -0.267 A  
HETATM   30  C   UNL     1     -10.665  16.912  67.980  1.00  0.00    -0.364 A  
HETATM   31  C   UNL     1     -10.920  15.630  67.469  1.00  0.00    -0.309 A  
BRANCH  29  32
HETATM   32  O   UNL     1      -9.159  18.850  67.970  1.00  0.00    -0.289 OA 
HETATM   33  C   UNL     1     -10.078  19.927  67.863  1.00  0.00    -0.436 C  
HETATM   34  F   UNL     1     -10.509  20.278  69.093  1.00  0.00    -0.509 F  
HETATM   35  F   UNL     1     -11.147  19.665  67.082  1.00  0.00    -0.581 F  
HETATM   36  F   UNL     1      -9.428  20.986  67.329  1.00  0.00    -0.557 F  
ENDBRANCH  29  32
ENDBRANCH  23  26
ENDBRANCH  16  19
ENDBRANCH  12  15
ENDBRANCH   4   9
TORSDOF 5
ENDMDL
MODEL       11
REMARK 921   NORMALIZED FREE ENERGY PREDICTED BY IDOCK:   -7.49 KCAL/MOL
REMARK 922        TOTAL FREE ENERGY PREDICTED BY IDOCK:  -10.70 KCAL/MOL
REMARK 923 INTER-LIGAND FREE ENERGY PREDICTED BY IDOCK:   -9.10 KCAL/MOL
REMARK 924 INTRA-LIGAND FREE ENERGY PREDICTED BY IDOCK:   -1.60 KCAL/MOL
REMARK 927      BINDING AFFINITY PREDICTED BY RF-SCORE:    0.00 PKD
ROOT
HETATM    1  C   UNL     1      -9.109   5.518  73.771  1.00  0.00    -0.123 C  
HETATM    2  C   UNL     1     -10.482   5.661  73.093  1.00  0.00    -0.221 C  
HETATM    3  C   UNL     1      -8.210   6.738  73.612  1.00  0.00    -0.122 C  
HETATM    4  N   UNL     1     -10.476   5.276  71.683  1.00  0.00    -0.222 NA 
HETATM    5  C   UNL     1      -9.773   4.026  71.375  1.00  0.00    -0.183 C  
HETATM    6  C   UNL     1      -7.279   4.652  71.314  1.00  0.00    -0.052 C  
HETATM    7  C   UNL     1      -8.397   3.937  72.065  1.00  0.00    -0.098 C  
HETATM    8  O   UNL     1      -8.430   4.293  73.454  1.00  0.00    -0.093 OA 
ENDROOT
BRANCH   4   9
HETATM    9  C   UNL     1     -10.549   6.241  70.696  1.00  0.00    -0.246 A  
HETATM   10  C   UNL     1     -10.690   7.574  71.075  1.00  0.00    -0.243 A  
HETATM   11  C   UNL     1     -10.795   8.578  70.117  1.00  0.00    -0.238 A  
HETATM   12  C   UNL     1     -10.766   8.255  68.768  1.00  0.00    -0.042 A  
HETATM   13  N   UNL     1     -10.471   5.908  69.391  1.00  0.00    -0.244 NA 
HETATM   14  C   UNL     1     -10.603   6.905  68.470  1.00  0.00    -0.212 A  
BRANCH  12  15
HETATM   15  N   UNL     1     -10.927   9.216  67.734  1.00  0.00    -0.492 N  
HETATM   16  C   UNL     1      -9.891   9.976  67.204  1.00  0.00    -0.185 C  
HETATM   17  H   UNL     1     -11.864   9.359  67.357  1.00  0.00     0.000 HD 
HETATM   18  O   UNL     1      -8.706   9.799  67.465  1.00  0.00    -0.125 OA 
BRANCH  16  19
HETATM   19  C   UNL     1     -10.221  11.027  66.185  1.00  0.00    -0.298 A  
HETATM   20  C   UNL     1     -10.319  10.686  64.831  1.00  0.00    -0.347 A  
HETATM   21  C   UNL     1     -10.433  11.687  63.872  1.00  0.00    -0.433 A  
HETATM   22  C   UNL     1     -10.340  13.028  64.248  1.00  0.00    -0.385 A  
HETATM   23  C   UNL     1     -10.209  13.425  65.596  1.00  0.00    -0.300 A  
HETATM   24  C   UNL     1     -10.440  12.737  68.048  1.00  0.00    -0.233 C  
HETATM   25  C   UNL     1     -10.280  12.398  66.579  1.00  0.00    -0.244 A  
BRANCH  23  26
HETATM   26  C   UNL     1      -9.911  14.857  65.909  1.00  0.00    -0.362 A  
HETATM   27  C   UNL     1     -10.767  15.904  65.524  1.00  0.00    -0.386 A  
HETATM   28  C   UNL     1     -10.437  17.244  65.770  1.00  0.00    -0.237 A  
HETATM   29  C   UNL     1      -9.263  17.588  66.441  1.00  0.00    -0.245 A  
HETATM   30  C   UNL     1      -8.377  16.579  66.796  1.00  0.00    -0.274 A  
HETATM   31  C   UNL     1      -8.698  15.242  66.517  1.00  0.00    -0.314 A  
BRANCH  29  32
HETATM   32  O   UNL     1      -9.084  18.924  66.634  1.00  0.00    -0.308 OA 
HETATM   33  C   UNL     1      -9.378  19.482  67.907  1.00  0.00    -0.333 C  
HETATM   34  F   UNL     1      -8.228  19.821  68.528  1.00  0.00    -0.356 F  
HETATM   35  F   UNL     1     -10.090  18.669  68.715  1.00  0.00    -0.365 F  
HETATM   36  F   UNL     1     -10.100  20.609  67.717  1.00  0.00    -0.540 F  
ENDBRANCH  29  32
ENDBRANCH  23  26
ENDBRANCH  16  19
ENDBRANCH  12  15
ENDBRANCH   4   9
TORSDOF 5
ENDMDL
MODEL       12
REMARK 921   NORMALIZED FREE ENERGY PREDICTED BY IDOCK:   -7.39 KCAL/MOL
REMARK 922        TOTAL FREE ENERGY PREDICTED BY IDOCK:  -10.56 KCAL/MOL
REMARK 923 INTER-LIGAND FREE ENERGY PREDICTED BY IDOCK:   -8.90 KCAL/MOL
REMARK 924 INTRA-LIGAND FREE ENERGY PREDICTED BY IDOCK:   -1.66 KCAL/MOL
REMARK 927      BINDING AFFINITY PREDICTED BY RF-SCORE:    0.00 PKD
ROOT
HETATM    1  C   UNL     1      -9.148  20.250  66.099  1.00  0.00    -0.132 C  
HETATM    2  C   UNL     1     -10.364  19.335  65.870  1.00  0.00    -0.421 C  
HETATM    3  C   UNL     1      -7.823  19.638  65.665  1.00  0.00    -0.072 C  
HETATM    4  N   UNL     1     -10.610  18.410  66.975  1.00  0.00    -0.391 NA 
HETATM    5  C   UNL     1     -10.535  18.997  68.316  1.00  0.00    -0.273 C  
HETATM    6  C   UNL     1      -8.024  19.125  68.858  1.00  0.00    -0.340 C  
HETATM    7  C   UNL     1      -9.293  19.891  68.501  1.00  0.00    -0.214 C  
HETATM    8  O   UNL     1      -9.085  20.811  67.420  1.00  0.00    -0.336 OA 
ENDROOT
BRANCH   4   9
HETATM    9  C   UNL     1     -10.319  17.065  66.836  1.00  0.00    -0.303 A  
HETATM   10  C   UNL     1     -10.198  16.287  67.984  1.00  0.00    -0.256 A  
HETATM   11  C   UNL     1      -9.879  14.934  67.896  1.00  0.00    -0.214 A  
HETATM   12  C   UNL     1      -9.671  14.350  66.654  1.00  0.00    -0.278 A  
HETATM   13  N   UNL     1     -10.168  16.509  65.616  1.00  0.00    -0.535 NA 
HETATM   14  C   UNL     1      -9.830  15.189  65.555  1.00  0.00    -0.321 A  
BRANCH  12  15
HETATM   15  N   UNL     1      -9.285  12.994  66.488  1.00  0.00    -0.379 N  
HETATM   16  C   UNL     1     -10.173  11.924  66.468  1.00  0.00    -0.203 C  
HETATM   17  H   UNL     1      -8.292  12.791  66.375  1.00  0.00     0.000 HD 
HETATM   18  O   UNL     1     -11.393  12.044  66.447  1.00  0.00    -0.325 OA 
BRANCH  16  19
HETATM   19  C   UNL     1      -9.617  10.533  66.385  1.00  0.00    -0.220 A  
HETATM   20  C   UNL     1      -9.309   9.973  65.140  1.00  0.00    -0.302 A  
HETATM   21  C   UNL     1      -8.978   8.625  65.051  1.00  0.00    -0.060 A  
HETATM   22  C   UNL     1      -9.061   7.808  66.180  1.00  0.00    -0.199 A  
HETATM   23  C   UNL     1      -9.399   8.317  67.453  1.00  0.00    -0.171 A  
HETATM   24  C   UNL     1      -9.626  10.398  68.920  1.00  0.00    -0.197 C  
HETATM   25  C   UNL     1      -9.551   9.728  67.564  1.00  0.00    -0.178 A  
BRANCH  23  26
HETATM   26  C   UNL     1      -9.667   7.361  68.572  1.00  0.00    -0.152 A  
HETATM   27  C   UNL     1     -10.966   6.938  68.903  1.00  0.00    -0.217 A  
HETATM   28  C   UNL     1     -11.202   6.093  69.998  1.00  0.00    -0.471 A  
HETATM   29  C   UNL     1     -10.150   5.609  70.777  1.00  0.00    -0.209 A  
HETATM   30  C   UNL     1      -8.860   6.044  70.501  1.00  0.00    -0.146 A  
HETATM   31  C   UNL     1      -8.635   6.916  69.425  1.00  0.00    -0.133 A  
BRANCH  29  32
HETATM   32  O   UNL     1     -10.522   4.778  71.788  1.00  0.00    -0.186 OA 
HETATM   33  C   UNL     1     -11.032   5.340  72.989  1.00  0.00    -0.298 C  
HETATM   34  F   UNL     1     -12.358   5.099  73.074  1.00  0.00    -0.323 F  
HETATM   35  F   UNL     1     -10.818   6.667  73.112  1.00  0.00    -0.238 F  
HETATM   36  F   UNL     1     -10.428   4.727  74.032  1.00  0.00    -0.204 F  
ENDBRANCH  29  32
ENDBRANCH  23  26
ENDBRANCH  16  19
ENDBRANCH  12  15
ENDBRANCH   4   9
TORSDOF 5
ENDMDL
MODEL       13
REMARK 921   NORMALIZED FREE ENERGY PREDICTED BY IDOCK:   -7.28 KCAL/MOL
REMARK 922        TOTAL FREE ENERGY PREDICTED BY IDOCK:  -10.42 KCAL/MOL
REMARK 923 INTER-LIGAND FREE ENERGY PREDICTED BY IDOCK:   -8.89 KCAL/MOL
REMARK 924 INTRA-LIGAND FREE ENERGY PREDICTED BY IDOCK:   -1.52 KCAL/MOL
REMARK 927      BINDING AFFINITY PREDICTED BY RF-SCORE:    0.00 PKD
ROOT
HETATM    1  C   UNL     1      -8.950   2.295  66.401  1.00  0.00    -0.109 C  
HETATM    2  C   UNL     1      -9.659   3.305  65.483  1.00  0.00    -0.052 C  
HETATM    3  C   UNL     1      -9.186   2.537  67.887  1.00  0.00    -0.250 C  
HETATM    4  N   UNL     1      -8.882   4.520  65.247  1.00  0.00    -0.134 NA 
HETATM    5  C   UNL     1      -7.465   4.311  64.939  1.00  0.00    -0.073 C  
HETATM    6  C   UNL     1      -6.331   3.913  67.214  1.00  0.00    -0.037 C  
HETATM    7  C   UNL     1      -6.795   3.304  65.896  1.00  0.00    -0.052 C  
HETATM    8  O   UNL     1      -7.560   2.107  66.092  1.00  0.00    -0.065 OA 
ENDROOT
BRANCH   4   9
HETATM    9  C   UNL     1      -9.248   5.711  65.850  1.00  0.00    -0.132 A  
HETATM   10  C   UNL     1     -10.419   5.744  66.603  1.00  0.00    -0.330 A  
HETATM   11  C   UNL     1     -10.843   6.925  67.206  1.00  0.00    -0.426 A  
HETATM   12  C   UNL     1     -10.099   8.087  67.054  1.00  0.00    -0.279 A  
HETATM   13  N   UNL     1      -8.484   6.815  65.728  1.00  0.00    -0.146 NA 
HETATM   14  C   UNL     1      -8.932   7.967  66.305  1.00  0.00    -0.171 A  
BRANCH  12  15
HETATM   15  N   UNL     1     -10.497   9.341  67.589  1.00  0.00    -0.253 N  
HETATM   16  C   UNL     1     -10.082   9.834  68.820  1.00  0.00    -0.174 C  
HETATM   17  H   UNL     1     -11.129   9.917  67.033  1.00  0.00     0.000 HD 
HETATM   18  O   UNL     1      -9.217   9.311  69.514  1.00  0.00    -0.150 OA 
BRANCH  16  19
HETATM   19  C   UNL     1     -10.662  11.131  69.305  1.00  0.00    -0.241 A  
HETATM   20  C   UNL     1     -11.793  11.129  70.130  1.00  0.00    -0.449 A  
HETATM   21  C   UNL     1     -12.440  12.325  70.419  1.00  0.00    -0.221 A  
HETATM   22  C   UNL     1     -12.031  13.508  69.801  1.00  0.00    -0.405 A  
HETATM   23  C   UNL     1     -10.918  13.559  68.936  1.00  0.00    -0.286 A  
HETATM   24  C   UNL     1      -8.793  12.385  68.131  1.00  0.00    -0.191 C  
HETATM   25  C   UNL     1     -10.155  12.365  68.797  1.00  0.00    -0.068 A  
BRANCH  23  26
HETATM   26  C   UNL     1     -10.659  14.807  68.153  1.00  0.00    -0.241 A  
HETATM   27  C   UNL     1     -11.051  14.946  66.810  1.00  0.00    -0.335 A  
HETATM   28  C   UNL     1     -10.741  16.099  66.074  1.00  0.00    -0.245 A  
HETATM   29  C   UNL     1     -10.065  17.170  66.661  1.00  0.00    -0.306 A  
HETATM   30  C   UNL     1      -9.627  17.045  67.973  1.00  0.00    -0.260 A  
HETATM   31  C   UNL     1      -9.912  15.874  68.692  1.00  0.00    -0.214 A  
BRANCH  29  32
HETATM   32  O   UNL     1      -9.854  18.233  65.838  1.00  0.00    -0.527 OA 
HETATM   33  C   UNL     1     -10.351  19.508  66.219  1.00  0.00    -0.506 C  
HETATM   34  F   UNL     1      -9.322  20.309  66.569  1.00  0.00    -0.427 F  
HETATM   35  F   UNL     1     -11.244  19.473  67.230  1.00  0.00    -0.580 F  
HETATM   36  F   UNL     1     -10.964  20.060  65.147  1.00  0.00    -0.559 F  
ENDBRANCH  29  32
ENDBRANCH  23  26
ENDBRANCH  16  19
ENDBRANCH  12  15
ENDBRANCH   4   9
TORSDOF 5
ENDMDL
MODEL       14
REMARK 921   NORMALIZED FREE ENERGY PREDICTED BY IDOCK:   -7.17 KCAL/MOL
REMARK 922        TOTAL FREE ENERGY PREDICTED BY IDOCK:  -10.29 KCAL/MOL
REMARK 923 INTER-LIGAND FREE ENERGY PREDICTED BY IDOCK:   -8.77 KCAL/MOL
REMARK 924 INTRA-LIGAND FREE ENERGY PREDICTED BY IDOCK:   -1.52 KCAL/MOL
REMARK 927      BINDING AFFINITY PREDICTED BY RF-SCORE:    0.00 PKD
ROOT
HETATM    1  C   UNL     1      -7.096   3.837  65.446  1.00  0.00    -0.066 C  
HETATM    2  C   UNL     1      -7.024   3.979  66.976  1.00  0.00    -0.063 C  
HETATM    3  C   UNL     1      -7.132   5.166  64.703  1.00  0.00    -0.054 C  
HETATM    4  N   UNL     1      -8.335   4.118  67.609  1.00  0.00    -0.097 NA 
HETATM    5  C   UNL     1      -9.364   3.189  67.133  1.00  0.00    -0.165 C  
HETATM    6  C   UNL     1     -10.217   4.200  64.926  1.00  0.00    -0.218 C  
HETATM    7  C   UNL     1      -9.408   3.093  65.595  1.00  0.00    -0.112 C  
HETATM    8  O   UNL     1      -8.115   2.930  64.996  1.00  0.00    -0.085 OA 
ENDROOT
BRANCH   4   9
HETATM    9  C   UNL     1      -8.743   5.342  68.108  1.00  0.00    -0.102 A  
HETATM   10  C   UNL     1     -10.059   5.480  68.541  1.00  0.00    -0.240 A  
HETATM   11  C   UNL     1     -10.523   6.700  69.025  1.00  0.00    -0.243 A  
HETATM   12  C   UNL     1      -9.672   7.796  69.074  1.00  0.00    -0.157 A  
HETATM   13  N   UNL     1      -7.885   6.379  68.190  1.00  0.00    -0.104 NA 
HETATM   14  C   UNL     1      -8.368   7.571  68.643  1.00  0.00    -0.129 A  
BRANCH  12  15
HETATM   15  N   UNL     1     -10.089   9.085  69.499  1.00  0.00    -0.191 N  
HETATM   16  C   UNL     1     -10.633  10.049  68.658  1.00  0.00    -0.212 C  
HETATM   17  H   UNL     1      -9.982   9.320  70.486  1.00  0.00     0.000 HD 
HETATM   18  O   UNL     1     -10.946   9.844  67.491  1.00  0.00    -0.282 OA 
BRANCH  16  19
HETATM   19  C   UNL     1     -10.936  11.406  69.224  1.00  0.00    -0.282 A  
HETATM   20  C   UNL     1     -11.969  11.563  70.154  1.00  0.00    -0.452 A  
HETATM   21  C   UNL     1     -12.373  12.840  70.529  1.00  0.00    -0.355 A  
HETATM   22  C   UNL     1     -11.827  13.959  69.898  1.00  0.00    -0.394 A  
HETATM   23  C   UNL     1     -10.806  13.854  68.930  1.00  0.00    -0.278 A  
HETATM   24  C   UNL     1      -8.997  12.370  67.899  1.00  0.00    -0.184 C  
HETATM   25  C   UNL     1     -10.274  12.555  68.693  1.00  0.00    -0.166 A  
BRANCH  23  26
HETATM   26  C   UNL     1     -10.412  15.069  68.151  1.00  0.00    -0.245 A  
HETATM   27  C   UNL     1      -9.681  16.124  68.723  1.00  0.00    -0.233 A  
HETATM   28  C   UNL     1      -9.378  17.283  67.994  1.00  0.00    -0.264 A  
HETATM   29  C   UNL     1      -9.758  17.415  66.658  1.00  0.00    -0.290 A  
HETATM   30  C   UNL     1     -10.518  16.408  66.077  1.00  0.00    -0.333 A  
HETATM   31  C   UNL     1     -10.846  15.266  66.823  1.00  0.00    -0.312 A  
BRANCH  29  32
HETATM   32  O   UNL     1      -9.375  18.580  66.067  1.00  0.00    -0.496 OA 
HETATM   33  C   UNL     1     -10.057  19.780  66.402  1.00  0.00    -0.491 C  
HETATM   34  F   UNL     1      -9.251  20.564  67.150  1.00  0.00    -0.453 F  
HETATM   35  F   UNL     1     -11.218  19.589  67.061  1.00  0.00    -0.558 F  
HETATM   36  F   UNL     1     -10.337  20.440  65.256  1.00  0.00    -0.466 F  
ENDBRANCH  29  32
ENDBRANCH  23  26
ENDBRANCH  16  19
ENDBRANCH  12  15
ENDBRANCH   4   9
TORSDOF 5
ENDMDL
MODEL       15
REMARK 921   NORMALIZED FREE ENERGY PREDICTED BY IDOCK:   -7.12 KCAL/MOL
REMARK 922        TOTAL FREE ENERGY PREDICTED BY IDOCK:  -10.21 KCAL/MOL
REMARK 923 INTER-LIGAND FREE ENERGY PREDICTED BY IDOCK:   -9.05 KCAL/MOL
REMARK 924 INTRA-LIGAND FREE ENERGY PREDICTED BY IDOCK:   -1.16 KCAL/MOL
REMARK 927      BINDING AFFINITY PREDICTED BY RF-SCORE:    0.00 PKD
ROOT
HETATM    1  C   UNL     1      -9.183   3.569  70.624  1.00  0.00    -0.137 C  
HETATM    2  C   UNL     1      -9.130   3.669  69.090  1.00  0.00    -0.137 C  
HETATM    3  C   UNL     1     -10.237   4.461  71.266  1.00  0.00    -0.137 C  
HETATM    4  N   UNL     1      -8.278   4.755  68.608  1.00  0.00    -0.083 NA 
HETATM    5  C   UNL     1      -6.976   4.874  69.269  1.00  0.00    -0.051 C  
HETATM    6  C   UNL     1      -7.451   6.100  71.481  1.00  0.00    -0.094 C  
HETATM    7  C   UNL     1      -7.082   4.783  70.805  1.00  0.00    -0.044 C  
HETATM    8  O   UNL     1      -7.900   3.695  71.258  1.00  0.00    -0.057 OA 
ENDROOT
BRANCH   4   9
HETATM    9  C   UNL     1      -8.842   5.899  68.071  1.00  0.00    -0.109 A  
HETATM   10  C   UNL     1      -8.084   7.066  68.043  1.00  0.00    -0.119 A  
HETATM   11  C   UNL     1      -8.617   8.248  67.538  1.00  0.00    -0.129 A  
HETATM   12  C   UNL     1      -9.921   8.273  67.062  1.00  0.00    -0.255 A  
HETATM   13  N   UNL     1     -10.095   5.887  67.572  1.00  0.00    -0.148 NA 
HETATM   14  C   UNL     1     -10.606   7.062  67.107  1.00  0.00    -0.341 A  
BRANCH  12  15
HETATM   15  N   UNL     1     -10.554   9.453  66.588  1.00  0.00    -0.157 N  
HETATM   16  C   UNL     1     -10.137  10.170  65.473  1.00  0.00    -0.268 C  
HETATM   17  H   UNL     1     -11.367   9.797  67.099  1.00  0.00     0.000 HD 
HETATM   18  O   UNL     1      -9.271   9.787  64.694  1.00  0.00    -0.236 OA 
BRANCH  16  19
HETATM   19  C   UNL     1     -10.838  11.456  65.144  1.00  0.00    -0.302 A  
HETATM   20  C   UNL     1     -11.522  11.592  63.931  1.00  0.00    -0.433 A  
HETATM   21  C   UNL     1     -12.003  12.839  63.545  1.00  0.00    -0.633 A  
HETATM   22  C   UNL     1     -11.710  13.969  64.310  1.00  0.00    -0.388 A  
HETATM   23  C   UNL     1     -10.997  13.890  65.525  1.00  0.00    -0.302 A  
HETATM   24  C   UNL     1     -10.171  12.377  67.414  1.00  0.00    -0.215 C  
HETATM   25  C   UNL     1     -10.673  12.588  65.999  1.00  0.00    -0.292 A  
BRANCH  23  26
HETATM   26  C   UNL     1     -10.543  15.153  66.187  1.00  0.00    -0.318 A  
HETATM   27  C   UNL     1      -9.431  15.882  65.732  1.00  0.00    -0.316 A  
HETATM   28  C   UNL     1      -8.983  17.027  66.406  1.00  0.00    -0.308 A  
HETATM   29  C   UNL     1      -9.649  17.509  67.534  1.00  0.00    -0.265 A  
HETATM   30  C   UNL     1     -10.725  16.786  68.032  1.00  0.00    -0.355 A  
HETATM   31  C   UNL     1     -11.147  15.622  67.372  1.00  0.00    -0.260 A  
BRANCH  29  32
HETATM   32  O   UNL     1      -9.121  18.642  68.070  1.00  0.00    -0.291 OA 
HETATM   33  C   UNL     1      -9.762  19.885  67.823  1.00  0.00    -0.392 C  
HETATM   34  F   UNL     1     -10.361  20.317  68.954  1.00  0.00    -0.528 F  
HETATM   35  F   UNL     1     -10.674  19.848  66.830  1.00  0.00    -0.542 F  
HETATM   36  F   UNL     1      -8.815  20.788  67.480  1.00  0.00    -0.407 F  
ENDBRANCH  29  32
ENDBRANCH  23  26
ENDBRANCH  16  19
ENDBRANCH  12  15
ENDBRANCH   4   9
TORSDOF 5
ENDMDL
MODEL       16
REMARK 921   NORMALIZED FREE ENERGY PREDICTED BY IDOCK:   -7.10 KCAL/MOL
REMARK 922        TOTAL FREE ENERGY PREDICTED BY IDOCK:  -10.18 KCAL/MOL
REMARK 923 INTER-LIGAND FREE ENERGY PREDICTED BY IDOCK:   -8.84 KCAL/MOL
REMARK 924 INTRA-LIGAND FREE ENERGY PREDICTED BY IDOCK:   -1.35 KCAL/MOL
REMARK 927      BINDING AFFINITY PREDICTED BY RF-SCORE:    0.00 PKD
ROOT
HETATM    1  C   UNL     1      -9.768  19.952  66.471  1.00  0.00    -0.433 C  
HETATM    2  C   UNL     1      -9.975  19.740  67.980  1.00  0.00    -0.433 C  
HETATM    3  C   UNL     1     -10.525  18.959  65.597  1.00  0.00    -0.193 C  
HETATM    4  N   UNL     1      -9.052  18.767  68.562  1.00  0.00    -0.334 NA 
HETATM    5  C   UNL     1      -7.651  18.906  68.154  1.00  0.00    -0.277 C  
HETATM    6  C   UNL     1      -7.509  17.799  65.836  1.00  0.00    -0.200 C  
HETATM    7  C   UNL     1      -7.495  19.100  66.632  1.00  0.00    -0.234 C  
HETATM    8  O   UNL     1      -8.390  20.079  66.086  1.00  0.00    -0.337 OA 
ENDROOT
BRANCH   4   9
HETATM    9  C   UNL     1      -9.502  17.510  68.925  1.00  0.00    -0.189 A  
HETATM   10  C   UNL     1     -10.865  17.326  69.139  1.00  0.00     0.017 A  
HETATM   11  C   UNL     1     -11.362  16.087  69.532  1.00  0.00    -0.344 A  
HETATM   12  C   UNL     1     -10.494  15.021  69.723  1.00  0.00    -0.186 A  
HETATM   13  N   UNL     1      -8.645  16.477  69.059  1.00  0.00    -0.237 NA 
HETATM   14  C   UNL     1      -9.150  15.280  69.471  1.00  0.00    -0.187 A  
BRANCH  12  15
HETATM   15  N   UNL     1     -10.918  13.745  70.181  1.00  0.00    -0.307 N  
HETATM   16  C   UNL     1     -11.764  12.900  69.471  1.00  0.00    -0.323 C  
HETATM   17  H   UNL     1     -10.580  13.427  71.089  1.00  0.00     0.000 HD 
HETATM   18  O   UNL     1     -12.121  13.098  68.315  1.00  0.00    -0.317 OA 
BRANCH  16  19
HETATM   19  C   UNL     1     -12.211  11.623  70.121  1.00  0.00    -0.367 A  
HETATM   20  C   UNL     1     -13.046  11.661  71.244  1.00  0.00    -0.254 A  
HETATM   21  C   UNL     1     -13.301  10.494  71.956  1.00  0.00    -0.420 A  
HETATM   22  C   UNL     1     -12.640   9.312  71.619  1.00  0.00    -0.446 A  
HETATM   23  C   UNL     1     -11.764   9.227  70.516  1.00  0.00    -0.225 A  
HETATM   24  C   UNL     1     -10.981  10.305  68.334  1.00  0.00    -0.308 C  
HETATM   25  C   UNL     1     -11.658  10.379  69.687  1.00  0.00    -0.307 A  
BRANCH  23  26
HETATM   26  C   UNL     1     -10.938   7.993  70.334  1.00  0.00    -0.248 A  
HETATM   27  C   UNL     1     -11.442   6.837  69.714  1.00  0.00    -0.319 A  
HETATM   28  C   UNL     1     -10.673   5.668  69.611  1.00  0.00    -0.398 A  
HETATM   29  C   UNL     1      -9.362   5.623  70.088  1.00  0.00    -0.154 A  
HETATM   30  C   UNL     1      -8.851   6.736  70.744  1.00  0.00    -0.150 A  
HETATM   31  C   UNL     1      -9.639   7.890  70.872  1.00  0.00    -0.172 A  
BRANCH  29  32
HETATM   32  O   UNL     1      -8.725   4.435  69.899  1.00  0.00    -0.071 OA 
HETATM   33  C   UNL     1      -8.941   3.382  70.826  1.00  0.00    -0.095 C  
HETATM   34  F   UNL     1      -9.689   2.417  70.249  1.00  0.00    -0.198 F  
HETATM   35  F   UNL     1      -9.536   3.770  71.974  1.00  0.00    -0.151 F  
HETATM   36  F   UNL     1      -7.741   2.847  71.145  1.00  0.00    -0.042 F  
ENDBRANCH  29  32
ENDBRANCH  23  26
ENDBRANCH  16  19
ENDBRANCH  12  15
ENDBRANCH   4   9
TORSDOF 5
ENDMDL
MODEL       17
REMARK 921   NORMALIZED FREE ENERGY PREDICTED BY IDOCK:   -7.08 KCAL/MOL
REMARK 922        TOTAL FREE ENERGY PREDICTED BY IDOCK:  -10.17 KCAL/MOL
REMARK 923 INTER-LIGAND FREE ENERGY PREDICTED BY IDOCK:   -8.63 KCAL/MOL
REMARK 924 INTRA-LIGAND FREE ENERGY PREDICTED BY IDOCK:   -1.54 KCAL/MOL
REMARK 927      BINDING AFFINITY PREDICTED BY RF-SCORE:    0.00 PKD
ROOT
HETATM    1  C   UNL     1      -8.651  19.148  66.167  1.00  0.00    -0.223 C  
HETATM    2  C   UNL     1     -10.098  18.656  66.342  1.00  0.00    -0.403 C  
HETATM    3  C   UNL     1      -7.647  18.034  65.900  1.00  0.00    -0.171 C  
HETATM    4  N   UNL     1     -10.415  18.257  67.712  1.00  0.00    -0.405 NA 
HETATM    5  C   UNL     1      -9.956  19.176  68.757  1.00  0.00    -0.427 C  
HETATM    6  C   UNL     1      -7.459  18.643  69.077  1.00  0.00    -0.243 C  
HETATM    7  C   UNL     1      -8.496  19.628  68.547  1.00  0.00    -0.296 C  
HETATM    8  O   UNL     1      -8.214  20.042  67.203  1.00  0.00    -0.298 OA 
ENDROOT
BRANCH   4   9
HETATM    9  C   UNL     1     -10.548  16.918  68.035  1.00  0.00    -0.367 A  
HETATM   10  C   UNL     1     -10.802  16.008  67.013  1.00  0.00    -0.227 A  
HETATM   11  C   UNL     1     -10.971  14.655  67.293  1.00  0.00    -0.317 A  
HETATM   12  C   UNL     1     -10.894  14.202  68.603  1.00  0.00    -0.255 A  
HETATM   13  N   UNL     1     -10.422  16.496  69.310  1.00  0.00    -0.306 NA 
HETATM   14  C   UNL     1     -10.617  15.171  69.564  1.00  0.00    -0.270 A  
BRANCH  12  15
HETATM   15  N   UNL     1     -11.113  12.849  68.973  1.00  0.00    -0.329 N  
HETATM   16  C   UNL     1     -10.175  11.834  68.824  1.00  0.00    -0.160 C  
HETATM   17  H   UNL     1     -12.019  12.605  69.374  1.00  0.00     0.000 HD 
HETATM   18  O   UNL     1      -9.009  12.020  68.493  1.00  0.00    -0.171 OA 
BRANCH  16  19
HETATM   19  C   UNL     1     -10.579  10.429  69.163  1.00  0.00    -0.255 A  
HETATM   20  C   UNL     1     -10.884  10.087  70.485  1.00  0.00    -0.380 A  
HETATM   21  C   UNL     1     -11.068   8.752  70.829  1.00  0.00    -0.306 A  
HETATM   22  C   UNL     1     -10.841   7.749  69.885  1.00  0.00    -0.228 A  
HETATM   23  C   UNL     1     -10.499   8.039  68.547  1.00  0.00    -0.200 A  
HETATM   24  C   UNL     1     -10.430   9.812  66.705  1.00  0.00    -0.259 C  
HETATM   25  C   UNL     1     -10.497   9.411  68.165  1.00  0.00    -0.267 A  
BRANCH  23  26
HETATM   26  C   UNL     1     -10.073   6.925  67.645  1.00  0.00    -0.204 A  
HETATM   27  C   UNL     1      -8.726   6.702  67.310  1.00  0.00    -0.118 A  
HETATM   28  C   UNL     1      -8.354   5.692  66.411  1.00  0.00    -0.112 A  
HETATM   29  C   UNL     1      -9.305   4.844  65.844  1.00  0.00    -0.159 A  
HETATM   30  C   UNL     1     -10.647   5.066  66.122  1.00  0.00    -0.321 A  
HETATM   31  C   UNL     1     -11.015   6.100  66.996  1.00  0.00    -0.414 A  
BRANCH  29  32
HETATM   32  O   UNL     1      -8.800   3.893  65.011  1.00  0.00    -0.119 OA 
HETATM   33  C   UNL     1      -8.727   2.549  65.463  1.00  0.00    -0.119 C  
HETATM   34  F   UNL     1      -9.650   1.804  64.818  1.00  0.00    -0.137 F  
HETATM   35  F   UNL     1      -8.898   2.404  66.794  1.00  0.00    -0.105 F  
HETATM   36  F   UNL     1      -7.504   2.064  65.150  1.00  0.00    -0.059 F  
ENDBRANCH  29  32
ENDBRANCH  23  26
ENDBRANCH  16  19
ENDBRANCH  12  15
ENDBRANCH   4   9
TORSDOF 5
ENDMDL
MODEL       18
REMARK 921   NORMALIZED FREE ENERGY PREDICTED BY IDOCK:   -7.06 KCAL/MOL
REMARK 922        TOTAL FREE ENERGY PREDICTED BY IDOCK:  -10.14 KCAL/MOL
REMARK 923 INTER-LIGAND FREE ENERGY PREDICTED BY IDOCK:   -8.98 KCAL/MOL
REMARK 924 INTRA-LIGAND FREE ENERGY PREDICTED BY IDOCK:   -1.15 KCAL/MOL
REMARK 927      BINDING AFFINITY PREDICTED BY RF-SCORE:    0.00 PKD
ROOT
HETATM    1  C   UNL     1     -10.133   4.154  72.685  1.00  0.00    -0.165 C  
HETATM    2  C   UNL     1     -10.074   3.982  71.158  1.00  0.00    -0.041 C  
HETATM    3  C   UNL     1     -11.068   5.264  73.147  1.00  0.00    -0.384 C  
HETATM    4  N   UNL     1      -9.098   4.857  70.512  1.00  0.00    -0.126 NA 
HETATM    5  C   UNL     1      -7.788   4.928  71.166  1.00  0.00    -0.088 C  
HETATM    6  C   UNL     1      -8.101   6.565  73.126  1.00  0.00    -0.106 C  
HETATM    7  C   UNL     1      -7.899   5.117  72.692  1.00  0.00    -0.098 C  
HETATM    8  O   UNL     1      -8.842   4.230  73.310  1.00  0.00    -0.099 OA 
ENDROOT
BRANCH   4   9
HETATM    9  C   UNL     1      -9.519   5.951  69.778  1.00  0.00    -0.148 A  
HETATM   10  C   UNL     1     -10.551   5.780  68.859  1.00  0.00    -0.337 A  
HETATM   11  C   UNL     1     -10.992   6.844  68.078  1.00  0.00    -0.241 A  
HETATM   12  C   UNL     1     -10.395   8.091  68.206  1.00  0.00    -0.197 A  
HETATM   13  N   UNL     1      -8.957   7.164  69.954  1.00  0.00    -0.142 NA 
HETATM   14  C   UNL     1      -9.385   8.186  69.159  1.00  0.00    -0.151 A  
BRANCH  12  15
HETATM   15  N   UNL     1     -10.749   9.209  67.404  1.00  0.00    -0.397 N  
HETATM   16  C   UNL     1      -9.884   9.843  66.521  1.00  0.00    -0.215 C  
HETATM   17  H   UNL     1     -11.700   9.570  67.481  1.00  0.00     0.000 HD 
HETATM   18  O   UNL     1      -8.769   9.423  66.230  1.00  0.00    -0.134 OA 
BRANCH  16  19
HETATM   19  C   UNL     1     -10.361  11.076  65.811  1.00  0.00    -0.316 A  
HETATM   20  C   UNL     1     -10.661  11.028  64.445  1.00  0.00    -0.395 A  
HETATM   21  C   UNL     1     -10.915  12.205  63.750  1.00  0.00    -0.494 A  
HETATM   22  C   UNL     1     -10.764  13.439  64.386  1.00  0.00    -0.423 A  
HETATM   23  C   UNL     1     -10.432  13.544  65.754  1.00  0.00    -0.293 A  
HETATM   24  C   UNL     1     -10.294  12.345  68.008  1.00  0.00    -0.220 C  
HETATM   25  C   UNL     1     -10.357  12.331  66.494  1.00  0.00    -0.250 A  
BRANCH  23  26
HETATM   26  C   UNL     1     -10.087  14.885  66.319  1.00  0.00    -0.298 A  
HETATM   27  C   UNL     1     -11.025  15.673  67.009  1.00  0.00    -0.261 A  
HETATM   28  C   UNL     1     -10.700  16.956  67.475  1.00  0.00    -0.270 A  
HETATM   29  C   UNL     1      -9.420  17.483  67.303  1.00  0.00    -0.253 A  
HETATM   30  C   UNL     1      -8.485  16.747  66.588  1.00  0.00    -0.291 A  
HETATM   31  C   UNL     1      -8.827  15.478  66.096  1.00  0.00    -0.273 A  
BRANCH  29  32
HETATM   32  O   UNL     1      -9.238  18.726  67.827  1.00  0.00    -0.283 OA 
HETATM   33  C   UNL     1      -9.661  19.858  67.080  1.00  0.00    -0.381 C  
HETATM   34  F   UNL     1     -10.754  20.400  67.659  1.00  0.00    -0.375 F  
HETATM   35  F   UNL     1      -9.936  19.593  65.786  1.00  0.00    -0.435 F  
HETATM   36  F   UNL     1      -8.670  20.778  67.111  1.00  0.00    -0.402 F  
ENDBRANCH  29  32
ENDBRANCH  23  26
ENDBRANCH  16  19
ENDBRANCH  12  15
ENDBRANCH   4   9
TORSDOF 5
ENDMDL
MODEL       19
REMARK 921   NORMALIZED FREE ENERGY PREDICTED BY IDOCK:   -7.06 KCAL/MOL
REMARK 922        TOTAL FREE ENERGY PREDICTED BY IDOCK:  -10.13 KCAL/MOL
REMARK 923 INTER-LIGAND FREE ENERGY PREDICTED BY IDOCK:   -8.85 KCAL/MOL
REMARK 924 INTRA-LIGAND FREE ENERGY PREDICTED BY IDOCK:   -1.28 KCAL/MOL
REMARK 927      BINDING AFFINITY PREDICTED BY RF-SCORE:    0.00 PKD
ROOT
HETATM    1  C   UNL     1     -10.055  20.325  67.331  1.00  0.00    -0.394 C  
HETATM    2  C   UNL     1      -9.897  19.324  68.488  1.00  0.00    -0.424 C  
HETATM    3  C   UNL     1     -10.546  19.697  66.033  1.00  0.00    -0.584 C  
HETATM    4  N   UNL     1      -8.597  18.656  68.505  1.00  0.00    -0.338 NA 
HETATM    5  C   UNL     1      -7.439  19.528  68.294  1.00  0.00    -0.315 C  
HETATM    6  C   UNL     1      -7.324  19.896  65.750  1.00  0.00    -0.337 C  
HETATM    7  C   UNL     1      -7.638  20.501  67.115  1.00  0.00    -0.326 C  
HETATM    8  O   UNL     1      -8.908  21.167  67.132  1.00  0.00    -0.060 OA 
ENDROOT
BRANCH   4   9
HETATM    9  C   UNL     1      -8.491  17.329  68.128  1.00  0.00    -0.238 A  
HETATM   10  C   UNL     1      -8.881  16.968  66.841  1.00  0.00    -0.251 A  
HETATM   11  C   UNL     1      -8.818  15.641  66.425  1.00  0.00    -0.365 A  
HETATM   12  C   UNL     1      -8.367  14.661  67.299  1.00  0.00    -0.213 A  
HETATM   13  N   UNL     1      -8.005  16.402  68.979  1.00  0.00    -0.233 NA 
HETATM   14  C   UNL     1      -7.977  15.105  68.559  1.00  0.00    -0.142 A  
BRANCH  12  15
HETATM   15  N   UNL     1      -8.330  13.281  66.967  1.00  0.00    -0.366 N  
HETATM   16  C   UNL     1      -9.429  12.431  67.028  1.00  0.00    -0.211 C  
HETATM   17  H   UNL     1      -7.439  12.887  66.664  1.00  0.00     0.000 HD 
HETATM   18  O   UNL     1     -10.577  12.808  67.234  1.00  0.00    -0.231 OA 
BRANCH  16  19
HETATM   19  C   UNL     1      -9.223  10.972  66.745  1.00  0.00    -0.174 A  
HETATM   20  C   UNL     1      -9.269  10.498  65.429  1.00  0.00    -0.229 A  
HETATM   21  C   UNL     1      -9.271   9.129  65.187  1.00  0.00    -0.218 A  
HETATM   22  C   UNL     1      -9.339   8.230  66.253  1.00  0.00    -0.267 A  
HETATM   23  C   UNL     1      -9.327   8.657  67.598  1.00  0.00    -0.157 A  
HETATM   24  C   UNL     1      -8.823  10.569  69.219  1.00  0.00    -0.135 C  
HETATM   25  C   UNL     1      -9.137  10.048  67.831  1.00  0.00    -0.135 A  
BRANCH  23  26
HETATM   26  C   UNL     1      -9.606   7.663  68.680  1.00  0.00    -0.152 A  
HETATM   27  C   UNL     1      -8.582   7.080  69.447  1.00  0.00    -0.134 A  
HETATM   28  C   UNL     1      -8.859   6.102  70.413  1.00  0.00    -0.149 A  
HETATM   29  C   UNL     1     -10.168   5.697  70.676  1.00  0.00    -0.227 A  
HETATM   30  C   UNL     1     -11.197   6.223  69.905  1.00  0.00    -0.498 A  
HETATM   31  C   UNL     1     -10.909   7.177  68.918  1.00  0.00    -0.160 A  
BRANCH  29  32
HETATM   32  O   UNL     1     -10.292   4.760  71.655  1.00  0.00    -0.196 OA 
HETATM   33  C   UNL     1     -10.677   5.173  72.959  1.00  0.00    -0.255 C  
HETATM   34  F   UNL     1     -11.941   4.766  73.207  1.00  0.00    -0.401 F  
HETATM   35  F   UNL     1     -10.596   6.504  73.163  1.00  0.00    -0.205 F  
HETATM   36  F   UNL     1      -9.861   4.569  73.851  1.00  0.00    -0.133 F  
ENDBRANCH  29  32
ENDBRANCH  23  26
ENDBRANCH  16  19
ENDBRANCH  12  15
ENDBRANCH   4   9
TORSDOF 5
ENDMDL
MODEL       20
REMARK 921   NORMALIZED FREE ENERGY PREDICTED BY IDOCK:   -7.06 KCAL/MOL
REMARK 922        TOTAL FREE ENERGY PREDICTED BY IDOCK:  -10.13 KCAL/MOL
REMARK 923 INTER-LIGAND FREE ENERGY PREDICTED BY IDOCK:   -9.06 KCAL/MOL
REMARK 924 INTRA-LIGAND FREE ENERGY PREDICTED BY IDOCK:   -1.07 KCAL/MOL
REMARK 927      BINDING AFFINITY PREDICTED BY RF-SCORE:    0.00 PKD
ROOT
HETATM    1  C   UNL     1      -8.077  18.808  65.996  1.00  0.00    -0.112 C  
HETATM    2  C   UNL     1      -9.556  18.438  66.202  1.00  0.00    -0.187 C  
HETATM    3  C   UNL     1      -7.135  17.612  65.984  1.00  0.00    -0.318 C  
HETATM    4  N   UNL     1      -9.936  18.326  67.609  1.00  0.00    -0.323 NA 
HETATM    5  C   UNL     1      -9.452  19.402  68.479  1.00  0.00    -0.389 C  
HETATM    6  C   UNL     1      -7.003  18.806  68.993  1.00  0.00    -0.323 C  
HETATM    7  C   UNL     1      -7.962  19.726  68.246  1.00  0.00    -0.295 C  
HETATM    8  O   UNL     1      -7.617  19.859  66.860  1.00  0.00    -0.250 OA 
ENDROOT
BRANCH   4   9
HETATM    9  C   UNL     1     -10.159  17.084  68.175  1.00  0.00    -0.308 A  
HETATM   10  C   UNL     1      -9.758  15.950  67.473  1.00  0.00    -0.223 A  
HETATM   11  C   UNL     1      -9.986  14.677  67.989  1.00  0.00    -0.220 A  
HETATM   12  C   UNL     1     -10.626  14.529  69.212  1.00  0.00    -0.212 A  
HETATM   13  N   UNL     1     -10.740  16.966  69.386  1.00  0.00    -0.319 NA 
HETATM   14  C   UNL     1     -10.977  15.710  69.860  1.00  0.00    -0.318 A  
BRANCH  12  15
HETATM   15  N   UNL     1     -10.946  13.265  69.774  1.00  0.00    -0.442 N  
HETATM   16  C   UNL     1     -11.799  12.339  69.185  1.00  0.00    -0.301 C  
HETATM   17  H   UNL     1     -10.522  13.019  70.669  1.00  0.00     0.000 HD 
HETATM   18  O   UNL     1     -12.255  12.450  68.052  1.00  0.00    -0.356 OA 
BRANCH  16  19
HETATM   19  C   UNL     1     -12.128  11.084  69.939  1.00  0.00    -0.435 A  
HETATM   20  C   UNL     1     -12.896  11.149  71.108  1.00  0.00    -0.473 A  
HETATM   21  C   UNL     1     -13.036  10.019  71.906  1.00  0.00    -0.547 A  
HETATM   22  C   UNL     1     -12.324   8.856  71.604  1.00  0.00    -0.405 A  
HETATM   23  C   UNL     1     -11.510   8.750  70.455  1.00  0.00    -0.222 A  
HETATM   24  C   UNL     1     -10.924   9.725  68.166  1.00  0.00    -0.228 C  
HETATM   25  C   UNL     1     -11.524   9.849  69.551  1.00  0.00    -0.120 A  
BRANCH  23  26
HETATM   26  C   UNL     1     -10.621   7.557  70.300  1.00  0.00    -0.235 A  
HETATM   27  C   UNL     1     -11.112   6.300  69.907  1.00  0.00    -0.469 A  
HETATM   28  C   UNL     1     -10.273   5.179  69.831  1.00  0.00    -0.361 A  
HETATM   29  C   UNL     1      -8.909   5.278  70.105  1.00  0.00    -0.125 A  
HETATM   30  C   UNL     1      -8.402   6.497  70.537  1.00  0.00    -0.133 A  
HETATM   31  C   UNL     1      -9.254   7.606  70.644  1.00  0.00    -0.162 A  
BRANCH  29  32
HETATM   32  O   UNL     1      -8.211   4.118  69.965  1.00  0.00    -0.058 OA 
HETATM   33  C   UNL     1      -7.224   4.025  68.948  1.00  0.00    -0.054 C  
HETATM   34  F   UNL     1      -5.996   4.025  69.508  1.00  0.00    -0.019 F  
HETATM   35  F   UNL     1      -7.286   5.010  68.027  1.00  0.00    -0.069 F  
HETATM   36  F   UNL     1      -7.391   2.848  68.304  1.00  0.00    -0.048 F  
ENDBRANCH  29  32
ENDBRANCH  23  26
ENDBRANCH  16  19
ENDBRANCH  12  15
ENDBRANCH   4   9
TORSDOF 5
ENDMDL
MODEL       21
REMARK 921   NORMALIZED FREE ENERGY PREDICTED BY IDOCK:   -7.03 KCAL/MOL
REMARK 922        TOTAL FREE ENERGY PREDICTED BY IDOCK:  -10.09 KCAL/MOL
REMARK 923 INTER-LIGAND FREE ENERGY PREDICTED BY IDOCK:   -8.66 KCAL/MOL
REMARK 924 INTRA-LIGAND FREE ENERGY PREDICTED BY IDOCK:   -1.43 KCAL/MOL
REMARK 927      BINDING AFFINITY PREDICTED BY RF-SCORE:    0.00 PKD
ROOT
HETATM    1  C   UNL     1      -9.684   4.246  67.533  1.00  0.00    -0.148 C  
HETATM    2  C   UNL     1     -10.519   5.236  66.703  1.00  0.00    -0.290 C  
HETATM    3  C   UNL     1      -9.586   4.604  69.010  1.00  0.00    -0.242 C  
HETATM    4  N   UNL     1      -9.749   6.377  66.213  1.00  0.00    -0.088 NA 
HETATM    5  C   UNL     1      -8.442   6.052  65.635  1.00  0.00    -0.151 C  
HETATM    6  C   UNL     1      -6.872   5.736  67.649  1.00  0.00    -0.060 C  
HETATM    7  C   UNL     1      -7.636   5.070  66.509  1.00  0.00    -0.088 C  
HETATM    8  O   UNL     1      -8.403   3.943  66.957  1.00  0.00    -0.099 OA 
ENDROOT
BRANCH   4   9
HETATM    9  C   UNL     1      -9.917   7.628  66.781  1.00  0.00    -0.247 A  
HETATM   10  C   UNL     1      -9.483   8.745  66.073  1.00  0.00    -0.302 A  
HETATM   11  C   UNL     1      -9.605  10.021  66.614  1.00  0.00    -0.234 A  
HETATM   12  C   UNL     1     -10.159  10.189  67.876  1.00  0.00    -0.176 A  
HETATM   13  N   UNL     1     -10.501   7.769  67.988  1.00  0.00    -0.204 NA 
HETATM   14  C   UNL     1     -10.587   9.026  68.511  1.00  0.00    -0.155 A  
BRANCH  12  15
HETATM   15  N   UNL     1     -10.263  11.451  68.518  1.00  0.00    -0.202 N  
HETATM   16  C   UNL     1     -11.164  12.444  68.153  1.00  0.00    -0.265 C  
HETATM   17  H   UNL     1      -9.635  11.643  69.299  1.00  0.00     0.000 HD 
HETATM   18  O   UNL     1     -12.063  12.288  67.334  1.00  0.00    -0.533 OA 
BRANCH  16  19
HETATM   19  C   UNL     1     -11.095  13.769  68.854  1.00  0.00    -0.300 A  
HETATM   20  C   UNL     1     -12.071  14.116  69.796  1.00  0.00    -0.409 A  
HETATM   21  C   UNL     1     -12.116  15.412  70.299  1.00  0.00    -0.402 A  
HETATM   22  C   UNL     1     -11.263  16.391  69.787  1.00  0.00    -0.252 A  
HETATM   23  C   UNL     1     -10.283  16.101  68.813  1.00  0.00    -0.238 A  
HETATM   24  C   UNL     1      -8.927  14.280  67.636  1.00  0.00    -0.194 C  
HETATM   25  C   UNL     1     -10.126  14.735  68.445  1.00  0.00    -0.225 A  
BRANCH  23  26
HETATM   26  C   UNL     1      -9.545  17.228  68.163  1.00  0.00    -0.283 A  
HETATM   27  C   UNL     1      -8.331  17.722  68.670  1.00  0.00    -0.274 A  
HETATM   28  C   UNL     1      -7.689  18.822  68.084  1.00  0.00    -0.310 A  
HETATM   29  C   UNL     1      -8.212  19.444  66.949  1.00  0.00    -0.281 A  
HETATM   30  C   UNL     1      -9.431  19.005  66.451  1.00  0.00    -0.375 A  
HETATM   31  C   UNL     1     -10.085  17.925  67.063  1.00  0.00    -0.340 A  
BRANCH  29  32
HETATM   32  O   UNL     1      -7.470  20.481  66.472  1.00  0.00    -0.253 OA 
HETATM   33  C   UNL     1      -6.560  20.244  65.408  1.00  0.00    -0.277 C  
HETATM   34  F   UNL     1      -7.030  20.811  64.276  1.00  0.00    -0.297 F  
HETATM   35  F   UNL     1      -6.310  18.939  65.175  1.00  0.00    -0.271 F  
HETATM   36  F   UNL     1      -5.385  20.839  65.717  1.00  0.00    -0.198 F  
ENDBRANCH  29  32
ENDBRANCH  23  26
ENDBRANCH  16  19
ENDBRANCH  12  15
ENDBRANCH   4   9
TORSDOF 5
ENDMDL
MODEL       22
REMARK 921   NORMALIZED FREE ENERGY PREDICTED BY IDOCK:   -7.01 KCAL/MOL
REMARK 922        TOTAL FREE ENERGY PREDICTED BY IDOCK:  -10.08 KCAL/MOL
REMARK 923 INTER-LIGAND FREE ENERGY PREDICTED BY IDOCK:   -8.78 KCAL/MOL
REMARK 924 INTRA-LIGAND FREE ENERGY PREDICTED BY IDOCK:   -1.30 KCAL/MOL
REMARK 927      BINDING AFFINITY PREDICTED BY RF-SCORE:    0.00 PKD
ROOT
HETATM    1  C   UNL     1      -7.954  17.903  67.031  1.00  0.00    -0.216 C  
HETATM    2  C   UNL     1      -8.180  16.685  66.119  1.00  0.00    -0.260 C  
HETATM    3  C   UNL     1      -7.797  17.551  68.505  1.00  0.00    -0.274 C  
HETATM    4  N   UNL     1      -9.583  16.293  66.012  1.00  0.00    -0.339 NA 
HETATM    5  C   UNL     1     -10.530  17.392  65.803  1.00  0.00    -0.215 C  
HETATM    6  C   UNL     1     -10.896  18.420  68.133  1.00  0.00    -0.081 C  
HETATM    7  C   UNL     1     -10.273  18.581  66.750  1.00  0.00    -0.393 C  
HETATM    8  O   UNL     1      -8.894  18.968  66.820  1.00  0.00    -0.288 OA 
ENDROOT
BRANCH   4   9
HETATM    9  C   UNL     1     -10.040  15.153  66.650  1.00  0.00    -0.264 A  
HETATM   10  C   UNL     1     -11.408  14.899  66.663  1.00  0.00    -0.326 A  
HETATM   11  C   UNL     1     -11.918  13.780  67.315  1.00  0.00    -0.436 A  
HETATM   12  C   UNL     1     -11.058  12.907  67.968  1.00  0.00    -0.253 A  
HETATM   13  N   UNL     1      -9.181  14.295  67.237  1.00  0.00    -0.205 NA 
HETATM   14  C   UNL     1      -9.703  13.220  67.893  1.00  0.00    -0.224 A  
BRANCH  12  15
HETATM   15  N   UNL     1     -11.507  11.779  68.705  1.00  0.00    -0.263 N  
HETATM   16  C   UNL     1     -11.915  11.823  70.033  1.00  0.00    -0.344 C  
HETATM   17  H   UNL     1     -11.531  10.877  68.229  1.00  0.00     0.000 HD 
HETATM   18  O   UNL     1     -12.070  12.859  70.670  1.00  0.00    -0.349 OA 
BRANCH  16  19
HETATM   19  C   UNL     1     -12.269  10.535  70.717  1.00  0.00    -0.468 A  
HETATM   20  C   UNL     1     -13.528  10.377  71.308  1.00  0.00    -0.207 A  
HETATM   21  C   UNL     1     -13.784   9.266  72.103  1.00  0.00    -0.517 A  
HETATM   22  C   UNL     1     -12.758   8.368  72.402  1.00  0.00    -0.346 A  
HETATM   23  C   UNL     1     -11.462   8.500  71.858  1.00  0.00    -0.405 A  
HETATM   24  C   UNL     1     -10.012   9.583  70.052  1.00  0.00    -0.274 C  
HETATM   25  C   UNL     1     -11.267   9.535  70.901  1.00  0.00    -0.411 A  
BRANCH  23  26
HETATM   26  C   UNL     1     -10.362   7.628  72.376  1.00  0.00    -0.292 A  
HETATM   27  C   UNL     1     -10.254   6.270  72.030  1.00  0.00    -0.214 A  
HETATM   28  C   UNL     1      -9.254   5.454  72.577  1.00  0.00    -0.145 A  
HETATM   29  C   UNL     1      -8.303   5.969  73.459  1.00  0.00    -0.116 A  
HETATM   30  C   UNL     1      -8.410   7.297  73.854  1.00  0.00    -0.185 A  
HETATM   31  C   UNL     1      -9.434   8.099  73.327  1.00  0.00    -0.290 A  
BRANCH  29  32
HETATM   32  O   UNL     1      -7.377   5.071  73.892  1.00  0.00    -0.081 OA 
HETATM   33  C   UNL     1      -6.072   5.103  73.331  1.00  0.00    -0.042 C  
HETATM   34  F   UNL     1      -5.198   5.576  74.245  1.00  0.00    -0.023 F  
HETATM   35  F   UNL     1      -5.973   5.841  72.206  1.00  0.00    -0.033 F  
HETATM   36  F   UNL     1      -5.713   3.836  73.026  1.00  0.00    -0.003 F  
ENDBRANCH  29  32
ENDBRANCH  23  26
ENDBRANCH  16  19
ENDBRANCH  12  15
ENDBRANCH   4   9
TORSDOF 5
ENDMDL
MODEL       23
REMARK 921   NORMALIZED FREE ENERGY PREDICTED BY IDOCK:   -7.00 KCAL/MOL
REMARK 922        TOTAL FREE ENERGY PREDICTED BY IDOCK:  -10.06 KCAL/MOL
REMARK 923 INTER-LIGAND FREE ENERGY PREDICTED BY IDOCK:   -9.16 KCAL/MOL
REMARK 924 INTRA-LIGAND FREE ENERGY PREDICTED BY IDOCK:   -0.90 KCAL/MOL
REMARK 927      BINDING AFFINITY PREDICTED BY RF-SCORE:    0.00 PKD
ROOT
HETATM    1  C   UNL     1      -6.246   2.691  64.754  1.00  0.00    -0.019 C  
HETATM    2  C   UNL     1      -7.732   2.951  64.453  1.00  0.00    -0.077 C  
HETATM    3  C   UNL     1      -5.901   2.718  66.238  1.00  0.00    -0.023 C  
HETATM    4  N   UNL     1      -8.063   4.370  64.342  1.00  0.00    -0.094 NA 
HETATM    5  C   UNL     1      -7.132   5.173  63.544  1.00  0.00    -0.048 C  
HETATM    6  C   UNL     1      -5.146   5.659  65.106  1.00  0.00    -0.009 C  
HETATM    7  C   UNL     1      -5.657   4.889  63.893  1.00  0.00    -0.017 C  
HETATM    8  O   UNL     1      -5.347   3.491  63.969  1.00  0.00    -0.008 OA 
ENDROOT
BRANCH   4   9
HETATM    9  C   UNL     1      -8.767   5.003  65.351  1.00  0.00    -0.146 A  
HETATM   10  C   UNL     1      -9.610   4.240  66.155  1.00  0.00    -0.199 A  
HETATM   11  C   UNL     1     -10.360   4.836  67.165  1.00  0.00    -0.140 A  
HETATM   12  C   UNL     1     -10.278   6.206  67.373  1.00  0.00    -0.184 A  
HETATM   13  N   UNL     1      -8.635   6.328  65.565  1.00  0.00    -0.144 NA 
HETATM   14  C   UNL     1      -9.399   6.895  66.542  1.00  0.00    -0.158 A  
BRANCH  12  15
HETATM   15  N   UNL     1     -11.055   6.894  68.342  1.00  0.00    -0.496 N  
HETATM   16  C   UNL     1     -10.891   6.761  69.716  1.00  0.00    -0.272 C  
HETATM   17  H   UNL     1     -11.783   7.527  68.009  1.00  0.00     0.000 HD 
HETATM   18  O   UNL     1      -9.966   6.150  70.241  1.00  0.00    -0.175 OA 
BRANCH  16  19
HETATM   19  C   UNL     1     -11.851   7.471  70.625  1.00  0.00    -0.205 A  
HETATM   20  C   UNL     1     -12.981   6.804  71.112  1.00  0.00    -0.152 A  
HETATM   21  C   UNL     1     -13.964   7.514  71.792  1.00  0.00    -0.473 A  
HETATM   22  C   UNL     1     -13.878   8.904  71.893  1.00  0.00    -0.492 A  
HETATM   23  C   UNL     1     -12.776   9.628  71.392  1.00  0.00    -0.466 A  
HETATM   24  C   UNL     1     -10.357   9.523  70.570  1.00  0.00    -0.350 C  
HETATM   25  C   UNL     1     -11.692   8.870  70.865  1.00  0.00    -0.312 A  
BRANCH  23  26
HETATM   26  C   UNL     1     -12.842  11.122  71.351  1.00  0.00    -0.544 A  
HETATM   27  C   UNL     1     -12.100  11.883  70.432  1.00  0.00    -0.421 A  
HETATM   28  C   UNL     1     -12.126  13.285  70.454  1.00  0.00    -0.401 A  
HETATM   29  C   UNL     1     -12.923  13.978  71.367  1.00  0.00    -0.353 A  
HETATM   30  C   UNL     1     -13.634  13.255  72.315  1.00  0.00    -0.703 A  
HETATM   31  C   UNL     1     -13.577  11.853  72.308  1.00  0.00    -0.109 A  
BRANCH  29  32
HETATM   32  O   UNL     1     -12.871  15.333  71.257  1.00  0.00    -0.355 OA 
HETATM   33  C   UNL     1     -11.682  16.011  71.637  1.00  0.00    -0.506 C  
HETATM   34  F   UNL     1     -11.053  16.473  70.535  1.00  0.00    -0.356 F  
HETATM   35  F   UNL     1     -10.820  15.256  72.350  1.00  0.00    -0.393 F  
HETATM   36  F   UNL     1     -12.026  17.073  72.399  1.00  0.00    -0.363 F  
ENDBRANCH  29  32
ENDBRANCH  23  26
ENDBRANCH  16  19
ENDBRANCH  12  15
ENDBRANCH   4   9
TORSDOF 5
ENDMDL
MODEL       24
REMARK 921   NORMALIZED FREE ENERGY PREDICTED BY IDOCK:   -6.99 KCAL/MOL
REMARK 922        TOTAL FREE ENERGY PREDICTED BY IDOCK:  -10.05 KCAL/MOL
REMARK 923 INTER-LIGAND FREE ENERGY PREDICTED BY IDOCK:   -8.86 KCAL/MOL
REMARK 924 INTRA-LIGAND FREE ENERGY PREDICTED BY IDOCK:   -1.19 KCAL/MOL
REMARK 927      BINDING AFFINITY PREDICTED BY RF-SCORE:    0.00 PKD
ROOT
HETATM    1  C   UNL     1      -7.548  19.591  67.049  1.00  0.00    -0.242 C  
HETATM    2  C   UNL     1      -7.990  18.586  65.972  1.00  0.00    -0.119 C  
HETATM    3  C   UNL     1      -7.162  18.947  68.375  1.00  0.00    -0.309 C  
HETATM    4  N   UNL     1      -9.411  18.248  66.041  1.00  0.00    -0.512 NA 
HETATM    5  C   UNL     1     -10.319  19.384  66.221  1.00  0.00    -0.493 C  
HETATM    6  C   UNL     1     -10.229  19.929  68.734  1.00  0.00    -0.451 C  
HETATM    7  C   UNL     1      -9.842  20.353  67.321  1.00  0.00    -0.456 C  
HETATM    8  O   UNL     1      -8.453  20.694  67.219  1.00  0.00    -0.336 OA 
ENDROOT
BRANCH   4   9
HETATM    9  C   UNL     1      -9.812  17.012  66.516  1.00  0.00    -0.294 A  
HETATM   10  C   UNL     1      -9.801  16.791  67.891  1.00  0.00    -0.257 A  
HETATM   11  C   UNL     1     -10.170  15.555  68.414  1.00  0.00    -0.215 A  
HETATM   12  C   UNL     1     -10.547  14.525  67.563  1.00  0.00    -0.262 A  
HETATM   13  N   UNL     1     -10.219  16.042  65.672  1.00  0.00    -0.378 NA 
HETATM   14  C   UNL     1     -10.551  14.832  66.205  1.00  0.00    -0.311 A  
BRANCH  12  15
HETATM   15  N   UNL     1     -10.878  13.222  68.018  1.00  0.00    -0.237 N  
HETATM   16  C   UNL     1      -9.948  12.219  68.267  1.00  0.00    -0.216 C  
HETATM   17  H   UNL     1     -11.864  13.006  68.171  1.00  0.00     0.000 HD 
HETATM   18  O   UNL     1      -8.735  12.392  68.262  1.00  0.00    -0.183 OA 
BRANCH  16  19
HETATM   19  C   UNL     1     -10.448  10.856  68.648  1.00  0.00    -0.216 A  
HETATM   20  C   UNL     1     -10.839  10.595  69.966  1.00  0.00    -0.280 A  
HETATM   21  C   UNL     1     -11.116   9.290  70.359  1.00  0.00    -0.300 A  
HETATM   22  C   UNL     1     -10.898   8.232  69.475  1.00  0.00    -0.124 A  
HETATM   23  C   UNL     1     -10.473   8.439  68.145  1.00  0.00    -0.228 A  
HETATM   24  C   UNL     1     -10.209  10.114  66.232  1.00  0.00    -0.288 C  
HETATM   25  C   UNL     1     -10.373   9.788  67.703  1.00  0.00    -0.281 A  
BRANCH  23  26
HETATM   26  C   UNL     1     -10.065   7.260  67.319  1.00  0.00    -0.291 A  
HETATM   27  C   UNL     1     -10.982   6.279  66.905  1.00  0.00    -0.404 A  
HETATM   28  C   UNL     1     -10.568   5.148  66.187  1.00  0.00    -0.293 A  
HETATM   29  C   UNL     1      -9.232   4.974  65.821  1.00  0.00    -0.156 A  
HETATM   30  C   UNL     1      -8.296   5.905  66.252  1.00  0.00    -0.117 A  
HETATM   31  C   UNL     1      -8.713   7.016  67.000  1.00  0.00    -0.123 A  
BRANCH  29  32
HETATM   32  O   UNL     1      -8.978   3.846  65.104  1.00  0.00    -0.122 OA 
HETATM   33  C   UNL     1      -8.536   3.969  63.760  1.00  0.00    -0.100 C  
HETATM   34  F   UNL     1      -7.233   3.624  63.678  1.00  0.00    -0.046 F  
HETATM   35  F   UNL     1      -8.697   5.202  63.236  1.00  0.00    -0.131 F  
HETATM   36  F   UNL     1      -9.247   3.103  63.001  1.00  0.00    -0.092 F  
ENDBRANCH  29  32
ENDBRANCH  23  26
ENDBRANCH  16  19
ENDBRANCH  12  15
ENDBRANCH   4   9
TORSDOF 5
ENDMDL
MODEL       25
REMARK 921   NORMALIZED FREE ENERGY PREDICTED BY IDOCK:   -6.99 KCAL/MOL
REMARK 922        TOTAL FREE ENERGY PREDICTED BY IDOCK:  -10.05 KCAL/MOL
REMARK 923 INTER-LIGAND FREE ENERGY PREDICTED BY IDOCK:   -8.39 KCAL/MOL
REMARK 924 INTRA-LIGAND FREE ENERGY PREDICTED BY IDOCK:   -1.66 KCAL/MOL
REMARK 927      BINDING AFFINITY PREDICTED BY RF-SCORE:    0.00 PKD
ROOT
HETATM    1  C   UNL     1      -9.145  20.189  66.066  1.00  0.00    -0.155 C  
HETATM    2  C   UNL     1     -10.365  19.273  65.867  1.00  0.00    -0.421 C  
HETATM    3  C   UNL     1      -7.830  19.577  65.602  1.00  0.00    -0.024 C  
HETATM    4  N   UNL     1     -10.585  18.349  66.977  1.00  0.00    -0.391 NA 
HETATM    5  C   UNL     1     -10.480  18.937  68.316  1.00  0.00    -0.257 C  
HETATM    6  C   UNL     1      -7.956  19.067  68.799  1.00  0.00    -0.368 C  
HETATM    7  C   UNL     1      -9.234  19.832  68.471  1.00  0.00    -0.265 C  
HETATM    8  O   UNL     1      -9.051  20.751  67.385  1.00  0.00    -0.336 OA 
ENDROOT
BRANCH   4   9
HETATM    9  C   UNL     1     -10.297  17.004  66.833  1.00  0.00    -0.303 A  
HETATM   10  C   UNL     1     -10.176  16.221  67.978  1.00  0.00    -0.256 A  
HETATM   11  C   UNL     1      -9.860  14.869  67.884  1.00  0.00    -0.214 A  
HETATM   12  C   UNL     1      -9.655  14.289  66.639  1.00  0.00    -0.289 A  
HETATM   13  N   UNL     1     -10.148  16.453  65.611  1.00  0.00    -0.523 NA 
HETATM   14  C   UNL     1      -9.813  15.133  65.544  1.00  0.00    -0.321 A  
BRANCH  12  15
HETATM   15  N   UNL     1      -9.272  12.932  66.467  1.00  0.00    -0.359 N  
HETATM   16  C   UNL     1     -10.157  11.861  66.482  1.00  0.00    -0.203 C  
HETATM   17  H   UNL     1      -8.282  12.731  66.322  1.00  0.00     0.000 HD 
HETATM   18  O   UNL     1     -11.377  11.978  66.502  1.00  0.00    -0.324 OA 
BRANCH  16  19
HETATM   19  C   UNL     1      -9.601  10.470  66.389  1.00  0.00    -0.220 A  
HETATM   20  C   UNL     1      -9.360   9.894  65.136  1.00  0.00    -0.317 A  
HETATM   21  C   UNL     1      -9.030   8.546  65.047  1.00  0.00    -0.004 A  
HETATM   22  C   UNL     1      -9.047   7.745  66.191  1.00  0.00    -0.199 A  
HETATM   23  C   UNL     1      -9.316   8.270  67.473  1.00  0.00    -0.166 A  
HETATM   24  C   UNL     1      -9.470  10.371  68.922  1.00  0.00    -0.190 C  
HETATM   25  C   UNL     1      -9.468   9.682  67.572  1.00  0.00    -0.157 A  
BRANCH  23  26
HETATM   26  C   UNL     1      -9.519   7.329  68.618  1.00  0.00    -0.137 A  
HETATM   27  C   UNL     1      -8.444   6.781  69.339  1.00  0.00    -0.132 A  
HETATM   28  C   UNL     1      -8.653   5.850  70.367  1.00  0.00    -0.135 A  
HETATM   29  C   UNL     1      -9.941   5.462  70.739  1.00  0.00    -0.204 A  
HETATM   30  C   UNL     1     -11.021   5.954  70.017  1.00  0.00    -0.430 A  
HETATM   31  C   UNL     1     -10.802   6.859  68.968  1.00  0.00    -0.247 A  
BRANCH  29  32
HETATM   32  O   UNL     1      -9.996   4.574  71.768  1.00  0.00    -0.180 OA 
HETATM   33  C   UNL     1      -9.704   3.207  71.515  1.00  0.00    -0.156 C  
HETATM   34  F   UNL     1      -8.511   2.890  72.063  1.00  0.00    -0.062 F  
HETATM   35  F   UNL     1      -9.687   2.879  70.207  1.00  0.00    -0.229 F  
HETATM   36  F   UNL     1     -10.653   2.454  72.116  1.00  0.00    -0.215 F  
ENDBRANCH  29  32
ENDBRANCH  23  26
ENDBRANCH  16  19
ENDBRANCH  12  15
ENDBRANCH   4   9
TORSDOF 5
ENDMDL
MODEL       26
REMARK 921   NORMALIZED FREE ENERGY PREDICTED BY IDOCK:   -6.98 KCAL/MOL
REMARK 922        TOTAL FREE ENERGY PREDICTED BY IDOCK:  -10.04 KCAL/MOL
REMARK 923 INTER-LIGAND FREE ENERGY PREDICTED BY IDOCK:   -8.48 KCAL/MOL
REMARK 924 INTRA-LIGAND FREE ENERGY PREDICTED BY IDOCK:   -1.55 KCAL/MOL
REMARK 927      BINDING AFFINITY PREDICTED BY RF-SCORE:    0.00 PKD
ROOT
HETATM    1  C   UNL     1      -8.788   3.784  66.635  1.00  0.00    -0.126 C  
HETATM    2  C   UNL     1      -7.675   4.805  66.339  1.00  0.00    -0.091 C  
HETATM    3  C   UNL     1     -10.160   4.197  66.118  1.00  0.00    -0.145 C  
HETATM    4  N   UNL     1      -7.567   5.855  67.351  1.00  0.00    -0.095 NA 
HETATM    5  C   UNL     1      -7.615   5.395  68.742  1.00  0.00    -0.079 C  
HETATM    6  C   UNL     1     -10.112   5.034  69.248  1.00  0.00    -0.270 C  
HETATM    7  C   UNL     1      -8.754   4.387  68.992  1.00  0.00    -0.086 C  
HETATM    8  O   UNL     1      -8.826   3.350  68.004  1.00  0.00    -0.101 OA 
ENDROOT
BRANCH   4   9
HETATM    9  C   UNL     1      -8.002   7.138  67.074  1.00  0.00    -0.113 A  
HETATM   10  C   UNL     1      -7.904   8.105  68.071  1.00  0.00    -0.122 A  
HETATM   11  C   UNL     1      -8.354   9.404  67.849  1.00  0.00    -0.115 A  
HETATM   12  C   UNL     1      -8.914   9.743  66.625  1.00  0.00    -0.142 A  
HETATM   13  N   UNL     1      -8.500   7.456  65.862  1.00  0.00    -0.146 NA 
HETATM   14  C   UNL     1      -8.959   8.727  65.675  1.00  0.00    -0.200 A  
BRANCH  12  15
HETATM   15  N   UNL     1      -9.449  11.029  66.345  1.00  0.00    -0.188 N  
HETATM   16  C   UNL     1     -10.759  11.407  66.614  1.00  0.00    -0.269 C  
HETATM   17  H   UNL     1      -8.831  11.720  65.918  1.00  0.00     0.000 HD 
HETATM   18  O   UNL     1     -11.553  10.726  67.252  1.00  0.00    -0.439 OA 
BRANCH  16  19
HETATM   19  C   UNL     1     -11.217  12.766  66.172  1.00  0.00    -0.336 A  
HETATM   20  C   UNL     1     -11.936  12.911  64.980  1.00  0.00    -0.445 A  
HETATM   21  C   UNL     1     -12.191  14.182  64.476  1.00  0.00    -0.468 A  
HETATM   22  C   UNL     1     -11.638  15.304  65.097  1.00  0.00    -0.192 A  
HETATM   23  C   UNL     1     -10.879  15.210  66.283  1.00  0.00    -0.333 A  
HETATM   24  C   UNL     1     -10.245  13.764  68.294  1.00  0.00    -0.245 C  
HETATM   25  C   UNL     1     -10.784  13.925  66.887  1.00  0.00    -0.284 A  
BRANCH  23  26
HETATM   26  C   UNL     1     -10.150  16.418  66.779  1.00  0.00    -0.287 A  
HETATM   27  C   UNL     1      -8.884  16.786  66.291  1.00  0.00    -0.334 A  
HETATM   28  C   UNL     1      -8.189  17.884  66.816  1.00  0.00    -0.273 A  
HETATM   29  C   UNL     1      -8.746  18.679  67.819  1.00  0.00    -0.279 A  
HETATM   30  C   UNL     1      -9.976  18.316  68.352  1.00  0.00    -0.401 A  
HETATM   31  C   UNL     1     -10.650  17.195  67.845  1.00  0.00    -0.376 A  
BRANCH  29  32
HETATM   32  O   UNL     1      -7.972  19.726  68.215  1.00  0.00    -0.321 OA 
HETATM   33  C   UNL     1      -6.806  19.469  68.983  1.00  0.00    -0.349 C  
HETATM   34  F   UNL     1      -5.708  19.689  68.227  1.00  0.00    -0.206 F  
HETATM   35  F   UNL     1      -6.744  18.222  69.494  1.00  0.00    -0.258 F  
HETATM   36  F   UNL     1      -6.782  20.339  70.018  1.00  0.00    -0.368 F  
ENDBRANCH  29  32
ENDBRANCH  23  26
ENDBRANCH  16  19
ENDBRANCH  12  15
ENDBRANCH   4   9
TORSDOF 5
ENDMDL
MODEL       27
REMARK 921   NORMALIZED FREE ENERGY PREDICTED BY IDOCK:   -6.96 KCAL/MOL
REMARK 922        TOTAL FREE ENERGY PREDICTED BY IDOCK:  -10.00 KCAL/MOL
REMARK 923 INTER-LIGAND FREE ENERGY PREDICTED BY IDOCK:   -8.89 KCAL/MOL
REMARK 924 INTRA-LIGAND FREE ENERGY PREDICTED BY IDOCK:   -1.11 KCAL/MOL
REMARK 927      BINDING AFFINITY PREDICTED BY RF-SCORE:    0.00 PKD
ROOT
HETATM    1  C   UNL     1      -9.731  20.062  66.616  1.00  0.00    -0.442 C  
HETATM    2  C   UNL     1      -9.882  19.807  68.126  1.00  0.00    -0.424 C  
HETATM    3  C   UNL     1     -10.528  19.101  65.744  1.00  0.00    -0.404 C  
HETATM    4  N   UNL     1      -8.946  18.811  68.643  1.00  0.00    -0.344 NA 
HETATM    5  C   UNL     1      -7.561  18.952  68.187  1.00  0.00    -0.277 C  
HETATM    6  C   UNL     1      -7.515  17.913  65.833  1.00  0.00    -0.212 C  
HETATM    7  C   UNL     1      -7.460  19.190  66.666  1.00  0.00    -0.234 C  
HETATM    8  O   UNL     1      -8.367  20.191  66.184  1.00  0.00    -0.295 OA 
ENDROOT
BRANCH   4   9
HETATM    9  C   UNL     1      -9.392  17.547  68.987  1.00  0.00    -0.089 A  
HETATM   10  C   UNL     1     -10.747  17.368  69.254  1.00  0.00     0.039 A  
HETATM   11  C   UNL     1     -11.239  16.121  69.630  1.00  0.00    -0.331 A  
HETATM   12  C   UNL     1     -10.374  15.042  69.748  1.00  0.00    -0.155 A  
HETATM   13  N   UNL     1      -8.541  16.503  69.049  1.00  0.00    -0.237 NA 
HETATM   14  C   UNL     1      -9.039  15.297  69.446  1.00  0.00    -0.228 A  
BRANCH  12  15
HETATM   15  N   UNL     1     -10.790  13.756  70.184  1.00  0.00    -0.164 N  
HETATM   16  C   UNL     1     -11.773  12.998  69.558  1.00  0.00    -0.317 C  
HETATM   17  H   UNL     1     -10.339  13.363  71.011  1.00  0.00     0.000 HD 
HETATM   18  O   UNL     1     -12.284  13.289  68.483  1.00  0.00    -0.272 OA 
BRANCH  16  19
HETATM   19  C   UNL     1     -12.184  11.698  70.186  1.00  0.00    -0.367 A  
HETATM   20  C   UNL     1     -12.892  11.695  71.393  1.00  0.00    -0.461 A  
HETATM   21  C   UNL     1     -13.102  10.498  72.069  1.00  0.00    -0.511 A  
HETATM   22  C   UNL     1     -12.516   9.320  71.603  1.00  0.00    -0.448 A  
HETATM   23  C   UNL     1     -11.765   9.275  70.408  1.00  0.00    -0.157 A  
HETATM   24  C   UNL     1     -11.189  10.450  68.212  1.00  0.00    -0.330 C  
HETATM   25  C   UNL     1     -11.716  10.467  69.633  1.00  0.00    -0.328 A  
BRANCH  23  26
HETATM   26  C   UNL     1     -10.999   8.034  70.075  1.00  0.00    -0.202 A  
HETATM   27  C   UNL     1     -11.621   6.782  69.935  1.00  0.00    -0.326 A  
HETATM   28  C   UNL     1     -10.876   5.620  69.687  1.00  0.00    -0.365 A  
HETATM   29  C   UNL     1      -9.490   5.669  69.532  1.00  0.00    -0.136 A  
HETATM   30  C   UNL     1      -8.842   6.885  69.708  1.00  0.00    -0.141 A  
HETATM   31  C   UNL     1      -9.591   8.038  69.989  1.00  0.00    -0.171 A  
BRANCH  29  32
HETATM   32  O   UNL     1      -8.900   4.471  69.270  1.00  0.00    -0.085 OA 
HETATM   33  C   UNL     1      -8.822   4.022  67.925  1.00  0.00    -0.111 C  
HETATM   34  F   UNL     1      -7.543   4.095  67.497  1.00  0.00    -0.067 F  
HETATM   35  F   UNL     1      -9.610   4.703  67.068  1.00  0.00    -0.140 F  
HETATM   36  F   UNL     1      -9.201   2.724  67.891  1.00  0.00    -0.160 F  
ENDBRANCH  29  32
ENDBRANCH  23  26
ENDBRANCH  16  19
ENDBRANCH  12  15
ENDBRANCH   4   9
TORSDOF 5
ENDMDL
MODEL       28
REMARK 921   NORMALIZED FREE ENERGY PREDICTED BY IDOCK:   -6.93 KCAL/MOL
REMARK 922        TOTAL FREE ENERGY PREDICTED BY IDOCK:   -9.96 KCAL/MOL
REMARK 923 INTER-LIGAND FREE ENERGY PREDICTED BY IDOCK:   -8.30 KCAL/MOL
REMARK 924 INTRA-LIGAND FREE ENERGY PREDICTED BY IDOCK:   -1.67 KCAL/MOL
REMARK 927      BINDING AFFINITY PREDICTED BY RF-SCORE:    0.00 PKD
ROOT
HETATM    1  C   UNL     1      -7.423  19.797  65.849  1.00  0.00    -0.324 C  
HETATM    2  C   UNL     1      -8.876  19.355  66.093  1.00  0.00    -0.283 C  
HETATM    3  C   UNL     1      -6.477  18.652  65.513  1.00  0.00    -0.321 C  
HETATM    4  N   UNL     1      -9.135  18.946  67.472  1.00  0.00    -0.279 NA 
HETATM    5  C   UNL     1      -8.588  19.832  68.504  1.00  0.00    -0.224 C  
HETATM    6  C   UNL     1      -6.099  19.203  68.684  1.00  0.00    -0.243 C  
HETATM    7  C   UNL     1      -7.126  20.233  68.224  1.00  0.00    -0.231 C  
HETATM    8  O   UNL     1      -6.899  20.658  66.872  1.00  0.00    -0.257 OA 
ENDROOT
BRANCH   4   9
HETATM    9  C   UNL     1      -9.301  17.609  67.784  1.00  0.00    -0.255 A  
HETATM   10  C   UNL     1      -9.287  16.677  66.750  1.00  0.00    -0.262 A  
HETATM   11  C   UNL     1      -9.477  15.323  67.011  1.00  0.00    -0.235 A  
HETATM   12  C   UNL     1      -9.691  14.891  68.312  1.00  0.00    -0.215 A  
HETATM   13  N   UNL     1      -9.460  17.208  69.062  1.00  0.00    -0.212 NA 
HETATM   14  C   UNL     1      -9.671  15.880  69.291  1.00  0.00    -0.263 A  
BRANCH  12  15
HETATM   15  N   UNL     1      -9.951  13.536  68.649  1.00  0.00    -0.366 N  
HETATM   16  C   UNL     1     -11.214  12.957  68.643  1.00  0.00    -0.281 C  
HETATM   17  H   UNL     1      -9.159  12.949  68.913  1.00  0.00     0.000 HD 
HETATM   18  O   UNL     1     -12.220  13.507  68.209  1.00  0.00    -0.313 OA 
BRANCH  16  19
HETATM   19  C   UNL     1     -11.356  11.540  69.119  1.00  0.00    -0.351 A  
HETATM   20  C   UNL     1     -11.697  11.279  70.451  1.00  0.00    -0.398 A  
HETATM   21  C   UNL     1     -11.639   9.977  70.937  1.00  0.00    -0.463 A  
HETATM   22  C   UNL     1     -11.137   8.952  70.133  1.00  0.00    -0.217 A  
HETATM   23  C   UNL     1     -10.749   9.169  68.793  1.00  0.00    -0.162 A  
HETATM   24  C   UNL     1     -10.880  10.720  66.765  1.00  0.00    -0.256 C  
HETATM   25  C   UNL     1     -10.989  10.465  68.254  1.00  0.00    -0.321 A  
BRANCH  23  26
HETATM   26  C   UNL     1     -10.034   8.081  68.056  1.00  0.00    -0.216 A  
HETATM   27  C   UNL     1     -10.717   7.041  67.404  1.00  0.00    -0.383 A  
HETATM   28  C   UNL     1     -10.027   5.995  66.775  1.00  0.00    -0.215 A  
HETATM   29  C   UNL     1      -8.632   5.969  66.739  1.00  0.00    -0.110 A  
HETATM   30  C   UNL     1      -7.929   6.960  67.411  1.00  0.00    -0.112 A  
HETATM   31  C   UNL     1      -8.627   7.985  68.067  1.00  0.00    -0.129 A  
BRANCH  29  32
HETATM   32  O   UNL     1      -8.097   4.911  66.072  1.00  0.00    -0.106 OA 
HETATM   33  C   UNL     1      -7.601   5.105  64.755  1.00  0.00    -0.078 C  
HETATM   34  F   UNL     1      -6.252   5.045  64.766  1.00  0.00    -0.029 F  
HETATM   35  F   UNL     1      -7.984   6.267  64.187  1.00  0.00    -0.102 F  
HETATM   36  F   UNL     1      -8.059   4.097  63.979  1.00  0.00    -0.084 F  
ENDBRANCH  29  32
ENDBRANCH  23  26
ENDBRANCH  16  19
ENDBRANCH  12  15
ENDBRANCH   4   9
TORSDOF 5
ENDMDL
MODEL       29
REMARK 921   NORMALIZED FREE ENERGY PREDICTED BY IDOCK:   -6.89 KCAL/MOL
REMARK 922        TOTAL FREE ENERGY PREDICTED BY IDOCK:   -9.92 KCAL/MOL
REMARK 923 INTER-LIGAND FREE ENERGY PREDICTED BY IDOCK:   -8.35 KCAL/MOL
REMARK 924 INTRA-LIGAND FREE ENERGY PREDICTED BY IDOCK:   -1.57 KCAL/MOL
REMARK 927      BINDING AFFINITY PREDICTED BY RF-SCORE:    0.00 PKD
ROOT
HETATM    1  C   UNL     1      -7.969   2.894  70.989  1.00  0.00    -0.053 C  
HETATM    2  C   UNL     1      -9.429   3.238  70.648  1.00  0.00    -0.170 C  
HETATM    3  C   UNL     1      -7.037   4.098  71.003  1.00  0.00    -0.036 C  
HETATM    4  N   UNL     1      -9.699   3.264  69.212  1.00  0.00    -0.021 NA 
HETATM    5  C   UNL     1      -9.144   2.144  68.446  1.00  0.00    -0.164 C  
HETATM    6  C   UNL     1      -6.665   2.733  68.088  1.00  0.00    -0.036 C  
HETATM    7  C   UNL     1      -7.675   1.849  68.811  1.00  0.00    -0.046 C  
HETATM    8  O   UNL     1      -7.437   1.799  70.225  1.00  0.00    -0.036 OA 
ENDROOT
BRANCH   4   9
HETATM    9  C   UNL     1      -9.885   4.470  68.559  1.00  0.00    -0.089 A  
HETATM   10  C   UNL     1     -10.173   5.601  69.318  1.00  0.00    -0.309 A  
HETATM   11  C   UNL     1     -10.395   6.831  68.704  1.00  0.00    -0.202 A  
HETATM   12  C   UNL     1     -10.336   6.936  67.321  1.00  0.00    -0.251 A  
HETATM   13  N   UNL     1      -9.776   4.557  67.218  1.00  0.00    -0.184 NA 
HETATM   14  C   UNL     1     -10.023   5.766  66.636  1.00  0.00    -0.176 A  
BRANCH  12  15
HETATM   15  N   UNL     1     -10.608   8.141  66.621  1.00  0.00    -0.371 N  
HETATM   16  C   UNL     1      -9.655   9.111  66.330  1.00  0.00    -0.245 C  
HETATM   17  H   UNL     1     -11.566   8.307  66.311  1.00  0.00     0.000 HD 
HETATM   18  O   UNL     1      -8.452   8.968  66.517  1.00  0.00    -0.116 OA 
BRANCH  16  19
HETATM   19  C   UNL     1     -10.104  10.383  65.672  1.00  0.00    -0.337 A  
HETATM   20  C   UNL     1     -10.130  10.479  64.276  1.00  0.00    -0.380 A  
HETATM   21  C   UNL     1     -10.359  11.711  63.672  1.00  0.00    -0.466 A  
HETATM   22  C   UNL     1     -10.451  12.865  64.452  1.00  0.00    -0.419 A  
HETATM   23  C   UNL     1     -10.399  12.827  65.861  1.00  0.00    -0.298 A  
HETATM   24  C   UNL     1     -10.581  11.376  67.959  1.00  0.00    -0.224 C  
HETATM   25  C   UNL     1     -10.352  11.541  66.470  1.00  0.00    -0.269 A  
BRANCH  23  26
HETATM   26  C   UNL     1     -10.300  14.111  66.622  1.00  0.00    -0.277 A  
HETATM   27  C   UNL     1      -9.065  14.707  66.933  1.00  0.00    -0.272 A  
HETATM   28  C   UNL     1      -8.992  15.876  67.704  1.00  0.00    -0.193 A  
HETATM   29  C   UNL     1     -10.146  16.515  68.159  1.00  0.00    -0.255 A  
HETATM   30  C   UNL     1     -11.378  15.927  67.905  1.00  0.00    -0.252 A  
HETATM   31  C   UNL     1     -11.442  14.739  67.161  1.00  0.00    -0.375 A  
BRANCH  29  32
HETATM   32  O   UNL     1      -9.927  17.653  68.872  1.00  0.00    -0.336 OA 
HETATM   33  C   UNL     1      -9.708  18.871  68.175  1.00  0.00    -0.347 C  
HETATM   34  F   UNL     1     -10.785  19.674  68.318  1.00  0.00    -0.494 F  
HETATM   35  F   UNL     1      -9.448  18.716  66.861  1.00  0.00    -0.272 F  
HETATM   36  F   UNL     1      -8.646  19.493  68.735  1.00  0.00    -0.376 F  
ENDBRANCH  29  32
ENDBRANCH  23  26
ENDBRANCH  16  19
ENDBRANCH  12  15
ENDBRANCH   4   9
TORSDOF 5
ENDMDL
MODEL       30
REMARK 921   NORMALIZED FREE ENERGY PREDICTED BY IDOCK:   -6.86 KCAL/MOL
REMARK 922        TOTAL FREE ENERGY PREDICTED BY IDOCK:   -9.88 KCAL/MOL
REMARK 923 INTER-LIGAND FREE ENERGY PREDICTED BY IDOCK:   -8.43 KCAL/MOL
REMARK 924 INTRA-LIGAND FREE ENERGY PREDICTED BY IDOCK:   -1.45 KCAL/MOL
REMARK 927      BINDING AFFINITY PREDICTED BY RF-SCORE:    0.00 PKD
ROOT
HETATM    1  C   UNL     1      -8.474   4.335  72.764  1.00  0.00    -0.101 C  
HETATM    2  C   UNL     1      -7.337   4.996  71.967  1.00  0.00    -0.089 C  
HETATM    3  C   UNL     1      -9.787   4.230  71.998  1.00  0.00    -0.241 C  
HETATM    4  N   UNL     1      -7.329   6.455  72.067  1.00  0.00    -0.091 NA 
HETATM    5  C   UNL     1      -7.518   6.994  73.417  1.00  0.00    -0.079 C  
HETATM    6  C   UNL     1     -10.053   6.882  73.840  1.00  0.00    -0.391 C  
HETATM    7  C   UNL     1      -8.678   6.311  74.169  1.00  0.00    -0.127 C  
HETATM    8  O   UNL     1      -8.652   4.879  74.082  1.00  0.00    -0.111 OA 
ENDROOT
BRANCH   4   9
HETATM    9  C   UNL     1      -7.733   7.230  70.995  1.00  0.00    -0.089 A  
HETATM   10  C   UNL     1      -7.738   6.659  69.725  1.00  0.00    -0.113 A  
HETATM   11  C   UNL     1      -8.110   7.407  68.611  1.00  0.00    -0.125 A  
HETATM   12  C   UNL     1      -8.474   8.739  68.761  1.00  0.00    -0.129 A  
HETATM   13  N   UNL     1      -8.128   8.507  71.171  1.00  0.00    -0.120 NA 
HETATM   14  C   UNL     1      -8.462   9.229  70.063  1.00  0.00    -0.176 A  
BRANCH  12  15
HETATM   15  N   UNL     1      -8.808   9.581  67.667  1.00  0.00    -0.119 N  
HETATM   16  C   UNL     1     -10.049   9.597  67.041  1.00  0.00    -0.214 C  
HETATM   17  H   UNL     1      -8.090  10.216  67.317  1.00  0.00     0.000 HD 
HETATM   18  O   UNL     1     -11.034   8.993  67.453  1.00  0.00    -0.152 OA 
BRANCH  16  19
HETATM   19  C   UNL     1     -10.231  10.466  65.831  1.00  0.00    -0.302 A  
HETATM   20  C   UNL     1      -9.926   9.970  64.559  1.00  0.00    -0.151 A  
HETATM   21  C   UNL     1      -9.911  10.831  63.467  1.00  0.00    -0.401 A  
HETATM   22  C   UNL     1     -10.089  12.202  63.655  1.00  0.00    -0.410 A  
HETATM   23  C   UNL     1     -10.367  12.757  64.922  1.00  0.00    -0.330 A  
HETATM   24  C   UNL     1     -11.144  12.310  67.317  1.00  0.00    -0.326 C  
HETATM   25  C   UNL     1     -10.564  11.845  65.997  1.00  0.00    -0.304 A  
BRANCH  23  26
HETATM   26  C   UNL     1     -10.345  14.244  65.088  1.00  0.00    -0.440 A  
HETATM   27  C   UNL     1      -9.391  14.897  65.886  1.00  0.00    -0.216 A  
HETATM   28  C   UNL     1      -9.428  16.286  66.081  1.00  0.00    -0.373 A  
HETATM   29  C   UNL     1     -10.392  17.077  65.456  1.00  0.00    -0.143 A  
HETATM   30  C   UNL     1     -11.374  16.456  64.695  1.00  0.00    -0.166 A  
HETATM   31  C   UNL     1     -11.351  15.063  64.533  1.00  0.00    -0.294 A  
BRANCH  29  32
HETATM   32  O   UNL     1     -10.293  18.410  65.712  1.00  0.00    -0.588 OA 
HETATM   33  C   UNL     1     -10.564  18.881  67.024  1.00  0.00    -0.438 C  
HETATM   34  F   UNL     1      -9.411  19.267  67.613  1.00  0.00    -0.324 F  
HETATM   35  F   UNL     1     -11.182  17.982  67.817  1.00  0.00    -0.315 F  
HETATM   36  F   UNL     1     -11.366  19.965  66.926  1.00  0.00    -0.441 F  
ENDBRANCH  29  32
ENDBRANCH  23  26
ENDBRANCH  16  19
ENDBRANCH  12  15
ENDBRANCH   4   9
TORSDOF 5
ENDMDL
MODEL       31
REMARK 921   NORMALIZED FREE ENERGY PREDICTED BY IDOCK:   -6.75 KCAL/MOL
REMARK 922        TOTAL FREE ENERGY PREDICTED BY IDOCK:   -9.74 KCAL/MOL
REMARK 923 INTER-LIGAND FREE ENERGY PREDICTED BY IDOCK:   -8.27 KCAL/MOL
REMARK 924 INTRA-LIGAND FREE ENERGY PREDICTED BY IDOCK:   -1.47 KCAL/MOL
REMARK 927      BINDING AFFINITY PREDICTED BY RF-SCORE:    0.00 PKD
ROOT
HETATM    1  C   UNL     1      -8.859  19.954  66.265  1.00  0.00    -0.345 C  
HETATM    2  C   UNL     1     -10.178  19.167  66.175  1.00  0.00    -0.463 C  
HETATM    3  C   UNL     1      -7.632  19.155  65.843  1.00  0.00    -0.239 C  
HETATM    4  N   UNL     1     -10.470  18.384  67.374  1.00  0.00    -0.401 NA 
HETATM    5  C   UNL     1     -10.265  19.082  68.647  1.00  0.00    -0.311 C  
HETATM    6  C   UNL     1      -7.731  18.971  69.077  1.00  0.00    -0.288 C  
HETATM    7  C   UNL     1      -8.924  19.841  68.695  1.00  0.00    -0.200 C  
HETATM    8  O   UNL     1      -8.669  20.625  67.521  1.00  0.00    -0.293 OA 
ENDROOT
BRANCH   4   9
HETATM    9  C   UNL     1     -10.337  17.007  67.358  1.00  0.00    -0.319 A  
HETATM   10  C   UNL     1     -10.083  16.377  66.143  1.00  0.00    -0.364 A  
HETATM   11  C   UNL     1      -9.968  14.991  66.071  1.00  0.00    -0.334 A  
HETATM   12  C   UNL     1     -10.113  14.224  67.219  1.00  0.00    -0.252 A  
HETATM   13  N   UNL     1     -10.435  16.287  68.493  1.00  0.00    -0.263 NA 
HETATM   14  C   UNL     1     -10.345  14.929  68.396  1.00  0.00    -0.233 A  
BRANCH  12  15
HETATM   15  N   UNL     1     -10.068  12.804  67.216  1.00  0.00    -0.224 N  
HETATM   16  C   UNL     1      -8.900  12.058  67.114  1.00  0.00    -0.188 C  
HETATM   17  H   UNL     1     -10.951  12.298  67.294  1.00  0.00     0.000 HD 
HETATM   18  O   UNL     1      -7.772  12.538  67.160  1.00  0.00    -0.162 OA 
BRANCH  16  19
HETATM   19  C   UNL     1      -9.009  10.564  67.021  1.00  0.00    -0.149 A  
HETATM   20  C   UNL     1      -9.330   9.958  65.802  1.00  0.00    -0.259 A  
HETATM   21  C   UNL     1      -9.619   8.598  65.760  1.00  0.00    -0.134 A  
HETATM   22  C   UNL     1      -9.697   7.864  66.944  1.00  0.00    -0.285 A  
HETATM   23  C   UNL     1      -9.414   8.435  68.204  1.00  0.00    -0.148 A  
HETATM   24  C   UNL     1      -8.339  10.383  69.463  1.00  0.00    -0.126 C  
HETATM   25  C   UNL     1      -8.939   9.777  68.211  1.00  0.00    -0.119 A  
BRANCH  23  26
HETATM   26  C   UNL     1      -9.712   7.651  69.443  1.00  0.00    -0.165 A  
HETATM   27  C   UNL     1     -10.996   7.607  70.013  1.00  0.00    -0.237 A  
HETATM   28  C   UNL     1     -11.240   6.921  71.211  1.00  0.00    -0.306 A  
HETATM   29  C   UNL     1     -10.223   6.222  71.863  1.00  0.00    -0.201 A  
HETATM   30  C   UNL     1      -8.935   6.282  71.347  1.00  0.00    -0.139 A  
HETATM   31  C   UNL     1      -8.692   6.999  70.166  1.00  0.00    -0.141 A  
BRANCH  29  32
HETATM   32  O   UNL     1     -10.607   5.580  73.000  1.00  0.00    -0.206 OA 
HETATM   33  C   UNL     1     -10.619   4.160  73.020  1.00  0.00    -0.178 C  
HETATM   34  F   UNL     1      -9.608   3.710  73.793  1.00  0.00    -0.102 F  
HETATM   35  F   UNL     1     -10.525   3.590  71.800  1.00  0.00    -0.177 F  
HETATM   36  F   UNL     1     -11.783   3.755  73.575  1.00  0.00    -0.320 F  
ENDBRANCH  29  32
ENDBRANCH  23  26
ENDBRANCH  16  19
ENDBRANCH  12  15
ENDBRANCH   4   9
TORSDOF 5
ENDMDL
MODEL       32
REMARK 921   NORMALIZED FREE ENERGY PREDICTED BY IDOCK:   -6.74 KCAL/MOL
REMARK 922        TOTAL FREE ENERGY PREDICTED BY IDOCK:   -9.73 KCAL/MOL
REMARK 923 INTER-LIGAND FREE ENERGY PREDICTED BY IDOCK:   -8.03 KCAL/MOL
REMARK 924 INTRA-LIGAND FREE ENERGY PREDICTED BY IDOCK:   -1.70 KCAL/MOL
REMARK 927      BINDING AFFINITY PREDICTED BY RF-SCORE:    0.00 PKD
ROOT
HETATM    1  C   UNL     1      -6.946   4.277  69.410  1.00  0.00    -0.046 C  
HETATM    2  C   UNL     1      -8.325   4.725  69.925  1.00  0.00    -0.068 C  
HETATM    3  C   UNL     1      -6.047   5.425  68.969  1.00  0.00    -0.025 C  
HETATM    4  N   UNL     1      -9.317   4.884  68.863  1.00  0.00    -0.120 NA 
HETATM    5  C   UNL     1      -9.359   3.803  67.875  1.00  0.00    -0.186 C  
HETATM    6  C   UNL     1      -7.415   4.287  66.261  1.00  0.00    -0.085 C  
HETATM    7  C   UNL     1      -7.956   3.401  67.378  1.00  0.00    -0.081 C  
HETATM    8  O   UNL     1      -7.005   3.223  68.437  1.00  0.00    -0.048 OA 
ENDROOT
BRANCH   4   9
HETATM    9  C   UNL     1      -9.714   6.148  68.463  1.00  0.00    -0.127 A  
HETATM   10  C   UNL     1      -9.409   7.232  69.281  1.00  0.00    -0.154 A  
HETATM   11  C   UNL     1      -9.811   8.519  68.934  1.00  0.00    -0.181 A  
HETATM   12  C   UNL     1     -10.531   8.729  67.766  1.00  0.00    -0.229 A  
HETATM   13  N   UNL     1     -10.371   6.333  67.301  1.00  0.00    -0.184 NA 
HETATM   14  C   UNL     1     -10.779   7.598  66.994  1.00  0.00    -0.270 A  
BRANCH  12  15
HETATM   15  N   UNL     1     -11.026  10.002  67.377  1.00  0.00    -0.309 N  
HETATM   16  C   UNL     1     -10.388  10.849  66.478  1.00  0.00    -0.247 C  
HETATM   17  H   UNL     1     -11.908  10.316  67.783  1.00  0.00     0.000 HD 
HETATM   18  O   UNL     1      -9.406  10.534  65.816  1.00  0.00    -0.172 OA 
BRANCH  16  19
HETATM   19  C   UNL     1     -10.974  12.209  66.235  1.00  0.00    -0.332 A  
HETATM   20  C   UNL     1     -11.881  12.406  65.187  1.00  0.00    -0.437 A  
HETATM   21  C   UNL     1     -12.272  13.695  64.844  1.00  0.00    -0.447 A  
HETATM   22  C   UNL     1     -11.680  14.795  65.467  1.00  0.00    -0.274 A  
HETATM   23  C   UNL     1     -10.736  14.652  66.507  1.00  0.00    -0.312 A  
HETATM   24  C   UNL     1      -9.721  13.091  68.259  1.00  0.00    -0.221 C  
HETATM   25  C   UNL     1     -10.486  13.331  66.973  1.00  0.00    -0.249 A  
BRANCH  23  26
HETATM   26  C   UNL     1      -9.994  15.858  66.988  1.00  0.00    -0.248 A  
HETATM   27  C   UNL     1     -10.500  16.701  67.992  1.00  0.00    -0.320 A  
HETATM   28  C   UNL     1      -9.819  17.863  68.383  1.00  0.00    -0.355 A  
HETATM   29  C   UNL     1      -8.591  18.206  67.815  1.00  0.00    -0.255 A  
HETATM   30  C   UNL     1      -8.086  17.416  66.791  1.00  0.00    -0.282 A  
HETATM   31  C   UNL     1      -8.790  16.273  66.382  1.00  0.00    -0.346 A  
BRANCH  29  32
HETATM   32  O   UNL     1      -8.031  19.344  68.308  1.00  0.00    -0.307 OA 
HETATM   33  C   UNL     1      -6.926  19.241  69.194  1.00  0.00    -0.340 C  
HETATM   34  F   UNL     1      -5.802  19.644  68.565  1.00  0.00    -0.224 F  
HETATM   35  F   UNL     1      -6.731  18.002  69.690  1.00  0.00    -0.235 F  
HETATM   36  F   UNL     1      -7.143  20.073  70.238  1.00  0.00    -0.313 F  
ENDBRANCH  29  32
ENDBRANCH  23  26
ENDBRANCH  16  19
ENDBRANCH  12  15
ENDBRANCH   4   9
TORSDOF 5
ENDMDL
MODEL       33
REMARK 921   NORMALIZED FREE ENERGY PREDICTED BY IDOCK:   -6.69 KCAL/MOL
REMARK 922        TOTAL FREE ENERGY PREDICTED BY IDOCK:   -9.66 KCAL/MOL
REMARK 923 INTER-LIGAND FREE ENERGY PREDICTED BY IDOCK:   -8.84 KCAL/MOL
REMARK 924 INTRA-LIGAND FREE ENERGY PREDICTED BY IDOCK:   -0.82 KCAL/MOL
REMARK 927      BINDING AFFINITY PREDICTED BY RF-SCORE:    0.00 PKD
ROOT
HETATM    1  C   UNL     1      -8.654   3.373  72.505  1.00  0.00    -0.085 C  
HETATM    2  C   UNL     1     -10.137   3.726  72.305  1.00  0.00    -0.157 C  
HETATM    3  C   UNL     1      -7.867   4.421  73.280  1.00  0.00    -0.091 C  
HETATM    4  N   UNL     1     -10.384   4.554  71.126  1.00  0.00    -0.085 NA 
HETATM    5  C   UNL     1      -9.690   4.133  69.905  1.00  0.00    -0.210 C  
HETATM    6  C   UNL     1      -7.290   5.026  70.150  1.00  0.00    -0.059 C  
HETATM    7  C   UNL     1      -8.204   3.805  70.153  1.00  0.00    -0.056 C  
HETATM    8  O   UNL     1      -7.986   2.969  71.298  1.00  0.00    -0.053 OA 
ENDROOT
BRANCH   4   9
HETATM    9  C   UNL     1     -10.695   5.895  71.268  1.00  0.00    -0.264 A  
HETATM   10  C   UNL     1     -10.634   6.715  70.145  1.00  0.00    -0.264 A  
HETATM   11  C   UNL     1     -10.912   8.076  70.242  1.00  0.00    -0.242 A  
HETATM   12  C   UNL     1     -11.248   8.628  71.471  1.00  0.00    -0.290 A  
HETATM   13  N   UNL     1     -11.065   6.399  72.462  1.00  0.00    -0.252 NA 
HETATM   14  C   UNL     1     -11.307   7.739  72.540  1.00  0.00    -0.374 A  
BRANCH  12  15
HETATM   15  N   UNL     1     -11.487  10.015  71.661  1.00  0.00    -0.167 N  
HETATM   16  C   UNL     1     -12.559  10.708  71.110  1.00  0.00    -0.423 C  
HETATM   17  H   UNL     1     -10.829  10.538  72.239  1.00  0.00     0.000 HD 
HETATM   18  O   UNL     1     -13.492  10.173  70.521  1.00  0.00    -0.185 OA 
BRANCH  16  19
HETATM   19  C   UNL     1     -12.632  12.193  71.310  1.00  0.00    -0.341 A  
HETATM   20  C   UNL     1     -13.604  12.741  72.155  1.00  0.00    -0.547 A  
HETATM   21  C   UNL     1     -13.794  14.118  72.190  1.00  0.00    -0.613 A  
HETATM   22  C   UNL     1     -13.096  14.942  71.306  1.00  0.00    -0.448 A  
HETATM   23  C   UNL     1     -12.128  14.437  70.411  1.00  0.00    -0.399 A  
HETATM   24  C   UNL     1     -10.599  12.476  69.816  1.00  0.00     0.773 C  
HETATM   25  C   UNL     1     -11.812  13.054  70.518  1.00  0.00    -0.168 A  
BRANCH  23  26
HETATM   26  C   UNL     1     -11.568  15.340  69.358  1.00  0.00    -0.347 A  
HETATM   27  C   UNL     1     -10.978  16.578  69.665  1.00  0.00    -0.287 A  
HETATM   28  C   UNL     1     -10.518  17.438  68.657  1.00  0.00    -0.355 A  
HETATM   29  C   UNL     1     -10.595  17.079  67.311  1.00  0.00    -0.267 A  
HETATM   30  C   UNL     1     -11.212  15.881  66.974  1.00  0.00    -0.024 A  
HETATM   31  C   UNL     1     -11.700  15.041  67.985  1.00  0.00    -0.320 A  
BRANCH  29  32
HETATM   32  O   UNL     1     -10.087  17.997  66.444  1.00  0.00    -0.350 OA 
HETATM   33  C   UNL     1     -10.456  19.361  66.591  1.00  0.00    -0.469 C  
HETATM   34  F   UNL     1      -9.403  20.067  67.056  1.00  0.00    -0.386 F  
HETATM   35  F   UNL     1     -11.514  19.562  67.404  1.00  0.00    -0.454 F  
HETATM   36  F   UNL     1     -10.778  19.845  65.370  1.00  0.00    -0.584 F  
ENDBRANCH  29  32
ENDBRANCH  23  26
ENDBRANCH  16  19
ENDBRANCH  12  15
ENDBRANCH   4   9
TORSDOF 5
ENDMDL
MODEL       34
REMARK 921   NORMALIZED FREE ENERGY PREDICTED BY IDOCK:   -6.69 KCAL/MOL
REMARK 922        TOTAL FREE ENERGY PREDICTED BY IDOCK:   -9.65 KCAL/MOL
REMARK 923 INTER-LIGAND FREE ENERGY PREDICTED BY IDOCK:   -8.87 KCAL/MOL
REMARK 924 INTRA-LIGAND FREE ENERGY PREDICTED BY IDOCK:   -0.78 KCAL/MOL
REMARK 927      BINDING AFFINITY PREDICTED BY RF-SCORE:    0.00 PKD
ROOT
HETATM    1  C   UNL     1      -6.183  19.017  66.881  1.00  0.00    -0.178 C  
HETATM    2  C   UNL     1      -6.911  18.052  65.929  1.00  0.00    -0.297 C  
HETATM    3  C   UNL     1      -6.055  18.499  68.308  1.00  0.00    -0.202 C  
HETATM    4  N   UNL     1      -8.364  18.205  65.947  1.00  0.00    -0.511 NA 
HETATM    5  C   UNL     1      -8.852  19.586  65.901  1.00  0.00    -0.050 C  
HETATM    6  C   UNL     1      -8.635  20.460  68.311  1.00  0.00     0.117 C  
HETATM    7  C   UNL     1      -8.104  20.510  66.883  1.00  0.00    -0.219 C  
HETATM    8  O   UNL     1      -6.678  20.364  66.830  1.00  0.00    -0.221 OA 
ENDROOT
BRANCH   4   9
HETATM    9  C   UNL     1      -9.158  17.254  66.563  1.00  0.00    -0.265 A  
HETATM   10  C   UNL     1     -10.385  17.650  67.089  1.00  0.00    -0.343 A  
HETATM   11  C   UNL     1     -11.207  16.736  67.743  1.00  0.00    -0.026 A  
HETATM   12  C   UNL     1     -10.802  15.415  67.880  1.00  0.00    -0.300 A  
HETATM   13  N   UNL     1      -8.765  15.967  66.643  1.00  0.00    -0.259 NA 
HETATM   14  C   UNL     1      -9.573  15.094  67.311  1.00  0.00    -0.209 A  
BRANCH  12  15
HETATM   15  N   UNL     1     -11.557  14.440  68.585  1.00  0.00    -0.296 N  
HETATM   16  C   UNL     1     -11.568  14.308  69.968  1.00  0.00    -0.261 C  
HETATM   17  H   UNL     1     -12.128  13.794  68.040  1.00  0.00     0.000 HD 
HETATM   18  O   UNL     1     -11.044  15.105  70.738  1.00  0.00    -0.293 OA 
BRANCH  16  19
HETATM   19  C   UNL     1     -12.334  13.167  70.573  1.00  0.00    -0.380 A  
HETATM   20  C   UNL     1     -13.319  13.415  71.535  1.00  0.00    -0.345 A  
HETATM   21  C   UNL     1     -13.888  12.355  72.231  1.00  0.00    -0.126 A  
HETATM   22  C   UNL     1     -13.402  11.059  72.051  1.00  0.00    -0.393 A  
HETATM   23  C   UNL     1     -12.388  10.759  71.117  1.00  0.00    -0.498 A  
HETATM   24  C   UNL     1     -11.082  11.552  69.066  1.00  0.00    -0.302 C  
HETATM   25  C   UNL     1     -11.946  11.824  70.281  1.00  0.00    -0.429 A  
BRANCH  23  26
HETATM   26  C   UNL     1     -11.775   9.394  71.118  1.00  0.00    -0.418 A  
HETATM   27  C   UNL     1     -10.390   9.193  71.247  1.00  0.00    -0.405 A  
HETATM   28  C   UNL     1      -9.829   7.910  71.180  1.00  0.00    -0.190 A  
HETATM   29  C   UNL     1     -10.630   6.778  71.022  1.00  0.00    -0.222 A  
HETATM   30  C   UNL     1     -11.998   6.948  70.849  1.00  0.00    -0.430 A  
HETATM   31  C   UNL     1     -12.548   8.239  70.884  1.00  0.00     0.055 A  
BRANCH  29  32
HETATM   32  O   UNL     1      -9.955   5.597  71.001  1.00  0.00    -0.178 OA 
HETATM   33  C   UNL     1      -9.821   4.902  69.769  1.00  0.00    -0.221 C  
HETATM   34  F   UNL     1      -8.543   4.981  69.342  1.00  0.00    -0.086 F  
HETATM   35  F   UNL     1     -10.639   5.347  68.792  1.00  0.00    -0.269 F  
HETATM   36  F   UNL     1     -10.110   3.599  69.986  1.00  0.00    -0.221 F  
ENDBRANCH  29  32
ENDBRANCH  23  26
ENDBRANCH  16  19
ENDBRANCH  12  15
ENDBRANCH   4   9
TORSDOF 5
ENDMDL
MODEL       35
REMARK 921   NORMALIZED FREE ENERGY PREDICTED BY IDOCK:   -6.64 KCAL/MOL
REMARK 922        TOTAL FREE ENERGY PREDICTED BY IDOCK:   -9.60 KCAL/MOL
REMARK 923 INTER-LIGAND FREE ENERGY PREDICTED BY IDOCK:   -8.59 KCAL/MOL
REMARK 924 INTRA-LIGAND FREE ENERGY PREDICTED BY IDOCK:   -1.00 KCAL/MOL
REMARK 927      BINDING AFFINITY PREDICTED BY RF-SCORE:    0.00 PKD
ROOT
HETATM    1  C   UNL     1      -6.889   2.613  65.256  1.00  0.00    -0.044 C  
HETATM    2  C   UNL     1      -7.947   2.646  66.372  1.00  0.00    -0.081 C  
HETATM    3  C   UNL     1      -5.992   3.843  65.217  1.00  0.00    -0.023 C  
HETATM    4  N   UNL     1      -9.177   3.336  65.985  1.00  0.00    -0.157 NA 
HETATM    5  C   UNL     1      -9.701   2.991  64.660  1.00  0.00    -0.106 C  
HETATM    6  C   UNL     1      -8.296   4.365  63.000  1.00  0.00    -0.097 C  
HETATM    7  C   UNL     1      -8.607   2.987  63.574  1.00  0.00    -0.089 C  
HETATM    8  O   UNL     1      -7.419   2.282  63.963  1.00  0.00    -0.056 OA 
ENDROOT
BRANCH   4   9
HETATM    9  C   UNL     1      -9.461   4.591  66.491  1.00  0.00    -0.173 A  
HETATM   10  C   UNL     1      -8.459   5.279  67.170  1.00  0.00    -0.106 A  
HETATM   11  C   UNL     1      -8.706   6.534  67.721  1.00  0.00    -0.115 A  
HETATM   12  C   UNL     1      -9.964   7.108  67.602  1.00  0.00    -0.158 A  
HETATM   13  N   UNL     1     -10.677   5.149  66.322  1.00  0.00    -0.287 NA 
HETATM   14  C   UNL     1     -10.905   6.367  66.893  1.00  0.00    -0.357 A  
BRANCH  12  15
HETATM   15  N   UNL     1     -10.308   8.355  68.187  1.00  0.00    -0.234 N  
HETATM   16  C   UNL     1     -10.427   9.546  67.479  1.00  0.00    -0.275 C  
HETATM   17  H   UNL     1     -10.478   8.380  69.193  1.00  0.00     0.000 HD 
HETATM   18  O   UNL     1     -10.391   9.624  66.257  1.00  0.00    -0.239 OA 
BRANCH  16  19
HETATM   19  C   UNL     1     -10.698  10.809  68.243  1.00  0.00    -0.253 A  
HETATM   20  C   UNL     1     -11.652  10.820  69.266  1.00  0.00    -0.376 A  
HETATM   21  C   UNL     1     -12.038  12.027  69.838  1.00  0.00    -0.334 A  
HETATM   22  C   UNL     1     -11.560  13.232  69.320  1.00  0.00    -0.370 A  
HETATM   23  C   UNL     1     -10.621  13.277  68.267  1.00  0.00    -0.262 A  
HETATM   24  C   UNL     1      -8.886  11.982  66.906  1.00  0.00    -0.197 C  
HETATM   25  C   UNL     1     -10.095  12.033  67.818  1.00  0.00    -0.199 A  
BRANCH  23  26
HETATM   26  C   UNL     1     -10.306  14.592  67.627  1.00  0.00    -0.233 A  
HETATM   27  C   UNL     1      -9.552  15.584  68.278  1.00  0.00    -0.201 A  
HETATM   28  C   UNL     1      -9.324  16.834  67.687  1.00  0.00    -0.228 A  
HETATM   29  C   UNL     1      -9.805  17.128  66.411  1.00  0.00    -0.300 A  
HETATM   30  C   UNL     1     -10.590  16.185  65.760  1.00  0.00    -0.347 A  
HETATM   31  C   UNL     1     -10.842  14.948  66.372  1.00  0.00    -0.325 A  
BRANCH  29  32
HETATM   32  O   UNL     1      -9.487  18.369  65.951  1.00  0.00    -0.496 OA 
HETATM   33  C   UNL     1     -10.213  19.490  66.432  1.00  0.00    -0.479 C  
HETATM   34  F   UNL     1      -9.427  20.220  67.252  1.00  0.00    -0.438 F  
HETATM   35  F   UNL     1     -11.351  19.172  67.084  1.00  0.00    -0.443 F  
HETATM   36  F   UNL     1     -10.547  20.263  65.374  1.00  0.00    -0.516 F  
ENDBRANCH  29  32
ENDBRANCH  23  26
ENDBRANCH  16  19
ENDBRANCH  12  15
ENDBRANCH   4   9
TORSDOF 5
ENDMDL
MODEL       36
REMARK 921   NORMALIZED FREE ENERGY PREDICTED BY IDOCK:   -6.64 KCAL/MOL
REMARK 922        TOTAL FREE ENERGY PREDICTED BY IDOCK:   -9.60 KCAL/MOL
REMARK 923 INTER-LIGAND FREE ENERGY PREDICTED BY IDOCK:   -9.42 KCAL/MOL
REMARK 924 INTRA-LIGAND FREE ENERGY PREDICTED BY IDOCK:   -0.18 KCAL/MOL
REMARK 927      BINDING AFFINITY PREDICTED BY RF-SCORE:    0.00 PKD
ROOT
HETATM    1  C   UNL     1     -11.242   6.515  71.754  1.00  0.00    -0.269 C  
HETATM    2  C   UNL     1     -11.497   6.637  70.242  1.00  0.00    -0.391 C  
HETATM    3  C   UNL     1     -11.665   7.739  72.555  1.00  0.00    -0.393 C  
HETATM    4  N   UNL     1     -10.407   7.290  69.520  1.00  0.00    -0.218 NA 
HETATM    5  C   UNL     1      -9.058   6.837  69.874  1.00  0.00    -0.144 C  
HETATM    6  C   UNL     1      -8.481   8.073  72.056  1.00  0.00    -0.188 C  
HETATM    7  C   UNL     1      -8.846   6.746  71.398  1.00  0.00    -0.131 C  
HETATM    8  O   UNL     1      -9.914   6.077  72.084  1.00  0.00    -0.165 OA 
ENDROOT
BRANCH   4   9
HETATM    9  C   UNL     1     -10.557   8.582  69.050  1.00  0.00    -0.154 A  
HETATM   10  C   UNL     1     -10.200   8.858  67.733  1.00  0.00    -0.283 A  
HETATM   11  C   UNL     1     -10.308  10.149  67.222  1.00  0.00    -0.291 A  
HETATM   12  C   UNL     1     -10.769  11.178  68.032  1.00  0.00    -0.211 A  
HETATM   13  N   UNL     1     -11.051   9.556  69.841  1.00  0.00    -0.234 NA 
HETATM   14  C   UNL     1     -11.123  10.818  69.329  1.00  0.00    -0.256 A  
BRANCH  12  15
HETATM   15  N   UNL     1     -10.849  12.529  67.602  1.00  0.00    -0.219 N  
HETATM   16  C   UNL     1     -11.620  12.965  66.530  1.00  0.00    -0.371 C  
HETATM   17  H   UNL     1     -10.306  13.226  68.112  1.00  0.00     0.000 HD 
HETATM   18  O   UNL     1     -12.424  12.259  65.931  1.00  0.00    -0.535 OA 
BRANCH  16  19
HETATM   19  C   UNL     1     -11.532  14.406  66.123  1.00  0.00    -0.357 A  
HETATM   20  C   UNL     1     -11.797  14.780  64.800  1.00  0.00    -0.425 A  
HETATM   21  C   UNL     1     -11.529  16.078  64.381  1.00  0.00    -0.246 A  
HETATM   22  C   UNL     1     -10.896  16.975  65.244  1.00  0.00    -0.079 A  
HETATM   23  C   UNL     1     -10.578  16.638  66.577  1.00  0.00    -0.203 A  
HETATM   24  C   UNL     1     -10.993  15.032  68.523  1.00  0.00    -0.259 C  
HETATM   25  C   UNL     1     -11.026  15.371  67.046  1.00  0.00    -0.306 A  
BRANCH  23  26
HETATM   26  C   UNL     1      -9.723  17.567  67.379  1.00  0.00    -0.274 A  
HETATM   27  C   UNL     1     -10.268  18.551  68.222  1.00  0.00    -0.412 A  
HETATM   28  C   UNL     1      -9.450  19.455  68.915  1.00  0.00    -0.448 A  
HETATM   29  C   UNL     1      -8.059  19.386  68.824  1.00  0.00    -0.353 A  
HETATM   30  C   UNL     1      -7.492  18.453  67.966  1.00  0.00    -0.263 A  
HETATM   31  C   UNL     1      -8.319  17.574  67.250  1.00  0.00    -0.225 A  
BRANCH  29  32
HETATM   32  O   UNL     1      -7.391  20.307  69.569  1.00  0.00     0.013 OA 
HETATM   33  C   UNL     1      -6.220  19.910  70.268  1.00  0.00    -0.317 C  
HETATM   34  F   UNL     1      -5.133  20.449  69.674  1.00  0.00    -0.208 F  
HETATM   35  F   UNL     1      -6.055  18.574  70.355  1.00  0.00    -0.215 F  
HETATM   36  F   UNL     1      -6.293  20.398  71.527  1.00  0.00    -0.387 F  
ENDBRANCH  29  32
ENDBRANCH  23  26
ENDBRANCH  16  19
ENDBRANCH  12  15
ENDBRANCH   4   9
TORSDOF 5
ENDMDL
MODEL       37
REMARK 921   NORMALIZED FREE ENERGY PREDICTED BY IDOCK:   -6.64 KCAL/MOL
REMARK 922        TOTAL FREE ENERGY PREDICTED BY IDOCK:   -9.59 KCAL/MOL
REMARK 923 INTER-LIGAND FREE ENERGY PREDICTED BY IDOCK:   -8.31 KCAL/MOL
REMARK 924 INTRA-LIGAND FREE ENERGY PREDICTED BY IDOCK:   -1.28 KCAL/MOL
REMARK 927      BINDING AFFINITY PREDICTED BY RF-SCORE:    0.00 PKD
ROOT
HETATM    1  C   UNL     1      -7.210   3.778  64.552  1.00  0.00    -0.066 C  
HETATM    2  C   UNL     1      -7.182   4.319  65.991  1.00  0.00    -0.072 C  
HETATM    3  C   UNL     1      -7.303   4.860  63.485  1.00  0.00    -0.050 C  
HETATM    4  N   UNL     1      -8.513   4.539  66.555  1.00  0.00    -0.109 NA 
HETATM    5  C   UNL     1      -9.477   3.458  66.331  1.00  0.00    -0.117 C  
HETATM    6  C   UNL     1     -10.333   3.802  63.929  1.00  0.00    -0.252 C  
HETATM    7  C   UNL     1      -9.479   2.960  64.872  1.00  0.00    -0.123 C  
HETATM    8  O   UNL     1      -8.165   2.724  64.347  1.00  0.00    -0.082 OA 
ENDROOT
BRANCH   4   9
HETATM    9  C   UNL     1      -9.001   5.824  66.711  1.00  0.00    -0.118 A  
HETATM   10  C   UNL     1     -10.361   5.996  66.956  1.00  0.00    -0.296 A  
HETATM   11  C   UNL     1     -10.903   7.270  67.094  1.00  0.00    -0.378 A  
HETATM   12  C   UNL     1     -10.086   8.387  66.980  1.00  0.00    -0.284 A  
HETATM   13  N   UNL     1      -8.180   6.892  66.643  1.00  0.00    -0.113 NA 
HETATM   14  C   UNL     1      -8.736   8.132  66.755  1.00  0.00    -0.135 A  
BRANCH  12  15
HETATM   15  N   UNL     1     -10.575   9.719  67.049  1.00  0.00    -0.225 N  
HETATM   16  C   UNL     1     -10.410  10.666  66.046  1.00  0.00    -0.225 C  
HETATM   17  H   UNL     1     -11.081   9.998  67.890  1.00  0.00     0.000 HD 
HETATM   18  O   UNL     1      -9.952  10.419  64.936  1.00  0.00    -0.306 OA 
BRANCH  16  19
HETATM   19  C   UNL     1     -10.891  12.066  66.295  1.00  0.00    -0.316 A  
HETATM   20  C   UNL     1     -12.107  12.497  65.753  1.00  0.00    -0.443 A  
HETATM   21  C   UNL     1     -12.457  13.841  65.822  1.00  0.00    -0.527 A  
HETATM   22  C   UNL     1     -11.552  14.774  66.329  1.00  0.00    -0.298 A  
HETATM   23  C   UNL     1     -10.299  14.396  66.858  1.00  0.00    -0.265 A  
HETATM   24  C   UNL     1      -8.859  12.484  67.758  1.00  0.00    -0.178 C  
HETATM   25  C   UNL     1     -10.034  13.001  66.952  1.00  0.00    -0.243 A  
BRANCH  23  26
HETATM   26  C   UNL     1      -9.300  15.457  67.196  1.00  0.00    -0.225 A  
HETATM   27  C   UNL     1      -9.001  15.813  68.523  1.00  0.00    -0.194 A  
HETATM   28  C   UNL     1      -8.110  16.855  68.817  1.00  0.00    -0.251 A  
HETATM   29  C   UNL     1      -7.456  17.553  67.801  1.00  0.00    -0.191 A  
HETATM   30  C   UNL     1      -7.763  17.254  66.480  1.00  0.00    -0.325 A  
HETATM   31  C   UNL     1      -8.681  16.232  66.194  1.00  0.00    -0.353 A  
BRANCH  29  32
HETATM   32  O   UNL     1      -6.600  18.520  68.232  1.00  0.00    -0.209 OA 
HETATM   33  C   UNL     1      -7.129  19.766  68.663  1.00  0.00    -0.331 C  
HETATM   34  F   UNL     1      -7.008  19.868  70.004  1.00  0.00    -0.377 F  
HETATM   35  F   UNL     1      -8.419  19.966  68.322  1.00  0.00    -0.345 F  
HETATM   36  F   UNL     1      -6.396  20.753  68.100  1.00  0.00    -0.293 F  
ENDBRANCH  29  32
ENDBRANCH  23  26
ENDBRANCH  16  19
ENDBRANCH  12  15
ENDBRANCH   4   9
TORSDOF 5
ENDMDL
MODEL       38
REMARK 921   NORMALIZED FREE ENERGY PREDICTED BY IDOCK:   -6.62 KCAL/MOL
REMARK 922        TOTAL FREE ENERGY PREDICTED BY IDOCK:   -9.57 KCAL/MOL
REMARK 923 INTER-LIGAND FREE ENERGY PREDICTED BY IDOCK:   -8.01 KCAL/MOL
REMARK 924 INTRA-LIGAND FREE ENERGY PREDICTED BY IDOCK:   -1.55 KCAL/MOL
REMARK 927      BINDING AFFINITY PREDICTED BY RF-SCORE:    0.00 PKD
ROOT
HETATM    1  C   UNL     1      -8.577  20.028  68.456  1.00  0.00    -0.021 C  
HETATM    2  C   UNL     1      -7.430  19.002  68.440  1.00  0.00    -0.300 C  
HETATM    3  C   UNL     1      -9.810  19.566  69.220  1.00  0.00    -0.347 C  
HETATM    4  N   UNL     1      -7.540  18.025  67.359  1.00  0.00    -0.202 NA 
HETATM    5  C   UNL     1      -7.878  18.577  66.044  1.00  0.00    -0.148 C  
HETATM    6  C   UNL     1     -10.425  18.943  66.100  1.00  0.00    -0.521 C  
HETATM    7  C   UNL     1      -9.042  19.586  66.109  1.00  0.00    -0.310 C  
HETATM    8  O   UNL     1      -8.901  20.553  67.159  1.00  0.00    -0.344 OA 
ENDROOT
BRANCH   4   9
HETATM    9  C   UNL     1      -7.911  16.720  67.633  1.00  0.00    -0.176 A  
HETATM   10  C   UNL     1      -8.264  15.891  66.571  1.00  0.00    -0.307 A  
HETATM   11  C   UNL     1      -8.671  14.579  66.799  1.00  0.00    -0.214 A  
HETATM   12  C   UNL     1      -8.734  14.088  68.096  1.00  0.00    -0.180 A  
HETATM   13  N   UNL     1      -7.920  16.251  68.897  1.00  0.00    -0.219 NA 
HETATM   14  C   UNL     1      -8.347  14.972  69.099  1.00  0.00    -0.187 A  
BRANCH  12  15
HETATM   15  N   UNL     1      -9.196  12.783  68.411  1.00  0.00    -0.327 N  
HETATM   16  C   UNL     1     -10.534  12.440  68.561  1.00  0.00    -0.228 C  
HETATM   17  H   UNL     1      -8.499  12.048  68.536  1.00  0.00     0.000 HD 
HETATM   18  O   UNL     1     -11.468  13.189  68.297  1.00  0.00    -0.272 OA 
BRANCH  16  19
HETATM   19  C   UNL     1     -10.873  11.044  68.995  1.00  0.00    -0.274 A  
HETATM   20  C   UNL     1     -11.242  10.791  70.321  1.00  0.00    -0.326 A  
HETATM   21  C   UNL     1     -11.367   9.480  70.766  1.00  0.00    -0.387 A  
HETATM   22  C   UNL     1     -11.019   8.421  69.926  1.00  0.00    -0.166 A  
HETATM   23  C   UNL     1     -10.609   8.623  68.591  1.00  0.00    -0.165 A  
HETATM   24  C   UNL     1     -10.528  10.240  66.612  1.00  0.00    -0.260 C  
HETATM   25  C   UNL     1     -10.665   9.955  68.094  1.00  0.00    -0.279 A  
BRANCH  23  26
HETATM   26  C   UNL     1     -10.059   7.468  67.814  1.00  0.00    -0.235 A  
HETATM   27  C   UNL     1      -8.706   7.392  67.440  1.00  0.00    -0.121 A  
HETATM   28  C   UNL     1      -8.224   6.333  66.656  1.00  0.00    -0.111 A  
HETATM   29  C   UNL     1      -9.063   5.295  66.250  1.00  0.00    -0.139 A  
HETATM   30  C   UNL     1     -10.413   5.365  66.568  1.00  0.00    -0.352 A  
HETATM   31  C   UNL     1     -10.895   6.444  67.324  1.00  0.00    -0.463 A  
BRANCH  29  32
HETATM   32  O   UNL     1      -8.455   4.322  65.517  1.00  0.00    -0.112 OA 
HETATM   33  C   UNL     1      -8.094   4.597  64.172  1.00  0.00    -0.104 C  
HETATM   34  F   UNL     1      -6.751   4.706  64.077  1.00  0.00    -0.038 F  
HETATM   35  F   UNL     1      -8.661   5.711  63.664  1.00  0.00    -0.091 F  
HETATM   36  F   UNL     1      -8.484   3.552  63.408  1.00  0.00    -0.087 F  
ENDBRANCH  29  32
ENDBRANCH  23  26
ENDBRANCH  16  19
ENDBRANCH  12  15
ENDBRANCH   4   9
TORSDOF 5
ENDMDL
MODEL       39
REMARK 921   NORMALIZED FREE ENERGY PREDICTED BY IDOCK:   -6.61 KCAL/MOL
REMARK 922        TOTAL FREE ENERGY PREDICTED BY IDOCK:   -9.56 KCAL/MOL
REMARK 923 INTER-LIGAND FREE ENERGY PREDICTED BY IDOCK:   -8.25 KCAL/MOL
REMARK 924 INTRA-LIGAND FREE ENERGY PREDICTED BY IDOCK:   -1.32 KCAL/MOL
REMARK 927      BINDING AFFINITY PREDICTED BY RF-SCORE:    0.00 PKD
ROOT
HETATM    1  C   UNL     1     -10.015  20.283  67.313  1.00  0.00    -0.440 C  
HETATM    2  C   UNL     1     -10.144  19.318  68.505  1.00  0.00    -0.430 C  
HETATM    3  C   UNL     1     -10.403  19.669  65.975  1.00  0.00    -0.620 C  
HETATM    4  N   UNL     1      -8.955  18.495  68.717  1.00  0.00    -0.284 NA 
HETATM    5  C   UNL     1      -7.676  19.208  68.649  1.00  0.00    -0.352 C  
HETATM    6  C   UNL     1      -7.174  19.455  66.137  1.00  0.00    -0.281 C  
HETATM    7  C   UNL     1      -7.588  20.149  67.430  1.00  0.00    -0.299 C  
HETATM    8  O   UNL     1      -8.753  20.968  67.256  1.00  0.00    -0.173 OA 
ENDROOT
BRANCH   4   9
HETATM    9  C   UNL     1      -8.969  17.151  68.389  1.00  0.00    -0.259 A  
HETATM   10  C   UNL     1      -8.026  16.312  68.976  1.00  0.00    -0.238 A  
HETATM   11  C   UNL     1      -7.984  14.957  68.657  1.00  0.00    -0.144 A  
HETATM   12  C   UNL     1      -8.884  14.433  67.740  1.00  0.00    -0.186 A  
HETATM   13  N   UNL     1      -9.884  16.655  67.531  1.00  0.00    -0.249 NA 
HETATM   14  C   UNL     1      -9.807  15.332  67.213  1.00  0.00    -0.220 A  
BRANCH  12  15
HETATM   15  N   UNL     1      -8.865  13.076  67.320  1.00  0.00    -0.199 N  
HETATM   16  C   UNL     1      -9.740  12.101  67.782  1.00  0.00    -0.197 C  
HETATM   17  H   UNL     1      -8.162  12.799  66.634  1.00  0.00     0.000 HD 
HETATM   18  O   UNL     1     -10.713  12.332  68.491  1.00  0.00    -0.223 OA 
BRANCH  16  19
HETATM   19  C   UNL     1      -9.540  10.684  67.328  1.00  0.00    -0.186 A  
HETATM   20  C   UNL     1      -9.760  10.339  65.990  1.00  0.00    -0.274 A  
HETATM   21  C   UNL     1      -9.763   9.001  65.612  1.00  0.00    -0.178 A  
HETATM   22  C   UNL     1      -9.658   8.001  66.581  1.00  0.00    -0.297 A  
HETATM   23  C   UNL     1      -9.467   8.295  67.948  1.00  0.00    -0.163 A  
HETATM   24  C   UNL     1      -8.787  10.059  69.670  1.00  0.00    -0.217 C  
HETATM   25  C   UNL     1      -9.280   9.664  68.293  1.00  0.00    -0.131 A  
BRANCH  23  26
HETATM   26  C   UNL     1      -9.567   7.191  68.953  1.00  0.00    -0.142 A  
HETATM   27  C   UNL     1      -8.459   6.407  69.319  1.00  0.00    -0.126 A  
HETATM   28  C   UNL     1      -8.587   5.335  70.213  1.00  0.00    -0.126 A  
HETATM   29  C   UNL     1      -9.814   5.029  70.804  1.00  0.00    -0.208 A  
HETATM   30  C   UNL     1     -10.935   5.758  70.429  1.00  0.00    -0.333 A  
HETATM   31  C   UNL     1     -10.805   6.809  69.508  1.00  0.00    -0.315 A  
BRANCH  29  32
HETATM   32  O   UNL     1      -9.786   3.981  71.671  1.00  0.00    -0.172 OA 
HETATM   33  C   UNL     1      -9.620   2.667  71.159  1.00  0.00    -0.150 C  
HETATM   34  F   UNL     1      -8.386   2.213  71.470  1.00  0.00    -0.052 F  
HETATM   35  F   UNL     1      -9.801   2.567  69.825  1.00  0.00    -0.157 F  
HETATM   36  F   UNL     1     -10.525   1.861  71.759  1.00  0.00    -0.226 F  
ENDBRANCH  29  32
ENDBRANCH  23  26
ENDBRANCH  16  19
ENDBRANCH  12  15
ENDBRANCH   4   9
TORSDOF 5
ENDMDL
MODEL       40
REMARK 921   NORMALIZED FREE ENERGY PREDICTED BY IDOCK:   -6.61 KCAL/MOL
REMARK 922        TOTAL FREE ENERGY PREDICTED BY IDOCK:   -9.56 KCAL/MOL
REMARK 923 INTER-LIGAND FREE ENERGY PREDICTED BY IDOCK:   -8.35 KCAL/MOL
REMARK 924 INTRA-LIGAND FREE ENERGY PREDICTED BY IDOCK:   -1.21 KCAL/MOL
REMARK 927      BINDING AFFINITY PREDICTED BY RF-SCORE:    0.00 PKD
ROOT
HETATM    1  C   UNL     1      -8.532   2.153  70.690  1.00  0.00    -0.050 C  
HETATM    2  C   UNL     1      -9.422   2.769  69.596  1.00  0.00    -0.078 C  
HETATM    3  C   UNL     1      -8.640   2.849  72.040  1.00  0.00    -0.088 C  
HETATM    4  N   UNL     1      -8.791   3.885  68.894  1.00  0.00    -0.099 NA 
HETATM    5  C   UNL     1      -7.398   3.669  68.493  1.00  0.00    -0.054 C  
HETATM    6  C   UNL     1      -6.009   4.095  70.617  1.00  0.00    -0.014 C  
HETATM    7  C   UNL     1      -6.543   3.066  69.626  1.00  0.00    -0.033 C  
HETATM    8  O   UNL     1      -7.168   1.955  70.284  1.00  0.00    -0.033 OA 
ENDROOT
BRANCH   4   9
HETATM    9  C   UNL     1      -9.205   5.183  69.132  1.00  0.00    -0.110 A  
HETATM   10  C   UNL     1      -8.343   6.228  68.812  1.00  0.00    -0.120 A  
HETATM   11  C   UNL     1      -8.704   7.549  69.059  1.00  0.00    -0.136 A  
HETATM   12  C   UNL     1      -9.934   7.835  69.636  1.00  0.00    -0.190 A  
HETATM   13  N   UNL     1     -10.424   5.439  69.650  1.00  0.00    -0.295 NA 
HETATM   14  C   UNL     1     -10.747   6.738  69.908  1.00  0.00    -0.250 A  
BRANCH  12  15
HETATM   15  N   UNL     1     -10.348   9.152  69.972  1.00  0.00    -0.196 N  
HETATM   16  C   UNL     1     -10.800  10.089  69.050  1.00  0.00    -0.222 C  
HETATM   17  H   UNL     1     -10.311   9.428  70.953  1.00  0.00     0.000 HD 
HETATM   18  O   UNL     1     -11.027   9.840  67.872  1.00  0.00    -0.262 OA 
BRANCH  16  19
HETATM   19  C   UNL     1     -11.109  11.476  69.532  1.00  0.00    -0.256 A  
HETATM   20  C   UNL     1     -12.124  11.682  70.474  1.00  0.00    -0.458 A  
HETATM   21  C   UNL     1     -12.538  12.976  70.773  1.00  0.00    -0.321 A  
HETATM   22  C   UNL     1     -12.022  14.058  70.058  1.00  0.00    -0.404 A  
HETATM   23  C   UNL     1     -11.020  13.901  69.076  1.00  0.00    -0.281 A  
HETATM   24  C   UNL     1      -9.213  12.376  68.104  1.00  0.00    -0.205 C  
HETATM   25  C   UNL     1     -10.475  12.597  68.913  1.00  0.00    -0.109 A  
BRANCH  23  26
HETATM   26  C   UNL     1     -10.660  15.067  68.210  1.00  0.00    -0.247 A  
HETATM   27  C   UNL     1      -9.995  16.199  68.712  1.00  0.00    -0.231 A  
HETATM   28  C   UNL     1      -9.725  17.308  67.898  1.00  0.00    -0.273 A  
HETATM   29  C   UNL     1     -10.072  17.314  66.546  1.00  0.00    -0.309 A  
HETATM   30  C   UNL     1     -10.768  16.228  66.031  1.00  0.00    -0.217 A  
HETATM   31  C   UNL     1     -11.065  15.136  66.860  1.00  0.00    -0.314 A  
BRANCH  29  32
HETATM   32  O   UNL     1      -9.727  18.444  65.871  1.00  0.00    -0.509 OA 
HETATM   33  C   UNL     1     -10.290  19.685  66.271  1.00  0.00    -0.518 C  
HETATM   34  F   UNL     1      -9.343  20.441  66.867  1.00  0.00    -0.444 F  
HETATM   35  F   UNL     1     -11.347  19.570  67.102  1.00  0.00    -0.540 F  
HETATM   36  F   UNL     1     -10.708  20.336  65.161  1.00  0.00    -0.483 F  
ENDBRANCH  29  32
ENDBRANCH  23  26
ENDBRANCH  16  19
ENDBRANCH  12  15
ENDBRANCH   4   9
TORSDOF 5
ENDMDL
MODEL       41
REMARK 921   NORMALIZED FREE ENERGY PREDICTED BY IDOCK:   -6.54 KCAL/MOL
REMARK 922        TOTAL FREE ENERGY PREDICTED BY IDOCK:   -9.46 KCAL/MOL
REMARK 923 INTER-LIGAND FREE ENERGY PREDICTED BY IDOCK:   -8.59 KCAL/MOL
REMARK 924 INTRA-LIGAND FREE ENERGY PREDICTED BY IDOCK:   -0.87 KCAL/MOL
REMARK 927      BINDING AFFINITY PREDICTED BY RF-SCORE:    0.00 PKD
ROOT
HETATM    1  C   UNL     1      -9.694   5.095  70.099  1.00  0.00    -0.204 C  
HETATM    2  C   UNL     1     -10.930   5.868  69.609  1.00  0.00    -0.377 C  
HETATM    3  C   UNL     1      -8.595   5.982  70.668  1.00  0.00    -0.134 C  
HETATM    4  N   UNL     1     -10.813   6.337  68.230  1.00  0.00    -0.294 NA 
HETATM    5  C   UNL     1     -10.292   5.355  67.274  1.00  0.00    -0.220 C  
HETATM    6  C   UNL     1      -7.741   5.381  67.601  1.00  0.00    -0.092 C  
HETATM    7  C   UNL     1      -9.046   4.618  67.803  1.00  0.00    -0.119 C  
HETATM    8  O   UNL     1      -9.192   4.142  69.149  1.00  0.00    -0.120 OA 
ENDROOT
BRANCH   4   9
HETATM    9  C   UNL     1     -10.603   7.678  67.964  1.00  0.00    -0.151 A  
HETATM   10  C   UNL     1     -10.601   8.576  69.028  1.00  0.00    -0.173 A  
HETATM   11  C   UNL     1     -10.421   9.939  68.808  1.00  0.00    -0.234 A  
HETATM   12  C   UNL     1     -10.247  10.415  67.516  1.00  0.00    -0.210 A  
HETATM   13  N   UNL     1     -10.388   8.112  66.705  1.00  0.00    -0.321 NA 
HETATM   14  C   UNL     1     -10.241   9.453  66.510  1.00  0.00    -0.238 A  
BRANCH  12  15
HETATM   15  N   UNL     1     -10.117  11.795  67.207  1.00  0.00    -0.192 N  
HETATM   16  C   UNL     1     -11.167  12.706  67.233  1.00  0.00    -0.298 C  
HETATM   17  H   UNL     1      -9.193  12.142  66.948  1.00  0.00     0.000 HD 
HETATM   18  O   UNL     1     -12.286  12.451  67.664  1.00  0.00    -0.425 OA 
BRANCH  16  19
HETATM   19  C   UNL     1     -10.906  14.114  66.785  1.00  0.00    -0.296 A  
HETATM   20  C   UNL     1     -11.261  14.517  65.493  1.00  0.00    -0.335 A  
HETATM   21  C   UNL     1     -10.846  15.756  65.016  1.00  0.00    -0.461 A  
HETATM   22  C   UNL     1      -9.988  16.548  65.781  1.00  0.00    -0.302 A  
HETATM   23  C   UNL     1      -9.575  16.173  67.077  1.00  0.00    -0.233 A  
HETATM   24  C   UNL     1     -10.005  14.663  69.095  1.00  0.00    -0.149 C  
HETATM   25  C   UNL     1     -10.155  14.994  67.624  1.00  0.00    -0.231 A  
BRANCH  23  26
HETATM   26  C   UNL     1      -8.501  16.963  67.756  1.00  0.00    -0.198 A  
HETATM   27  C   UNL     1      -8.272  18.320  67.471  1.00  0.00    -0.240 A  
HETATM   28  C   UNL     1      -7.218  19.025  68.071  1.00  0.00    -0.271 A  
HETATM   29  C   UNL     1      -6.380  18.414  69.004  1.00  0.00    -0.241 A  
HETATM   30  C   UNL     1      -6.554  17.063  69.275  1.00  0.00    -0.233 A  
HETATM   31  C   UNL     1      -7.590  16.356  68.646  1.00  0.00    -0.197 A  
BRANCH  29  32
HETATM   32  O   UNL     1      -5.417  19.224  69.525  1.00  0.00    -0.198 OA 
HETATM   33  C   UNL     1      -5.763  20.121  70.570  1.00  0.00    -0.325 C  
HETATM   34  F   UNL     1      -5.221  19.694  71.731  1.00  0.00    -0.287 F  
HETATM   35  F   UNL     1      -7.091  20.286  70.740  1.00  0.00    -0.218 F  
HETATM   36  F   UNL     1      -5.231  21.331  70.280  1.00  0.00    -0.375 F  
ENDBRANCH  29  32
ENDBRANCH  23  26
ENDBRANCH  16  19
ENDBRANCH  12  15
ENDBRANCH   4   9
TORSDOF 5
ENDMDL
MODEL       42
REMARK 921   NORMALIZED FREE ENERGY PREDICTED BY IDOCK:   -6.48 KCAL/MOL
REMARK 922        TOTAL FREE ENERGY PREDICTED BY IDOCK:   -9.39 KCAL/MOL
REMARK 923 INTER-LIGAND FREE ENERGY PREDICTED BY IDOCK:   -8.19 KCAL/MOL
REMARK 924 INTRA-LIGAND FREE ENERGY PREDICTED BY IDOCK:   -1.20 KCAL/MOL
REMARK 927      BINDING AFFINITY PREDICTED BY RF-SCORE:    0.00 PKD
ROOT
HETATM    1  C   UNL     1      -9.381   4.110  72.206  1.00  0.00    -0.125 C  
HETATM    2  C   UNL     1     -10.763   4.626  71.771  1.00  0.00     0.083 C  
HETATM    3  C   UNL     1      -8.572   5.115  73.015  1.00  0.00    -0.114 C  
HETATM    4  N   UNL     1     -10.735   5.375  70.516  1.00  0.00    -0.240 NA 
HETATM    5  C   UNL     1      -9.947   4.768  69.439  1.00  0.00    -0.199 C  
HETATM    6  C   UNL     1      -7.503   5.375  69.967  1.00  0.00    -0.069 C  
HETATM    7  C   UNL     1      -8.565   4.282  69.921  1.00  0.00    -0.068 C  
HETATM    8  O   UNL     1      -8.618   3.526  71.138  1.00  0.00    -0.070 OA 
ENDROOT
BRANCH   4   9
HETATM    9  C   UNL     1     -10.880   6.750  70.521  1.00  0.00    -0.258 A  
HETATM   10  C   UNL     1     -10.415   7.474  69.426  1.00  0.00    -0.222 A  
HETATM   11  C   UNL     1     -10.513   8.862  69.398  1.00  0.00    -0.228 A  
HETATM   12  C   UNL     1     -11.074   9.539  70.472  1.00  0.00    -0.283 A  
HETATM   13  N   UNL     1     -11.471   7.383  71.555  1.00  0.00    -0.256 NA 
HETATM   14  C   UNL     1     -11.533   8.744  71.518  1.00  0.00    -0.305 A  
BRANCH  12  15
HETATM   15  N   UNL     1     -11.155  10.956  70.541  1.00  0.00    -0.402 N  
HETATM   16  C   UNL     1     -11.678  11.760  69.535  1.00  0.00    -0.343 C  
HETATM   17  H   UNL     1     -10.808  11.413  71.384  1.00  0.00     0.000 HD 
HETATM   18  O   UNL     1     -12.256  11.331  68.543  1.00  0.00    -0.588 OA 
BRANCH  16  19
HETATM   19  C   UNL     1     -11.608  13.250  69.700  1.00  0.00    -0.329 A  
HETATM   20  C   UNL     1     -12.639  13.932  70.357  1.00  0.00    -0.350 A  
HETATM   21  C   UNL     1     -12.668  15.323  70.340  1.00  0.00    -0.400 A  
HETATM   22  C   UNL     1     -11.738  16.032  69.578  1.00  0.00    -0.275 A  
HETATM   23  C   UNL     1     -10.699  15.391  68.871  1.00  0.00    -0.244 A  
HETATM   24  C   UNL     1      -9.333  13.250  68.575  1.00  0.00    -0.091 C  
HETATM   25  C   UNL     1     -10.570  13.985  69.049  1.00  0.00    -0.205 A  
BRANCH  23  26
HETATM   26  C   UNL     1      -9.865  16.188  67.918  1.00  0.00    -0.235 A  
HETATM   27  C   UNL     1      -8.495  16.416  68.128  1.00  0.00    -0.188 A  
HETATM   28  C   UNL     1      -7.746  17.221  67.256  1.00  0.00    -0.211 A  
HETATM   29  C   UNL     1      -8.327  17.794  66.125  1.00  0.00    -0.136 A  
HETATM   30  C   UNL     1      -9.689  17.622  65.914  1.00  0.00    -0.051 A  
HETATM   31  C   UNL     1     -10.439  16.844  66.808  1.00  0.00    -0.260 A  
BRANCH  29  32
HETATM   32  O   UNL     1      -7.478  18.528  65.355  1.00  0.00    -0.484 OA 
HETATM   33  C   UNL     1      -7.056  19.803  65.817  1.00  0.00    -0.306 C  
HETATM   34  F   UNL     1      -5.757  19.745  66.182  1.00  0.00    -0.169 F  
HETATM   35  F   UNL     1      -7.781  20.284  66.849  1.00  0.00    -0.298 F  
HETATM   36  F   UNL     1      -7.164  20.680  64.794  1.00  0.00    -0.273 F  
ENDBRANCH  29  32
ENDBRANCH  23  26
ENDBRANCH  16  19
ENDBRANCH  12  15
ENDBRANCH   4   9
TORSDOF 5
ENDMDL
MODEL       43
REMARK 921   NORMALIZED FREE ENERGY PREDICTED BY IDOCK:   -6.45 KCAL/MOL
REMARK 922        TOTAL FREE ENERGY PREDICTED BY IDOCK:   -9.35 KCAL/MOL
REMARK 923 INTER-LIGAND FREE ENERGY PREDICTED BY IDOCK:   -8.23 KCAL/MOL
REMARK 924 INTRA-LIGAND FREE ENERGY PREDICTED BY IDOCK:   -1.12 KCAL/MOL
REMARK 927      BINDING AFFINITY PREDICTED BY RF-SCORE:    0.00 PKD
ROOT
HETATM    1  C   UNL     1      -6.184  20.089  67.850  1.00  0.00    -0.229 C  
HETATM    2  C   UNL     1      -5.548  18.689  67.858  1.00  0.00    -0.176 C  
HETATM    3  C   UNL     1      -7.320  20.258  68.850  1.00  0.00     0.005 C  
HETATM    4  N   UNL     1      -6.238  17.732  66.996  1.00  0.00    -0.151 NA 
HETATM    5  C   UNL     1      -6.595  18.228  65.664  1.00  0.00    -0.263 C  
HETATM    6  C   UNL     1      -8.739  19.609  66.010  1.00  0.00    -0.265 C  
HETATM    7  C   UNL     1      -7.244  19.627  65.709  1.00  0.00    -0.310 C  
HETATM    8  O   UNL     1      -6.535  20.558  66.538  1.00  0.00    -0.213 OA 
ENDROOT
BRANCH   4   9
HETATM    9  C   UNL     1      -7.019  16.732  67.548  1.00  0.00    -0.143 A  
HETATM   10  C   UNL     1      -7.822  15.970  66.704  1.00  0.00    -0.266 A  
HETATM   11  C   UNL     1      -8.645  14.971  67.216  1.00  0.00    -0.226 A  
HETATM   12  C   UNL     1      -8.675  14.731  68.583  1.00  0.00    -0.178 A  
HETATM   13  N   UNL     1      -6.996  16.485  68.874  1.00  0.00    -0.179 NA 
HETATM   14  C   UNL     1      -7.829  15.520  69.357  1.00  0.00    -0.231 A  
BRANCH  12  15
HETATM   15  N   UNL     1      -9.532  13.771  69.185  1.00  0.00    -0.356 N  
HETATM   16  C   UNL     1     -10.919  13.856  69.193  1.00  0.00    -0.218 C  
HETATM   17  H   UNL     1      -9.101  12.967  69.642  1.00  0.00     0.000 HD 
HETATM   18  O   UNL     1     -11.560  14.687  68.561  1.00  0.00    -0.287 OA 
BRANCH  16  19
HETATM   19  C   UNL     1     -11.696  12.822  69.955  1.00  0.00    -0.321 A  
HETATM   20  C   UNL     1     -12.634  13.215  70.916  1.00  0.00    -0.377 A  
HETATM   21  C   UNL     1     -13.209  12.264  71.751  1.00  0.00    -0.428 A  
HETATM   22  C   UNL     1     -12.771  10.939  71.708  1.00  0.00    -0.435 A  
HETATM   23  C   UNL     1     -11.805  10.497  70.780  1.00  0.00    -0.465 A  
HETATM   24  C   UNL     1     -10.556  10.998  68.606  1.00  0.00    -0.225 C  
HETATM   25  C   UNL     1     -11.363  11.440  69.810  1.00  0.00    -0.332 A  
BRANCH  23  26
HETATM   26  C   UNL     1     -11.235   9.120  70.921  1.00  0.00    -0.359 A  
HETATM   27  C   UNL     1     -11.755   8.017  70.221  1.00  0.00     0.081 A  
HETATM   28  C   UNL     1     -11.249   6.724  70.417  1.00  0.00    -0.378 A  
HETATM   29  C   UNL     1     -10.183   6.490  71.286  1.00  0.00    -0.198 A  
HETATM   30  C   UNL     1      -9.677   7.552  72.024  1.00  0.00    -0.195 A  
HETATM   31  C   UNL     1     -10.210   8.838  71.847  1.00  0.00    -0.415 A  
BRANCH  29  32
HETATM   32  O   UNL     1      -9.778   5.192  71.358  1.00  0.00    -0.155 OA 
HETATM   33  C   UNL     1      -8.448   4.864  70.984  1.00  0.00    -0.116 C  
HETATM   34  F   UNL     1      -7.733   4.547  72.085  1.00  0.00    -0.079 F  
HETATM   35  F   UNL     1      -7.807   5.841  70.310  1.00  0.00    -0.089 F  
HETATM   36  F   UNL     1      -8.492   3.773  70.185  1.00  0.00    -0.064 F  
ENDBRANCH  29  32
ENDBRANCH  23  26
ENDBRANCH  16  19
ENDBRANCH  12  15
ENDBRANCH   4   9
TORSDOF 5
ENDMDL
MODEL       44
REMARK 921   NORMALIZED FREE ENERGY PREDICTED BY IDOCK:   -6.43 KCAL/MOL
REMARK 922        TOTAL FREE ENERGY PREDICTED BY IDOCK:   -9.33 KCAL/MOL
REMARK 923 INTER-LIGAND FREE ENERGY PREDICTED BY IDOCK:   -8.75 KCAL/MOL
REMARK 924 INTRA-LIGAND FREE ENERGY PREDICTED BY IDOCK:   -0.58 KCAL/MOL
REMARK 927      BINDING AFFINITY PREDICTED BY RF-SCORE:    0.00 PKD
ROOT
HETATM    1  C   UNL     1      -6.990   2.276  69.578  1.00  0.00    -0.033 C  
HETATM    2  C   UNL     1      -8.334   2.446  70.306  1.00  0.00    -0.041 C  
HETATM    3  C   UNL     1      -6.059   3.473  69.710  1.00  0.00    -0.024 C  
HETATM    4  N   UNL     1      -9.349   3.124  69.502  1.00  0.00    -0.162 NA 
HETATM    5  C   UNL     1      -9.464   2.662  68.115  1.00  0.00    -0.158 C  
HETATM    6  C   UNL     1      -7.548   3.828  66.854  1.00  0.00    -0.080 C  
HETATM    7  C   UNL     1      -8.093   2.522  67.423  1.00  0.00    -0.070 C  
HETATM    8  O   UNL     1      -7.120   1.830  68.218  1.00  0.00    -0.039 OA 
ENDROOT
BRANCH   4   9
HETATM    9  C   UNL     1      -9.706   4.430  69.784  1.00  0.00    -0.221 A  
HETATM   10  C   UNL     1     -10.394   5.157  68.817  1.00  0.00    -0.162 A  
HETATM   11  C   UNL     1     -10.750   6.484  69.045  1.00  0.00    -0.324 A  
HETATM   12  C   UNL     1     -10.413   7.096  70.244  1.00  0.00    -0.217 A  
HETATM   13  N   UNL     1      -9.409   4.989  70.975  1.00  0.00    -0.146 NA 
HETATM   14  C   UNL     1      -9.744   6.297  71.167  1.00  0.00    -0.175 A  
BRANCH  12  15
HETATM   15  N   UNL     1     -10.690   8.460  70.525  1.00  0.00    -0.223 N  
HETATM   16  C   UNL     1     -11.945   8.951  70.866  1.00  0.00    -0.213 C  
HETATM   17  H   UNL     1      -9.917   9.124  70.473  1.00  0.00     0.000 HD 
HETATM   18  O   UNL     1     -12.918   8.243  71.102  1.00  0.00    -0.198 OA 
BRANCH  16  19
HETATM   19  C   UNL     1     -12.113  10.432  71.038  1.00  0.00    -0.488 A  
HETATM   20  C   UNL     1     -13.058  10.931  71.941  1.00  0.00    -0.537 A  
HETATM   21  C   UNL     1     -13.347  12.291  71.959  1.00  0.00    -0.491 A  
HETATM   22  C   UNL     1     -12.780  13.139  71.006  1.00  0.00    -0.361 A  
HETATM   23  C   UNL     1     -11.846  12.681  70.052  1.00  0.00    -0.358 A  
HETATM   24  C   UNL     1     -10.224  10.820  69.387  1.00  0.00    -0.187 C  
HETATM   25  C   UNL     1     -11.420  11.327  70.166  1.00  0.00    -0.336 A  
BRANCH  23  26
HETATM   26  C   UNL     1     -11.435  13.591  68.939  1.00  0.00    -0.348 A  
HETATM   27  C   UNL     1     -10.380  14.510  69.071  1.00  0.00    -0.227 A  
HETATM   28  C   UNL     1     -10.053  15.400  68.037  1.00  0.00    -0.226 A  
HETATM   29  C   UNL     1     -10.739  15.380  66.822  1.00  0.00    -0.310 A  
HETATM   30  C   UNL     1     -11.814  14.512  66.678  1.00  0.00    -0.383 A  
HETATM   31  C   UNL     1     -12.157  13.648  67.728  1.00  0.00    -0.325 A  
BRANCH  29  32
HETATM   32  O   UNL     1     -10.298  16.280  65.901  1.00  0.00    -0.332 OA 
HETATM   33  C   UNL     1     -10.304  17.661  66.230  1.00  0.00    -0.342 C  
HETATM   34  F   UNL     1      -9.036  18.089  66.408  1.00  0.00    -0.263 F  
HETATM   35  F   UNL     1     -11.028  17.965  67.327  1.00  0.00    -0.342 F  
HETATM   36  F   UNL     1     -10.832  18.341  65.187  1.00  0.00    -0.407 F  
ENDBRANCH  29  32
ENDBRANCH  23  26
ENDBRANCH  16  19
ENDBRANCH  12  15
ENDBRANCH   4   9
TORSDOF 5
ENDMDL
MODEL       45
REMARK 921   NORMALIZED FREE ENERGY PREDICTED BY IDOCK:   -6.38 KCAL/MOL
REMARK 922        TOTAL FREE ENERGY PREDICTED BY IDOCK:   -9.26 KCAL/MOL
REMARK 923 INTER-LIGAND FREE ENERGY PREDICTED BY IDOCK:   -8.07 KCAL/MOL
REMARK 924 INTRA-LIGAND FREE ENERGY PREDICTED BY IDOCK:   -1.19 KCAL/MOL
REMARK 927      BINDING AFFINITY PREDICTED BY RF-SCORE:    0.00 PKD
ROOT
HETATM    1  C   UNL     1      -8.686   2.653  67.770  1.00  0.00    -0.112 C  
HETATM    2  C   UNL     1      -9.044   3.397  66.472  1.00  0.00    -0.161 C  
HETATM    3  C   UNL     1      -9.399   3.186  69.006  1.00  0.00    -0.230 C  
HETATM    4  N   UNL     1      -8.224   4.584  66.239  1.00  0.00    -0.106 NA 
HETATM    5  C   UNL     1      -6.786   4.410  66.462  1.00  0.00    -0.050 C  
HETATM    6  C   UNL     1      -6.472   4.577  69.010  1.00  0.00    -0.040 C  
HETATM    7  C   UNL     1      -6.478   3.674  67.781  1.00  0.00    -0.038 C  
HETATM    8  O   UNL     1      -7.273   2.496  67.978  1.00  0.00    -0.048 OA 
ENDROOT
BRANCH   4   9
HETATM    9  C   UNL     1      -8.761   5.848  66.412  1.00  0.00    -0.131 A  
HETATM   10  C   UNL     1     -10.118   5.962  66.700  1.00  0.00    -0.229 A  
HETATM   11  C   UNL     1     -10.709   7.212  66.856  1.00  0.00    -0.363 A  
HETATM   12  C   UNL     1      -9.944   8.363  66.717  1.00  0.00    -0.284 A  
HETATM   13  N   UNL     1      -7.988   6.949  66.319  1.00  0.00    -0.104 NA 
HETATM   14  C   UNL     1      -8.593   8.164  66.449  1.00  0.00    -0.139 A  
BRANCH  12  15
HETATM   15  N   UNL     1     -10.487   9.672  66.803  1.00  0.00    -0.214 N  
HETATM   16  C   UNL     1     -10.367  10.636  65.808  1.00  0.00    -0.219 C  
HETATM   17  H   UNL     1     -10.999   9.922  67.649  1.00  0.00     0.000 HD 
HETATM   18  O   UNL     1      -9.907  10.418  64.693  1.00  0.00    -0.299 OA 
BRANCH  16  19
HETATM   19  C   UNL     1     -10.904  12.012  66.075  1.00  0.00    -0.329 A  
HETATM   20  C   UNL     1     -12.131  12.405  65.529  1.00  0.00    -0.417 A  
HETATM   21  C   UNL     1     -12.532  13.733  65.615  1.00  0.00    -0.541 A  
HETATM   22  C   UNL     1     -11.667  14.692  66.145  1.00  0.00    -0.316 A  
HETATM   23  C   UNL     1     -10.406  14.354  66.680  1.00  0.00    -0.275 A  
HETATM   24  C   UNL     1      -8.902  12.484  67.563  1.00  0.00    -0.184 C  
HETATM   25  C   UNL     1     -10.088  12.968  66.754  1.00  0.00    -0.247 A  
BRANCH  23  26
HETATM   26  C   UNL     1      -9.451  15.446  67.043  1.00  0.00    -0.232 A  
HETATM   27  C   UNL     1      -8.722  16.160  66.076  1.00  0.00    -0.282 A  
HETATM   28  C   UNL     1      -7.784  17.135  66.442  1.00  0.00    -0.345 A  
HETATM   29  C   UNL     1      -7.566  17.463  67.781  1.00  0.00    -0.194 A  
HETATM   30  C   UNL     1      -8.239  16.745  68.761  1.00  0.00    -0.250 A  
HETATM   31  C   UNL     1      -9.152  15.747  68.389  1.00  0.00    -0.188 A  
BRANCH  29  32
HETATM   32  O   UNL     1      -6.647  18.445  67.988  1.00  0.00    -0.204 OA 
HETATM   33  C   UNL     1      -7.085  19.709  68.463  1.00  0.00    -0.321 C  
HETATM   34  F   UNL     1      -6.697  19.869  69.747  1.00  0.00    -0.361 F  
HETATM   35  F   UNL     1      -8.418  19.898  68.382  1.00  0.00    -0.356 F  
HETATM   36  F   UNL     1      -6.487  20.670  67.722  1.00  0.00    -0.263 F  
ENDBRANCH  29  32
ENDBRANCH  23  26
ENDBRANCH  16  19
ENDBRANCH  12  15
ENDBRANCH   4   9
TORSDOF 5
ENDMDL
MODEL       46
REMARK 921   NORMALIZED FREE ENERGY PREDICTED BY IDOCK:   -6.29 KCAL/MOL
REMARK 922        TOTAL FREE ENERGY PREDICTED BY IDOCK:   -9.15 KCAL/MOL
REMARK 923 INTER-LIGAND FREE ENERGY PREDICTED BY IDOCK:   -7.86 KCAL/MOL
REMARK 924 INTRA-LIGAND FREE ENERGY PREDICTED BY IDOCK:   -1.29 KCAL/MOL
REMARK 927      BINDING AFFINITY PREDICTED BY RF-SCORE:    0.00 PKD
ROOT
HETATM    1  C   UNL     1      -7.989   2.468  69.135  1.00  0.00    -0.048 C  
HETATM    2  C   UNL     1      -7.057   3.554  68.572  1.00  0.00    -0.050 C  
HETATM    3  C   UNL     1      -9.375   2.454  68.504  1.00  0.00    -0.252 C  
HETATM    4  N   UNL     1      -7.201   4.847  69.239  1.00  0.00    -0.055 NA 
HETATM    5  C   UNL     1      -7.259   4.796  70.703  1.00  0.00    -0.049 C  
HETATM    6  C   UNL     1      -9.681   4.130  71.260  1.00  0.00    -0.255 C  
HETATM    7  C   UNL     1      -8.217   3.703  71.219  1.00  0.00    -0.067 C  
HETATM    8  O   UNL     1      -8.041   2.436  70.570  1.00  0.00    -0.042 OA 
ENDROOT
BRANCH   4   9
HETATM    9  C   UNL     1      -7.837   5.896  68.599  1.00  0.00    -0.102 A  
HETATM   10  C   UNL     1      -8.071   7.068  69.312  1.00  0.00    -0.120 A  
HETATM   11  C   UNL     1      -8.732   8.141  68.719  1.00  0.00    -0.138 A  
HETATM   12  C   UNL     1      -9.170   8.045  67.405  1.00  0.00    -0.134 A  
HETATM   13  N   UNL     1      -8.211   5.796  67.307  1.00  0.00    -0.102 NA 
HETATM   14  C   UNL     1      -8.880   6.849  66.755  1.00  0.00    -0.125 A  
BRANCH  12  15
HETATM   15  N   UNL     1      -9.901   9.072  66.752  1.00  0.00    -0.211 N  
HETATM   16  C   UNL     1      -9.320  10.132  66.067  1.00  0.00    -0.169 C  
HETATM   17  H   UNL     1     -10.920   9.029  66.789  1.00  0.00     0.000 HD 
HETATM   18  O   UNL     1      -8.121  10.220  65.827  1.00  0.00    -0.136 OA 
BRANCH  16  19
HETATM   19  C   UNL     1     -10.214  11.202  65.510  1.00  0.00    -0.319 A  
HETATM   20  C   UNL     1     -10.712  11.092  64.207  1.00  0.00    -0.348 A  
HETATM   21  C   UNL     1     -11.376  12.167  63.628  1.00  0.00    -0.545 A  
HETATM   22  C   UNL     1     -11.449  13.388  64.300  1.00  0.00    -0.429 A  
HETATM   23  C   UNL     1     -10.935  13.562  65.603  1.00  0.00    -0.296 A  
HETATM   24  C   UNL     1     -10.118  12.416  67.738  1.00  0.00    -0.203 C  
HETATM   25  C   UNL     1     -10.425  12.403  66.254  1.00  0.00    -0.271 A  
BRANCH  23  26
HETATM   26  C   UNL     1     -10.864  14.939  66.182  1.00  0.00    -0.327 A  
HETATM   27  C   UNL     1     -11.409  15.255  67.438  1.00  0.00    -0.285 A  
HETATM   28  C   UNL     1     -11.390  16.567  67.934  1.00  0.00    -0.049 A  
HETATM   29  C   UNL     1     -10.794  17.603  67.213  1.00  0.00    -0.136 A  
HETATM   30  C   UNL     1     -10.285  17.330  65.950  1.00  0.00    -0.273 A  
HETATM   31  C   UNL     1     -10.338  16.022  65.446  1.00  0.00    -0.386 A  
BRANCH  29  32
HETATM   32  O   UNL     1     -10.825  18.818  67.826  1.00  0.00    -0.389 OA 
HETATM   33  C   UNL     1      -9.708  19.227  68.601  1.00  0.00    -0.429 C  
HETATM   34  F   UNL     1      -9.045  20.211  67.956  1.00  0.00    -0.383 F  
HETATM   35  F   UNL     1      -8.843  18.234  68.891  1.00  0.00    -0.304 F  
HETATM   36  F   UNL     1     -10.166  19.729  69.770  1.00  0.00    -0.433 F  
ENDBRANCH  29  32
ENDBRANCH  23  26
ENDBRANCH  16  19
ENDBRANCH  12  15
ENDBRANCH   4   9
TORSDOF 5
ENDMDL
MODEL       47
REMARK 921   NORMALIZED FREE ENERGY PREDICTED BY IDOCK:   -6.12 KCAL/MOL
REMARK 922        TOTAL FREE ENERGY PREDICTED BY IDOCK:   -8.92 KCAL/MOL
REMARK 923 INTER-LIGAND FREE ENERGY PREDICTED BY IDOCK:   -7.82 KCAL/MOL
REMARK 924 INTRA-LIGAND FREE ENERGY PREDICTED BY IDOCK:   -1.10 KCAL/MOL
REMARK 927      BINDING AFFINITY PREDICTED BY RF-SCORE:    0.00 PKD
ROOT
HETATM    1  C   UNL     1      -7.968   2.944  67.380  1.00  0.00    -0.076 C  
HETATM    2  C   UNL     1      -9.459   3.324  67.368  1.00  0.00    -0.154 C  
HETATM    3  C   UNL     1      -7.158   3.653  68.457  1.00  0.00    -0.051 C  
HETATM    4  N   UNL     1      -9.747   4.519  66.577  1.00  0.00    -0.189 NA 
HETATM    5  C   UNL     1      -9.095   4.577  65.265  1.00  0.00    -0.149 C  
HETATM    6  C   UNL     1      -6.690   5.356  65.741  1.00  0.00    -0.053 C  
HETATM    7  C   UNL     1      -7.600   4.204  65.331  1.00  0.00    -0.085 C  
HETATM    8  O   UNL     1      -7.342   3.014  66.089  1.00  0.00    -0.069 OA 
ENDROOT
BRANCH   4   9
HETATM    9  C   UNL     1     -10.057   5.713  67.203  1.00  0.00    -0.183 A  
HETATM   10  C   UNL     1      -9.814   6.904  66.525  1.00  0.00    -0.168 A  
HETATM   11  C   UNL     1     -10.083   8.131  67.124  1.00  0.00    -0.334 A  
HETATM   12  C   UNL     1     -10.593   8.175  68.415  1.00  0.00    -0.099 A  
HETATM   13  N   UNL     1     -10.596   5.729  68.439  1.00  0.00    -0.226 NA 
HETATM   14  C   UNL     1     -10.827   6.943  69.017  1.00  0.00    -0.212 A  
BRANCH  12  15
HETATM   15  N   UNL     1     -10.837   9.387  69.114  1.00  0.00    -0.356 N  
HETATM   16  C   UNL     1     -11.311  10.551  68.520  1.00  0.00    -0.257 C  
HETATM   17  H   UNL     1     -10.653   9.405  70.117  1.00  0.00     0.000 HD 
HETATM   18  O   UNL     1     -11.707  10.620  67.362  1.00  0.00    -0.391 OA 
BRANCH  16  19
HETATM   19  C   UNL     1     -11.427  11.789  69.361  1.00  0.00    -0.371 A  
HETATM   20  C   UNL     1     -12.415  11.876  70.349  1.00  0.00    -0.252 A  
HETATM   21  C   UNL     1     -12.645  13.088  70.992  1.00  0.00    -0.386 A  
HETATM   22  C   UNL     1     -11.972  14.238  70.577  1.00  0.00    -0.402 A  
HETATM   23  C   UNL     1     -10.990  14.211  69.563  1.00  0.00    -0.176 A  
HETATM   24  C   UNL     1      -9.405  12.762  68.175  1.00  0.00    -0.214 C  
HETATM   25  C   UNL     1     -10.633  12.934  69.046  1.00  0.00    -0.079 A  
BRANCH  23  26
HETATM   26  C   UNL     1     -10.457  15.503  69.029  1.00  0.00    -0.231 A  
HETATM   27  C   UNL     1      -9.195  16.002  69.392  1.00  0.00    -0.202 A  
HETATM   28  C   UNL     1      -8.741  17.247  68.932  1.00  0.00    -0.172 A  
HETATM   29  C   UNL     1      -9.513  18.020  68.063  1.00  0.00    -0.284 A  
HETATM   30  C   UNL     1     -10.782  17.573  67.721  1.00  0.00    -0.333 A  
HETATM   31  C   UNL     1     -11.243  16.343  68.213  1.00  0.00    -0.300 A  
BRANCH  29  32
HETATM   32  O   UNL     1      -8.938  19.192  67.677  1.00  0.00    -0.291 OA 
HETATM   33  C   UNL     1      -8.270  19.251  66.425  1.00  0.00    -0.319 C  
HETATM   34  F   UNL     1      -8.999  19.988  65.559  1.00  0.00    -0.280 F  
HETATM   35  F   UNL     1      -8.021  18.045  65.873  1.00  0.00    -0.268 F  
HETATM   36  F   UNL     1      -7.083  19.873  66.608  1.00  0.00    -0.214 F  
ENDBRANCH  29  32
ENDBRANCH  23  26
ENDBRANCH  16  19
ENDBRANCH  12  15
ENDBRANCH   4   9
TORSDOF 5
ENDMDL
MODEL       48
REMARK 921   NORMALIZED FREE ENERGY PREDICTED BY IDOCK:   -6.10 KCAL/MOL
REMARK 922        TOTAL FREE ENERGY PREDICTED BY IDOCK:   -8.90 KCAL/MOL
REMARK 923 INTER-LIGAND FREE ENERGY PREDICTED BY IDOCK:   -7.79 KCAL/MOL
REMARK 924 INTRA-LIGAND FREE ENERGY PREDICTED BY IDOCK:   -1.11 KCAL/MOL
REMARK 927      BINDING AFFINITY PREDICTED BY RF-SCORE:    0.00 PKD
ROOT
HETATM    1  C   UNL     1     -11.006   4.736  73.739  1.00  0.00    -0.300 C  
HETATM    2  C   UNL     1     -11.739   5.471  72.603  1.00  0.00    -0.175 C  
HETATM    3  C   UNL     1     -10.067   5.623  74.544  1.00  0.00    -0.296 C  
HETATM    4  N   UNL     1     -10.975   5.522  71.357  1.00  0.00    -0.189 NA 
HETATM    5  C   UNL     1     -10.340   4.264  70.956  1.00  0.00     0.127 C  
HETATM    6  C   UNL     1      -8.199   4.106  72.375  1.00  0.00    -0.099 C  
HETATM    7  C   UNL     1      -9.606   3.574  72.124  1.00  0.00    -0.140 C  
HETATM    8  O   UNL     1     -10.383   3.509  73.328  1.00  0.00    -0.143 OA 
ENDROOT
BRANCH   4   9
HETATM    9  C   UNL     1     -10.390   6.707  70.947  1.00  0.00    -0.208 A  
HETATM   10  C   UNL     1     -11.181   7.850  70.871  1.00  0.00    -0.284 A  
HETATM   11  C   UNL     1     -10.644   9.058  70.437  1.00  0.00    -0.258 A  
HETATM   12  C   UNL     1      -9.307   9.130  70.068  1.00  0.00    -0.199 A  
HETATM   13  N   UNL     1      -9.078   6.763  70.638  1.00  0.00    -0.155 NA 
HETATM   14  C   UNL     1      -8.580   7.950  70.190  1.00  0.00    -0.134 A  
BRANCH  12  15
HETATM   15  N   UNL     1      -8.703  10.311  69.560  1.00  0.00    -0.290 N  
HETATM   16  C   UNL     1      -8.324  10.488  68.234  1.00  0.00    -0.122 C  
HETATM   17  H   UNL     1      -8.537  11.080  70.210  1.00  0.00     0.000 HD 
HETATM   18  O   UNL     1      -8.598   9.706  67.331  1.00  0.00    -0.125 OA 
BRANCH  16  19
HETATM   19  C   UNL     1      -7.604  11.750  67.857  1.00  0.00    -0.121 A  
HETATM   20  C   UNL     1      -6.217  11.842  68.020  1.00  0.00    -0.052 A  
HETATM   21  C   UNL     1      -5.581  13.067  67.855  1.00  0.00    -0.123 A  
HETATM   22  C   UNL     1      -6.334  14.222  67.636  1.00  0.00    -0.126 A  
HETATM   23  C   UNL     1      -7.738  14.189  67.496  1.00  0.00    -0.201 A  
HETATM   24  C   UNL     1      -9.799  12.741  67.055  1.00  0.00    -0.231 C  
HETATM   25  C   UNL     1      -8.354  12.906  67.483  1.00  0.00    -0.183 A  
BRANCH  23  26
HETATM   26  C   UNL     1      -8.498  15.477  67.468  1.00  0.00    -0.188 A  
HETATM   27  C   UNL     1      -9.133  15.949  66.306  1.00  0.00    -0.379 A  
HETATM   28  C   UNL     1      -9.785  17.190  66.283  1.00  0.00    -0.296 A  
HETATM   29  C   UNL     1      -9.861  17.988  67.426  1.00  0.00    -0.309 A  
HETATM   30  C   UNL     1      -9.207  17.568  68.577  1.00  0.00    -0.278 A  
HETATM   31  C   UNL     1      -8.528  16.340  68.583  1.00  0.00    -0.221 A  
BRANCH  29  32
HETATM   32  O   UNL     1     -10.546  19.153  67.267  1.00  0.00    -0.428 OA 
HETATM   33  C   UNL     1      -9.944  20.211  66.536  1.00  0.00    -0.457 C  
HETATM   34  F   UNL     1     -10.567  20.351  65.346  1.00  0.00    -0.468 F  
HETATM   35  F   UNL     1      -8.622  20.053  66.323  1.00  0.00    -0.338 F  
HETATM   36  F   UNL     1     -10.115  21.357  67.235  1.00  0.00    -0.401 F  
ENDBRANCH  29  32
ENDBRANCH  23  26
ENDBRANCH  16  19
ENDBRANCH  12  15
ENDBRANCH   4   9
TORSDOF 5
ENDMDL
MODEL       49
REMARK 921   NORMALIZED FREE ENERGY PREDICTED BY IDOCK:   -6.08 KCAL/MOL
REMARK 922        TOTAL FREE ENERGY PREDICTED BY IDOCK:   -8.87 KCAL/MOL
REMARK 923 INTER-LIGAND FREE ENERGY PREDICTED BY IDOCK:   -7.39 KCAL/MOL
REMARK 924 INTRA-LIGAND FREE ENERGY PREDICTED BY IDOCK:   -1.48 KCAL/MOL
REMARK 927      BINDING AFFINITY PREDICTED BY RF-SCORE:    0.00 PKD
ROOT
HETATM    1  C   UNL     1      -9.597   4.162  69.549  1.00  0.00    -0.204 C  
HETATM    2  C   UNL     1     -10.607   5.288  69.831  1.00  0.00    -0.221 C  
HETATM    3  C   UNL     1      -8.173   4.485  69.982  1.00  0.00    -0.069 C  
HETATM    4  N   UNL     1     -10.678   6.285  68.766  1.00  0.00    -0.264 NA 
HETATM    5  C   UNL     1     -10.733   5.748  67.403  1.00  0.00    -0.248 C  
HETATM    6  C   UNL     1      -8.301   5.150  66.813  1.00  0.00    -0.107 C  
HETATM    7  C   UNL     1      -9.693   4.635  67.164  1.00  0.00    -0.192 C  
HETATM    8  O   UNL     1      -9.659   3.651  68.208  1.00  0.00    -0.165 OA 
ENDROOT
BRANCH   4   9
HETATM    9  C   UNL     1     -10.126   7.541  68.947  1.00  0.00    -0.192 A  
HETATM   10  C   UNL     1     -10.066   8.407  67.859  1.00  0.00    -0.254 A  
HETATM   11  C   UNL     1      -9.495   9.670  67.986  1.00  0.00    -0.146 A  
HETATM   12  C   UNL     1      -8.973  10.075  69.207  1.00  0.00    -0.178 A  
HETATM   13  N   UNL     1      -9.668   7.930  70.155  1.00  0.00    -0.179 NA 
HETATM   14  C   UNL     1      -9.089   9.161  70.250  1.00  0.00    -0.218 A  
BRANCH  12  15
HETATM   15  N   UNL     1      -8.323  11.323  69.399  1.00  0.00    -0.359 N  
HETATM   16  C   UNL     1      -6.954  11.522  69.265  1.00  0.00    -0.098 C  
HETATM   17  H   UNL     1      -8.898  12.127  69.651  1.00  0.00     0.000 HD 
HETATM   18  O   UNL     1      -6.177  10.679  68.829  1.00  0.00    -0.043 OA 
BRANCH  16  19
HETATM   19  C   UNL     1      -6.389  12.872  69.597  1.00  0.00    -0.089 A  
HETATM   20  C   UNL     1      -5.603  13.042  70.742  1.00  0.00    -0.183 A  
HETATM   21  C   UNL     1      -5.244  14.322  71.150  1.00  0.00    -0.144 A  
HETATM   22  C   UNL     1      -5.756  15.437  70.486  1.00  0.00    -0.099 A  
HETATM   23  C   UNL     1      -6.580  15.321  69.346  1.00  0.00    -0.152 A  
HETATM   24  C   UNL     1      -7.405  13.800  67.463  1.00  0.00    -0.176 C  
HETATM   25  C   UNL     1      -6.786  14.010  68.830  1.00  0.00    -0.105 A  
BRANCH  23  26
HETATM   26  C   UNL     1      -7.257  16.542  68.807  1.00  0.00    -0.197 A  
HETATM   27  C   UNL     1      -8.609  16.825  69.063  1.00  0.00    -0.156 A  
HETATM   28  C   UNL     1      -9.242  17.941  68.495  1.00  0.00    -0.288 A  
HETATM   29  C   UNL     1      -8.540  18.834  67.684  1.00  0.00    -0.272 A  
HETATM   30  C   UNL     1      -7.214  18.557  67.378  1.00  0.00    -0.210 A  
HETATM   31  C   UNL     1      -6.597  17.421  67.923  1.00  0.00    -0.171 A  
BRANCH  29  32
HETATM   32  O   UNL     1      -9.272  19.884  67.223  1.00  0.00    -0.317 OA 
HETATM   33  C   UNL     1     -10.342  19.637  66.322  1.00  0.00    -0.518 C  
HETATM   34  F   UNL     1     -11.520  19.834  66.953  1.00  0.00    -0.390 F  
HETATM   35  F   UNL     1     -10.335  18.400  65.784  1.00  0.00    -0.378 F  
HETATM   36  F   UNL     1     -10.255  20.528  65.309  1.00  0.00    -0.403 F  
ENDBRANCH  29  32
ENDBRANCH  23  26
ENDBRANCH  16  19
ENDBRANCH  12  15
ENDBRANCH   4   9
TORSDOF 5
ENDMDL
MODEL       50
REMARK 921   NORMALIZED FREE ENERGY PREDICTED BY IDOCK:   -6.06 KCAL/MOL
REMARK 922        TOTAL FREE ENERGY PREDICTED BY IDOCK:   -8.84 KCAL/MOL
REMARK 923 INTER-LIGAND FREE ENERGY PREDICTED BY IDOCK:   -9.42 KCAL/MOL
REMARK 924 INTRA-LIGAND FREE ENERGY PREDICTED BY IDOCK:    0.58 KCAL/MOL
REMARK 927      BINDING AFFINITY PREDICTED BY RF-SCORE:    0.00 PKD
ROOT
HETATM    1  C   UNL     1      -7.634   2.998  64.721  1.00  0.00    -0.076 C  
HETATM    2  C   UNL     1      -6.900   4.347  64.807  1.00  0.00    -0.046 C  
HETATM    3  C   UNL     1      -9.068   3.104  64.219  1.00  0.00    -0.116 C  
HETATM    4  N   UNL     1      -7.122   5.050  66.069  1.00  0.00    -0.070 NA 
HETATM    5  C   UNL     1      -7.018   4.224  67.275  1.00  0.00    -0.063 C  
HETATM    6  C   UNL     1      -9.273   2.998  67.452  1.00  0.00    -0.225 C  
HETATM    7  C   UNL     1      -7.782   2.891  67.147  1.00  0.00    -0.074 C  
HETATM    8  O   UNL     1      -7.529   2.204  65.914  1.00  0.00    -0.064 OA 
ENDROOT
BRANCH   4   9
HETATM    9  C   UNL     1      -7.940   6.165  66.112  1.00  0.00    -0.108 A  
HETATM   10  C   UNL     1      -7.442   7.375  65.635  1.00  0.00    -0.084 A  
HETATM   11  C   UNL     1      -8.218   8.530  65.682  1.00  0.00    -0.130 A  
HETATM   12  C   UNL     1      -9.499   8.484  66.215  1.00  0.00    -0.231 A  
HETATM   13  N   UNL     1      -9.198   6.085  66.590  1.00  0.00    -0.138 NA 
HETATM   14  C   UNL     1      -9.930   7.234  66.652  1.00  0.00    -0.176 A  
BRANCH  12  15
HETATM   15  N   UNL     1     -10.326   9.630  66.352  1.00  0.00    -0.214 N  
HETATM   16  C   UNL     1     -10.380  10.671  65.432  1.00  0.00    -0.233 C  
HETATM   17  H   UNL     1     -10.920   9.694  67.179  1.00  0.00     0.000 HD 
HETATM   18  O   UNL     1      -9.831  10.647  64.336  1.00  0.00    -0.280 OA 
BRANCH  16  19
HETATM   19  C   UNL     1     -11.225  11.869  65.753  1.00  0.00    -0.365 A  
HETATM   20  C   UNL     1     -11.671  12.709  64.727  1.00  0.00    -0.402 A  
HETATM   21  C   UNL     1     -12.285  13.916  65.039  1.00  0.00    -0.444 A  
HETATM   22  C   UNL     1     -12.358  14.341  66.367  1.00  0.00    -0.378 A  
HETATM   23  C   UNL     1     -11.894  13.546  67.437  1.00  0.00    -0.423 A  
HETATM   24  C   UNL     1     -11.193  11.210  68.205  1.00  0.00    -0.356 C  
HETATM   25  C   UNL     1     -11.438  12.236  67.117  1.00  0.00    -0.419 A  
BRANCH  23  26
HETATM   26  C   UNL     1     -11.815  14.142  68.807  1.00  0.00    -0.384 A  
HETATM   27  C   UNL     1     -10.902  15.159  69.133  1.00  0.00    -0.251 A  
HETATM   28  C   UNL     1     -10.799  15.658  70.440  1.00  0.00    -0.358 A  
HETATM   29  C   UNL     1     -11.629  15.190  71.459  1.00  0.00    -0.387 A  
HETATM   30  C   UNL     1     -12.512  14.155  71.178  1.00  0.00    -0.445 A  
HETATM   31  C   UNL     1     -12.585  13.638  69.876  1.00  0.00    -0.116 A  
BRANCH  29  32
HETATM   32  O   UNL     1     -11.439  15.781  72.670  1.00  0.00    -0.383 OA 
HETATM   33  C   UNL     1     -12.565  16.041  73.495  1.00  0.00    -0.575 C  
HETATM   34  F   UNL     1     -12.557  15.197  74.549  1.00  0.00    -0.616 F  
HETATM   35  F   UNL     1     -13.751  15.937  72.859  1.00  0.00    -0.579 F  
HETATM   36  F   UNL     1     -12.460  17.303  73.968  1.00  0.00    -0.214 F  
ENDBRANCH  29  32
ENDBRANCH  23  26
ENDBRANCH  16  19
ENDBRANCH  12  15
ENDBRANCH   4   9
TORSDOF 5
ENDMDL
MODEL       51
REMARK 921   NORMALIZED FREE ENERGY PREDICTED BY IDOCK:   -6.02 KCAL/MOL
REMARK 922        TOTAL FREE ENERGY PREDICTED BY IDOCK:   -8.79 KCAL/MOL
REMARK 923 INTER-LIGAND FREE ENERGY PREDICTED BY IDOCK:   -7.94 KCAL/MOL
REMARK 924 INTRA-LIGAND FREE ENERGY PREDICTED BY IDOCK:   -0.85 KCAL/MOL
REMARK 927      BINDING AFFINITY PREDICTED BY RF-SCORE:    0.00 PKD
ROOT
HETATM    1  C   UNL     1      -7.516   4.574  70.909  1.00  0.00    -0.052 C  
HETATM    2  C   UNL     1      -7.211   5.971  71.477  1.00  0.00    -0.083 C  
HETATM    3  C   UNL     1      -7.594   4.528  69.388  1.00  0.00    -0.055 C  
HETATM    4  N   UNL     1      -8.404   6.792  71.671  1.00  0.00    -0.111 NA 
HETATM    5  C   UNL     1      -9.538   6.113  72.305  1.00  0.00    -0.152 C  
HETATM    6  C   UNL     1     -10.657   4.764  70.421  1.00  0.00     0.104 C  
HETATM    7  C   UNL     1      -9.814   4.725  71.691  1.00  0.00    -0.184 C  
HETATM    8  O   UNL     1      -8.634   3.925  71.535  1.00  0.00    -0.092 OA 
ENDROOT
BRANCH   4   9
HETATM    9  C   UNL     1      -8.672   7.847  70.818  1.00  0.00    -0.134 A  
HETATM   10  C   UNL     1      -9.464   8.895  71.280  1.00  0.00    -0.343 A  
HETATM   11  C   UNL     1      -9.783   9.965  70.450  1.00  0.00    -0.151 A  
HETATM   12  C   UNL     1      -9.315   9.992  69.143  1.00  0.00    -0.193 A  
HETATM   13  N   UNL     1      -8.167   7.874  69.567  1.00  0.00    -0.127 NA 
HETATM   14  C   UNL     1      -8.514   8.919  68.763  1.00  0.00    -0.131 A  
BRANCH  12  15
HETATM   15  N   UNL     1      -9.647  11.019  68.220  1.00  0.00    -0.165 N  
HETATM   16  C   UNL     1     -10.916  11.212  67.686  1.00  0.00    -0.269 C  
HETATM   17  H   UNL     1      -8.906  11.657  67.929  1.00  0.00     0.000 HD 
HETATM   18  O   UNL     1     -11.917  10.612  68.061  1.00  0.00    -0.457 OA 
BRANCH  16  19
HETATM   19  C   UNL     1     -11.101  12.275  66.643  1.00  0.00    -0.344 A  
HETATM   20  C   UNL     1     -11.484  11.923  65.343  1.00  0.00    -0.310 A  
HETATM   21  C   UNL     1     -11.467  12.881  64.335  1.00  0.00    -0.405 A  
HETATM   22  C   UNL     1     -10.965  14.157  64.591  1.00  0.00    -0.393 A  
HETATM   23  C   UNL     1     -10.535  14.553  65.876  1.00  0.00    -0.322 A  
HETATM   24  C   UNL     1     -10.576  14.048  68.382  1.00  0.00    -0.259 C  
HETATM   25  C   UNL     1     -10.732  13.623  66.936  1.00  0.00    -0.275 A  
BRANCH  23  26
HETATM   26  C   UNL     1      -9.823  15.858  66.037  1.00  0.00    -0.366 A  
HETATM   27  C   UNL     1      -8.434  15.937  66.239  1.00  0.00    -0.302 A  
HETATM   28  C   UNL     1      -7.795  17.167  66.453  1.00  0.00    -0.352 A  
HETATM   29  C   UNL     1      -8.511  18.365  66.434  1.00  0.00    -0.245 A  
HETATM   30  C   UNL     1      -9.890  18.316  66.280  1.00  0.00    -0.323 A  
HETATM   31  C   UNL     1     -10.527  17.079  66.100  1.00  0.00    -0.274 A  
BRANCH  29  32
HETATM   32  O   UNL     1      -7.759  19.483  66.630  1.00  0.00    -0.246 OA 
HETATM   33  C   UNL     1      -6.764  19.820  65.674  1.00  0.00    -0.271 C  
HETATM   34  F   UNL     1      -7.159  20.905  64.974  1.00  0.00    -0.183 F  
HETATM   35  F   UNL     1      -6.467  18.826  64.812  1.00  0.00    -0.298 F  
HETATM   36  F   UNL     1      -5.631  20.141  66.340  1.00  0.00    -0.175 F  
ENDBRANCH  29  32
ENDBRANCH  23  26
ENDBRANCH  16  19
ENDBRANCH  12  15
ENDBRANCH   4   9
TORSDOF 5
ENDMDL
MODEL       52
REMARK 921   NORMALIZED FREE ENERGY PREDICTED BY IDOCK:   -5.98 KCAL/MOL
REMARK 922        TOTAL FREE ENERGY PREDICTED BY IDOCK:   -8.74 KCAL/MOL
REMARK 923 INTER-LIGAND FREE ENERGY PREDICTED BY IDOCK:   -7.29 KCAL/MOL
REMARK 924 INTRA-LIGAND FREE ENERGY PREDICTED BY IDOCK:   -1.45 KCAL/MOL
REMARK 927      BINDING AFFINITY PREDICTED BY RF-SCORE:    0.00 PKD
ROOT
HETATM    1  C   UNL     1      -7.564   4.600  66.091  1.00  0.00    -0.090 C  
HETATM    2  C   UNL     1      -7.242   5.018  67.536  1.00  0.00    -0.070 C  
HETATM    3  C   UNL     1      -7.704   5.769  65.125  1.00  0.00    -0.095 C  
HETATM    4  N   UNL     1      -8.430   5.326  68.330  1.00  0.00    -0.097 NA 
HETATM    5  C   UNL     1      -9.534   4.370  68.206  1.00  0.00    -0.153 C  
HETATM    6  C   UNL     1     -10.723   4.991  66.010  1.00  0.00    -0.241 C  
HETATM    7  C   UNL     1      -9.829   3.994  66.740  1.00  0.00    -0.133 C  
HETATM    8  O   UNL     1      -8.652   3.668  65.986  1.00  0.00    -0.109 OA 
ENDROOT
BRANCH   4   9
HETATM    9  C   UNL     1      -8.737   6.637  68.647  1.00  0.00    -0.124 A  
HETATM   10  C   UNL     1      -9.939   6.902  69.296  1.00  0.00    -0.164 A  
HETATM   11  C   UNL     1     -10.305   8.207  69.611  1.00  0.00    -0.221 A  
HETATM   12  C   UNL     1      -9.469   9.262  69.271  1.00  0.00    -0.160 A  
HETATM   13  N   UNL     1      -7.887   7.641  68.348  1.00  0.00    -0.119 NA 
HETATM   14  C   UNL     1      -8.277   8.914  68.642  1.00  0.00    -0.116 A  
BRANCH  12  15
HETATM   15  N   UNL     1      -9.800  10.623  69.506  1.00  0.00    -0.413 N  
HETATM   16  C   UNL     1     -10.476  11.432  68.600  1.00  0.00    -0.201 C  
HETATM   17  H   UNL     1      -9.523  11.035  70.397  1.00  0.00     0.000 HD 
HETATM   18  O   UNL     1     -10.987  11.023  67.563  1.00  0.00    -0.242 OA 
BRANCH  16  19
HETATM   19  C   UNL     1     -10.670  12.881  68.939  1.00  0.00    -0.195 A  
HETATM   20  C   UNL     1     -11.916  13.337  69.384  1.00  0.00    -0.356 A  
HETATM   21  C   UNL     1     -12.148  14.702  69.511  1.00  0.00    -0.335 A  
HETATM   22  C   UNL     1     -11.181  15.617  69.092  1.00  0.00    -0.315 A  
HETATM   23  C   UNL     1      -9.921  15.210  68.605  1.00  0.00    -0.220 A  
HETATM   24  C   UNL     1      -8.220  13.309  68.432  1.00  0.00    -0.134 C  
HETATM   25  C   UNL     1      -9.630  13.818  68.655  1.00  0.00    -0.121 A  
BRANCH  23  26
HETATM   26  C   UNL     1      -9.015  16.227  67.986  1.00  0.00    -0.187 A  
HETATM   27  C   UNL     1      -8.626  16.164  66.637  1.00  0.00    -0.311 A  
HETATM   28  C   UNL     1      -7.724  17.090  66.093  1.00  0.00    -0.292 A  
HETATM   29  C   UNL     1      -7.208  18.133  66.862  1.00  0.00    -0.205 A  
HETATM   30  C   UNL     1      -7.540  18.197  68.209  1.00  0.00    -0.280 A  
HETATM   31  C   UNL     1      -8.417  17.247  68.754  1.00  0.00    -0.233 A  
BRANCH  29  32
HETATM   32  O   UNL     1      -6.365  18.971  66.198  1.00  0.00    -0.177 OA 
HETATM   33  C   UNL     1      -6.888  20.158  65.620  1.00  0.00    -0.287 C  
HETATM   34  F   UNL     1      -6.470  21.229  66.329  1.00  0.00    -0.309 F  
HETATM   35  F   UNL     1      -8.235  20.186  65.538  1.00  0.00    -0.304 F  
HETATM   36  F   UNL     1      -6.397  20.269  64.365  1.00  0.00    -0.276 F  
ENDBRANCH  29  32
ENDBRANCH  23  26
ENDBRANCH  16  19
ENDBRANCH  12  15
ENDBRANCH   4   9
TORSDOF 5
ENDMDL
MODEL       53
REMARK 921   NORMALIZED FREE ENERGY PREDICTED BY IDOCK:   -5.78 KCAL/MOL
REMARK 922        TOTAL FREE ENERGY PREDICTED BY IDOCK:   -8.49 KCAL/MOL
REMARK 923 INTER-LIGAND FREE ENERGY PREDICTED BY IDOCK:   -7.33 KCAL/MOL
REMARK 924 INTRA-LIGAND FREE ENERGY PREDICTED BY IDOCK:   -1.16 KCAL/MOL
REMARK 927      BINDING AFFINITY PREDICTED BY RF-SCORE:    0.00 PKD
ROOT
HETATM    1  C   UNL     1      -8.033  18.249  67.243  1.00  0.00    -0.224 C  
HETATM    2  C   UNL     1      -8.131  17.377  65.979  1.00  0.00    -0.144 C  
HETATM    3  C   UNL     1      -7.485  17.516  68.460  1.00  0.00    -0.264 C  
HETATM    4  N   UNL     1      -9.379  16.622  65.890  1.00  0.00    -0.505 NA 
HETATM    5  C   UNL     1     -10.596  17.379  66.201  1.00  0.00    -0.208 C  
HETATM    6  C   UNL     1     -10.709  17.447  68.771  1.00  0.00    -0.197 C  
HETATM    7  C   UNL     1     -10.454  18.224  67.483  1.00  0.00    -0.411 C  
HETATM    8  O   UNL     1      -9.235  18.978  67.538  1.00  0.00    -0.284 OA 
ENDROOT
BRANCH   4   9
HETATM    9  C   UNL     1      -9.387  15.257  66.114  1.00  0.00    -0.325 A  
HETATM   10  C   UNL     1      -8.652  14.754  67.184  1.00  0.00    -0.248 A  
HETATM   11  C   UNL     1      -8.607  13.385  67.434  1.00  0.00    -0.204 A  
HETATM   12  C   UNL     1      -9.294  12.506  66.607  1.00  0.00    -0.236 A  
HETATM   13  N   UNL     1     -10.100  14.428  65.325  1.00  0.00    -0.378 NA 
HETATM   14  C   UNL     1     -10.020  13.089  65.572  1.00  0.00    -0.214 A  
BRANCH  12  15
HETATM   15  N   UNL     1      -9.247  11.095  66.762  1.00  0.00    -0.168 N  
HETATM   16  C   UNL     1      -8.131  10.314  66.487  1.00  0.00    -0.121 C  
HETATM   17  H   UNL     1     -10.088  10.624  67.097  1.00  0.00     0.000 HD 
HETATM   18  O   UNL     1      -7.024  10.768  66.219  1.00  0.00    -0.125 OA 
BRANCH  16  19
HETATM   19  C   UNL     1      -8.255   8.822  66.599  1.00  0.00    -0.107 A  
HETATM   20  C   UNL     1      -8.419   8.043  65.448  1.00  0.00    -0.155 A  
HETATM   21  C   UNL     1      -8.725   6.692  65.566  1.00  0.00    -0.051 A  
HETATM   22  C   UNL     1      -8.977   6.139  66.823  1.00  0.00    -0.125 A  
HETATM   23  C   UNL     1      -8.858   6.889  68.012  1.00  0.00    -0.123 A  
HETATM   24  C   UNL     1      -7.928   9.003  69.110  1.00  0.00    -0.101 C  
HETATM   25  C   UNL     1      -8.363   8.218  67.889  1.00  0.00    -0.128 A  
BRANCH  23  26
HETATM   26  C   UNL     1      -9.337   6.297  69.299  1.00  0.00    -0.139 A  
HETATM   27  C   UNL     1     -10.676   6.389  69.717  1.00  0.00    -0.341 A  
HETATM   28  C   UNL     1     -11.091   5.884  70.958  1.00  0.00    -0.315 A  
HETATM   29  C   UNL     1     -10.196   5.234  71.809  1.00  0.00    -0.210 A  
HETATM   30  C   UNL     1      -8.858   5.165  71.443  1.00  0.00    -0.145 A  
HETATM   31  C   UNL     1      -8.444   5.703  70.215  1.00  0.00    -0.123 A  
BRANCH  29  32
HETATM   32  O   UNL     1     -10.741   4.772  72.967  1.00  0.00    -0.203 OA 
HETATM   33  C   UNL     1     -10.723   3.376  73.228  1.00  0.00    -0.194 C  
HETATM   34  F   UNL     1      -9.837   3.111  74.212  1.00  0.00    -0.114 F  
HETATM   35  F   UNL     1     -10.424   2.617  72.153  1.00  0.00    -0.229 F  
HETATM   36  F   UNL     1     -11.951   3.011  73.661  1.00  0.00    -0.272 F  
ENDBRANCH  29  32
ENDBRANCH  23  26
ENDBRANCH  16  19
ENDBRANCH  12  15
ENDBRANCH   4   9
TORSDOF 5
ENDMDL
MODEL       54
REMARK 921   NORMALIZED FREE ENERGY PREDICTED BY IDOCK:   -5.58 KCAL/MOL
REMARK 922        TOTAL FREE ENERGY PREDICTED BY IDOCK:   -8.22 KCAL/MOL
REMARK 923 INTER-LIGAND FREE ENERGY PREDICTED BY IDOCK:   -7.25 KCAL/MOL
REMARK 924 INTRA-LIGAND FREE ENERGY PREDICTED BY IDOCK:   -0.98 KCAL/MOL
REMARK 927      BINDING AFFINITY PREDICTED BY RF-SCORE:    0.00 PKD
ROOT
HETATM    1  C   UNL     1      -9.057   2.243  72.984  1.00  0.00    -0.073 C  
HETATM    2  C   UNL     1      -7.938   3.282  72.796  1.00  0.00    -0.068 C  
HETATM    3  C   UNL     1      -9.855   1.956  71.719  1.00  0.00    -0.217 C  
HETATM    4  N   UNL     1      -8.393   4.661  72.960  1.00  0.00    -0.100 NA 
HETATM    5  C   UNL     1      -9.260   4.904  74.117  1.00  0.00    -0.114 C  
HETATM    6  C   UNL     1     -11.598   4.119  73.387  1.00  0.00    -0.162 C  
HETATM    7  C   UNL     1     -10.374   3.847  74.254  1.00  0.00    -0.206 C  
HETATM    8  O   UNL     1      -9.902   2.499  74.117  1.00  0.00    -0.092 OA 
ENDROOT
BRANCH   4   9
HETATM    9  C   UNL     1      -8.533   5.485  71.858  1.00  0.00    -0.123 A  
HETATM   10  C   UNL     1      -7.509   5.517  70.915  1.00  0.00    -0.089 A  
HETATM   11  C   UNL     1      -7.591   6.351  69.804  1.00  0.00    -0.093 A  
HETATM   12  C   UNL     1      -8.700   7.167  69.631  1.00  0.00    -0.141 A  
HETATM   13  N   UNL     1      -9.641   6.235  71.687  1.00  0.00    -0.155 NA 
HETATM   14  C   UNL     1      -9.689   7.064  70.606  1.00  0.00    -0.172 A  
BRANCH  12  15
HETATM   15  N   UNL     1      -8.829   8.087  68.556  1.00  0.00    -0.134 N  
HETATM   16  C   UNL     1      -9.963   8.208  67.761  1.00  0.00    -0.181 C  
HETATM   17  H   UNL     1      -8.038   8.698  68.353  1.00  0.00     0.000 HD 
HETATM   18  O   UNL     1     -11.025   7.640  67.989  1.00  0.00    -0.056 OA 
BRANCH  16  19
HETATM   19  C   UNL     1      -9.923   9.152  66.595  1.00  0.00    -0.343 A  
HETATM   20  C   UNL     1      -9.357   8.745  65.381  1.00  0.00    -0.095 A  
HETATM   21  C   UNL     1      -9.147   9.675  64.370  1.00  0.00    -0.279 A  
HETATM   22  C   UNL     1      -9.396  11.029  64.602  1.00  0.00    -0.235 A  
HETATM   23  C   UNL     1      -9.937  11.496  65.819  1.00  0.00    -0.271 A  
HETATM   24  C   UNL     1     -11.164  10.883  67.977  1.00  0.00    -0.378 C  
HETATM   25  C   UNL     1     -10.319  10.513  66.774  1.00  0.00    -0.301 A  
BRANCH  23  26
HETATM   26  C   UNL     1      -9.988  12.969  66.077  1.00  0.00    -0.277 A  
HETATM   27  C   UNL     1     -10.835  13.828  65.356  1.00  0.00    -0.312 A  
HETATM   28  C   UNL     1     -10.821  15.215  65.568  1.00  0.00    -0.373 A  
HETATM   29  C   UNL     1      -9.991  15.790  66.530  1.00  0.00    -0.269 A  
HETATM   30  C   UNL     1      -9.112  14.972  67.228  1.00  0.00    -0.213 A  
HETATM   31  C   UNL     1      -9.108  13.590  66.987  1.00  0.00    -0.248 A  
BRANCH  29  32
HETATM   32  O   UNL     1     -10.100  17.141  66.646  1.00  0.00    -0.283 OA 
HETATM   33  C   UNL     1     -10.569  17.693  67.868  1.00  0.00    -0.387 C  
HETATM   34  F   UNL     1      -9.548  18.296  68.514  1.00  0.00    -0.287 F  
HETATM   35  F   UNL     1     -11.142  16.794  68.695  1.00  0.00    -0.325 F  
HETATM   36  F   UNL     1     -11.496  18.634  67.578  1.00  0.00    -0.200 F  
ENDBRANCH  29  32
ENDBRANCH  23  26
ENDBRANCH  16  19
ENDBRANCH  12  15
ENDBRANCH   4   9
TORSDOF 5
ENDMDL
MODEL       55
REMARK 921   NORMALIZED FREE ENERGY PREDICTED BY IDOCK:   -5.53 KCAL/MOL
REMARK 922        TOTAL FREE ENERGY PREDICTED BY IDOCK:   -8.16 KCAL/MOL
REMARK 923 INTER-LIGAND FREE ENERGY PREDICTED BY IDOCK:   -6.91 KCAL/MOL
REMARK 924 INTRA-LIGAND FREE ENERGY PREDICTED BY IDOCK:   -1.25 KCAL/MOL
REMARK 927      BINDING AFFINITY PREDICTED BY RF-SCORE:    0.00 PKD
ROOT
HETATM    1  C   UNL     1     -10.709  20.073  66.873  1.00  0.00    -0.236 C  
HETATM    2  C   UNL     1     -10.997  18.958  67.892  1.00  0.00    -0.064 C  
HETATM    3  C   UNL     1     -10.649  19.593  65.429  1.00  0.00    -0.147 C  
HETATM    4  N   UNL     1      -9.795  18.257  68.341  1.00  0.00    -0.349 NA 
HETATM    5  C   UNL     1      -8.658  19.116  68.686  1.00  0.00    -0.361 C  
HETATM    6  C   UNL     1      -7.573  19.735  66.437  1.00  0.00    -0.310 C  
HETATM    7  C   UNL     1      -8.400  20.208  67.628  1.00  0.00    -0.298 C  
HETATM    8  O   UNL     1      -9.588  20.902  67.221  1.00  0.00    -0.435 OA 
ENDROOT
BRANCH   4   9
HETATM    9  C   UNL     1      -9.530  16.973  67.901  1.00  0.00    -0.245 A  
HETATM   10  C   UNL     1      -8.669  16.176  68.650  1.00  0.00    -0.214 A  
HETATM   11  C   UNL     1      -8.351  14.886  68.233  1.00  0.00    -0.148 A  
HETATM   12  C   UNL     1      -8.888  14.387  67.054  1.00  0.00    -0.237 A  
HETATM   13  N   UNL     1     -10.101  16.493  66.778  1.00  0.00    -0.279 NA 
HETATM   14  C   UNL     1      -9.755  15.237  66.374  1.00  0.00    -0.285 A  
BRANCH  12  15
HETATM   15  N   UNL     1      -8.564  13.105  66.534  1.00  0.00    -0.424 N  
HETATM   16  C   UNL     1      -9.498  12.112  66.262  1.00  0.00    -0.232 C  
HETATM   17  H   UNL     1      -7.582  12.900  66.348  1.00  0.00     0.000 HD 
HETATM   18  O   UNL     1     -10.711  12.280  66.304  1.00  0.00    -0.247 OA 
BRANCH  16  19
HETATM   19  C   UNL     1      -9.004  10.769  65.809  1.00  0.00    -0.203 A  
HETATM   20  C   UNL     1      -8.899  10.484  64.443  1.00  0.00    -0.210 A  
HETATM   21  C   UNL     1      -8.629   9.185  64.027  1.00  0.00    -0.186 A  
HETATM   22  C   UNL     1      -8.572   8.149  64.961  1.00  0.00    -0.076 A  
HETATM   23  C   UNL     1      -8.703   8.378  66.347  1.00  0.00    -0.159 A  
HETATM   24  C   UNL     1      -8.648  10.104  68.233  1.00  0.00    -0.116 C  
HETATM   25  C   UNL     1      -8.793   9.734  66.771  1.00  0.00    -0.151 A  
BRANCH  23  26
HETATM   26  C   UNL     1      -8.836   7.208  67.270  1.00  0.00    -0.120 A  
HETATM   27  C   UNL     1      -7.737   6.667  67.960  1.00  0.00    -0.108 A  
HETATM   28  C   UNL     1      -7.871   5.530  68.770  1.00  0.00    -0.095 A  
HETATM   29  C   UNL     1      -9.110   4.914  68.952  1.00  0.00    -0.112 A  
HETATM   30  C   UNL     1     -10.205   5.400  68.250  1.00  0.00    -0.224 A  
HETATM   31  C   UNL     1     -10.057   6.518  67.415  1.00  0.00    -0.205 A  
BRANCH  29  32
HETATM   32  O   UNL     1      -9.097   3.837  69.784  1.00  0.00    -0.096 OA 
HETATM   33  C   UNL     1      -8.617   2.594  69.294  1.00  0.00    -0.069 C  
HETATM   34  F   UNL     1      -7.420   2.318  69.856  1.00  0.00    -0.042 F  
HETATM   35  F   UNL     1      -8.494   2.539  67.951  1.00  0.00    -0.076 F  
HETATM   36  F   UNL     1      -9.487   1.628  69.667  1.00  0.00    -0.152 F  
ENDBRANCH  29  32
ENDBRANCH  23  26
ENDBRANCH  16  19
ENDBRANCH  12  15
ENDBRANCH   4   9
TORSDOF 5
ENDMDL
MODEL       56
REMARK 921   NORMALIZED FREE ENERGY PREDICTED BY IDOCK:   -5.52 KCAL/MOL
REMARK 922        TOTAL FREE ENERGY PREDICTED BY IDOCK:   -8.15 KCAL/MOL
REMARK 923 INTER-LIGAND FREE ENERGY PREDICTED BY IDOCK:   -6.65 KCAL/MOL
REMARK 924 INTRA-LIGAND FREE ENERGY PREDICTED BY IDOCK:   -1.49 KCAL/MOL
REMARK 927      BINDING AFFINITY PREDICTED BY RF-SCORE:    0.00 PKD
ROOT
HETATM    1  C   UNL     1     -10.239  16.058  66.110  1.00  0.00    -0.324 C  
HETATM    2  C   UNL     1     -11.083  15.049  65.313  1.00  0.00    -0.386 C  
HETATM    3  C   UNL     1      -8.781  15.650  66.276  1.00  0.00    -0.325 C  
HETATM    4  N   UNL     1     -11.642  13.980  66.139  1.00  0.00    -0.353 NA 
HETATM    5  C   UNL     1     -12.243  14.411  67.404  1.00  0.00    -0.195 C  
HETATM    6  C   UNL     1     -10.264  14.749  69.012  1.00  0.00    -0.237 C  
HETATM    7  C   UNL     1     -11.353  15.408  68.173  1.00  0.00    -0.348 C  
HETATM    8  O   UNL     1     -10.838  16.465  67.350  1.00  0.00    -0.302 OA 
ENDROOT
BRANCH   4   9
HETATM    9  C   UNL     1     -11.121  12.700  66.068  1.00  0.00    -0.287 A  
HETATM   10  C   UNL     1     -10.814  12.173  64.816  1.00  0.00    -0.351 A  
HETATM   11  C   UNL     1     -10.314  10.880  64.693  1.00  0.00    -0.407 A  
HETATM   12  C   UNL     1     -10.123  10.100  65.824  1.00  0.00    -0.254 A  
HETATM   13  N   UNL     1     -10.899  11.978  67.185  1.00  0.00    -0.242 NA 
HETATM   14  C   UNL     1     -10.434  10.705  67.039  1.00  0.00    -0.243 A  
BRANCH  12  15
HETATM   15  N   UNL     1      -9.673   8.753  65.774  1.00  0.00    -0.461 N  
HETATM   16  C   UNL     1      -8.376   8.373  65.448  1.00  0.00    -0.157 C  
HETATM   17  H   UNL     1     -10.345   8.017  65.990  1.00  0.00     0.000 HD 
HETATM   18  O   UNL     1      -7.444   9.158  65.311  1.00  0.00    -0.094 OA 
BRANCH  16  19
HETATM   19  C   UNL     1      -8.066   6.909  65.335  1.00  0.00    -0.133 A  
HETATM   20  C   UNL     1      -8.147   6.269  64.093  1.00  0.00    -0.067 A  
HETATM   21  C   UNL     1      -8.049   4.884  64.021  1.00  0.00    -0.116 A  
HETATM   22  C   UNL     1      -7.981   4.126  65.192  1.00  0.00    -0.093 A  
HETATM   23  C   UNL     1      -7.929   4.721  66.470  1.00  0.00    -0.103 A  
HETATM   24  C   UNL     1      -7.495   6.856  67.808  1.00  0.00    -0.098 C  
HETATM   25  C   UNL     1      -7.843   6.141  66.518  1.00  0.00    -0.104 A  
BRANCH  23  26
HETATM   26  C   UNL     1      -8.063   3.855  67.683  1.00  0.00    -0.090 A  
HETATM   27  C   UNL     1      -9.291   3.666  68.340  1.00  0.00    -0.225 A  
HETATM   28  C   UNL     1      -9.382   2.903  69.513  1.00  0.00    -0.199 A  
HETATM   29  C   UNL     1      -8.261   2.270  70.052  1.00  0.00    -0.041 A  
HETATM   30  C   UNL     1      -7.026   2.473  69.450  1.00  0.00    -0.036 A  
HETATM   31  C   UNL     1      -6.937   3.265  68.295  1.00  0.00    -0.050 A  
BRANCH  29  32
HETATM   32  O   UNL     1      -8.500   1.542  71.176  1.00  0.00    -0.046 OA 
HETATM   33  C   UNL     1      -8.550   2.207  72.430  1.00  0.00    -0.062 C  
HETATM   34  F   UNL     1      -9.825   2.241  72.874  1.00  0.00    -0.126 F  
HETATM   35  F   UNL     1      -8.059   3.463  72.409  1.00  0.00    -0.063 F  
HETATM   36  F   UNL     1      -7.817   1.494  73.316  1.00  0.00    -0.034 F  
ENDBRANCH  29  32
ENDBRANCH  23  26
ENDBRANCH  16  19
ENDBRANCH  12  15
ENDBRANCH   4   9
TORSDOF 5
ENDMDL
MODEL       57
REMARK 921   NORMALIZED FREE ENERGY PREDICTED BY IDOCK:   -5.42 KCAL/MOL
REMARK 922        TOTAL FREE ENERGY PREDICTED BY IDOCK:   -8.02 KCAL/MOL
REMARK 923 INTER-LIGAND FREE ENERGY PREDICTED BY IDOCK:   -6.40 KCAL/MOL
REMARK 924 INTRA-LIGAND FREE ENERGY PREDICTED BY IDOCK:   -1.61 KCAL/MOL
REMARK 927      BINDING AFFINITY PREDICTED BY RF-SCORE:    0.00 PKD
ROOT
HETATM    1  C   UNL     1      -9.839   4.343  65.428  1.00  0.00    -0.210 C  
HETATM    2  C   UNL     1      -8.662   5.125  64.822  1.00  0.00    -0.133 C  
HETATM    3  C   UNL     1     -10.776   5.193  66.276  1.00  0.00    -0.272 C  
HETATM    4  N   UNL     1      -7.509   5.223  65.714  1.00  0.00    -0.080 NA 
HETATM    5  C   UNL     1      -7.128   3.979  66.390  1.00  0.00    -0.064 C  
HETATM    6  C   UNL     1      -8.760   3.756  68.366  1.00  0.00    -0.132 C  
HETATM    7  C   UNL     1      -8.339   3.240  66.994  1.00  0.00    -0.097 C  
HETATM    8  O   UNL     1      -9.449   3.130  66.092  1.00  0.00    -0.132 OA 
ENDROOT
BRANCH   4   9
HETATM    9  C   UNL     1      -7.211   6.421  66.340  1.00  0.00    -0.073 A  
HETATM   10  C   UNL     1      -7.728   7.598  65.807  1.00  0.00    -0.100 A  
HETATM   11  C   UNL     1      -7.434   8.830  66.385  1.00  0.00    -0.087 A  
HETATM   12  C   UNL     1      -6.612   8.893  67.502  1.00  0.00    -0.062 A  
HETATM   13  N   UNL     1      -6.448   6.452  67.452  1.00  0.00    -0.047 NA 
HETATM   14  C   UNL     1      -6.152   7.671  67.986  1.00  0.00    -0.040 A  
BRANCH  12  15
HETATM   15  N   UNL     1      -6.219  10.114  68.111  1.00  0.00    -0.049 N  
HETATM   16  C   UNL     1      -7.010  10.837  68.997  1.00  0.00    -0.085 C  
HETATM   17  H   UNL     1      -5.297  10.486  67.884  1.00  0.00     0.000 HD 
HETATM   18  O   UNL     1      -8.069  10.430  69.461  1.00  0.00    -0.161 OA 
BRANCH  16  19
HETATM   19  C   UNL     1      -6.509  12.164  69.486  1.00  0.00    -0.100 A  
HETATM   20  C   UNL     1      -5.704  12.232  70.629  1.00  0.00    -0.135 A  
HETATM   21  C   UNL     1      -5.402  13.468  71.190  1.00  0.00    -0.189 A  
HETATM   22  C   UNL     1      -5.989  14.628  70.682  1.00  0.00    -0.164 A  
HETATM   23  C   UNL     1      -6.834  14.611  69.551  1.00  0.00    -0.165 A  
HETATM   24  C   UNL     1      -7.625  13.295  67.507  1.00  0.00    -0.169 C  
HETATM   25  C   UNL     1      -6.984  13.366  68.878  1.00  0.00    -0.102 A  
BRANCH  23  26
HETATM   26  C   UNL     1      -7.587  15.850  69.184  1.00  0.00    -0.213 A  
HETATM   27  C   UNL     1      -6.939  17.054  68.859  1.00  0.00    -0.219 A  
HETATM   28  C   UNL     1      -7.665  18.222  68.582  1.00  0.00    -0.318 A  
HETATM   29  C   UNL     1      -9.060  18.223  68.581  1.00  0.00    -0.283 A  
HETATM   30  C   UNL     1      -9.728  17.060  68.941  1.00  0.00    -0.259 A  
HETATM   31  C   UNL     1      -8.995  15.904  69.250  1.00  0.00    -0.251 A  
BRANCH  29  32
HETATM   32  O   UNL     1      -9.632  19.418  68.269  1.00  0.00    -0.336 OA 
HETATM   33  C   UNL     1     -10.179  19.602  66.972  1.00  0.00    -0.439 C  
HETATM   34  F   UNL     1     -11.527  19.630  67.050  1.00  0.00    -0.437 F  
HETATM   35  F   UNL     1      -9.811  18.661  66.078  1.00  0.00    -0.338 F  
HETATM   36  F   UNL     1      -9.762  20.801  66.504  1.00  0.00    -0.464 F  
ENDBRANCH  29  32
ENDBRANCH  23  26
ENDBRANCH  16  19
ENDBRANCH  12  15
ENDBRANCH   4   9
TORSDOF 5
ENDMDL
MODEL       58
REMARK 921   NORMALIZED FREE ENERGY PREDICTED BY IDOCK:   -5.42 KCAL/MOL
REMARK 922        TOTAL FREE ENERGY PREDICTED BY IDOCK:   -8.01 KCAL/MOL
REMARK 923 INTER-LIGAND FREE ENERGY PREDICTED BY IDOCK:   -8.38 KCAL/MOL
REMARK 924 INTRA-LIGAND FREE ENERGY PREDICTED BY IDOCK:    0.36 KCAL/MOL
REMARK 927      BINDING AFFINITY PREDICTED BY RF-SCORE:    0.00 PKD
ROOT
HETATM    1  C   UNL     1      -7.003   2.992  66.341  1.00  0.00    -0.053 C  
HETATM    2  C   UNL     1      -6.311   4.365  66.391  1.00  0.00    -0.036 C  
HETATM    3  C   UNL     1      -8.236   2.952  65.448  1.00  0.00    -0.091 C  
HETATM    4  N   UNL     1      -6.874   5.262  67.398  1.00  0.00    -0.059 NA 
HETATM    5  C   UNL     1      -7.121   4.658  68.711  1.00  0.00    -0.053 C  
HETATM    6  C   UNL     1      -9.344   3.387  68.462  1.00  0.00    -0.231 C  
HETATM    7  C   UNL     1      -7.829   3.292  68.609  1.00  0.00    -0.058 C  
HETATM    8  O   UNL     1      -7.244   2.417  67.635  1.00  0.00    -0.051 OA 
ENDROOT
BRANCH   4   9
HETATM    9  C   UNL     1      -7.662   6.334  67.017  1.00  0.00    -0.100 A  
HETATM   10  C   UNL     1      -7.063   7.393  66.340  1.00  0.00    -0.074 A  
HETATM   11  C   UNL     1      -7.809   8.506  65.960  1.00  0.00    -0.098 A  
HETATM   12  C   UNL     1      -9.163   8.568  66.260  1.00  0.00    -0.207 A  
HETATM   13  N   UNL     1      -8.985   6.351  67.278  1.00  0.00    -0.107 NA 
HETATM   14  C   UNL     1      -9.690   7.462  66.920  1.00  0.00    -0.205 A  
BRANCH  12  15
HETATM   15  N   UNL     1      -9.975   9.694  65.958  1.00  0.00    -0.280 N  
HETATM   16  C   UNL     1     -10.003  10.330  64.723  1.00  0.00    -0.321 C  
HETATM   17  H   UNL     1     -10.578  10.059  66.696  1.00  0.00     0.000 HD 
HETATM   18  O   UNL     1      -9.441   9.906  63.719  1.00  0.00    -0.268 OA 
BRANCH  16  19
HETATM   19  C   UNL     1     -10.834  11.571  64.574  1.00  0.00    -0.390 A  
HETATM   20  C   UNL     1     -11.830  11.635  63.593  1.00  0.00    -0.390 A  
HETATM   21  C   UNL     1     -12.464  12.844  63.329  1.00  0.00    -0.315 A  
HETATM   22  C   UNL     1     -12.033  14.012  63.961  1.00  0.00    -0.388 A  
HETATM   23  C   UNL     1     -11.010  14.007  64.933  1.00  0.00    -0.398 A  
HETATM   24  C   UNL     1      -9.620  12.599  66.552  1.00  0.00    -0.248 C  
HETATM   25  C   UNL     1     -10.500  12.738  65.327  1.00  0.00    -0.312 A  
BRANCH  23  26
HETATM   26  C   UNL     1     -10.460  15.311  65.419  1.00  0.00    -0.422 A  
HETATM   27  C   UNL     1     -11.104  16.536  65.175  1.00  0.00    -0.134 A  
HETATM   28  C   UNL     1     -10.538  17.753  65.582  1.00  0.00    -0.123 A  
HETATM   29  C   UNL     1      -9.330  17.790  66.279  1.00  0.00    -0.201 A  
HETATM   30  C   UNL     1      -8.648  16.600  66.497  1.00  0.00    -0.320 A  
HETATM   31  C   UNL     1      -9.205  15.389  66.058  1.00  0.00    -0.333 A  
BRANCH  29  32
HETATM   32  O   UNL     1      -8.912  19.036  66.634  1.00  0.00    -0.302 OA 
HETATM   33  C   UNL     1      -9.695  19.791  67.548  1.00  0.00    -0.368 C  
HETATM   34  F   UNL     1      -9.057  19.864  68.736  1.00  0.00    -0.354 F  
HETATM   35  F   UNL     1     -10.937  19.302  67.746  1.00  0.00    -0.499 F  
HETATM   36  F   UNL     1      -9.819  21.046  67.061  1.00  0.00    -0.585 F  
ENDBRANCH  29  32
ENDBRANCH  23  26
ENDBRANCH  16  19
ENDBRANCH  12  15
ENDBRANCH   4   9
TORSDOF 5
ENDMDL
MODEL       59
REMARK 921   NORMALIZED FREE ENERGY PREDICTED BY IDOCK:   -5.40 KCAL/MOL
REMARK 922        TOTAL FREE ENERGY PREDICTED BY IDOCK:   -8.00 KCAL/MOL
REMARK 923 INTER-LIGAND FREE ENERGY PREDICTED BY IDOCK:   -7.23 KCAL/MOL
REMARK 924 INTRA-LIGAND FREE ENERGY PREDICTED BY IDOCK:   -0.77 KCAL/MOL
REMARK 927      BINDING AFFINITY PREDICTED BY RF-SCORE:    0.00 PKD
ROOT
HETATM    1  C   UNL     1      -7.562   3.518  64.746  1.00  0.00    -0.077 C  
HETATM    2  C   UNL     1      -7.848   4.462  63.565  1.00  0.00    -0.076 C  
HETATM    3  C   UNL     1      -8.375   3.828  65.996  1.00  0.00    -0.109 C  
HETATM    4  N   UNL     1      -7.047   5.684  63.591  1.00  0.00    -0.049 NA 
HETATM    5  C   UNL     1      -5.624   5.497  63.889  1.00  0.00    -0.014 C  
HETATM    6  C   UNL     1      -5.496   5.245  66.446  1.00  0.00    -0.013 C  
HETATM    7  C   UNL     1      -5.389   4.558  65.089  1.00  0.00    -0.013 C  
HETATM    8  O   UNL     1      -6.164   3.352  65.030  1.00  0.00    -0.023 OA 
ENDROOT
BRANCH   4   9
HETATM    9  C   UNL     1      -7.629   6.893  63.929  1.00  0.00    -0.109 A  
HETATM   10  C   UNL     1      -7.872   7.820  62.920  1.00  0.00    -0.135 A  
HETATM   11  C   UNL     1      -8.431   9.061  63.214  1.00  0.00    -0.180 A  
HETATM   12  C   UNL     1      -8.746   9.386  64.527  1.00  0.00    -0.203 A  
HETATM   13  N   UNL     1      -7.969   7.167  65.205  1.00  0.00    -0.124 NA 
HETATM   14  C   UNL     1      -8.491   8.398  65.474  1.00  0.00    -0.168 A  
BRANCH  12  15
HETATM   15  N   UNL     1      -9.262  10.651  64.912  1.00  0.00    -0.204 N  
HETATM   16  C   UNL     1     -10.285  10.831  65.836  1.00  0.00    -0.259 C  
HETATM   17  H   UNL     1      -8.857  11.483  64.483  1.00  0.00     0.000 HD 
HETATM   18  O   UNL     1     -10.753   9.931  66.525  1.00  0.00    -0.130 OA 
BRANCH  16  19
HETATM   19  C   UNL     1     -10.801  12.220  66.074  1.00  0.00    -0.310 A  
HETATM   20  C   UNL     1     -11.984  12.644  65.458  1.00  0.00    -0.509 A  
HETATM   21  C   UNL     1     -12.356  13.982  65.523  1.00  0.00    -0.503 A  
HETATM   22  C   UNL     1     -11.500  14.918  66.104  1.00  0.00    -0.272 A  
HETATM   23  C   UNL     1     -10.280  14.548  66.710  1.00  0.00    -0.266 A  
HETATM   24  C   UNL     1      -8.877  12.641  67.675  1.00  0.00    -0.184 C  
HETATM   25  C   UNL     1     -10.002  13.155  66.800  1.00  0.00    -0.250 A  
BRANCH  23  26
HETATM   26  C   UNL     1      -9.320  15.616  67.129  1.00  0.00    -0.229 A  
HETATM   27  C   UNL     1      -8.451  16.244  66.221  1.00  0.00    -0.369 A  
HETATM   28  C   UNL     1      -7.513  17.196  66.646  1.00  0.00    -0.293 A  
HETATM   29  C   UNL     1      -7.435  17.585  67.984  1.00  0.00    -0.214 A  
HETATM   30  C   UNL     1      -8.252  16.952  68.912  1.00  0.00    -0.218 A  
HETATM   31  C   UNL     1      -9.164  15.976  68.484  1.00  0.00    -0.206 A  
BRANCH  29  32
HETATM   32  O   UNL     1      -6.499  18.537  68.250  1.00  0.00    -0.204 OA 
HETATM   33  C   UNL     1      -6.898  19.734  68.900  1.00  0.00    -0.338 C  
HETATM   34  F   UNL     1      -6.430  19.739  70.167  1.00  0.00    -0.338 F  
HETATM   35  F   UNL     1      -8.233  19.931  68.925  1.00  0.00    -0.331 F  
HETATM   36  F   UNL     1      -6.341  20.777  68.244  1.00  0.00    -0.310 F  
ENDBRANCH  29  32
ENDBRANCH  23  26
ENDBRANCH  16  19
ENDBRANCH  12  15
ENDBRANCH   4   9
TORSDOF 5
ENDMDL
MODEL       60
REMARK 921   NORMALIZED FREE ENERGY PREDICTED BY IDOCK:   -5.36 KCAL/MOL
REMARK 922        TOTAL FREE ENERGY PREDICTED BY IDOCK:   -7.94 KCAL/MOL
REMARK 923 INTER-LIGAND FREE ENERGY PREDICTED BY IDOCK:   -6.33 KCAL/MOL
REMARK 924 INTRA-LIGAND FREE ENERGY PREDICTED BY IDOCK:   -1.61 KCAL/MOL
REMARK 927      BINDING AFFINITY PREDICTED BY RF-SCORE:    0.00 PKD
ROOT
HETATM    1  C   UNL     1      -9.392   3.653  66.495  1.00  0.00    -0.187 C  
HETATM    2  C   UNL     1      -7.904   3.995  66.303  1.00  0.00    -0.090 C  
HETATM    3  C   UNL     1     -10.314   4.865  66.466  1.00  0.00    -0.311 C  
HETATM    4  N   UNL     1      -7.223   4.345  67.548  1.00  0.00    -0.068 NA 
HETATM    5  C   UNL     1      -7.502   3.465  68.687  1.00  0.00    -0.049 C  
HETATM    6  C   UNL     1      -9.778   4.243  69.600  1.00  0.00    -0.284 C  
HETATM    7  C   UNL     1      -9.006   3.165  68.847  1.00  0.00    -0.132 C  
HETATM    8  O   UNL     1      -9.649   2.797  67.619  1.00  0.00    -0.172 OA 
ENDROOT
BRANCH   4   9
HETATM    9  C   UNL     1      -6.881   5.660  67.810  1.00  0.00    -0.060 A  
HETATM   10  C   UNL     1      -6.351   5.974  69.059  1.00  0.00    -0.041 A  
HETATM   11  C   UNL     1      -6.017   7.287  69.379  1.00  0.00    -0.030 A  
HETATM   12  C   UNL     1      -6.218   8.300  68.451  1.00  0.00    -0.050 A  
HETATM   13  N   UNL     1      -7.041   6.619  66.876  1.00  0.00    -0.067 NA 
HETATM   14  C   UNL     1      -6.733   7.902  67.220  1.00  0.00    -0.069 A  
BRANCH  12  15
HETATM   15  N   UNL     1      -5.958   9.669  68.725  1.00  0.00    -0.042 N  
HETATM   16  C   UNL     1      -6.850  10.523  69.361  1.00  0.00    -0.088 C  
HETATM   17  H   UNL     1      -5.057  10.050  68.435  1.00  0.00     0.000 HD 
HETATM   18  O   UNL     1      -7.898  10.157  69.884  1.00  0.00    -0.167 OA 
BRANCH  16  19
HETATM   19  C   UNL     1      -6.484  11.972  69.496  1.00  0.00    -0.109 A  
HETATM   20  C   UNL     1      -5.686  12.398  70.563  1.00  0.00    -0.162 A  
HETATM   21  C   UNL     1      -5.508  13.758  70.794  1.00  0.00    -0.167 A  
HETATM   22  C   UNL     1      -6.211  14.694  70.034  1.00  0.00    -0.159 A  
HETATM   23  C   UNL     1      -7.054  14.316  68.967  1.00  0.00    -0.116 A  
HETATM   24  C   UNL     1      -7.716  12.465  67.331  1.00  0.00    -0.170 C  
HETATM   25  C   UNL     1      -7.080  12.935  68.624  1.00  0.00    -0.103 A  
BRANCH  23  26
HETATM   26  C   UNL     1      -7.930  15.347  68.328  1.00  0.00    -0.128 A  
HETATM   27  C   UNL     1      -9.175  15.713  68.867  1.00  0.00    -0.226 A  
HETATM   28  C   UNL     1     -10.010  16.634  68.218  1.00  0.00    -0.261 A  
HETATM   29  C   UNL     1      -9.617  17.252  67.030  1.00  0.00    -0.261 A  
HETATM   30  C   UNL     1      -8.411  16.880  66.451  1.00  0.00    -0.325 A  
HETATM   31  C   UNL     1      -7.596  15.932  67.089  1.00  0.00    -0.255 A  
BRANCH  29  32
HETATM   32  O   UNL     1     -10.514  18.143  66.525  1.00  0.00    -0.367 OA 
HETATM   33  C   UNL     1     -10.317  19.529  66.764  1.00  0.00    -0.462 C  
HETATM   34  F   UNL     1      -9.938  20.137  65.620  1.00  0.00    -0.506 F  
HETATM   35  F   UNL     1      -9.410  19.801  67.726  1.00  0.00    -0.366 F  
HETATM   36  F   UNL     1     -11.498  20.063  67.150  1.00  0.00    -0.281 F  
ENDBRANCH  29  32
ENDBRANCH  23  26
ENDBRANCH  16  19
ENDBRANCH  12  15
ENDBRANCH   4   9
TORSDOF 5
ENDMDL
MODEL       61
REMARK 921   NORMALIZED FREE ENERGY PREDICTED BY IDOCK:   -5.34 KCAL/MOL
REMARK 922        TOTAL FREE ENERGY PREDICTED BY IDOCK:   -7.92 KCAL/MOL
REMARK 923 INTER-LIGAND FREE ENERGY PREDICTED BY IDOCK:   -6.47 KCAL/MOL
REMARK 924 INTRA-LIGAND FREE ENERGY PREDICTED BY IDOCK:   -1.45 KCAL/MOL
REMARK 927      BINDING AFFINITY PREDICTED BY RF-SCORE:    0.00 PKD
ROOT
HETATM    1  C   UNL     1      -8.597   2.828  66.652  1.00  0.00    -0.110 C  
HETATM    2  C   UNL     1      -9.508   3.534  67.671  1.00  0.00    -0.183 C  
HETATM    3  C   UNL     1      -7.176   3.376  66.608  1.00  0.00    -0.067 C  
HETATM    4  N   UNL     1     -10.156   4.731  67.139  1.00  0.00    -0.188 NA 
HETATM    5  C   UNL     1     -10.736   4.590  65.800  1.00  0.00    -0.086 C  
HETATM    6  C   UNL     1      -8.754   4.825  64.176  1.00  0.00    -0.141 C  
HETATM    7  C   UNL     1      -9.780   3.892  64.812  1.00  0.00    -0.187 C  
HETATM    8  O   UNL     1      -9.177   2.704  65.343  1.00  0.00    -0.150 OA 
ENDROOT
BRANCH   4   9
HETATM    9  C   UNL     1      -9.734   5.987  67.536  1.00  0.00    -0.116 A  
HETATM   10  C   UNL     1     -10.294   7.104  66.921  1.00  0.00    -0.349 A  
HETATM   11  C   UNL     1      -9.882   8.388  67.268  1.00  0.00    -0.264 A  
HETATM   12  C   UNL     1      -8.899   8.563  68.233  1.00  0.00    -0.142 A  
HETATM   13  N   UNL     1      -8.811   6.135  68.509  1.00  0.00    -0.114 NA 
HETATM   14  C   UNL     1      -8.404   7.400  68.814  1.00  0.00    -0.129 A  
BRANCH  12  15
HETATM   15  N   UNL     1      -8.386   9.837  68.597  1.00  0.00    -0.109 N  
HETATM   16  C   UNL     1      -7.122  10.300  68.249  1.00  0.00    -0.079 C  
HETATM   17  H   UNL     1      -8.983  10.452  69.150  1.00  0.00     0.000 HD 
HETATM   18  O   UNL     1      -6.369   9.724  67.473  1.00  0.00    -0.062 OA 
BRANCH  16  19
HETATM   19  C   UNL     1      -6.672  11.626  68.788  1.00  0.00    -0.077 A  
HETATM   20  C   UNL     1      -5.824  11.681  69.900  1.00  0.00    -0.125 A  
HETATM   21  C   UNL     1      -5.564  12.902  70.513  1.00  0.00    -0.174 A  
HETATM   22  C   UNL     1      -6.233  14.052  70.090  1.00  0.00    -0.138 A  
HETATM   23  C   UNL     1      -7.123  14.045  68.995  1.00  0.00    -0.106 A  
HETATM   24  C   UNL     1      -7.930  12.793  66.917  1.00  0.00     0.042 C  
HETATM   25  C   UNL     1      -7.235  12.830  68.263  1.00  0.00    -0.114 A  
BRANCH  23  26
HETATM   26  C   UNL     1      -7.956  15.258  68.724  1.00  0.00    -0.158 A  
HETATM   27  C   UNL     1      -9.142  15.528  69.429  1.00  0.00    -0.280 A  
HETATM   28  C   UNL     1      -9.942  16.636  69.115  1.00  0.00    -0.263 A  
HETATM   29  C   UNL     1      -9.570  17.536  68.115  1.00  0.00    -0.294 A  
HETATM   30  C   UNL     1      -8.426  17.273  67.373  1.00  0.00    -0.210 A  
HETATM   31  C   UNL     1      -7.648  16.144  67.670  1.00  0.00    -0.165 A  
BRANCH  29  32
HETATM   32  O   UNL     1     -10.426  18.578  67.936  1.00  0.00    -0.386 OA 
HETATM   33  C   UNL     1      -9.954  19.901  68.144  1.00  0.00    -0.427 C  
HETATM   34  F   UNL     1      -9.845  20.534  66.956  1.00  0.00    -0.532 F  
HETATM   35  F   UNL     1      -8.771  19.970  68.789  1.00  0.00    -0.278 F  
HETATM   36  F   UNL     1     -10.868  20.563  68.889  1.00  0.00    -0.311 F  
ENDBRANCH  29  32
ENDBRANCH  23  26
ENDBRANCH  16  19
ENDBRANCH  12  15
ENDBRANCH   4   9
TORSDOF 5
ENDMDL
MODEL       62
REMARK 921   NORMALIZED FREE ENERGY PREDICTED BY IDOCK:   -5.25 KCAL/MOL
REMARK 922        TOTAL FREE ENERGY PREDICTED BY IDOCK:   -7.79 KCAL/MOL
REMARK 923 INTER-LIGAND FREE ENERGY PREDICTED BY IDOCK:   -6.95 KCAL/MOL
REMARK 924 INTRA-LIGAND FREE ENERGY PREDICTED BY IDOCK:   -0.84 KCAL/MOL
REMARK 927      BINDING AFFINITY PREDICTED BY RF-SCORE:    0.00 PKD
ROOT
HETATM    1  C   UNL     1      -8.856  19.842  68.705  1.00  0.00    -0.193 C  
HETATM    2  C   UNL     1      -7.605  18.957  68.563  1.00  0.00    -0.324 C  
HETATM    3  C   UNL     1     -10.058  19.123  69.304  1.00  0.00    -0.159 C  
HETATM    4  N   UNL     1      -7.572  18.195  67.316  1.00  0.00    -0.214 NA 
HETATM    5  C   UNL     1      -7.922  18.948  66.109  1.00  0.00    -0.235 C  
HETATM    6  C   UNL     1     -10.494  19.041  66.094  1.00  0.00    -0.541 C  
HETATM    7  C   UNL     1      -9.190  19.807  66.295  1.00  0.00    -0.388 C  
HETATM    8  O   UNL     1      -9.191  20.568  67.511  1.00  0.00    -0.357 OA 
ENDROOT
BRANCH   4   9
HETATM    9  C   UNL     1      -7.809  16.832  67.325  1.00  0.00    -0.173 A  
HETATM   10  C   UNL     1      -7.144  16.045  68.261  1.00  0.00    -0.122 A  
HETATM   11  C   UNL     1      -7.329  14.666  68.291  1.00  0.00    -0.117 A  
HETATM   12  C   UNL     1      -8.180  14.061  67.376  1.00  0.00    -0.190 A  
HETATM   13  N   UNL     1      -8.677  16.273  66.457  1.00  0.00    -0.261 NA 
HETATM   14  C   UNL     1      -8.823  14.917  66.487  1.00  0.00    -0.221 A  
BRANCH  12  15
HETATM   15  N   UNL     1      -8.375  12.656  67.306  1.00  0.00    -0.184 N  
HETATM   16  C   UNL     1      -7.414  11.753  66.866  1.00  0.00    -0.106 C  
HETATM   17  H   UNL     1      -9.279  12.284  67.598  1.00  0.00     0.000 HD 
HETATM   18  O   UNL     1      -6.249  12.053  66.628  1.00  0.00    -0.135 OA 
BRANCH  16  19
HETATM   19  C   UNL     1      -7.790  10.305  66.749  1.00  0.00    -0.114 A  
HETATM   20  C   UNL     1      -8.143   9.771  65.505  1.00  0.00    -0.125 A  
HETATM   21  C   UNL     1      -8.674   8.488  65.429  1.00  0.00    -0.194 A  
HETATM   22  C   UNL     1      -8.958   7.779  66.597  1.00  0.00    -0.175 A  
HETATM   23  C   UNL     1      -8.652   8.286  67.878  1.00  0.00    -0.132 A  
HETATM   24  C   UNL     1      -7.315  10.000  69.224  1.00  0.00    -0.091 C  
HETATM   25  C   UNL     1      -7.940   9.517  67.931  1.00  0.00    -0.098 A  
BRANCH  23  26
HETATM   26  C   UNL     1      -9.164   7.569  69.087  1.00  0.00    -0.144 A  
HETATM   27  C   UNL     1      -8.309   6.916  69.992  1.00  0.00    -0.139 A  
HETATM   28  C   UNL     1      -8.814   6.195  71.083  1.00  0.00    -0.139 A  
HETATM   29  C   UNL     1     -10.186   6.131  71.335  1.00  0.00    -0.205 A  
HETATM   30  C   UNL     1     -11.057   6.730  70.435  1.00  0.00    -0.357 A  
HETATM   31  C   UNL     1     -10.546   7.422  69.327  1.00  0.00    -0.220 A  
BRANCH  29  32
HETATM   32  O   UNL     1     -10.532   5.420  72.442  1.00  0.00    -0.201 OA 
HETATM   33  C   UNL     1     -10.054   4.090  72.584  1.00  0.00    -0.164 C  
HETATM   34  F   UNL     1      -9.116   4.047  73.554  1.00  0.00    -0.101 F  
HETATM   35  F   UNL     1      -9.539   3.564  71.453  1.00  0.00    -0.190 F  
HETATM   36  F   UNL     1     -11.088   3.308  72.968  1.00  0.00    -0.244 F  
ENDBRANCH  29  32
ENDBRANCH  23  26
ENDBRANCH  16  19
ENDBRANCH  12  15
ENDBRANCH   4   9
TORSDOF 5
ENDMDL
MODEL       63
REMARK 921   NORMALIZED FREE ENERGY PREDICTED BY IDOCK:   -5.16 KCAL/MOL
REMARK 922        TOTAL FREE ENERGY PREDICTED BY IDOCK:   -7.68 KCAL/MOL
REMARK 923 INTER-LIGAND FREE ENERGY PREDICTED BY IDOCK:   -6.09 KCAL/MOL
REMARK 924 INTRA-LIGAND FREE ENERGY PREDICTED BY IDOCK:   -1.59 KCAL/MOL
REMARK 927      BINDING AFFINITY PREDICTED BY RF-SCORE:    0.00 PKD
ROOT
HETATM    1  C   UNL     1      -8.799   3.097  70.135  1.00  0.00    -0.084 C  
HETATM    2  C   UNL     1      -9.851   4.137  70.557  1.00  0.00    -0.182 C  
HETATM    3  C   UNL     1      -7.361   3.550  70.348  1.00  0.00    -0.041 C  
HETATM    4  N   UNL     1     -10.166   5.104  69.507  1.00  0.00    -0.251 NA 
HETATM    5  C   UNL     1     -10.375   4.537  68.171  1.00  0.00     0.246 C  
HETATM    6  C   UNL     1      -8.014   4.139  67.230  1.00  0.00    -0.096 C  
HETATM    7  C   UNL     1      -9.288   3.513  67.787  1.00  0.00    -0.197 C  
HETATM    8  O   UNL     1      -9.014   2.557  68.821  1.00  0.00    -0.093 OA 
ENDROOT
BRANCH   4   9
HETATM    9  C   UNL     1      -9.707   6.406  69.596  1.00  0.00    -0.152 A  
HETATM   10  C   UNL     1      -9.830   7.234  68.484  1.00  0.00    -0.159 A  
HETATM   11  C   UNL     1      -9.358   8.543  68.517  1.00  0.00    -0.139 A  
HETATM   12  C   UNL     1      -8.750   9.032  69.665  1.00  0.00    -0.143 A  
HETATM   13  N   UNL     1      -9.163   6.873  70.738  1.00  0.00    -0.157 NA 
HETATM   14  C   UNL     1      -8.683   8.150  70.739  1.00  0.00    -0.139 A  
BRANCH  12  15
HETATM   15  N   UNL     1      -8.191  10.335  69.755  1.00  0.00    -0.328 N  
HETATM   16  C   UNL     1      -6.844  10.623  69.572  1.00  0.00    -0.109 C  
HETATM   17  H   UNL     1      -8.819  11.110  69.967  1.00  0.00     0.000 HD 
HETATM   18  O   UNL     1      -6.016   9.811  69.173  1.00  0.00    -0.035 OA 
BRANCH  16  19
HETATM   19  C   UNL     1      -6.375  12.031  69.796  1.00  0.00    -0.110 A  
HETATM   20  C   UNL     1      -5.637  12.351  70.941  1.00  0.00    -0.109 A  
HETATM   21  C   UNL     1      -5.371  13.682  71.242  1.00  0.00    -0.194 A  
HETATM   22  C   UNL     1      -5.930  14.700  70.468  1.00  0.00    -0.172 A  
HETATM   23  C   UNL     1      -6.709  14.431  69.321  1.00  0.00    -0.126 A  
HETATM   24  C   UNL     1      -7.378  12.700  67.562  1.00  0.00    -0.151 C  
HETATM   25  C   UNL     1      -6.816  13.069  68.920  1.00  0.00    -0.099 A  
BRANCH  23  26
HETATM   26  C   UNL     1      -7.442  15.554  68.658  1.00  0.00    -0.131 A  
HETATM   27  C   UNL     1      -6.928  16.229  67.539  1.00  0.00    -0.184 A  
HETATM   28  C   UNL     1      -7.601  17.322  66.972  1.00  0.00    -0.228 A  
HETATM   29  C   UNL     1      -8.828  17.755  67.477  1.00  0.00    -0.243 A  
HETATM   30  C   UNL     1      -9.340  17.135  68.609  1.00  0.00    -0.269 A  
HETATM   31  C   UNL     1      -8.645  16.064  69.190  1.00  0.00    -0.247 A  
BRANCH  29  32
HETATM   32  O   UNL     1      -9.380  18.808  66.814  1.00  0.00    -0.297 OA 
HETATM   33  C   UNL     1      -8.910  20.119  67.091  1.00  0.00    -0.353 C  
HETATM   34  F   UNL     1      -8.193  20.574  66.040  1.00  0.00    -0.182 F  
HETATM   35  F   UNL     1      -8.159  20.213  68.208  1.00  0.00    -0.328 F  
HETATM   36  F   UNL     1      -9.983  20.928  67.247  1.00  0.00    -0.604 F  
ENDBRANCH  29  32
ENDBRANCH  23  26
ENDBRANCH  16  19
ENDBRANCH  12  15
ENDBRANCH   4   9
TORSDOF 5
ENDMDL
MODEL       64
REMARK 921   NORMALIZED FREE ENERGY PREDICTED BY IDOCK:   -5.04 KCAL/MOL
REMARK 922        TOTAL FREE ENERGY PREDICTED BY IDOCK:   -7.52 KCAL/MOL
REMARK 923 INTER-LIGAND FREE ENERGY PREDICTED BY IDOCK:   -6.08 KCAL/MOL
REMARK 924 INTRA-LIGAND FREE ENERGY PREDICTED BY IDOCK:   -1.44 KCAL/MOL
REMARK 927      BINDING AFFINITY PREDICTED BY RF-SCORE:    0.00 PKD
ROOT
HETATM    1  C   UNL     1      -6.221  19.750  69.017  1.00  0.00    -0.289 C  
HETATM    2  C   UNL     1      -5.369  18.524  69.385  1.00  0.00    -0.204 C  
HETATM    3  C   UNL     1      -7.699  19.600  69.351  1.00  0.00    -0.067 C  
HETATM    4  N   UNL     1      -5.339  17.502  68.340  1.00  0.00    -0.142 NA 
HETATM    5  C   UNL     1      -5.128  18.001  66.978  1.00  0.00    -0.122 C  
HETATM    6  C   UNL     1      -7.429  18.858  66.209  1.00  0.00    -0.288 C  
HETATM    7  C   UNL     1      -6.015  19.220  66.651  1.00  0.00    -0.165 C  
HETATM    8  O   UNL     1      -6.008  20.223  67.677  1.00  0.00    -0.200 OA 
ENDROOT
BRANCH   4   9
HETATM    9  C   UNL     1      -6.042  16.322  68.499  1.00  0.00    -0.112 A  
HETATM   10  C   UNL     1      -6.022  15.390  67.464  1.00  0.00    -0.073 A  
HETATM   11  C   UNL     1      -6.737  14.199  67.566  1.00  0.00    -0.127 A  
HETATM   12  C   UNL     1      -7.484  13.935  68.706  1.00  0.00    -0.114 A  
HETATM   13  N   UNL     1      -6.723  16.066  69.634  1.00  0.00    -0.195 NA 
HETATM   14  C   UNL     1      -7.437  14.906  69.702  1.00  0.00    -0.126 A  
BRANCH  12  15
HETATM   15  N   UNL     1      -8.284  12.771  68.858  1.00  0.00    -0.339 N  
HETATM   16  C   UNL     1      -9.524  12.590  68.256  1.00  0.00    -0.201 C  
HETATM   17  H   UNL     1      -7.927  12.020  69.448  1.00  0.00     0.000 HD 
HETATM   18  O   UNL     1      -9.997  13.347  67.416  1.00  0.00    -0.225 OA 
BRANCH  16  19
HETATM   19  C   UNL     1     -10.307  11.352  68.585  1.00  0.00    -0.219 A  
HETATM   20  C   UNL     1     -11.126  11.321  69.719  1.00  0.00    -0.238 A  
HETATM   21  C   UNL     1     -11.696  10.120  70.128  1.00  0.00    -0.330 A  
HETATM   22  C   UNL     1     -11.364   8.931  69.476  1.00  0.00     0.206 A  
HETATM   23  C   UNL     1     -10.517   8.903  68.348  1.00  0.00    -0.230 A  
HETATM   24  C   UNL     1      -9.428  10.256  66.471  1.00  0.00    -0.212 C  
HETATM   25  C   UNL     1     -10.091  10.159  67.830  1.00  0.00    -0.216 A  
BRANCH  23  26
HETATM   26  C   UNL     1     -10.042   7.585  67.825  1.00  0.00    -0.235 A  
HETATM   27  C   UNL     1      -8.732   7.120  68.038  1.00  0.00    -0.127 A  
HETATM   28  C   UNL     1      -8.288   5.911  67.484  1.00  0.00    -0.105 A  
HETATM   29  C   UNL     1      -9.142   5.103  66.731  1.00  0.00    -0.118 A  
HETATM   30  C   UNL     1     -10.428   5.556  66.468  1.00  0.00    -0.331 A  
HETATM   31  C   UNL     1     -10.855   6.783  66.998  1.00  0.00    -0.453 A  
BRANCH  29  32
HETATM   32  O   UNL     1      -8.585   3.947  66.278  1.00  0.00    -0.108 OA 
HETATM   33  C   UNL     1      -8.500   2.833  67.155  1.00  0.00    -0.098 C  
HETATM   34  F   UNL     1      -9.381   1.886  66.770  1.00  0.00    -0.129 F  
HETATM   35  F   UNL     1      -8.718   3.134  68.453  1.00  0.00    -0.097 F  
HETATM   36  F   UNL     1      -7.256   2.312  67.057  1.00  0.00    -0.051 F  
ENDBRANCH  29  32
ENDBRANCH  23  26
ENDBRANCH  16  19
ENDBRANCH  12  15
ENDBRANCH   4   9
TORSDOF 5
ENDMDL
MODEL       65
REMARK 921   NORMALIZED FREE ENERGY PREDICTED BY IDOCK:   -5.02 KCAL/MOL
REMARK 922        TOTAL FREE ENERGY PREDICTED BY IDOCK:   -7.51 KCAL/MOL
REMARK 923 INTER-LIGAND FREE ENERGY PREDICTED BY IDOCK:   -7.19 KCAL/MOL
REMARK 924 INTRA-LIGAND FREE ENERGY PREDICTED BY IDOCK:   -0.32 KCAL/MOL
REMARK 927      BINDING AFFINITY PREDICTED BY RF-SCORE:    0.00 PKD
ROOT
HETATM    1  C   UNL     1      -5.633   5.664  65.231  1.00  0.00    -0.016 C  
HETATM    2  C   UNL     1      -6.417   6.124  66.472  1.00  0.00    -0.046 C  
HETATM    3  C   UNL     1      -5.191   6.802  64.321  1.00  0.00    -0.027 C  
HETATM    4  N   UNL     1      -7.850   6.277  66.231  1.00  0.00    -0.102 NA 
HETATM    5  C   UNL     1      -8.482   5.186  65.484  1.00  0.00    -0.138 C  
HETATM    6  C   UNL     1      -7.920   5.642  63.015  1.00  0.00    -0.104 C  
HETATM    7  C   UNL     1      -7.669   4.771  64.242  1.00  0.00    -0.079 C  
HETATM    8  O   UNL     1      -6.270   4.599  64.506  1.00  0.00    -0.028 OA 
ENDROOT
BRANCH   4   9
HETATM    9  C   UNL     1      -8.412   7.539  66.140  1.00  0.00    -0.144 A  
HETATM   10  C   UNL     1      -7.730   8.522  65.428  1.00  0.00    -0.095 A  
HETATM   11  C   UNL     1      -8.242   9.813  65.331  1.00  0.00    -0.131 A  
HETATM   12  C   UNL     1      -9.440  10.132  65.955  1.00  0.00    -0.196 A  
HETATM   13  N   UNL     1      -9.600   7.813  66.714  1.00  0.00    -0.197 NA 
HETATM   14  C   UNL     1     -10.070   9.090  66.630  1.00  0.00    -0.285 A  
BRANCH  12  15
HETATM   15  N   UNL     1      -9.994  11.440  65.951  1.00  0.00    -0.224 N  
HETATM   16  C   UNL     1     -10.729  11.976  64.900  1.00  0.00    -0.301 C  
HETATM   17  H   UNL     1      -9.843  12.025  66.774  1.00  0.00     0.000 HD 
HETATM   18  O   UNL     1     -11.103  11.333  63.925  1.00  0.00    -0.380 OA 
BRANCH  16  19
HETATM   19  C   UNL     1     -11.169  13.408  64.990  1.00  0.00    -0.332 A  
HETATM   20  C   UNL     1     -12.107  13.912  64.082  1.00  0.00    -0.464 A  
HETATM   21  C   UNL     1     -12.368  15.277  64.044  1.00  0.00     0.046 A  
HETATM   22  C   UNL     1     -11.618  16.154  64.829  1.00  0.00    -0.056 A  
HETATM   23  C   UNL     1     -10.638  15.700  65.737  1.00  0.00    -0.374 A  
HETATM   24  C   UNL     1      -9.707  13.709  67.043  1.00  0.00    -0.251 C  
HETATM   25  C   UNL     1     -10.513  14.292  65.900  1.00  0.00    -0.315 A  
BRANCH  23  26
HETATM   26  C   UNL     1      -9.735  16.696  66.394  1.00  0.00    -0.306 A  
HETATM   27  C   UNL     1     -10.195  17.599  67.368  1.00  0.00    -0.345 A  
HETATM   28  C   UNL     1      -9.348  18.569  67.924  1.00  0.00    -0.312 A  
HETATM   29  C   UNL     1      -8.003  18.648  67.558  1.00  0.00    -0.244 A  
HETATM   30  C   UNL     1      -7.530  17.797  66.568  1.00  0.00    -0.284 A  
HETATM   31  C   UNL     1      -8.393  16.852  65.992  1.00  0.00    -0.180 A  
BRANCH  29  32
HETATM   32  O   UNL     1      -7.293  19.617  68.196  1.00  0.00    -0.284 OA 
HETATM   33  C   UNL     1      -6.535  19.273  69.347  1.00  0.00    -0.311 C  
HETATM   34  F   UNL     1      -5.219  19.308  69.049  1.00  0.00    -0.188 F  
HETATM   35  F   UNL     1      -6.836  18.063  69.864  1.00  0.00    -0.102 F  
HETATM   36  F   UNL     1      -6.773  20.200  70.303  1.00  0.00    -0.394 F  
ENDBRANCH  29  32
ENDBRANCH  23  26
ENDBRANCH  16  19
ENDBRANCH  12  15
ENDBRANCH   4   9
TORSDOF 5
ENDMDL
MODEL       66
REMARK 921   NORMALIZED FREE ENERGY PREDICTED BY IDOCK:   -4.99 KCAL/MOL
REMARK 922        TOTAL FREE ENERGY PREDICTED BY IDOCK:   -7.46 KCAL/MOL
REMARK 923 INTER-LIGAND FREE ENERGY PREDICTED BY IDOCK:   -5.98 KCAL/MOL
REMARK 924 INTRA-LIGAND FREE ENERGY PREDICTED BY IDOCK:   -1.48 KCAL/MOL
REMARK 927      BINDING AFFINITY PREDICTED BY RF-SCORE:    0.00 PKD
ROOT
HETATM    1  C   UNL     1     -10.819   3.240  72.868  1.00  0.00    -0.028 C  
HETATM    2  C   UNL     1     -10.112   3.109  71.508  1.00  0.00     0.045 C  
HETATM    3  C   UNL     1     -11.508   4.582  73.080  1.00  0.00    -0.274 C  
HETATM    4  N   UNL     1      -8.746   3.630  71.512  1.00  0.00    -0.091 NA 
HETATM    5  C   UNL     1      -7.927   3.241  72.663  1.00  0.00    -0.068 C  
HETATM    6  C   UNL     1      -8.638   4.822  74.564  1.00  0.00    -0.105 C  
HETATM    7  C   UNL     1      -8.673   3.405  74.002  1.00  0.00    -0.087 C  
HETATM    8  O   UNL     1     -10.001   2.862  73.986  1.00  0.00    -0.095 OA 
ENDROOT
BRANCH   4   9
HETATM    9  C   UNL     1      -8.455   4.826  70.881  1.00  0.00    -0.106 A  
HETATM   10  C   UNL     1      -9.432   5.414  70.081  1.00  0.00    -0.213 A  
HETATM   11  C   UNL     1      -9.176   6.603  69.404  1.00  0.00    -0.142 A  
HETATM   12  C   UNL     1      -7.933   7.211  69.517  1.00  0.00    -0.128 A  
HETATM   13  N   UNL     1      -7.256   5.423  71.043  1.00  0.00    -0.071 NA 
HETATM   14  C   UNL     1      -7.018   6.573  70.350  1.00  0.00    -0.064 A  
BRANCH  12  15
HETATM   15  N   UNL     1      -7.578   8.391  68.811  1.00  0.00    -0.099 N  
HETATM   16  C   UNL     1      -7.646   9.673  69.344  1.00  0.00    -0.097 C  
HETATM   17  H   UNL     1      -7.252   8.292  67.849  1.00  0.00     0.000 HD 
HETATM   18  O   UNL     1      -7.881   9.915  70.523  1.00  0.00    -0.246 OA 
BRANCH  16  19
HETATM   19  C   UNL     1      -7.336  10.839  68.451  1.00  0.00    -0.092 A  
HETATM   20  C   UNL     1      -6.062  10.973  67.890  1.00  0.00    -0.049 A  
HETATM   21  C   UNL     1      -5.719  12.145  67.224  1.00  0.00    -0.141 A  
HETATM   22  C   UNL     1      -6.602  13.226  67.212  1.00  0.00     0.090 A  
HETATM   23  C   UNL     1      -7.887  13.154  67.792  1.00  0.00    -0.152 A  
HETATM   24  C   UNL     1      -9.738  11.629  68.680  1.00  0.00    -0.151 C  
HETATM   25  C   UNL     1      -8.293  11.889  68.304  1.00  0.00    -0.159 A  
BRANCH  23  26
HETATM   26  C   UNL     1      -8.699  14.403  67.922  1.00  0.00    -0.168 A  
HETATM   27  C   UNL     1      -9.322  15.013  66.820  1.00  0.00    -0.271 A  
HETATM   28  C   UNL     1     -10.024  16.220  66.952  1.00  0.00    -0.263 A  
HETATM   29  C   UNL     1     -10.164  16.841  68.194  1.00  0.00    -0.301 A  
HETATM   30  C   UNL     1      -9.524  16.285  69.294  1.00  0.00    -0.202 A  
HETATM   31  C   UNL     1      -8.795  15.096  69.147  1.00  0.00    -0.221 A  
BRANCH  29  32
HETATM   32  O   UNL     1     -10.893  17.991  68.180  1.00  0.00    -0.303 OA 
HETATM   33  C   UNL     1     -10.247  19.211  67.846  1.00  0.00    -0.406 C  
HETATM   34  F   UNL     1     -10.652  19.617  66.623  1.00  0.00    -0.483 F  
HETATM   35  F   UNL     1      -8.900  19.146  67.862  1.00  0.00    -0.303 F  
HETATM   36  F   UNL     1     -10.625  20.148  68.745  1.00  0.00    -0.536 F  
ENDBRANCH  29  32
ENDBRANCH  23  26
ENDBRANCH  16  19
ENDBRANCH  12  15
ENDBRANCH   4   9
TORSDOF 5
ENDMDL
MODEL       67
REMARK 921   NORMALIZED FREE ENERGY PREDICTED BY IDOCK:   -4.74 KCAL/MOL
REMARK 922        TOTAL FREE ENERGY PREDICTED BY IDOCK:   -7.13 KCAL/MOL
REMARK 923 INTER-LIGAND FREE ENERGY PREDICTED BY IDOCK:   -5.94 KCAL/MOL
REMARK 924 INTRA-LIGAND FREE ENERGY PREDICTED BY IDOCK:   -1.20 KCAL/MOL
REMARK 927      BINDING AFFINITY PREDICTED BY RF-SCORE:    0.00 PKD
ROOT
HETATM    1  C   UNL     1     -10.758  16.686  68.543  1.00  0.00    -0.351 C  
HETATM    2  C   UNL     1      -9.369  16.278  69.066  1.00  0.00    -0.254 C  
HETATM    3  C   UNL     1     -11.786  15.562  68.576  1.00  0.00    -0.351 C  
HETATM    4  N   UNL     1      -8.516  15.680  68.041  1.00  0.00    -0.146 NA 
HETATM    5  C   UNL     1      -8.498  16.377  66.751  1.00  0.00    -0.244 C  
HETATM    6  C   UNL     1     -10.641  15.618  65.545  1.00  0.00    -0.422 C  
HETATM    7  C   UNL     1      -9.912  16.750  66.262  1.00  0.00    -0.320 C  
HETATM    8  O   UNL     1     -10.725  17.360  67.275  1.00  0.00    -0.315 OA 
ENDROOT
BRANCH   4   9
HETATM    9  C   UNL     1      -8.264  14.320  68.049  1.00  0.00    -0.153 A  
HETATM   10  C   UNL     1      -9.340  13.444  68.169  1.00  0.00    -0.217 A  
HETATM   11  C   UNL     1      -9.134  12.068  68.209  1.00  0.00    -0.190 A  
HETATM   12  C   UNL     1      -7.846  11.557  68.137  1.00  0.00    -0.128 A  
HETATM   13  N   UNL     1      -7.007  13.845  67.930  1.00  0.00    -0.141 NA 
HETATM   14  C   UNL     1      -6.827  12.495  67.999  1.00  0.00    -0.094 A  
BRANCH  12  15
HETATM   15  N   UNL     1      -7.553  10.170  68.231  1.00  0.00    -0.086 N  
HETATM   16  C   UNL     1      -7.446   9.472  69.429  1.00  0.00    -0.088 C  
HETATM   17  H   UNL     1      -7.411   9.652  67.364  1.00  0.00     0.000 HD 
HETATM   18  O   UNL     1      -7.734   9.941  70.525  1.00  0.00    -0.254 OA 
BRANCH  16  19
HETATM   19  C   UNL     1      -7.031   8.031  69.384  1.00  0.00    -0.055 A  
HETATM   20  C   UNL     1      -5.809   7.634  69.939  1.00  0.00    -0.023 A  
HETATM   21  C   UNL     1      -5.340   6.342  69.727  1.00  0.00    -0.014 A  
HETATM   22  C   UNL     1      -6.031   5.479  68.874  1.00  0.00    -0.024 A  
HETATM   23  C   UNL     1      -7.251   5.841  68.264  1.00  0.00    -0.076 A  
HETATM   24  C   UNL     1      -9.238   7.450  68.270  1.00  0.00    -0.137 C  
HETATM   25  C   UNL     1      -7.811   7.095  68.637  1.00  0.00    -0.122 A  
BRANCH  23  26
HETATM   26  C   UNL     1      -7.830   4.952  67.209  1.00  0.00    -0.095 A  
HETATM   27  C   UNL     1      -7.735   5.252  65.839  1.00  0.00    -0.091 A  
HETATM   28  C   UNL     1      -8.342   4.441  64.870  1.00  0.00    -0.118 A  
HETATM   29  C   UNL     1      -9.030   3.280  65.227  1.00  0.00    -0.142 A  
HETATM   30  C   UNL     1      -9.177   2.980  66.575  1.00  0.00    -0.142 A  
HETATM   31  C   UNL     1      -8.596   3.816  67.541  1.00  0.00    -0.113 A  
BRANCH  29  32
HETATM   32  O   UNL     1      -9.544   2.576  64.183  1.00  0.00    -0.136 OA 
HETATM   33  C   UNL     1     -10.733   3.038  63.558  1.00  0.00    -0.236 C  
HETATM   34  F   UNL     1     -10.439   3.530  62.335  1.00  0.00    -0.128 F  
HETATM   35  F   UNL     1     -11.396   3.980  64.261  1.00  0.00    -0.269 F  
HETATM   36  F   UNL     1     -11.563   1.984  63.397  1.00  0.00    -0.265 F  
ENDBRANCH  29  32
ENDBRANCH  23  26
ENDBRANCH  16  19
ENDBRANCH  12  15
ENDBRANCH   4   9
TORSDOF 5
ENDMDL
MODEL       68
REMARK 921   NORMALIZED FREE ENERGY PREDICTED BY IDOCK:   -4.67 KCAL/MOL
REMARK 922        TOTAL FREE ENERGY PREDICTED BY IDOCK:   -7.05 KCAL/MOL
REMARK 923 INTER-LIGAND FREE ENERGY PREDICTED BY IDOCK:   -7.12 KCAL/MOL
REMARK 924 INTRA-LIGAND FREE ENERGY PREDICTED BY IDOCK:    0.07 KCAL/MOL
REMARK 927      BINDING AFFINITY PREDICTED BY RF-SCORE:    0.00 PKD
ROOT
HETATM    1  C   UNL     1     -10.964   5.112  71.466  1.00  0.00     0.052 C  
HETATM    2  C   UNL     1     -11.032   5.818  70.101  1.00  0.00    -0.298 C  
HETATM    3  C   UNL     1     -10.806   6.062  72.646  1.00  0.00    -0.280 C  
HETATM    4  N   UNL     1      -9.718   6.076  69.514  1.00  0.00    -0.144 NA 
HETATM    5  C   UNL     1      -8.772   4.958  69.573  1.00  0.00    -0.086 C  
HETATM    6  C   UNL     1      -7.820   5.004  71.963  1.00  0.00    -0.110 C  
HETATM    7  C   UNL     1      -8.728   4.294  70.965  1.00  0.00    -0.093 C  
HETATM    8  O   UNL     1     -10.027   4.024  71.510  1.00  0.00    -0.183 OA 
ENDROOT
BRANCH   4   9
HETATM    9  C   UNL     1      -9.206   7.361  69.488  1.00  0.00    -0.146 A  
HETATM   10  C   UNL     1      -8.064   7.607  68.731  1.00  0.00    -0.127 A  
HETATM   11  C   UNL     1      -7.496   8.878  68.695  1.00  0.00    -0.088 A  
HETATM   12  C   UNL     1      -8.066   9.913  69.424  1.00  0.00    -0.139 A  
HETATM   13  N   UNL     1      -9.805   8.361  70.166  1.00  0.00    -0.179 NA 
HETATM   14  C   UNL     1      -9.217   9.591  70.138  1.00  0.00    -0.244 A  
BRANCH  12  15
HETATM   15  N   UNL     1      -7.511  11.219  69.484  1.00  0.00    -0.353 N  
HETATM   16  C   UNL     1      -6.460  11.585  70.316  1.00  0.00     0.102 C  
HETATM   17  H   UNL     1      -7.910  11.935  68.877  1.00  0.00     0.000 HD 
HETATM   18  O   UNL     1      -5.803  10.793  70.982  1.00  0.00    -0.287 OA 
BRANCH  16  19
HETATM   19  C   UNL     1      -6.041  13.026  70.350  1.00  0.00    -0.041 A  
HETATM   20  C   UNL     1      -5.391  13.542  71.477  1.00  0.00    -0.200 A  
HETATM   21  C   UNL     1      -5.178  14.911  71.586  1.00  0.00    -0.109 A  
HETATM   22  C   UNL     1      -5.707  15.780  70.630  1.00  0.00    -0.016 A  
HETATM   23  C   UNL     1      -6.398  15.313  69.491  1.00  0.00    -0.145 A  
HETATM   24  C   UNL     1      -6.905  13.313  67.980  1.00  0.00    -0.122 C  
HETATM   25  C   UNL     1      -6.446  13.904  69.299  1.00  0.00    -0.115 A  
BRANCH  23  26
HETATM   26  C   UNL     1      -7.112  16.296  68.618  1.00  0.00    -0.155 A  
HETATM   27  C   UNL     1      -7.480  15.997  67.295  1.00  0.00    -0.236 A  
HETATM   28  C   UNL     1      -8.089  16.955  66.472  1.00  0.00    -0.327 A  
HETATM   29  C   UNL     1      -8.388  18.232  66.949  1.00  0.00    -0.245 A  
HETATM   30  C   UNL     1      -7.998  18.571  68.237  1.00  0.00    -0.325 A  
HETATM   31  C   UNL     1      -7.358  17.618  69.044  1.00  0.00    -0.194 A  
BRANCH  29  32
HETATM   32  O   UNL     1      -9.003  19.049  66.050  1.00  0.00    -0.456 OA 
HETATM   33  C   UNL     1     -10.341  19.456  66.292  1.00  0.00    -0.493 C  
HETATM   34  F   UNL     1     -10.363  20.764  66.629  1.00  0.00    -0.443 F  
HETATM   35  F   UNL     1     -10.970  18.746  67.252  1.00  0.00    -0.472 F  
HETATM   36  F   UNL     1     -11.042  19.308  65.145  1.00  0.00    -0.422 F  
ENDBRANCH  29  32
ENDBRANCH  23  26
ENDBRANCH  16  19
ENDBRANCH  12  15
ENDBRANCH   4   9
TORSDOF 5
ENDMDL
MODEL       69
REMARK 921   NORMALIZED FREE ENERGY PREDICTED BY IDOCK:   -4.64 KCAL/MOL
REMARK 922        TOTAL FREE ENERGY PREDICTED BY IDOCK:   -7.01 KCAL/MOL
REMARK 923 INTER-LIGAND FREE ENERGY PREDICTED BY IDOCK:   -5.48 KCAL/MOL
REMARK 924 INTRA-LIGAND FREE ENERGY PREDICTED BY IDOCK:   -1.53 KCAL/MOL
REMARK 927      BINDING AFFINITY PREDICTED BY RF-SCORE:    0.00 PKD
ROOT
HETATM    1  C   UNL     1      -9.917   4.335  66.122  1.00  0.00    -0.215 C  
HETATM    2  C   UNL     1      -8.621   4.873  65.493  1.00  0.00    -0.135 C  
HETATM    3  C   UNL     1     -10.766   5.403  66.800  1.00  0.00    -0.289 C  
HETATM    4  N   UNL     1      -7.503   4.939  66.433  1.00  0.00    -0.085 NA 
HETATM    5  C   UNL     1      -7.322   3.757  67.280  1.00  0.00    -0.067 C  
HETATM    6  C   UNL     1      -9.051   4.007  69.169  1.00  0.00    -0.197 C  
HETATM    7  C   UNL     1      -8.646   3.265  67.900  1.00  0.00    -0.097 C  
HETATM    8  O   UNL     1      -9.722   3.181  66.955  1.00  0.00    -0.068 OA 
ENDROOT
BRANCH   4   9
HETATM    9  C   UNL     1      -7.074   6.161  66.921  1.00  0.00    -0.073 A  
HETATM   10  C   UNL     1      -6.430   6.197  68.155  1.00  0.00    -0.049 A  
HETATM   11  C   UNL     1      -6.003   7.405  68.699  1.00  0.00    -0.027 A  
HETATM   12  C   UNL     1      -6.226   8.591  68.013  1.00  0.00    -0.052 A  
HETATM   13  N   UNL     1      -7.259   7.295  66.214  1.00  0.00    -0.076 NA 
HETATM   14  C   UNL     1      -6.857   8.469  66.779  1.00  0.00    -0.069 A  
BRANCH  12  15
HETATM   15  N   UNL     1      -5.874   9.866  68.530  1.00  0.00    -0.042 N  
HETATM   16  C   UNL     1      -6.736  10.684  69.250  1.00  0.00    -0.075 C  
HETATM   17  H   UNL     1      -4.926  10.204  68.362  1.00  0.00     0.000 HD 
HETATM   18  O   UNL     1      -7.845  10.337  69.642  1.00  0.00    -0.153 OA 
BRANCH  16  19
HETATM   19  C   UNL     1      -6.262  12.051  69.650  1.00  0.00    -0.131 A  
HETATM   20  C   UNL     1      -5.688  12.254  70.910  1.00  0.00    -0.028 A  
HETATM   21  C   UNL     1      -5.428  13.547  71.351  1.00  0.00    -0.205 A  
HETATM   22  C   UNL     1      -5.839  14.642  70.588  1.00  0.00    -0.167 A  
HETATM   23  C   UNL     1      -6.452  14.491  69.326  1.00  0.00    -0.123 A  
HETATM   24  C   UNL     1      -6.913  12.926  67.357  1.00  0.00    -0.129 C  
HETATM   25  C   UNL     1      -6.542  13.169  68.806  1.00  0.00    -0.096 A  
BRANCH  23  26
HETATM   26  C   UNL     1      -7.048  15.690  68.658  1.00  0.00    -0.127 A  
HETATM   27  C   UNL     1      -6.309  16.514  67.793  1.00  0.00    -0.164 A  
HETATM   28  C   UNL     1      -6.868  17.669  67.228  1.00  0.00    -0.185 A  
HETATM   29  C   UNL     1      -8.195  18.024  67.474  1.00  0.00    -0.235 A  
HETATM   30  C   UNL     1      -8.938  17.253  68.359  1.00  0.00    -0.269 A  
HETATM   31  C   UNL     1      -8.361  16.117  68.946  1.00  0.00    -0.233 A  
BRANCH  29  32
HETATM   32  O   UNL     1      -8.612  19.154  66.841  1.00  0.00    -0.280 OA 
HETATM   33  C   UNL     1      -8.621  20.381  67.555  1.00  0.00    -0.276 C  
HETATM   34  F   UNL     1      -7.632  21.179  67.096  1.00  0.00    -0.382 F  
HETATM   35  F   UNL     1      -8.488  20.244  68.891  1.00  0.00    -0.053 F  
HETATM   36  F   UNL     1      -9.800  20.999  67.320  1.00  0.00    -0.622 F  
ENDBRANCH  29  32
ENDBRANCH  23  26
ENDBRANCH  16  19
ENDBRANCH  12  15
ENDBRANCH   4   9
TORSDOF 5
ENDMDL
MODEL       70
REMARK 921   NORMALIZED FREE ENERGY PREDICTED BY IDOCK:   -4.60 KCAL/MOL
REMARK 922        TOTAL FREE ENERGY PREDICTED BY IDOCK:   -6.96 KCAL/MOL
REMARK 923 INTER-LIGAND FREE ENERGY PREDICTED BY IDOCK:   -7.04 KCAL/MOL
REMARK 924 INTRA-LIGAND FREE ENERGY PREDICTED BY IDOCK:    0.07 KCAL/MOL
REMARK 927      BINDING AFFINITY PREDICTED BY RF-SCORE:    0.00 PKD
ROOT
HETATM    1  C   UNL     1      -5.555   7.477  63.289  1.00  0.00    -0.045 C  
HETATM    2  C   UNL     1      -5.777   7.189  64.784  1.00  0.00    -0.033 C  
HETATM    3  C   UNL     1      -5.438   8.958  62.955  1.00  0.00    -0.070 C  
HETATM    4  N   UNL     1      -7.183   7.228  65.180  1.00  0.00    -0.067 NA 
HETATM    5  C   UNL     1      -8.109   6.530  64.283  1.00  0.00    -0.051 C  
HETATM    6  C   UNL     1      -8.515   8.158  62.332  1.00  0.00    -0.099 C  
HETATM    7  C   UNL     1      -7.858   6.863  62.799  1.00  0.00    -0.114 C  
HETATM    8  O   UNL     1      -6.475   6.792  62.424  1.00  0.00    -0.041 OA 
ENDROOT
BRANCH   4   9
HETATM    9  C   UNL     1      -7.670   8.291  65.920  1.00  0.00    -0.087 A  
HETATM   10  C   UNL     1      -9.049   8.464  66.010  1.00  0.00    -0.235 A  
HETATM   11  C   UNL     1      -9.586   9.534  66.720  1.00  0.00    -0.229 A  
HETATM   12  C   UNL     1      -8.744  10.446  67.342  1.00  0.00    -0.125 A  
HETATM   13  N   UNL     1      -6.833   9.137  66.554  1.00  0.00    -0.079 NA 
HETATM   14  C   UNL     1      -7.380  10.193  67.222  1.00  0.00    -0.090 A  
BRANCH  12  15
HETATM   15  N   UNL     1      -9.215  11.593  68.033  1.00  0.00    -0.171 N  
HETATM   16  C   UNL     1     -10.551  11.971  68.104  1.00  0.00    -0.210 C  
HETATM   17  H   UNL     1      -8.528  12.180  68.508  1.00  0.00     0.000 HD 
HETATM   18  O   UNL     1     -11.482  11.281  67.704  1.00  0.00    -0.404 OA 
BRANCH  16  19
HETATM   19  C   UNL     1     -10.895  13.264  68.784  1.00  0.00    -0.273 A  
HETATM   20  C   UNL     1     -12.098  13.387  69.490  1.00  0.00    -0.334 A  
HETATM   21  C   UNL     1     -12.503  14.634  69.952  1.00  0.00    -0.290 A  
HETATM   22  C   UNL     1     -11.771  15.775  69.619  1.00  0.00    -0.363 A  
HETATM   23  C   UNL     1     -10.569  15.709  68.883  1.00  0.00    -0.228 A  
HETATM   24  C   UNL     1      -8.662  14.223  68.051  1.00  0.00    -0.177 C  
HETATM   25  C   UNL     1     -10.071  14.412  68.577  1.00  0.00    -0.244 A  
BRANCH  23  26
HETATM   26  C   UNL     1      -9.947  16.977  68.388  1.00  0.00    -0.289 A  
HETATM   27  C   UNL     1     -10.505  17.729  67.340  1.00  0.00    -0.367 A  
HETATM   28  C   UNL     1      -9.870  18.879  66.848  1.00  0.00    -0.371 A  
HETATM   29  C   UNL     1      -8.679  19.342  67.408  1.00  0.00    -0.293 A  
HETATM   30  C   UNL     1      -8.081  18.596  68.415  1.00  0.00    -0.360 A  
HETATM   31  C   UNL     1      -8.704  17.428  68.880  1.00  0.00    -0.153 A  
BRANCH  29  32
HETATM   32  O   UNL     1      -8.190  20.482  66.849  1.00  0.00    -0.284 OA 
HETATM   33  C   UNL     1      -7.075  20.397  65.974  1.00  0.00    -0.218 C  
HETATM   34  F   UNL     1      -7.476  20.632  64.706  1.00  0.00    -0.148 F  
HETATM   35  F   UNL     1      -6.427  19.214  66.017  1.00  0.00    -0.189 F  
HETATM   36  F   UNL     1      -6.192  21.363  66.319  1.00  0.00    -0.306 F  
ENDBRANCH  29  32
ENDBRANCH  23  26
ENDBRANCH  16  19
ENDBRANCH  12  15
ENDBRANCH   4   9
TORSDOF 5
ENDMDL
MODEL       71
REMARK 921   NORMALIZED FREE ENERGY PREDICTED BY IDOCK:   -4.58 KCAL/MOL
REMARK 922        TOTAL FREE ENERGY PREDICTED BY IDOCK:   -6.94 KCAL/MOL
REMARK 923 INTER-LIGAND FREE ENERGY PREDICTED BY IDOCK:   -6.25 KCAL/MOL
REMARK 924 INTRA-LIGAND FREE ENERGY PREDICTED BY IDOCK:   -0.69 KCAL/MOL
REMARK 927      BINDING AFFINITY PREDICTED BY RF-SCORE:    0.00 PKD
ROOT
HETATM    1  C   UNL     1     -10.373  16.697  68.365  1.00  0.00    -0.299 C  
HETATM    2  C   UNL     1      -9.009  16.033  68.621  1.00  0.00    -0.210 C  
HETATM    3  C   UNL     1     -11.557  15.747  68.489  1.00  0.00    -0.367 C  
HETATM    4  N   UNL     1      -8.433  15.412  67.430  1.00  0.00    -0.169 NA 
HETATM    5  C   UNL     1      -8.496  16.218  66.207  1.00  0.00    -0.334 C  
HETATM    6  C   UNL     1     -10.893  15.916  65.322  1.00  0.00    -0.401 C  
HETATM    7  C   UNL     1      -9.886  16.849  65.986  1.00  0.00    -0.258 C  
HETATM    8  O   UNL     1     -10.421  17.477  67.159  1.00  0.00    -0.335 OA 
ENDROOT
BRANCH   4   9
HETATM    9  C   UNL     1      -8.414  14.035  67.301  1.00  0.00    -0.207 A  
HETATM   10  C   UNL     1      -9.528  13.401  66.757  1.00  0.00    -0.263 A  
HETATM   11  C   UNL     1      -9.566  12.015  66.633  1.00  0.00    -0.225 A  
HETATM   12  C   UNL     1      -8.489  11.250  67.059  1.00  0.00    -0.150 A  
HETATM   13  N   UNL     1      -7.336  13.317  67.679  1.00  0.00    -0.148 NA 
HETATM   14  C   UNL     1      -7.406  11.960  67.572  1.00  0.00    -0.132 A  
BRANCH  12  15
HETATM   15  N   UNL     1      -8.478   9.831  67.020  1.00  0.00    -0.117 N  
HETATM   16  C   UNL     1      -7.546   9.074  66.320  1.00  0.00    -0.092 C  
HETATM   17  H   UNL     1      -9.203   9.334  67.539  1.00  0.00     0.000 HD 
HETATM   18  O   UNL     1      -6.549   9.540  65.780  1.00  0.00    -0.071 OA 
BRANCH  16  19
HETATM   19  C   UNL     1      -7.715   7.583  66.283  1.00  0.00    -0.089 A  
HETATM   20  C   UNL     1      -7.912   6.929  65.062  1.00  0.00    -0.125 A  
HETATM   21  C   UNL     1      -8.260   5.582  65.047  1.00  0.00    -0.139 A  
HETATM   22  C   UNL     1      -8.519   4.914  66.244  1.00  0.00    -0.111 A  
HETATM   23  C   UNL     1      -8.367   5.536  67.502  1.00  0.00    -0.100 A  
HETATM   24  C   UNL     1      -7.363   7.500  68.796  1.00  0.00    -0.095 C  
HETATM   25  C   UNL     1      -7.833   6.856  67.507  1.00  0.00    -0.112 A  
BRANCH  23  26
HETATM   26  C   UNL     1      -8.854   4.832  68.728  1.00  0.00    -0.122 A  
HETATM   27  C   UNL     1      -9.987   5.261  69.441  1.00  0.00    -0.288 A  
HETATM   28  C   UNL     1     -10.389   4.626  70.625  1.00  0.00    -0.119 A  
HETATM   29  C   UNL     1      -9.700   3.517  71.120  1.00  0.00    -0.167 A  
HETATM   30  C   UNL     1      -8.553   3.096  70.461  1.00  0.00    -0.110 A  
HETATM   31  C   UNL     1      -8.137   3.758  69.295  1.00  0.00    -0.062 A  
BRANCH  29  32
HETATM   32  O   UNL     1     -10.216   2.986  72.261  1.00  0.00    -0.162 OA 
HETATM   33  C   UNL     1     -10.122   3.726  73.470  1.00  0.00    -0.134 C  
HETATM   34  F   UNL     1     -11.344   4.186  73.815  1.00  0.00    -0.311 F  
HETATM   35  F   UNL     1      -9.261   4.764  73.416  1.00  0.00    -0.114 F  
HETATM   36  F   UNL     1      -9.699   2.890  74.445  1.00  0.00    -0.107 F  
ENDBRANCH  29  32
ENDBRANCH  23  26
ENDBRANCH  16  19
ENDBRANCH  12  15
ENDBRANCH   4   9
TORSDOF 5
ENDMDL
MODEL       72
REMARK 921   NORMALIZED FREE ENERGY PREDICTED BY IDOCK:   -4.40 KCAL/MOL
REMARK 922        TOTAL FREE ENERGY PREDICTED BY IDOCK:   -6.70 KCAL/MOL
REMARK 923 INTER-LIGAND FREE ENERGY PREDICTED BY IDOCK:   -6.20 KCAL/MOL
REMARK 924 INTRA-LIGAND FREE ENERGY PREDICTED BY IDOCK:   -0.50 KCAL/MOL
REMARK 927      BINDING AFFINITY PREDICTED BY RF-SCORE:    0.00 PKD
ROOT
HETATM    1  C   UNL     1     -10.398  18.438  66.336  1.00  0.00    -0.405 C  
HETATM    2  C   UNL     1     -10.880  17.879  67.686  1.00  0.00    -0.229 C  
HETATM    3  C   UNL     1     -10.474  17.437  65.190  1.00  0.00     0.290 C  
HETATM    4  N   UNL     1      -9.834  17.184  68.434  1.00  0.00    -0.281 NA 
HETATM    5  C   UNL     1      -8.539  17.868  68.487  1.00  0.00    -0.293 C  
HETATM    6  C   UNL     1      -7.408  17.348  66.235  1.00  0.00    -0.347 C  
HETATM    7  C   UNL     1      -8.092  18.395  67.108  1.00  0.00    -0.239 C  
HETATM    8  O   UNL     1      -9.124  19.098  66.403  1.00  0.00    -0.330 OA 
ENDROOT
BRANCH   4   9
HETATM    9  C   UNL     1      -9.846  15.804  68.531  1.00  0.00    -0.209 A  
HETATM   10  C   UNL     1     -11.074  15.149  68.559  1.00  0.00    -0.281 A  
HETATM   11  C   UNL     1     -11.138  13.764  68.684  1.00  0.00    -0.293 A  
HETATM   12  C   UNL     1      -9.968  13.023  68.788  1.00  0.00    -0.010 A  
HETATM   13  N   UNL     1      -8.696  15.102  68.584  1.00  0.00    -0.165 NA 
HETATM   14  C   UNL     1      -8.782  13.749  68.732  1.00  0.00     0.038 A  
BRANCH  12  15
HETATM   15  N   UNL     1      -9.954  11.615  68.978  1.00  0.00    -0.413 N  
HETATM   16  C   UNL     1     -11.025  10.776  68.694  1.00  0.00    -0.239 C  
HETATM   17  H   UNL     1      -9.102  11.192  69.346  1.00  0.00     0.000 HD 
HETATM   18  O   UNL     1     -12.045  11.136  68.117  1.00  0.00    -0.633 OA 
BRANCH  16  19
HETATM   19  C   UNL     1     -10.906   9.320  69.038  1.00  0.00    -0.136 A  
HETATM   20  C   UNL     1     -11.367   8.851  70.273  1.00  0.00    -0.179 A  
HETATM   21  C   UNL     1     -11.083   7.548  70.667  1.00  0.00    -0.280 A  
HETATM   22  C   UNL     1     -10.250   6.747  69.885  1.00  0.00    -0.211 A  
HETATM   23  C   UNL     1      -9.733   7.183  68.647  1.00  0.00    -0.141 A  
HETATM   24  C   UNL     1      -9.921   8.877  66.741  1.00  0.00    -0.338 C  
HETATM   25  C   UNL     1     -10.182   8.447  68.170  1.00  0.00    -0.253 A  
BRANCH  23  26
HETATM   26  C   UNL     1      -8.689   6.360  67.961  1.00  0.00    -0.115 A  
HETATM   27  C   UNL     1      -9.007   5.419  66.966  1.00  0.00    -0.112 A  
HETATM   28  C   UNL     1      -8.021   4.611  66.383  1.00  0.00    -0.103 A  
HETATM   29  C   UNL     1      -6.679   4.737  66.741  1.00  0.00    -0.051 A  
HETATM   30  C   UNL     1      -6.339   5.626  67.752  1.00  0.00    -0.042 A  
HETATM   31  C   UNL     1      -7.335   6.408  68.355  1.00  0.00    -0.087 A  
BRANCH  29  32
HETATM   32  O   UNL     1      -5.829   3.908  66.076  1.00  0.00    -0.018 OA 
HETATM   33  C   UNL     1      -6.213   2.558  65.858  1.00  0.00    -0.024 C  
HETATM   34  F   UNL     1      -6.498   2.374  64.551  1.00  0.00    -0.020 F  
HETATM   35  F   UNL     1      -7.268   2.157  66.598  1.00  0.00    -0.051 F  
HETATM   36  F   UNL     1      -5.164   1.764  66.173  1.00  0.00    -0.004 F  
ENDBRANCH  29  32
ENDBRANCH  23  26
ENDBRANCH  16  19
ENDBRANCH  12  15
ENDBRANCH   4   9
TORSDOF 5
ENDMDL
MODEL       73
REMARK 921   NORMALIZED FREE ENERGY PREDICTED BY IDOCK:   -4.33 KCAL/MOL
REMARK 922        TOTAL FREE ENERGY PREDICTED BY IDOCK:   -6.60 KCAL/MOL
REMARK 923 INTER-LIGAND FREE ENERGY PREDICTED BY IDOCK:   -5.69 KCAL/MOL
REMARK 924 INTRA-LIGAND FREE ENERGY PREDICTED BY IDOCK:   -0.92 KCAL/MOL
REMARK 927      BINDING AFFINITY PREDICTED BY RF-SCORE:    0.00 PKD
ROOT
HETATM    1  C   UNL     1     -10.638  17.165  68.278  1.00  0.00    -0.375 C  
HETATM    2  C   UNL     1      -9.200  16.828  68.708  1.00  0.00    -0.260 C  
HETATM    3  C   UNL     1     -11.628  16.025  68.481  1.00  0.00    -0.316 C  
HETATM    4  N   UNL     1      -8.419  16.174  67.659  1.00  0.00    -0.166 NA 
HETATM    5  C   UNL     1      -8.530  16.773  66.326  1.00  0.00    -0.307 C  
HETATM    6  C   UNL     1     -10.745  15.879  65.367  1.00  0.00    -0.415 C  
HETATM    7  C   UNL     1      -9.991  17.077  65.935  1.00  0.00    -0.217 C  
HETATM    8  O   UNL     1     -10.731  17.744  66.967  1.00  0.00    -0.301 OA 
ENDROOT
BRANCH   4   9
HETATM    9  C   UNL     1      -8.130  14.824  67.745  1.00  0.00    -0.152 A  
HETATM   10  C   UNL     1      -9.124  13.956  68.187  1.00  0.00    -0.193 A  
HETATM   11  C   UNL     1      -8.872  12.593  68.316  1.00  0.00    -0.172 A  
HETATM   12  C   UNL     1      -7.616  12.088  68.007  1.00  0.00    -0.120 A  
HETATM   13  N   UNL     1      -6.916  14.351  67.395  1.00  0.00    -0.221 NA 
HETATM   14  C   UNL     1      -6.683  13.017  67.554  1.00  0.00    -0.152 A  
BRANCH  12  15
HETATM   15  N   UNL     1      -7.266  10.721  68.170  1.00  0.00    -0.081 N  
HETATM   16  C   UNL     1      -6.667  10.196  69.309  1.00  0.00    -0.059 C  
HETATM   17  H   UNL     1      -7.467  10.083  67.400  1.00  0.00     0.000 HD 
HETATM   18  O   UNL     1      -6.507  10.822  70.351  1.00  0.00    -0.215 OA 
BRANCH  16  19
HETATM   19  C   UNL     1      -6.260   8.752  69.304  1.00  0.00    -0.042 A  
HETATM   20  C   UNL     1      -5.385   8.273  68.322  1.00  0.00    -0.034 A  
HETATM   21  C   UNL     1      -5.162   6.906  68.202  1.00  0.00    -0.012 A  
HETATM   22  C   UNL     1      -5.891   6.007  68.984  1.00  0.00    -0.019 A  
HETATM   23  C   UNL     1      -6.809   6.437  69.965  1.00  0.00    -0.054 A  
HETATM   24  C   UNL     1      -7.617   8.381  71.417  1.00  0.00    -0.109 C  
HETATM   25  C   UNL     1      -6.888   7.838  70.204  1.00  0.00    -0.049 A  
BRANCH  23  26
HETATM   26  C   UNL     1      -7.700   5.430  70.621  1.00  0.00    -0.089 A  
HETATM   27  C   UNL     1      -9.063   5.311  70.299  1.00  0.00    -0.169 A  
HETATM   28  C   UNL     1      -9.896   4.406  70.972  1.00  0.00    -0.260 A  
HETATM   29  C   UNL     1      -9.393   3.560  71.961  1.00  0.00    -0.122 A  
HETATM   30  C   UNL     1      -8.060   3.684  72.331  1.00  0.00    -0.073 A  
HETATM   31  C   UNL     1      -7.241   4.616  71.677  1.00  0.00    -0.067 A  
BRANCH  29  32
HETATM   32  O   UNL     1     -10.308   2.715  72.511  1.00  0.00    -0.162 OA 
HETATM   33  C   UNL     1     -11.012   3.123  73.674  1.00  0.00    -0.233 C  
HETATM   34  F   UNL     1     -12.298   3.385  73.356  1.00  0.00    -0.082 F  
HETATM   35  F   UNL     1     -10.484   4.202  74.289  1.00  0.00    -0.200 F  
HETATM   36  F   UNL     1     -11.000   2.099  74.557  1.00  0.00    -0.188 F  
ENDBRANCH  29  32
ENDBRANCH  23  26
ENDBRANCH  16  19
ENDBRANCH  12  15
ENDBRANCH   4   9
TORSDOF 5
ENDMDL
MODEL       74
REMARK 921   NORMALIZED FREE ENERGY PREDICTED BY IDOCK:   -4.25 KCAL/MOL
REMARK 922        TOTAL FREE ENERGY PREDICTED BY IDOCK:   -6.51 KCAL/MOL
REMARK 923 INTER-LIGAND FREE ENERGY PREDICTED BY IDOCK:   -5.07 KCAL/MOL
REMARK 924 INTRA-LIGAND FREE ENERGY PREDICTED BY IDOCK:   -1.43 KCAL/MOL
REMARK 927      BINDING AFFINITY PREDICTED BY RF-SCORE:    0.00 PKD
ROOT
HETATM    1  C   UNL     1     -10.103   2.002  72.867  1.00  0.00    -0.117 C  
HETATM    2  C   UNL     1     -10.021   1.736  71.354  1.00  0.00    -0.076 C  
HETATM    3  C   UNL     1     -10.524   3.421  73.224  1.00  0.00    -0.260 C  
HETATM    4  N   UNL     1      -8.730   2.095  70.771  1.00  0.00    -0.053 NA 
HETATM    5  C   UNL     1      -7.554   1.659  71.529  1.00  0.00    -0.036 C  
HETATM    6  C   UNL     1      -7.289   3.387  73.418  1.00  0.00    -0.056 C  
HETATM    7  C   UNL     1      -7.676   1.962  73.036  1.00  0.00    -0.041 C  
HETATM    8  O   UNL     1      -8.940   1.576  73.595  1.00  0.00    -0.060 OA 
ENDROOT
BRANCH   4   9
HETATM    9  C   UNL     1      -8.612   3.223  69.979  1.00  0.00    -0.063 A  
HETATM   10  C   UNL     1      -9.772   3.890  69.592  1.00  0.00    -0.208 A  
HETATM   11  C   UNL     1      -9.706   5.014  68.773  1.00  0.00    -0.226 A  
HETATM   12  C   UNL     1      -8.475   5.476  68.328  1.00  0.00    -0.097 A  
HETATM   13  N   UNL     1      -7.402   3.681  69.597  1.00  0.00    -0.045 NA 
HETATM   14  C   UNL     1      -7.363   4.767  68.774  1.00  0.00    -0.061 A  
BRANCH  12  15
HETATM   15  N   UNL     1      -8.331   6.578  67.444  1.00  0.00    -0.120 N  
HETATM   16  C   UNL     1      -8.142   7.892  67.855  1.00  0.00    -0.129 C  
HETATM   17  H   UNL     1      -8.370   6.394  66.441  1.00  0.00     0.000 HD 
HETATM   18  O   UNL     1      -7.934   8.225  69.017  1.00  0.00    -0.108 OA 
BRANCH  16  19
HETATM   19  C   UNL     1      -8.107   8.972  66.813  1.00  0.00    -0.111 A  
HETATM   20  C   UNL     1      -7.178   8.910  65.769  1.00  0.00    -0.085 A  
HETATM   21  C   UNL     1      -7.018   9.999  64.920  1.00  0.00    -0.136 A  
HETATM   22  C   UNL     1      -7.700  11.190  65.174  1.00  0.00     0.481 A  
HETATM   23  C   UNL     1      -8.625  11.315  66.233  1.00  0.00    -0.172 A  
HETATM   24  C   UNL     1     -10.090  10.092  67.934  1.00  0.00    -0.207 C  
HETATM   25  C   UNL     1      -8.916  10.138  66.977  1.00  0.00    -0.148 A  
BRANCH  23  26
HETATM   26  C   UNL     1      -9.165  12.669  66.572  1.00  0.00    -0.200 A  
HETATM   27  C   UNL     1     -10.226  13.255  65.860  1.00  0.00    -0.295 A  
HETATM   28  C   UNL     1     -10.674  14.551  66.152  1.00  0.00    -0.310 A  
HETATM   29  C   UNL     1     -10.108  15.294  67.189  1.00  0.00    -0.240 A  
HETATM   30  C   UNL     1      -9.030  14.759  67.882  1.00  0.00    -0.172 A  
HETATM   31  C   UNL     1      -8.565  13.475  67.562  1.00  0.00    -0.193 A  
BRANCH  29  32
HETATM   32  O   UNL     1     -10.658  16.525  67.377  1.00  0.00    -0.316 OA 
HETATM   33  C   UNL     1     -10.115  17.637  66.681  1.00  0.00    -0.335 C  
HETATM   34  F   UNL     1     -10.976  18.032  65.719  1.00  0.00    -0.301 F  
HETATM   35  F   UNL     1      -8.909  17.403  66.122  1.00  0.00    -0.276 F  
HETATM   36  F   UNL     1      -9.971  18.655  67.559  1.00  0.00    -0.303 F  
ENDBRANCH  29  32
ENDBRANCH  23  26
ENDBRANCH  16  19
ENDBRANCH  12  15
ENDBRANCH   4   9
TORSDOF 5
ENDMDL
MODEL       75
REMARK 921   NORMALIZED FREE ENERGY PREDICTED BY IDOCK:   -4.23 KCAL/MOL
REMARK 922        TOTAL FREE ENERGY PREDICTED BY IDOCK:   -6.48 KCAL/MOL
REMARK 923 INTER-LIGAND FREE ENERGY PREDICTED BY IDOCK:   -5.49 KCAL/MOL
REMARK 924 INTRA-LIGAND FREE ENERGY PREDICTED BY IDOCK:   -0.99 KCAL/MOL
REMARK 927      BINDING AFFINITY PREDICTED BY RF-SCORE:    0.00 PKD
ROOT
HETATM    1  C   UNL     1     -10.534  15.252  65.180  1.00  0.00    -0.411 C  
HETATM    2  C   UNL     1     -10.594  14.004  64.283  1.00  0.00     0.029 C  
HETATM    3  C   UNL     1      -9.339  15.279  66.124  1.00  0.00    -0.360 C  
HETATM    4  N   UNL     1     -11.266  12.869  64.911  1.00  0.00    -0.292 NA 
HETATM    5  C   UNL     1     -12.521  13.183  65.599  1.00  0.00    -0.425 C  
HETATM    6  C   UNL     1     -11.820  14.151  67.878  1.00  0.00    -0.405 C  
HETATM    7  C   UNL     1     -12.407  14.430  66.498  1.00  0.00    -0.243 C  
HETATM    8  O   UNL     1     -11.770  15.542  65.853  1.00  0.00     0.077 OA 
ENDROOT
BRANCH   4   9
HETATM    9  C   UNL     1     -10.532  11.784  65.359  1.00  0.00    -0.272 A  
HETATM   10  C   UNL     1     -10.192  10.788  64.447  1.00  0.00    -0.432 A  
HETATM   11  C   UNL     1      -9.478   9.665  64.856  1.00  0.00    -0.288 A  
HETATM   12  C   UNL     1      -9.104   9.527  66.185  1.00  0.00    -0.166 A  
HETATM   13  N   UNL     1     -10.140  11.695  66.646  1.00  0.00    -0.205 NA 
HETATM   14  C   UNL     1      -9.464  10.574  67.029  1.00  0.00    -0.163 A  
BRANCH  12  15
HETATM   15  N   UNL     1      -8.428   8.384  66.688  1.00  0.00    -0.109 N  
HETATM   16  C   UNL     1      -7.060   8.325  66.926  1.00  0.00    -0.078 C  
HETATM   17  H   UNL     1      -8.982   7.551  66.888  1.00  0.00     0.000 HD 
HETATM   18  O   UNL     1      -6.310   9.294  66.866  1.00  0.00    -0.064 OA 
BRANCH  16  19
HETATM   19  C   UNL     1      -6.463   7.019  67.363  1.00  0.00    -0.054 A  
HETATM   20  C   UNL     1      -5.640   6.297  66.491  1.00  0.00    -0.013 A  
HETATM   21  C   UNL     1      -5.248   5.005  66.822  1.00  0.00    -0.008 A  
HETATM   22  C   UNL     1      -5.761   4.389  67.965  1.00  0.00    -0.021 A  
HETATM   23  C   UNL     1      -6.620   5.062  68.860  1.00  0.00    -0.048 A  
HETATM   24  C   UNL     1      -7.525   7.320  69.649  1.00  0.00    -0.094 C  
HETATM   25  C   UNL     1      -6.863   6.442  68.607  1.00  0.00    -0.074 A  
BRANCH  23  26
HETATM   26  C   UNL     1      -7.291   4.286  69.949  1.00  0.00    -0.049 A  
HETATM   27  C   UNL     1      -8.313   3.357  69.688  1.00  0.00    -0.080 A  
HETATM   28  C   UNL     1      -8.975   2.688  70.728  1.00  0.00    -0.161 A  
HETATM   29  C   UNL     1      -8.616   2.892  72.061  1.00  0.00    -0.066 A  
HETATM   30  C   UNL     1      -7.640   3.836  72.353  1.00  0.00    -0.066 A  
HETATM   31  C   UNL     1      -7.006   4.526  71.309  1.00  0.00    -0.039 A  
BRANCH  29  32
HETATM   32  O   UNL     1      -9.324   2.158  72.963  1.00  0.00    -0.075 OA 
HETATM   33  C   UNL     1     -10.676   2.505  73.225  1.00  0.00    -0.174 C  
HETATM   34  F   UNL     1     -11.494   1.575  72.689  1.00  0.00    -0.231 F  
HETATM   35  F   UNL     1     -11.033   3.722  72.763  1.00  0.00    -0.229 F  
HETATM   36  F   UNL     1     -10.860   2.503  74.565  1.00  0.00    -0.202 F  
ENDBRANCH  29  32
ENDBRANCH  23  26
ENDBRANCH  16  19
ENDBRANCH  12  15
ENDBRANCH   4   9
TORSDOF 5
ENDMDL
MODEL       76
REMARK 921   NORMALIZED FREE ENERGY PREDICTED BY IDOCK:   -4.16 KCAL/MOL
REMARK 922        TOTAL FREE ENERGY PREDICTED BY IDOCK:   -6.39 KCAL/MOL
REMARK 923 INTER-LIGAND FREE ENERGY PREDICTED BY IDOCK:   -5.60 KCAL/MOL
REMARK 924 INTRA-LIGAND FREE ENERGY PREDICTED BY IDOCK:   -0.79 KCAL/MOL
REMARK 927      BINDING AFFINITY PREDICTED BY RF-SCORE:    0.00 PKD
ROOT
HETATM    1  C   UNL     1      -7.836  20.393  66.942  1.00  0.00    -0.294 C  
HETATM    2  C   UNL     1      -7.633  19.788  68.341  1.00  0.00    -0.301 C  
HETATM    3  C   UNL     1      -9.057  19.857  66.206  1.00  0.00    -0.436 C  
HETATM    4  N   UNL     1      -6.879  18.536  68.328  1.00  0.00    -0.229 NA 
HETATM    5  C   UNL     1      -5.680  18.532  67.485  1.00  0.00    -0.149 C  
HETATM    6  C   UNL     1      -6.539  18.151  65.090  1.00  0.00     0.205 C  
HETATM    7  C   UNL     1      -5.937  19.134  66.089  1.00  0.00    -0.163 C  
HETATM    8  O   UNL     1      -6.654  20.376  66.125  1.00  0.00    -0.213 OA 
ENDROOT
BRANCH   4   9
HETATM    9  C   UNL     1      -7.523  17.331  68.549  1.00  0.00    -0.241 A  
HETATM   10  C   UNL     1      -8.851  17.352  68.965  1.00  0.00    -0.056 A  
HETATM   11  C   UNL     1      -9.533  16.167  69.226  1.00  0.00    -0.224 A  
HETATM   12  C   UNL     1      -8.886  14.948  69.078  1.00  0.00    -0.179 A  
HETATM   13  N   UNL     1      -6.888  16.158  68.353  1.00  0.00    -0.125 NA 
HETATM   14  C   UNL     1      -7.566  15.010  68.640  1.00  0.00    -0.128 A  
BRANCH  12  15
HETATM   15  N   UNL     1      -9.495  13.701  69.382  1.00  0.00     0.037 N  
HETATM   16  C   UNL     1     -10.535  13.139  68.651  1.00  0.00    -0.227 C  
HETATM   17  H   UNL     1      -9.147  13.184  70.190  1.00  0.00     0.000 HD 
HETATM   18  O   UNL     1     -10.943  13.585  67.584  1.00  0.00    -0.255 OA 
BRANCH  16  19
HETATM   19  C   UNL     1     -11.152  11.864  69.146  1.00  0.00    -0.285 A  
HETATM   20  C   UNL     1     -12.348  11.898  69.872  1.00  0.00    -0.168 A  
HETATM   21  C   UNL     1     -12.814  10.743  70.492  1.00  0.00    -0.335 A  
HETATM   22  C   UNL     1     -12.037   9.583  70.483  1.00  0.00    -0.148 A  
HETATM   23  C   UNL     1     -10.809   9.506  69.792  1.00  0.00    -0.264 A  
HETATM   24  C   UNL     1      -9.298  10.550  68.013  1.00  0.00    -0.150 C  
HETATM   25  C   UNL     1     -10.437  10.635  69.010  1.00  0.00    -0.237 A  
BRANCH  23  26
HETATM   26  C   UNL     1      -9.936   8.307  69.991  1.00  0.00    -0.188 A  
HETATM   27  C   UNL     1      -9.181   8.113  71.161  1.00  0.00    -0.185 A  
HETATM   28  C   UNL     1      -8.318   7.016  71.300  1.00  0.00    -0.114 A  
HETATM   29  C   UNL     1      -8.206   6.054  70.295  1.00  0.00    -0.119 A  
HETATM   30  C   UNL     1      -8.906   6.241  69.111  1.00  0.00    -0.128 A  
HETATM   31  C   UNL     1      -9.742   7.358  68.966  1.00  0.00    -0.160 A  
BRANCH  29  32
HETATM   32  O   UNL     1      -7.353   5.031  70.576  1.00  0.00    -0.058 OA 
HETATM   33  C   UNL     1      -6.172   5.303  71.317  1.00  0.00    -0.030 C  
HETATM   34  F   UNL     1      -6.288   4.784  72.558  1.00  0.00    -0.025 F  
HETATM   35  F   UNL     1      -5.871   6.614  71.416  1.00  0.00    -0.032 F  
HETATM   36  F   UNL     1      -5.136   4.688  70.701  1.00  0.00     0.000 F  
ENDBRANCH  29  32
ENDBRANCH  23  26
ENDBRANCH  16  19
ENDBRANCH  12  15
ENDBRANCH   4   9
TORSDOF 5
ENDMDL
MODEL       77
REMARK 921   NORMALIZED FREE ENERGY PREDICTED BY IDOCK:   -3.91 KCAL/MOL
REMARK 922        TOTAL FREE ENERGY PREDICTED BY IDOCK:   -6.06 KCAL/MOL
REMARK 923 INTER-LIGAND FREE ENERGY PREDICTED BY IDOCK:   -5.64 KCAL/MOL
REMARK 924 INTRA-LIGAND FREE ENERGY PREDICTED BY IDOCK:   -0.42 KCAL/MOL
REMARK 927      BINDING AFFINITY PREDICTED BY RF-SCORE:    0.00 PKD
ROOT
HETATM    1  C   UNL     1     -10.813  17.589  66.206  1.00  0.00     0.062 C  
HETATM    2  C   UNL     1     -11.354  16.928  67.486  1.00  0.00     0.266 C  
HETATM    3  C   UNL     1     -10.788  16.664  64.996  1.00  0.00    -0.190 C  
HETATM    4  N   UNL     1     -10.331  16.216  68.249  1.00  0.00    -0.257 NA 
HETATM    5  C   UNL     1      -9.064  16.933  68.424  1.00  0.00    -0.243 C  
HETATM    6  C   UNL     1      -7.787  16.598  66.216  1.00  0.00    -0.309 C  
HETATM    7  C   UNL     1      -8.555  17.563  67.112  1.00  0.00    -0.225 C  
HETATM    8  O   UNL     1      -9.568  18.280  66.393  1.00  0.00    -0.312 OA 
ENDROOT
BRANCH   4   9
HETATM    9  C   UNL     1     -10.302  14.833  68.257  1.00  0.00    -0.238 A  
HETATM   10  C   UNL     1     -11.499  14.141  68.095  1.00  0.00    -0.340 A  
HETATM   11  C   UNL     1     -11.525  12.749  68.123  1.00  0.00    -0.357 A  
HETATM   12  C   UNL     1     -10.349  12.038  68.321  1.00  0.00    -0.204 A  
HETATM   13  N   UNL     1      -9.141  14.164  68.403  1.00  0.00    -0.190 NA 
HETATM   14  C   UNL     1      -9.193  12.802  68.454  1.00  0.00    -0.136 A  
BRANCH  12  15
HETATM   15  N   UNL     1     -10.304  10.622  68.421  1.00  0.00    -0.167 N  
HETATM   16  C   UNL     1      -9.683   9.791  67.496  1.00  0.00    -0.157 C  
HETATM   17  H   UNL     1     -10.758  10.186  69.224  1.00  0.00     0.000 HD 
HETATM   18  O   UNL     1      -8.983  10.194  66.572  1.00  0.00    -0.142 OA 
BRANCH  16  19
HETATM   19  C   UNL     1      -9.800   8.306  67.674  1.00  0.00    -0.218 A  
HETATM   20  C   UNL     1     -10.740   7.582  66.932  1.00  0.00    -0.299 A  
HETATM   21  C   UNL     1     -10.980   6.246  67.234  1.00  0.00    -0.455 A  
HETATM   22  C   UNL     1     -10.368   5.660  68.344  1.00  0.00    -0.258 A  
HETATM   23  C   UNL     1      -9.437   6.356  69.144  1.00  0.00    -0.137 A  
HETATM   24  C   UNL     1      -7.873   8.370  69.326  1.00  0.00    -0.104 C  
HETATM   25  C   UNL     1      -9.062   7.659  68.712  1.00  0.00    -0.139 A  
BRANCH  23  26
HETATM   26  C   UNL     1      -8.976   5.741  70.428  1.00  0.00    -0.154 A  
HETATM   27  C   UNL     1      -7.747   5.070  70.541  1.00  0.00    -0.070 A  
HETATM   28  C   UNL     1      -7.363   4.444  71.735  1.00  0.00    -0.068 A  
HETATM   29  C   UNL     1      -8.172   4.497  72.871  1.00  0.00    -0.096 A  
HETATM   30  C   UNL     1      -9.412   5.115  72.778  1.00  0.00    -0.159 A  
HETATM   31  C   UNL     1      -9.804   5.711  71.570  1.00  0.00    -0.213 A  
BRANCH  29  32
HETATM   32  O   UNL     1      -7.663   3.869  73.966  1.00  0.00    -0.076 OA 
HETATM   33  C   UNL     1      -6.654   2.886  73.790  1.00  0.00    -0.029 C  
HETATM   34  F   UNL     1      -5.471   3.367  74.228  1.00  0.00     0.000 F  
HETATM   35  F   UNL     1      -6.511   2.463  72.516  1.00  0.00    -0.012 F  
HETATM   36  F   UNL     1      -6.974   1.811  74.546  1.00  0.00    -0.019 F  
ENDBRANCH  29  32
ENDBRANCH  23  26
ENDBRANCH  16  19
ENDBRANCH  12  15
ENDBRANCH   4   9
TORSDOF 5
ENDMDL
MODEL       78
REMARK 921   NORMALIZED FREE ENERGY PREDICTED BY IDOCK:   -3.54 KCAL/MOL
REMARK 922        TOTAL FREE ENERGY PREDICTED BY IDOCK:   -5.59 KCAL/MOL
REMARK 923 INTER-LIGAND FREE ENERGY PREDICTED BY IDOCK:   -5.50 KCAL/MOL
REMARK 924 INTRA-LIGAND FREE ENERGY PREDICTED BY IDOCK:   -0.09 KCAL/MOL
REMARK 927      BINDING AFFINITY PREDICTED BY RF-SCORE:    0.00 PKD
ROOT
HETATM    1  C   UNL     1     -12.632   6.136  71.846  1.00  0.00     0.182 C  
HETATM    2  C   UNL     1     -11.892   6.143  70.497  1.00  0.00     0.052 C  
HETATM    3  C   UNL     1     -13.017   7.521  72.348  1.00  0.00     0.141 C  
HETATM    4  N   UNL     1     -10.448   6.323  70.628  1.00  0.00    -0.213 NA 
HETATM    5  C   UNL     1      -9.805   5.516  71.669  1.00  0.00    -0.173 C  
HETATM    6  C   UNL     1     -10.257   6.768  73.871  1.00  0.00    -0.396 C  
HETATM    7  C   UNL     1     -10.574   5.553  73.005  1.00  0.00    -0.239 C  
HETATM    8  O   UNL     1     -11.986   5.346  72.857  1.00  0.00    -0.225 OA 
ENDROOT
BRANCH   4   9
HETATM    9  C   UNL     1      -9.861   7.528  70.283  1.00  0.00    -0.183 A  
HETATM   10  C   UNL     1      -8.473   7.595  70.204  1.00  0.00    -0.138 A  
HETATM   11  C   UNL     1      -7.835   8.791  69.888  1.00  0.00    -0.093 A  
HETATM   12  C   UNL     1      -8.586   9.935  69.654  1.00  0.00    -0.194 A  
HETATM   13  N   UNL     1     -10.613   8.615  70.014  1.00  0.00    -0.224 NA 
HETATM   14  C   UNL     1      -9.967   9.782  69.733  1.00  0.00    -0.236 A  
BRANCH  12  15
HETATM   15  N   UNL     1      -8.006  11.204  69.385  1.00  0.00    -0.373 N  
HETATM   16  C   UNL     1      -6.819  11.657  69.949  1.00  0.00     0.143 C  
HETATM   17  H   UNL     1      -8.492  11.823  68.736  1.00  0.00     0.000 HD 
HETATM   18  O   UNL     1      -6.070  10.961  70.624  1.00  0.00    -0.250 OA 
BRANCH  16  19
HETATM   19  C   UNL     1      -6.375  13.060  69.653  1.00  0.00    -0.089 A  
HETATM   20  C   UNL     1      -5.440  13.690  70.482  1.00  0.00    -0.140 A  
HETATM   21  C   UNL     1      -5.176  15.046  70.321  1.00  0.00    -0.114 A  
HETATM   22  C   UNL     1      -5.921  15.800  69.412  1.00  0.00    -0.129 A  
HETATM   23  C   UNL     1      -6.898  15.220  68.576  1.00  0.00    -0.112 A  
HETATM   24  C   UNL     1      -7.827  13.060  67.570  1.00  0.00    -0.178 C  
HETATM   25  C   UNL     1      -7.025  13.803  68.620  1.00  0.00    -0.102 A  
BRANCH  23  26
HETATM   26  C   UNL     1      -7.795  16.111  67.776  1.00  0.00    -0.157 A  
HETATM   27  C   UNL     1      -9.192  16.103  67.929  1.00  0.00    -0.200 A  
HETATM   28  C   UNL     1     -10.020  16.898  67.123  1.00  0.00    -0.276 A  
HETATM   29  C   UNL     1      -9.483  17.758  66.164  1.00  0.00    -0.159 A  
HETATM   30  C   UNL     1      -8.110  17.757  65.960  1.00  0.00    -0.136 A  
HETATM   31  C   UNL     1      -7.290  16.933  66.747  1.00  0.00    -0.272 A  
BRANCH  29  32
HETATM   32  O   UNL     1     -10.401  18.489  65.474  1.00  0.00    -0.555 OA 
HETATM   33  C   UNL     1     -10.664  19.825  65.879  1.00  0.00    -0.383 C  
HETATM   34  F   UNL     1     -10.148  20.682  64.972  1.00  0.00    -0.194 F  
HETATM   35  F   UNL     1     -10.183  20.136  67.101  1.00  0.00    -0.505 F  
HETATM   36  F   UNL     1     -12.004  20.001  65.907  1.00  0.00     0.621 F  
ENDBRANCH  29  32
ENDBRANCH  23  26
ENDBRANCH  16  19
ENDBRANCH  12  15
ENDBRANCH   4   9
TORSDOF 5
ENDMDL
MODEL       79
REMARK 921   NORMALIZED FREE ENERGY PREDICTED BY IDOCK:   -3.42 KCAL/MOL
REMARK 922        TOTAL FREE ENERGY PREDICTED BY IDOCK:   -5.44 KCAL/MOL
REMARK 923 INTER-LIGAND FREE ENERGY PREDICTED BY IDOCK:   -5.87 KCAL/MOL
REMARK 924 INTRA-LIGAND FREE ENERGY PREDICTED BY IDOCK:    0.43 KCAL/MOL
REMARK 927      BINDING AFFINITY PREDICTED BY RF-SCORE:    0.00 PKD
ROOT
HETATM    1  C   UNL     1      -9.880   4.415  69.301  1.00  0.00    -0.148 C  
HETATM    2  C   UNL     1     -10.738   5.644  69.647  1.00  0.00    -0.328 C  
HETATM    3  C   UNL     1      -8.404   4.574  69.643  1.00  0.00    -0.079 C  
HETATM    4  N   UNL     1     -10.763   6.651  68.588  1.00  0.00    -0.235 NA 
HETATM    5  C   UNL     1     -10.964   6.133  67.231  1.00  0.00    -0.326 C  
HETATM    6  C   UNL     1      -8.655   5.273  66.489  1.00  0.00    -0.112 C  
HETATM    7  C   UNL     1     -10.071   4.913  66.927  1.00  0.00    -0.222 C  
HETATM    8  O   UNL     1     -10.082   3.924  67.966  1.00  0.00     0.054 OA 
ENDROOT
BRANCH   4   9
HETATM    9  C   UNL     1     -10.065   7.836  68.735  1.00  0.00    -0.196 A  
HETATM   10  C   UNL     1     -10.385   8.906  67.904  1.00  0.00    -0.286 A  
HETATM   11  C   UNL     1      -9.692  10.110  67.997  1.00  0.00    -0.161 A  
HETATM   12  C   UNL     1      -8.665  10.249  68.920  1.00  0.00    -0.152 A  
HETATM   13  N   UNL     1      -9.103   7.963  69.671  1.00  0.00    -0.152 NA 
HETATM   14  C   UNL     1      -8.419   9.142  69.726  1.00  0.00    -0.139 A  
BRANCH  12  15
HETATM   15  N   UNL     1      -7.874  11.424  69.032  1.00  0.00    -0.304 N  
HETATM   16  C   UNL     1      -6.872  11.605  69.978  1.00  0.00     0.275 C  
HETATM   17  H   UNL     1      -8.054  12.184  68.376  1.00  0.00     0.000 HD 
HETATM   18  O   UNL     1      -6.463  10.722  70.723  1.00  0.00    -0.348 OA 
BRANCH  16  19
HETATM   19  C   UNL     1      -6.184  12.937  70.047  1.00  0.00    -0.058 A  
HETATM   20  C   UNL     1      -5.711  13.421  71.272  1.00  0.00    -0.104 A  
HETATM   21  C   UNL     1      -5.251  14.729  71.368  1.00  0.00    -0.137 A  
HETATM   22  C   UNL     1      -5.362  15.592  70.276  1.00  0.00    -0.133 A  
HETATM   23  C   UNL     1      -5.862  15.163  69.027  1.00  0.00    -0.097 A  
HETATM   24  C   UNL     1      -6.417  13.167  67.529  1.00  0.00    -0.154 C  
HETATM   25  C   UNL     1      -6.154  13.777  68.891  1.00  0.00    -0.088 A  
BRANCH  23  26
HETATM   26  C   UNL     1      -6.144  16.180  67.967  1.00  0.00    -0.131 A  
HETATM   27  C   UNL     1      -7.402  16.297  67.353  1.00  0.00    -0.193 A  
HETATM   28  C   UNL     1      -7.627  17.213  66.315  1.00  0.00    -0.352 A  
HETATM   29  C   UNL     1      -6.618  18.072  65.879  1.00  0.00    -0.284 A  
HETATM   30  C   UNL     1      -5.352  17.951  66.437  1.00  0.00    -0.209 A  
HETATM   31  C   UNL     1      -5.125  17.009  67.451  1.00  0.00    -0.147 A  
BRANCH  29  32
HETATM   32  O   UNL     1      -6.983  18.926  64.884  1.00  0.00    -0.392 OA 
HETATM   33  C   UNL     1      -6.462  20.247  64.884  1.00  0.00    -0.293 C  
HETATM   34  F   UNL     1      -5.564  20.379  63.883  1.00  0.00    -0.200 F  
HETATM   35  F   UNL     1      -5.881  20.611  66.045  1.00  0.00    -0.200 F  
HETATM   36  F   UNL     1      -7.481  21.103  64.646  1.00  0.00     0.164 F  
ENDBRANCH  29  32
ENDBRANCH  23  26
ENDBRANCH  16  19
ENDBRANCH  12  15
ENDBRANCH   4   9
TORSDOF 5
ENDMDL
MODEL       80
REMARK 921   NORMALIZED FREE ENERGY PREDICTED BY IDOCK:   -3.36 KCAL/MOL
REMARK 922        TOTAL FREE ENERGY PREDICTED BY IDOCK:   -5.36 KCAL/MOL
REMARK 923 INTER-LIGAND FREE ENERGY PREDICTED BY IDOCK:   -5.22 KCAL/MOL
REMARK 924 INTRA-LIGAND FREE ENERGY PREDICTED BY IDOCK:   -0.14 KCAL/MOL
REMARK 927      BINDING AFFINITY PREDICTED BY RF-SCORE:    0.00 PKD
ROOT
HETATM    1  C   UNL     1     -12.596  15.711  69.141  1.00  0.00     0.359 C  
HETATM    2  C   UNL     1     -13.452  14.846  70.082  1.00  0.00     0.482 C  
HETATM    3  C   UNL     1     -11.987  14.942  67.976  1.00  0.00    -0.216 C  
HETATM    4  N   UNL     1     -12.676  14.186  71.130  1.00  0.00    -0.341 NA 
HETATM    5  C   UNL     1     -11.690  15.031  71.810  1.00  0.00    -0.385 C  
HETATM    6  C   UNL     1      -9.663  15.113  70.227  1.00  0.00     0.313 C  
HETATM    7  C   UNL     1     -10.847  15.866  70.825  1.00  0.00    -0.141 C  
HETATM    8  O   UNL     1     -11.630  16.528  69.822  1.00  0.00    -0.097 OA 
ENDROOT
BRANCH   4   9
HETATM    9  C   UNL     1     -12.433  12.826  71.065  1.00  0.00    -0.277 A  
HETATM   10  C   UNL     1     -13.125  11.983  71.930  1.00  0.00    -0.475 A  
HETATM   11  C   UNL     1     -12.895  10.610  71.921  1.00  0.00    -0.487 A  
HETATM   12  C   UNL     1     -11.961  10.069  71.048  1.00  0.00    -0.376 A  
HETATM   13  N   UNL     1     -11.555  12.318  70.176  1.00  0.00    -0.176 NA 
HETATM   14  C   UNL     1     -11.325  10.974  70.203  1.00  0.00    -0.251 A  
BRANCH  12  15
HETATM   15  N   UNL     1     -11.628   8.689  71.022  1.00  0.00    -0.278 N  
HETATM   16  C   UNL     1     -10.765   8.109  70.100  1.00  0.00    -0.243 C  
HETATM   17  H   UNL     1     -12.051   8.083  71.726  1.00  0.00     0.000 HD 
HETATM   18  O   UNL     1     -10.085   8.744  69.302  1.00  0.00    -0.192 OA 
BRANCH  16  19
HETATM   19  C   UNL     1     -10.583   6.619  70.127  1.00  0.00    -0.264 A  
HETATM   20  C   UNL     1     -10.628   5.928  71.343  1.00  0.00    -0.309 A  
HETATM   21  C   UNL     1     -10.270   4.586  71.389  1.00  0.00    -0.183 A  
HETATM   22  C   UNL     1      -9.761   3.958  70.251  1.00  0.00    -0.245 A  
HETATM   23  C   UNL     1      -9.664   4.619  69.008  1.00  0.00    -0.242 A  
HETATM   24  C   UNL     1     -10.414   6.613  67.594  1.00  0.00    -0.282 C  
HETATM   25  C   UNL     1     -10.207   5.933  68.932  1.00  0.00    -0.254 A  
BRANCH  23  26
HETATM   26  C   UNL     1      -8.925   3.959  67.887  1.00  0.00    -0.155 A  
HETATM   27  C   UNL     1      -7.573   4.228  67.617  1.00  0.00    -0.073 A  
HETATM   28  C   UNL     1      -6.917   3.647  66.521  1.00  0.00    -0.058 A  
HETATM   29  C   UNL     1      -7.574   2.750  65.679  1.00  0.00    -0.076 A  
HETATM   30  C   UNL     1      -8.923   2.498  65.894  1.00  0.00    -0.122 A  
HETATM   31  C   UNL     1      -9.581   3.108  66.973  1.00  0.00    -0.031 A  
BRANCH  29  32
HETATM   32  O   UNL     1      -6.810   2.244  64.673  1.00  0.00    -0.040 OA 
HETATM   33  C   UNL     1      -6.591   3.031  63.511  1.00  0.00    -0.031 C  
HETATM   34  F   UNL     1      -5.312   3.464  63.491  1.00  0.00    -0.007 F  
HETATM   35  F   UNL     1      -7.415   4.094  63.401  1.00  0.00    -0.048 F  
HETATM   36  F   UNL     1      -6.785   2.247  62.427  1.00  0.00    -0.018 F  
ENDBRANCH  29  32
ENDBRANCH  23  26
ENDBRANCH  16  19
ENDBRANCH  12  15
ENDBRANCH   4   9
TORSDOF 5
ENDMDL
MODEL       81
REMARK 921   NORMALIZED FREE ENERGY PREDICTED BY IDOCK:   -3.08 KCAL/MOL
REMARK 922        TOTAL FREE ENERGY PREDICTED BY IDOCK:   -4.99 KCAL/MOL
REMARK 923 INTER-LIGAND FREE ENERGY PREDICTED BY IDOCK:   -4.69 KCAL/MOL
REMARK 924 INTRA-LIGAND FREE ENERGY PREDICTED BY IDOCK:   -0.31 KCAL/MOL
REMARK 927      BINDING AFFINITY PREDICTED BY RF-SCORE:    0.00 PKD
ROOT
HETATM    1  C   UNL     1      -9.248  18.563  68.567  1.00  0.00    -0.335 C  
HETATM    2  C   UNL     1      -8.018  17.652  68.412  1.00  0.00    -0.270 C  
HETATM    3  C   UNL     1     -10.454  17.874  69.190  1.00  0.00    -0.002 C  
HETATM    4  N   UNL     1      -8.019  16.880  67.171  1.00  0.00    -0.172 NA 
HETATM    5  C   UNL     1      -8.374  17.632  65.963  1.00  0.00    -0.064 C  
HETATM    6  C   UNL     1     -10.942  17.777  65.988  1.00  0.00     0.248 C  
HETATM    7  C   UNL     1      -9.620  18.517  66.163  1.00  0.00    -0.194 C  
HETATM    8  O   UNL     1      -9.586  19.287  67.373  1.00  0.00    -0.303 OA 
ENDROOT
BRANCH   4   9
HETATM    9  C   UNL     1      -8.284  15.523  67.194  1.00  0.00    -0.215 A  
HETATM   10  C   UNL     1      -7.872  14.781  68.298  1.00  0.00    -0.125 A  
HETATM   11  C   UNL     1      -8.092  13.408  68.354  1.00  0.00    -0.138 A  
HETATM   12  C   UNL     1      -8.722  12.763  67.299  1.00  0.00    -0.200 A  
HETATM   13  N   UNL     1      -8.941  14.926  66.178  1.00  0.00    -0.171 NA 
HETATM   14  C   UNL     1      -9.122  13.576  66.242  1.00  0.00     0.033 A  
BRANCH  12  15
HETATM   15  N   UNL     1      -8.928  11.358  67.258  1.00  0.00    -0.156 N  
HETATM   16  C   UNL     1      -9.948  10.696  67.931  1.00  0.00    -0.166 C  
HETATM   17  H   UNL     1      -8.286  10.798  66.697  1.00  0.00     0.000 HD 
HETATM   18  O   UNL     1     -10.865  11.262  68.516  1.00  0.00    -0.180 OA 
BRANCH  16  19
HETATM   19  C   UNL     1      -9.986   9.197  67.879  1.00  0.00    -0.228 A  
HETATM   20  C   UNL     1     -10.800   8.547  66.944  1.00  0.00     0.030 A  
HETATM   21  C   UNL     1     -10.982   7.171  67.024  1.00  0.00    -0.304 A  
HETATM   22  C   UNL     1     -10.445   6.456  68.096  1.00  0.00    -0.267 A  
HETATM   23  C   UNL     1      -9.644   7.068  69.083  1.00  0.00    -0.149 A  
HETATM   24  C   UNL     1      -8.239   9.108  69.719  1.00  0.00    -0.128 C  
HETATM   25  C   UNL     1      -9.314   8.439  68.886  1.00  0.00    -0.147 A  
BRANCH  23  26
HETATM   26  C   UNL     1      -9.273   6.291  70.306  1.00  0.00    -0.163 A  
HETATM   27  C   UNL     1      -8.115   5.497  70.369  1.00  0.00    -0.103 A  
HETATM   28  C   UNL     1      -7.819   4.725  71.502  1.00  0.00    -0.100 A  
HETATM   29  C   UNL     1      -8.645   4.746  72.626  1.00  0.00    -0.115 A  
HETATM   30  C   UNL     1      -9.819   5.487  72.578  1.00  0.00    -0.188 A  
HETATM   31  C   UNL     1     -10.125   6.231  71.429  1.00  0.00    -0.222 A  
BRANCH  29  32
HETATM   32  O   UNL     1      -8.223   3.970  73.661  1.00  0.00    -0.087 OA 
HETATM   33  C   UNL     1      -6.937   3.372  73.594  1.00  0.00    -0.045 C  
HETATM   34  F   UNL     1      -6.108   3.983  74.468  1.00  0.00    -0.023 F  
HETATM   35  F   UNL     1      -6.378   3.400  72.366  1.00  0.00    -0.012 F  
HETATM   36  F   UNL     1      -7.053   2.076  73.964  1.00  0.00    -0.024 F  
ENDBRANCH  29  32
ENDBRANCH  23  26
ENDBRANCH  16  19
ENDBRANCH  12  15
ENDBRANCH   4   9
TORSDOF 5
ENDMDL
MODEL       82
REMARK 921   NORMALIZED FREE ENERGY PREDICTED BY IDOCK:   -2.72 KCAL/MOL
REMARK 922        TOTAL FREE ENERGY PREDICTED BY IDOCK:   -4.53 KCAL/MOL
REMARK 923 INTER-LIGAND FREE ENERGY PREDICTED BY IDOCK:   -3.64 KCAL/MOL
REMARK 924 INTRA-LIGAND FREE ENERGY PREDICTED BY IDOCK:   -0.90 KCAL/MOL
REMARK 927      BINDING AFFINITY PREDICTED BY RF-SCORE:    0.00 PKD
ROOT
HETATM    1  C   UNL     1      -6.223  20.124  71.713  1.00  0.00    -0.087 C  
HETATM    2  C   UNL     1      -5.381  18.841  71.619  1.00  0.00    -0.226 C  
HETATM    3  C   UNL     1      -7.704  19.876  71.967  1.00  0.00     2.339 C  
HETATM    4  N   UNL     1      -5.352  18.262  70.277  1.00  0.00    -0.235 NA 
HETATM    5  C   UNL     1      -5.130  19.215  69.186  1.00  0.00    -0.191 C  
HETATM    6  C   UNL     1      -7.421  20.309  68.768  1.00  0.00     0.022 C  
HETATM    7  C   UNL     1      -6.007  20.476  69.315  1.00  0.00    -0.348 C  
HETATM    8  O   UNL     1      -6.000  21.044  70.632  1.00  0.00    -0.359 OA 
ENDROOT
BRANCH   4   9
HETATM    9  C   UNL     1      -6.063  17.108  70.000  1.00  0.00    -0.116 A  
HETATM   10  C   UNL     1      -5.513  15.882  70.363  1.00  0.00    -0.158 A  
HETATM   11  C   UNL     1      -6.178  14.693  70.081  1.00  0.00    -0.165 A  
HETATM   12  C   UNL     1      -7.401  14.722  69.423  1.00  0.00    -0.162 A  
HETATM   13  N   UNL     1      -7.271  17.164  69.403  1.00  0.00    -0.132 NA 
HETATM   14  C   UNL     1      -7.893  15.986  69.111  1.00  0.00    -0.233 A  
BRANCH  12  15
HETATM   15  N   UNL     1      -8.110  13.550  69.048  1.00  0.00    -0.335 N  
HETATM   16  C   UNL     1      -7.849  12.810  67.901  1.00  0.00    -0.156 C  
HETATM   17  H   UNL     1      -8.860  13.229  69.661  1.00  0.00     0.000 HD 
HETATM   18  O   UNL     1      -6.888  13.003  67.163  1.00  0.00    -0.094 OA 
BRANCH  16  19
HETATM   19  C   UNL     1      -8.744  11.650  67.576  1.00  0.00    -0.156 A  
HETATM   20  C   UNL     1      -9.850  11.830  66.739  1.00  0.00    -0.218 A  
HETATM   21  C   UNL     1     -10.782  10.808  66.595  1.00  0.00    -0.268 A  
HETATM   22  C   UNL     1     -10.674   9.650  67.367  1.00  0.00    -0.308 A  
HETATM   23  C   UNL     1      -9.596   9.432  68.250  1.00  0.00    -0.156 A  
HETATM   24  C   UNL     1      -7.232  10.128  68.934  1.00  0.00    -0.079 C  
HETATM   25  C   UNL     1      -8.555  10.403  68.248  1.00  0.00    -0.128 A  
BRANCH  23  26
HETATM   26  C   UNL     1      -9.647   8.271  69.192  1.00  0.00    -0.160 A  
HETATM   27  C   UNL     1     -10.228   7.041  68.837  1.00  0.00    -0.183 A  
HETATM   28  C   UNL     1     -10.324   5.986  69.756  1.00  0.00    -0.290 A  
HETATM   29  C   UNL     1      -9.811   6.105  71.048  1.00  0.00    -0.182 A  
HETATM   30  C   UNL     1      -9.270   7.322  71.442  1.00  0.00    -0.145 A  
HETATM   31  C   UNL     1      -9.207   8.384  70.527  1.00  0.00    -0.165 A  
BRANCH  29  32
HETATM   32  O   UNL     1      -9.950   4.995  71.823  1.00  0.00    -0.176 OA 
HETATM   33  C   UNL     1      -8.794   4.243  72.163  1.00  0.00    -0.112 C  
HETATM   34  F   UNL     1      -8.509   4.419  73.471  1.00  0.00    -0.095 F  
HETATM   35  F   UNL     1      -7.702   4.547  71.431  1.00  0.00    -0.073 F  
HETATM   36  F   UNL     1      -9.070   2.934  71.967  1.00  0.00    -0.106 F  
ENDBRANCH  29  32
ENDBRANCH  23  26
ENDBRANCH  16  19
ENDBRANCH  12  15
ENDBRANCH   4   9
TORSDOF 5
ENDMDL
MODEL       83
REMARK 921   NORMALIZED FREE ENERGY PREDICTED BY IDOCK:   -2.26 KCAL/MOL
REMARK 922        TOTAL FREE ENERGY PREDICTED BY IDOCK:   -3.93 KCAL/MOL
REMARK 923 INTER-LIGAND FREE ENERGY PREDICTED BY IDOCK:   -3.86 KCAL/MOL
REMARK 924 INTRA-LIGAND FREE ENERGY PREDICTED BY IDOCK:   -0.07 KCAL/MOL
REMARK 927      BINDING AFFINITY PREDICTED BY RF-SCORE:    0.00 PKD
ROOT
HETATM    1  C   UNL     1     -11.683  15.736  72.460  1.00  0.00    -0.462 C  
HETATM    2  C   UNL     1     -10.695  15.313  71.360  1.00  0.00     0.214 C  
HETATM    3  C   UNL     1     -11.965  14.651  73.491  1.00  0.00    -0.153 C  
HETATM    4  N   UNL     1     -11.334  14.632  70.236  1.00  0.00    -0.234 NA 
HETATM    5  C   UNL     1     -12.564  15.256  69.740  1.00  0.00    -0.115 C  
HETATM    6  C   UNL     1     -14.408  14.503  71.368  1.00  0.00    -0.409 C  
HETATM    7  C   UNL     1     -13.529  15.648  70.877  1.00  0.00    -0.115 C  
HETATM    8  O   UNL     1     -12.887  16.339  71.958  1.00  0.00    -0.300 OA 
ENDROOT
BRANCH   4   9
HETATM    9  C   UNL     1     -11.185  13.267  70.071  1.00  0.00     0.214 A  
HETATM   10  C   UNL     1     -10.681  12.792  68.863  1.00  0.00    -0.199 A  
HETATM   11  C   UNL     1     -10.538  11.426  68.640  1.00  0.00    -0.229 A  
HETATM   12  C   UNL     1     -10.906  10.520  69.625  1.00  0.00    -0.274 A  
HETATM   13  N   UNL     1     -11.506  12.408  71.060  1.00  0.00     1.267 NA 
HETATM   14  C   UNL     1     -11.383  11.073  70.810  1.00  0.00     0.278 A  
BRANCH  12  15
HETATM   15  N   UNL     1     -10.846   9.112  69.449  1.00  0.00    -0.350 N  
HETATM   16  C   UNL     1     -10.426   8.218  70.427  1.00  0.00    -0.215 C  
HETATM   17  H   UNL     1     -11.129   8.731  68.546  1.00  0.00     0.000 HD 
HETATM   18  O   UNL     1     -10.200   8.530  71.591  1.00  0.00    -0.217 OA 
BRANCH  16  19
HETATM   19  C   UNL     1     -10.315   6.765  70.070  1.00  0.00    -0.225 A  
HETATM   20  C   UNL     1     -10.306   5.794  71.078  1.00  0.00    -0.291 A  
HETATM   21  C   UNL     1     -10.011   4.472  70.762  1.00  0.00    -0.269 A  
HETATM   22  C   UNL     1      -9.619   4.134  69.465  1.00  0.00    -0.274 A  
HETATM   23  C   UNL     1      -9.580   5.082  68.420  1.00  0.00    -0.195 A  
HETATM   24  C   UNL     1     -10.334   7.387  67.609  1.00  0.00    -0.297 C  
HETATM   25  C   UNL     1     -10.063   6.388  68.716  1.00  0.00    -0.182 A  
BRANCH  23  26
HETATM   26  C   UNL     1      -8.960   4.701  67.113  1.00  0.00    -0.118 A  
HETATM   27  C   UNL     1      -7.637   5.040  66.783  1.00  0.00    -0.088 A  
HETATM   28  C   UNL     1      -7.095   4.731  65.526  1.00  0.00    -0.064 A  
HETATM   29  C   UNL     1      -7.839   4.039  64.570  1.00  0.00    -0.085 A  
HETATM   30  C   UNL     1      -9.163   3.728  64.851  1.00  0.00    -0.148 A  
HETATM   31  C   UNL     1      -9.708   4.070  66.098  1.00  0.00    -0.198 A  
BRANCH  29  32
HETATM   32  O   UNL     1      -7.179   3.784  63.407  1.00  0.00    -0.048 OA 
HETATM   33  C   UNL     1      -6.540   2.527  63.239  1.00  0.00    -0.026 C  
HETATM   34  F   UNL     1      -7.226   1.786  62.342  1.00  0.00    -0.029 F  
HETATM   35  F   UNL     1      -6.405   1.819  64.380  1.00  0.00    -0.016 F  
HETATM   36  F   UNL     1      -5.302   2.745  62.742  1.00  0.00    -0.006 F  
ENDBRANCH  29  32
ENDBRANCH  23  26
ENDBRANCH  16  19
ENDBRANCH  12  15
ENDBRANCH   4   9
TORSDOF 5
ENDMDL
MODEL       84
REMARK 921   NORMALIZED FREE ENERGY PREDICTED BY IDOCK:   -2.08 KCAL/MOL
REMARK 922        TOTAL FREE ENERGY PREDICTED BY IDOCK:   -3.71 KCAL/MOL
REMARK 923 INTER-LIGAND FREE ENERGY PREDICTED BY IDOCK:   -2.81 KCAL/MOL
REMARK 924 INTRA-LIGAND FREE ENERGY PREDICTED BY IDOCK:   -0.89 KCAL/MOL
REMARK 927      BINDING AFFINITY PREDICTED BY RF-SCORE:    0.00 PKD
ROOT
HETATM    1  C   UNL     1     -10.976  17.610  68.127  1.00  0.00    -0.081 C  
HETATM    2  C   UNL     1     -10.229  16.893  69.264  1.00  0.00    -0.262 C  
HETATM    3  C   UNL     1     -11.450  16.682  67.016  1.00  0.00     0.652 C  
HETATM    4  N   UNL     1      -8.799  16.728  69.007  1.00  0.00    -0.227 NA 
HETATM    5  C   UNL     1      -8.114  17.913  68.483  1.00  0.00    -0.301 C  
HETATM    6  C   UNL     1      -8.659  17.952  65.969  1.00  0.00    -0.030 C  
HETATM    7  C   UNL     1      -8.893  18.587  67.335  1.00  0.00    -0.268 C  
HETATM    8  O   UNL     1     -10.288  18.764  67.619  1.00  0.00    -0.374 OA 
ENDROOT
BRANCH   4   9
HETATM    9  C   UNL     1      -8.287  15.484  68.685  1.00  0.00    -0.172 A  
HETATM   10  C   UNL     1      -7.447  14.852  69.597  1.00  0.00    -0.126 A  
HETATM   11  C   UNL     1      -6.885  13.612  69.306  1.00  0.00    -0.063 A  
HETATM   12  C   UNL     1      -7.156  12.996  68.091  1.00  0.00    -0.107 A  
HETATM   13  N   UNL     1      -8.602  14.884  67.518  1.00  0.00    -0.173 NA 
HETATM   14  C   UNL     1      -8.020  13.682  67.243  1.00  0.00    -0.114 A  
BRANCH  12  15
HETATM   15  N   UNL     1      -6.575  11.762  67.699  1.00  0.00    -0.076 N  
HETATM   16  C   UNL     1      -7.297  10.667  67.239  1.00  0.00    -0.092 C  
HETATM   17  H   UNL     1      -5.560  11.672  67.758  1.00  0.00     0.000 HD 
HETATM   18  O   UNL     1      -8.497  10.693  66.986  1.00  0.00    -0.127 OA 
BRANCH  16  19
HETATM   19  C   UNL     1      -6.562   9.390  66.955  1.00  0.00    -0.068 A  
HETATM   20  C   UNL     1      -5.991   9.175  65.695  1.00  0.00    -0.055 A  
HETATM   21  C   UNL     1      -5.481   7.922  65.372  1.00  0.00    -0.033 A  
HETATM   22  C   UNL     1      -5.636   6.855  66.257  1.00  0.00    -0.022 A  
HETATM   23  C   UNL     1      -6.233   7.011  67.527  1.00  0.00    -0.041 A  
HETATM   24  C   UNL     1      -6.955   8.651  69.351  1.00  0.00    -0.053 C  
HETATM   25  C   UNL     1      -6.581   8.335  67.917  1.00  0.00    -0.061 A  
BRANCH  23  26
HETATM   26  C   UNL     1      -6.550   5.795  68.338  1.00  0.00    -0.052 A  
HETATM   27  C   UNL     1      -5.585   4.818  68.637  1.00  0.00    -0.015 A  
HETATM   28  C   UNL     1      -5.919   3.653  69.343  1.00  0.00    -0.023 A  
HETATM   29  C   UNL     1      -7.216   3.438  69.810  1.00  0.00    -0.041 A  
HETATM   30  C   UNL     1      -8.201   4.364  69.493  1.00  0.00    -0.065 A  
HETATM   31  C   UNL     1      -7.867   5.511  68.757  1.00  0.00    -0.095 A  
BRANCH  29  32
HETATM   32  O   UNL     1      -7.391   2.279  70.501  1.00  0.00    -0.033 OA 
HETATM   33  C   UNL     1      -7.818   2.342  71.854  1.00  0.00    -0.045 C  
HETATM   34  F   UNL     1      -9.096   1.916  71.945  1.00  0.00    -0.093 F  
HETATM   35  F   UNL     1      -7.725   3.569  72.407  1.00  0.00    -0.056 F  
HETATM   36  F   UNL     1      -7.045   1.503  72.580  1.00  0.00    -0.020 F  
ENDBRANCH  29  32
ENDBRANCH  23  26
ENDBRANCH  16  19
ENDBRANCH  12  15
ENDBRANCH   4   9
TORSDOF 5
ENDMDL
MODEL       85
REMARK 921   NORMALIZED FREE ENERGY PREDICTED BY IDOCK:   -2.03 KCAL/MOL
REMARK 922        TOTAL FREE ENERGY PREDICTED BY IDOCK:   -3.64 KCAL/MOL
REMARK 923 INTER-LIGAND FREE ENERGY PREDICTED BY IDOCK:   -2.41 KCAL/MOL
REMARK 924 INTRA-LIGAND FREE ENERGY PREDICTED BY IDOCK:   -1.23 KCAL/MOL
REMARK 927      BINDING AFFINITY PREDICTED BY RF-SCORE:    0.00 PKD
ROOT
HETATM    1  C   UNL     1      -6.288  20.124  71.775  1.00  0.00     0.022 C  
HETATM    2  C   UNL     1      -5.430  18.852  71.673  1.00  0.00    -0.200 C  
HETATM    3  C   UNL     1      -7.772  19.855  71.989  1.00  0.00     2.339 C  
HETATM    4  N   UNL     1      -5.363  18.304  70.320  1.00  0.00    -0.235 NA 
HETATM    5  C   UNL     1      -5.126  19.283  69.255  1.00  0.00    -0.184 C  
HETATM    6  C   UNL     1      -7.418  20.363  68.808  1.00  0.00     0.141 C  
HETATM    7  C   UNL     1      -6.020  20.533  69.392  1.00  0.00    -0.340 C  
HETATM    8  O   UNL     1      -6.049  21.071  70.721  1.00  0.00    -0.184 OA 
ENDROOT
BRANCH   4   9
HETATM    9  C   UNL     1      -6.056  17.150  69.999  1.00  0.00    -0.116 A  
HETATM   10  C   UNL     1      -5.380  15.933  70.041  1.00  0.00    -0.143 A  
HETATM   11  C   UNL     1      -6.026  14.748  69.701  1.00  0.00    -0.114 A  
HETATM   12  C   UNL     1      -7.358  14.773  69.309  1.00  0.00    -0.168 A  
HETATM   13  N   UNL     1      -7.362  17.193  69.667  1.00  0.00     0.191 NA 
HETATM   14  C   UNL     1      -7.968  16.024  69.312  1.00  0.00    -0.217 A  
BRANCH  12  15
HETATM   15  N   UNL     1      -8.067  13.616  68.891  1.00  0.00    -0.342 N  
HETATM   16  C   UNL     1      -8.683  13.480  67.653  1.00  0.00    -0.194 C  
HETATM   17  H   UNL     1      -8.129  12.833  69.542  1.00  0.00     0.000 HD 
HETATM   18  O   UNL     1      -8.561  14.282  66.733  1.00  0.00    -0.188 OA 
BRANCH  16  19
HETATM   19  C   UNL     1      -9.485  12.240  67.383  1.00  0.00    -0.181 A  
HETATM   20  C   UNL     1     -10.856  12.217  67.659  1.00  0.00    -0.262 A  
HETATM   21  C   UNL     1     -11.555  11.017  67.592  1.00  0.00    -0.228 A  
HETATM   22  C   UNL     1     -10.872   9.822  67.358  1.00  0.00    -0.265 A  
HETATM   23  C   UNL     1      -9.484   9.786  67.106  1.00  0.00    -0.189 A  
HETATM   24  C   UNL     1      -7.406  11.123  66.446  1.00  0.00    -0.099 C  
HETATM   25  C   UNL     1      -8.817  11.039  66.994  1.00  0.00    -0.143 A  
BRANCH  23  26
HETATM   26  C   UNL     1      -8.784   8.465  67.066  1.00  0.00    -0.132 A  
HETATM   27  C   UNL     1      -8.863   7.605  65.957  1.00  0.00    -0.186 A  
HETATM   28  C   UNL     1      -8.254   6.343  65.966  1.00  0.00    -0.126 A  
HETATM   29  C   UNL     1      -7.511   5.907  67.065  1.00  0.00    -0.084 A  
HETATM   30  C   UNL     1      -7.450   6.716  68.192  1.00  0.00    -0.095 A  
HETATM   31  C   UNL     1      -8.091   7.964  68.188  1.00  0.00    -0.123 A  
BRANCH  29  32
HETATM   32  O   UNL     1      -6.954   4.673  66.926  1.00  0.00    -0.057 OA 
HETATM   33  C   UNL     1      -7.718   3.528  67.276  1.00  0.00    -0.079 C  
HETATM   34  F   UNL     1      -8.074   2.862  66.157  1.00  0.00    -0.079 F  
HETATM   35  F   UNL     1      -8.827   3.803  67.994  1.00  0.00    -0.103 F  
HETATM   36  F   UNL     1      -6.938   2.711  68.019  1.00  0.00    -0.045 F  
ENDBRANCH  29  32
ENDBRANCH  23  26
ENDBRANCH  16  19
ENDBRANCH  12  15
ENDBRANCH   4   9
TORSDOF 5
ENDMDL
MODEL       86
REMARK 921   NORMALIZED FREE ENERGY PREDICTED BY IDOCK:   -1.59 KCAL/MOL
REMARK 922        TOTAL FREE ENERGY PREDICTED BY IDOCK:   -3.07 KCAL/MOL
REMARK 923 INTER-LIGAND FREE ENERGY PREDICTED BY IDOCK:   -3.16 KCAL/MOL
REMARK 924 INTRA-LIGAND FREE ENERGY PREDICTED BY IDOCK:    0.10 KCAL/MOL
REMARK 927      BINDING AFFINITY PREDICTED BY RF-SCORE:    0.00 PKD
ROOT
HETATM    1  C   UNL     1     -10.546   1.468  72.811  1.00  0.00    -0.150 C  
HETATM    2  C   UNL     1      -9.141   1.986  72.456  1.00  0.00    -0.073 C  
HETATM    3  C   UNL     1     -11.539   1.535  71.658  1.00  0.00     2.088 C  
HETATM    4  N   UNL     1      -8.996   3.430  72.623  1.00  0.00    -0.088 NA 
HETATM    5  C   UNL     1      -9.550   3.980  73.863  1.00  0.00    -0.105 C  
HETATM    6  C   UNL     1     -12.079   4.187  73.439  1.00  0.00     0.271 C  
HETATM    7  C   UNL     1     -10.964   3.444  74.167  1.00  0.00    -0.057 C  
HETATM    8  O   UNL     1     -11.079   2.022  74.025  1.00  0.00    -0.161 OA 
ENDROOT
BRANCH   4   9
HETATM    9  C   UNL     1      -8.933   4.257  71.515  1.00  0.00    -0.119 A  
HETATM   10  C   UNL     1      -7.751   4.948  71.265  1.00  0.00    -0.087 A  
HETATM   11  C   UNL     1      -7.649   5.812  70.178  1.00  0.00    -0.086 A  
HETATM   12  C   UNL     1      -8.736   5.998  69.336  1.00  0.00    -0.121 A  
HETATM   13  N   UNL     1      -9.987   4.385  70.684  1.00  0.00    -0.208 NA 
HETATM   14  C   UNL     1      -9.874   5.257  69.641  1.00  0.00    -0.204 A  
BRANCH  12  15
HETATM   15  N   UNL     1      -8.728   6.906  68.244  1.00  0.00    -0.124 N  
HETATM   16  C   UNL     1      -8.853   6.530  66.912  1.00  0.00    -0.120 C  
HETATM   17  H   UNL     1      -8.624   7.900  68.451  1.00  0.00     0.000 HD 
HETATM   18  O   UNL     1      -9.127   5.394  66.542  1.00  0.00    -0.128 OA 
BRANCH  16  19
HETATM   19  C   UNL     1      -8.726   7.587  65.854  1.00  0.00    -0.170 A  
HETATM   20  C   UNL     1      -8.028   7.316  64.671  1.00  0.00    -0.115 A  
HETATM   21  C   UNL     1      -7.747   8.347  63.782  1.00  0.00    -0.144 A  
HETATM   22  C   UNL     1      -8.060   9.665  64.119  1.00  0.00    -0.151 A  
HETATM   23  C   UNL     1      -8.734   9.996  65.314  1.00  0.00    -0.182 A  
HETATM   24  C   UNL     1     -10.151   9.144  67.263  1.00  0.00    -0.295 C  
HETATM   25  C   UNL     1      -9.180   8.914  66.123  1.00  0.00    -0.273 A  
BRANCH  23  26
HETATM   26  C   UNL     1      -8.857  11.435  65.707  1.00  0.00    -0.115 A  
HETATM   27  C   UNL     1      -8.077  12.003  66.729  1.00  0.00    -0.081 A  
HETATM   28  C   UNL     1      -8.254  13.336  67.127  1.00  0.00    -0.123 A  
HETATM   29  C   UNL     1      -9.185  14.161  66.495  1.00  0.00    -0.224 A  
HETATM   30  C   UNL     1     -10.000  13.616  65.511  1.00  0.00    -0.244 A  
HETATM   31  C   UNL     1      -9.840  12.272  65.141  1.00  0.00    -0.178 A  
BRANCH  29  32
HETATM   32  O   UNL     1      -9.231  15.438  66.965  1.00  0.00    -0.206 OA 
HETATM   33  C   UNL     1     -10.109  16.368  66.348  1.00  0.00    -0.316 C  
HETATM   34  F   UNL     1     -11.140  16.636  67.178  1.00  0.00    -0.233 F  
HETATM   35  F   UNL     1     -10.598  15.961  65.158  1.00  0.00    -0.367 F  
HETATM   36  F   UNL     1      -9.428  17.518  66.142  1.00  0.00    -0.273 F  
ENDBRANCH  29  32
ENDBRANCH  23  26
ENDBRANCH  16  19
ENDBRANCH  12  15
ENDBRANCH   4   9
TORSDOF 5
ENDMDL
MODEL       87
REMARK 921   NORMALIZED FREE ENERGY PREDICTED BY IDOCK:   -1.49 KCAL/MOL
REMARK 922        TOTAL FREE ENERGY PREDICTED BY IDOCK:   -2.93 KCAL/MOL
REMARK 923 INTER-LIGAND FREE ENERGY PREDICTED BY IDOCK:   -2.69 KCAL/MOL
REMARK 924 INTRA-LIGAND FREE ENERGY PREDICTED BY IDOCK:   -0.24 KCAL/MOL
REMARK 927      BINDING AFFINITY PREDICTED BY RF-SCORE:    0.00 PKD
ROOT
HETATM    1  C   UNL     1     -11.250  19.598  67.818  1.00  0.00     0.311 C  
HETATM    2  C   UNL     1     -11.749  18.264  68.400  1.00  0.00     2.400 C  
HETATM    3  C   UNL     1     -10.874  19.529  66.344  1.00  0.00    -0.443 C  
HETATM    4  N   UNL     1     -10.671  17.400  68.878  1.00  0.00    -0.229 NA 
HETATM    5  C   UNL     1      -9.641  18.064  69.681  1.00  0.00     0.598 C  
HETATM    6  C   UNL     1      -8.093  19.213  67.976  1.00  0.00    -0.333 C  
HETATM    7  C   UNL     1      -9.162  19.388  69.050  1.00  0.00    -0.271 C  
HETATM    8  O   UNL     1     -10.235  20.233  68.613  1.00  0.00    -0.343 OA 
ENDROOT
BRANCH   4   9
HETATM    9  C   UNL     1     -10.311  16.272  68.161  1.00  0.00    -0.277 A  
HETATM   10  C   UNL     1      -9.461  15.346  68.759  1.00  0.00    -0.211 A  
HETATM   11  C   UNL     1      -9.049  14.210  68.067  1.00  0.00    -0.191 A  
HETATM   12  C   UNL     1      -9.481  13.996  66.766  1.00  0.00    -0.282 A  
HETATM   13  N   UNL     1     -10.781  16.062  66.914  1.00  0.00    -0.298 NA 
HETATM   14  C   UNL     1     -10.344  14.957  66.247  1.00  0.00    -0.294 A  
BRANCH  12  15
HETATM   15  N   UNL     1      -9.058  12.893  65.977  1.00  0.00    -0.444 N  
HETATM   16  C   UNL     1      -9.841  12.276  65.009  1.00  0.00    -0.137 C  
HETATM   17  H   UNL     1      -8.116  12.530  66.131  1.00  0.00     0.000 HD 
HETATM   18  O   UNL     1     -10.926  12.702  64.629  1.00  0.00    -0.288 OA 
BRANCH  16  19
HETATM   19  C   UNL     1      -9.302  11.056  64.322  1.00  0.00    -0.232 A  
HETATM   20  C   UNL     1      -9.564  10.842  62.964  1.00  0.00    -0.381 A  
HETATM   21  C   UNL     1      -9.231   9.625  62.378  1.00  0.00    -0.248 A  
HETATM   22  C   UNL     1      -8.740   8.582  63.165  1.00  0.00     0.134 A  
HETATM   23  C   UNL     1      -8.488   8.735  64.545  1.00  0.00    -0.158 A  
HETATM   24  C   UNL     1      -8.145  10.375  66.476  1.00  0.00    -0.122 C  
HETATM   25  C   UNL     1      -8.658  10.039  65.091  1.00  0.00    -0.170 A  
BRANCH  23  26
HETATM   26  C   UNL     1      -8.158   7.527  65.364  1.00  0.00    -0.133 A  
HETATM   27  C   UNL     1      -9.121   6.860  66.140  1.00  0.00    -0.144 A  
HETATM   28  C   UNL     1      -8.776   5.769  66.952  1.00  0.00    -0.110 A  
HETATM   29  C   UNL     1      -7.470   5.281  66.990  1.00  0.00    -0.087 A  
HETATM   30  C   UNL     1      -6.488   5.946  66.267  1.00  0.00    -0.046 A  
HETATM   31  C   UNL     1      -6.834   7.057  65.483  1.00  0.00    -0.052 A  
BRANCH  29  32
HETATM   32  O   UNL     1      -7.285   4.203  67.799  1.00  0.00    -0.062 OA 
HETATM   33  C   UNL     1      -6.760   3.006  67.244  1.00  0.00    -0.045 C  
HETATM   34  F   UNL     1      -5.493   2.825  67.676  1.00  0.00    -0.014 F  
HETATM   35  F   UNL     1      -6.772   2.971  65.895  1.00  0.00    -0.039 F  
HETATM   36  F   UNL     1      -7.506   1.970  67.690  1.00  0.00    -0.052 F  
ENDBRANCH  29  32
ENDBRANCH  23  26
ENDBRANCH  16  19
ENDBRANCH  12  15
ENDBRANCH   4   9
TORSDOF 5
ENDMDL
MODEL       88
REMARK 921   NORMALIZED FREE ENERGY PREDICTED BY IDOCK:   -1.46 KCAL/MOL
REMARK 922        TOTAL FREE ENERGY PREDICTED BY IDOCK:   -2.90 KCAL/MOL
REMARK 923 INTER-LIGAND FREE ENERGY PREDICTED BY IDOCK:   -3.31 KCAL/MOL
REMARK 924 INTRA-LIGAND FREE ENERGY PREDICTED BY IDOCK:    0.41 KCAL/MOL
REMARK 927      BINDING AFFINITY PREDICTED BY RF-SCORE:    0.00 PKD
ROOT
HETATM    1  C   UNL     1      -9.403   1.467  71.812  1.00  0.00    -0.091 C  
HETATM    2  C   UNL     1      -8.241   2.006  70.960  1.00  0.00    -0.049 C  
HETATM    3  C   UNL     1     -10.783   1.795  71.257  1.00  0.00     1.017 C  
HETATM    4  N   UNL     1      -7.871   3.382  71.285  1.00  0.00    -0.058 NA 
HETATM    5  C   UNL     1      -7.765   3.683  72.716  1.00  0.00    -0.065 C  
HETATM    6  C   UNL     1     -10.184   4.044  73.512  1.00  0.00    -0.210 C  
HETATM    7  C   UNL     1      -8.958   3.137  73.525  1.00  0.00    -0.082 C  
HETATM    8  O   UNL     1      -9.288   1.777  73.211  1.00  0.00    -0.071 OA 
ENDROOT
BRANCH   4   9
HETATM    9  C   UNL     1      -8.200   4.415  70.426  1.00  0.00    -0.070 A  
HETATM   10  C   UNL     1      -8.910   4.116  69.266  1.00  0.00    -0.142 A  
HETATM   11  C   UNL     1      -9.240   5.118  68.357  1.00  0.00    -0.142 A  
HETATM   12  C   UNL     1      -8.854   6.429  68.600  1.00  0.00    -0.120 A  
HETATM   13  N   UNL     1      -7.856   5.688  70.707  1.00  0.00    -0.092 NA 
HETATM   14  C   UNL     1      -8.166   6.649  69.790  1.00  0.00    -0.127 A  
BRANCH  12  15
HETATM   15  N   UNL     1      -9.102   7.493  67.693  1.00  0.00    -0.126 N  
HETATM   16  C   UNL     1      -8.463   7.642  66.468  1.00  0.00    -0.133 C  
HETATM   17  H   UNL     1      -9.794   8.195  67.958  1.00  0.00     0.000 HD 
HETATM   18  O   UNL     1      -7.724   6.799  65.972  1.00  0.00    -0.087 OA 
BRANCH  16  19
HETATM   19  C   UNL     1      -8.749   8.871  65.655  1.00  0.00    -0.213 A  
HETATM   20  C   UNL     1      -8.305   8.955  64.330  1.00  0.00    -0.176 A  
HETATM   21  C   UNL     1      -8.400  10.161  63.644  1.00  0.00    -0.170 A  
HETATM   22  C   UNL     1      -8.835  11.310  64.307  1.00  0.00     0.199 A  
HETATM   23  C   UNL     1      -9.264  11.286  65.651  1.00  0.00    -0.231 A  
HETATM   24  C   UNL     1     -10.047   9.840  67.609  1.00  0.00    -0.236 C  
HETATM   25  C   UNL     1      -9.336  10.012  66.282  1.00  0.00    -0.213 A  
BRANCH  23  26
HETATM   26  C   UNL     1      -9.521  12.579  66.358  1.00  0.00    -0.233 A  
HETATM   27  C   UNL     1      -9.387  12.715  67.750  1.00  0.00    -0.198 A  
HETATM   28  C   UNL     1      -9.697  13.918  68.400  1.00  0.00    -0.226 A  
HETATM   29  C   UNL     1     -10.114  15.040  67.683  1.00  0.00    -0.231 A  
HETATM   30  C   UNL     1     -10.297  14.925  66.311  1.00  0.00    -0.302 A  
HETATM   31  C   UNL     1     -10.017  13.708  65.672  1.00  0.00    -0.261 A  
BRANCH  29  32
HETATM   32  O   UNL     1     -10.354  16.146  68.439  1.00  0.00    -0.240 OA 
HETATM   33  C   UNL     1     -11.293  16.063  69.501  1.00  0.00    -0.344 C  
HETATM   34  F   UNL     1     -10.643  16.101  70.684  1.00  0.00    -0.242 F  
HETATM   35  F   UNL     1     -12.074  14.963  69.465  1.00  0.00    -0.306 F  
HETATM   36  F   UNL     1     -12.102  17.145  69.435  1.00  0.00     0.961 F  
ENDBRANCH  29  32
ENDBRANCH  23  26
ENDBRANCH  16  19
ENDBRANCH  12  15
ENDBRANCH   4   9
TORSDOF 5
ENDMDL
MODEL       89
REMARK 921   NORMALIZED FREE ENERGY PREDICTED BY IDOCK:   -1.28 KCAL/MOL
REMARK 922        TOTAL FREE ENERGY PREDICTED BY IDOCK:   -2.67 KCAL/MOL
REMARK 923 INTER-LIGAND FREE ENERGY PREDICTED BY IDOCK:   -2.77 KCAL/MOL
REMARK 924 INTRA-LIGAND FREE ENERGY PREDICTED BY IDOCK:    0.10 KCAL/MOL
REMARK 927      BINDING AFFINITY PREDICTED BY RF-SCORE:    0.00 PKD
ROOT
HETATM    1  C   UNL     1      -8.553   6.346  71.381  1.00  0.00    -0.130 C  
HETATM    2  C   UNL     1      -9.608   6.247  70.266  1.00  0.00    -0.164 C  
HETATM    3  C   UNL     1      -8.507   7.703  72.071  1.00  0.00    -0.133 C  
HETATM    4  N   UNL     1      -9.126   6.714  68.967  1.00  0.00    -0.133 NA 
HETATM    5  C   UNL     1      -7.792   6.243  68.584  1.00  0.00    -0.102 C  
HETATM    6  C   UNL     1      -6.150   7.767  69.849  1.00  0.00    -0.026 C  
HETATM    7  C   UNL     1      -6.767   6.378  69.728  1.00  0.00    -0.053 C  
HETATM    8  O   UNL     1      -7.249   5.888  70.988  1.00  0.00    -0.070 OA 
ENDROOT
BRANCH   4   9
HETATM    9  C   UNL     1      -9.561   7.924  68.457  1.00  0.00    -0.150 A  
HETATM   10  C   UNL     1      -9.760   8.035  67.083  1.00  0.00    -0.255 A  
HETATM   11  C   UNL     1     -10.170   9.240  66.519  1.00  0.00    -0.316 A  
HETATM   12  C   UNL     1     -10.379  10.348  67.328  1.00  0.00    -0.228 A  
HETATM   13  N   UNL     1      -9.803   8.974  69.268  1.00  0.00    -0.175 NA 
HETATM   14  C   UNL     1     -10.179  10.151  68.692  1.00  0.00    -0.176 A  
BRANCH  12  15
HETATM   15  N   UNL     1     -10.740  11.624  66.821  1.00  0.00    -0.248 N  
HETATM   16  C   UNL     1     -11.801  11.850  65.951  1.00  0.00    -0.024 C  
HETATM   17  H   UNL     1     -10.185  12.429  67.113  1.00  0.00     0.000 HD 
HETATM   18  O   UNL     1     -12.628  10.999  65.641  1.00  0.00     2.381 OA 
BRANCH  16  19
HETATM   19  C   UNL     1     -12.006  13.236  65.415  1.00  0.00    -0.432 A  
HETATM   20  C   UNL     1     -12.778  13.437  64.265  1.00  0.00    -0.112 A  
HETATM   21  C   UNL     1     -12.808  14.689  63.662  1.00  0.00     1.125 A  
HETATM   22  C   UNL     1     -11.986  15.713  64.135  1.00  0.00    -0.048 A  
HETATM   23  C   UNL     1     -11.165  15.553  65.271  1.00  0.00    -0.278 A  
HETATM   24  C   UNL     1     -10.673  14.168  67.364  1.00  0.00    -0.284 C  
HETATM   25  C   UNL     1     -11.285  14.328  65.987  1.00  0.00    -0.324 A  
BRANCH  23  26
HETATM   26  C   UNL     1     -10.163  16.614  65.602  1.00  0.00    -0.285 A  
HETATM   27  C   UNL     1      -8.806  16.324  65.821  1.00  0.00    -0.003 A  
HETATM   28  C   UNL     1      -7.896  17.324  66.195  1.00  0.00    -0.305 A  
HETATM   29  C   UNL     1      -8.298  18.654  66.325  1.00  0.00    -0.230 A  
HETATM   30  C   UNL     1      -9.641  18.964  66.157  1.00  0.00    -0.266 A  
HETATM   31  C   UNL     1     -10.551  17.953  65.816  1.00  0.00    -0.175 A  
BRANCH  29  32
HETATM   32  O   UNL     1      -7.305  19.520  66.666  1.00  0.00    -0.225 OA 
HETATM   33  C   UNL     1      -6.372  19.925  65.675  1.00  0.00    -0.224 C  
HETATM   34  F   UNL     1      -6.598  21.214  65.340  1.00  0.00    -0.243 F  
HETATM   35  F   UNL     1      -6.394  19.171  64.556  1.00  0.00    -0.303 F  
HETATM   36  F   UNL     1      -5.131  19.840  66.204  1.00  0.00    -0.159 F  
ENDBRANCH  29  32
ENDBRANCH  23  26
ENDBRANCH  16  19
ENDBRANCH  12  15
ENDBRANCH   4   9
TORSDOF 5
ENDMDL
MODEL       90
REMARK 921   NORMALIZED FREE ENERGY PREDICTED BY IDOCK:   -1.14 KCAL/MOL
REMARK 922        TOTAL FREE ENERGY PREDICTED BY IDOCK:   -2.48 KCAL/MOL
REMARK 923 INTER-LIGAND FREE ENERGY PREDICTED BY IDOCK:   -1.86 KCAL/MOL
REMARK 924 INTRA-LIGAND FREE ENERGY PREDICTED BY IDOCK:   -0.63 KCAL/MOL
REMARK 927      BINDING AFFINITY PREDICTED BY RF-SCORE:    0.00 PKD
ROOT
HETATM    1  C   UNL     1      -9.491  19.975  66.776  1.00  0.00    -0.406 C  
HETATM    2  C   UNL     1      -8.955  19.585  68.164  1.00  0.00    -0.329 C  
HETATM    3  C   UNL     1     -10.210  18.845  66.051  1.00  0.00    -0.437 C  
HETATM    4  N   UNL     1      -7.626  18.978  68.124  1.00  0.00    -0.269 NA 
HETATM    5  C   UNL     1      -6.650  19.655  67.264  1.00  0.00    -0.195 C  
HETATM    6  C   UNL     1      -7.190  18.863  64.876  1.00  0.00     1.022 C  
HETATM    7  C   UNL     1      -7.229  20.011  65.880  1.00  0.00    -0.309 C  
HETATM    8  O   UNL     1      -8.521  20.631  65.944  1.00  0.00     0.192 OA 
ENDROOT
BRANCH   4   9
HETATM    9  C   UNL     1      -7.472  17.619  68.337  1.00  0.00    -0.253 A  
HETATM   10  C   UNL     1      -6.198  17.068  68.235  1.00  0.00    -0.135 A  
HETATM   11  C   UNL     1      -5.998  15.702  68.414  1.00  0.00    -0.105 A  
HETATM   12  C   UNL     1      -7.077  14.874  68.691  1.00  0.00    -0.111 A  
HETATM   13  N   UNL     1      -8.529  16.842  68.652  1.00  0.00    -0.253 NA 
HETATM   14  C   UNL     1      -8.314  15.503  68.796  1.00  0.00    -0.187 A  
BRANCH  12  15
HETATM   15  N   UNL     1      -6.961  13.465  68.827  1.00  0.00    -0.100 N  
HETATM   16  C   UNL     1      -6.727  12.812  70.031  1.00  0.00     0.364 C  
HETATM   17  H   UNL     1      -7.055  12.895  67.986  1.00  0.00     0.000 HD 
HETATM   18  O   UNL     1      -6.738  13.364  71.126  1.00  0.00     0.689 OA 
BRANCH  16  19
HETATM   19  C   UNL     1      -6.526  11.325  70.013  1.00  0.00    -0.114 A  
HETATM   20  C   UNL     1      -5.437  10.755  70.683  1.00  0.00    -0.105 A  
HETATM   21  C   UNL     1      -5.144   9.407  70.506  1.00  0.00    -0.027 A  
HETATM   22  C   UNL     1      -5.864   8.651  69.579  1.00  0.00    -0.030 A  
HETATM   23  C   UNL     1      -6.950   9.186  68.854  1.00  0.00    -0.064 A  
HETATM   24  C   UNL     1      -8.669  11.070  68.678  1.00  0.00    -0.161 C  
HETATM   25  C   UNL     1      -7.355  10.511  69.182  1.00  0.00    -0.109 A  
BRANCH  23  26
HETATM   26  C   UNL     1      -7.544   8.388  67.736  1.00  0.00    -0.102 A  
HETATM   27  C   UNL     1      -6.861   8.163  66.528  1.00  0.00    -0.067 A  
HETATM   28  C   UNL     1      -7.462   7.468  65.469  1.00  0.00    -0.084 A  
HETATM   29  C   UNL     1      -8.747   6.939  65.588  1.00  0.00    -0.072 A  
HETATM   30  C   UNL     1      -9.463   7.181  66.754  1.00  0.00    -0.214 A  
HETATM   31  C   UNL     1      -8.868   7.907  67.797  1.00  0.00    -0.122 A  
BRANCH  29  32
HETATM   32  O   UNL     1      -9.194   6.266  64.493  1.00  0.00     0.632 OA 
HETATM   33  C   UNL     1      -8.539   5.066  64.107  1.00  0.00    -0.125 C  
HETATM   34  F   UNL     1      -9.338   4.010  64.369  1.00  0.00    -0.131 F  
HETATM   35  F   UNL     1      -7.345   4.872  64.704  1.00  0.00    -0.059 F  
HETATM   36  F   UNL     1      -8.329   5.111  62.771  1.00  0.00    -0.083 F  
ENDBRANCH  29  32
ENDBRANCH  23  26
ENDBRANCH  16  19
ENDBRANCH  12  15
ENDBRANCH   4   9
TORSDOF 5
ENDMDL
MODEL       91
REMARK 921   NORMALIZED FREE ENERGY PREDICTED BY IDOCK:    1.74 KCAL/MOL
REMARK 922        TOTAL FREE ENERGY PREDICTED BY IDOCK:    1.24 KCAL/MOL
REMARK 923 INTER-LIGAND FREE ENERGY PREDICTED BY IDOCK:    2.05 KCAL/MOL
REMARK 924 INTRA-LIGAND FREE ENERGY PREDICTED BY IDOCK:   -0.81 KCAL/MOL
REMARK 927      BINDING AFFINITY PREDICTED BY RF-SCORE:    0.00 PKD
ROOT
HETATM    1  C   UNL     1     -13.165   6.421  71.557  1.00  0.00     0.410 C  
HETATM    2  C   UNL     1     -12.784   6.221  70.080  1.00  0.00     2.042 C  
HETATM    3  C   UNL     1     -13.127   7.874  72.015  1.00  0.00    -0.257 C  
HETATM    4  N   UNL     1     -11.345   6.086  69.865  1.00  0.00    -0.378 NA 
HETATM    5  C   UNL     1     -10.650   5.194  70.797  1.00  0.00    -0.135 C  
HETATM    6  C   UNL     1     -10.297   6.589  72.930  1.00  0.00    -0.232 C  
HETATM    7  C   UNL     1     -11.053   5.443  72.265  1.00  0.00    -0.196 C  
HETATM    8  O   UNL     1     -12.470   5.545  72.459  1.00  0.00     0.000 OA 
ENDROOT
BRANCH   4   9
HETATM    9  C   UNL     1     -10.625   7.121  69.296  1.00  0.00    -0.221 A  
HETATM   10  C   UNL     1      -9.376   7.436  69.826  1.00  0.00    -0.146 A  
HETATM   11  C   UNL     1      -8.626   8.486  69.305  1.00  0.00    -0.129 A  
HETATM   12  C   UNL     1      -9.125   9.237  68.249  1.00  0.00    -0.128 A  
HETATM   13  N   UNL     1     -11.109   7.806  68.240  1.00  0.00     0.208 NA 
HETATM   14  C   UNL     1     -10.370   8.848  67.762  1.00  0.00    -0.242 A  
BRANCH  12  15
HETATM   15  N   UNL     1      -8.446  10.359  67.704  1.00  0.00    -0.115 N  
HETATM   16  C   UNL     1      -7.602  11.192  68.429  1.00  0.00    -0.110 C  
HETATM   17  H   UNL     1      -8.587  10.568  66.715  1.00  0.00     0.000 HD 
HETATM   18  O   UNL     1      -7.238  10.968  69.578  1.00  0.00    -0.130 OA 
BRANCH  16  19
HETATM   19  C   UNL     1      -7.030  12.401  67.749  1.00  0.00    -0.118 A  
HETATM   20  C   UNL     1      -5.742  12.356  67.205  1.00  0.00    -0.063 A  
HETATM   21  C   UNL     1      -5.142  13.526  66.750  1.00  0.00     1.617 A  
HETATM   22  C   UNL     1      -5.777  14.755  66.936  1.00  0.00     1.531 A  
HETATM   23  C   UNL     1      -7.063  14.858  67.509  1.00  0.00    -0.215 A  
HETATM   24  C   UNL     1      -9.216  13.632  68.140  1.00  0.00    -0.204 C  
HETATM   25  C   UNL     1      -7.739  13.640  67.798  1.00  0.00    -0.166 A  
BRANCH  23  26
HETATM   26  C   UNL     1      -7.596  16.210  67.864  1.00  0.00    -0.146 A  
HETATM   27  C   UNL     1      -8.107  17.094  66.898  1.00  0.00    -0.247 A  
HETATM   28  C   UNL     1      -8.542  18.382  67.243  1.00  0.00    -0.261 A  
HETATM   29  C   UNL     1      -8.518  18.821  68.567  1.00  0.00    -0.345 A  
HETATM   30  C   UNL     1      -7.979  17.987  69.537  1.00  0.00     0.546 A  
HETATM   31  C   UNL     1      -7.515  16.712  69.179  1.00  0.00    -0.207 A  
BRANCH  29  32
HETATM   32  O   UNL     1      -8.994  20.082  68.760  1.00  0.00    -0.121 OA 
HETATM   33  C   UNL     1     -10.394  20.278  68.889  1.00  0.00     0.017 C  
HETATM   34  F   UNL     1     -10.692  20.588  70.169  1.00  0.00    -0.138 F  
HETATM   35  F   UNL     1     -11.138  19.217  68.511  1.00  0.00     0.018 F  
HETATM   36  F   UNL     1     -10.748  21.326  68.112  1.00  0.00     0.306 F  
ENDBRANCH  29  32
ENDBRANCH  23  26
ENDBRANCH  16  19
ENDBRANCH  12  15
ENDBRANCH   4   9
TORSDOF 5
ENDMDL
MODEL       92
REMARK 921   NORMALIZED FREE ENERGY PREDICTED BY IDOCK:    3.25 KCAL/MOL
REMARK 922        TOTAL FREE ENERGY PREDICTED BY IDOCK:    3.18 KCAL/MOL
REMARK 923 INTER-LIGAND FREE ENERGY PREDICTED BY IDOCK:    3.85 KCAL/MOL
REMARK 924 INTRA-LIGAND FREE ENERGY PREDICTED BY IDOCK:   -0.67 KCAL/MOL
REMARK 927      BINDING AFFINITY PREDICTED BY RF-SCORE:    0.00 PKD
ROOT
HETATM    1  C   UNL     1      -8.796  20.770  65.756  1.00  0.00     0.863 C  
HETATM    2  C   UNL     1      -8.332  20.690  67.220  1.00  0.00    -0.227 C  
HETATM    3  C   UNL     1      -9.515  19.520  65.265  1.00  0.00     1.204 C  
HETATM    4  N   UNL     1      -7.021  20.064  67.380  1.00  0.00    -0.229 NA 
HETATM    5  C   UNL     1      -5.990  20.515  66.440  1.00  0.00    -0.191 C  
HETATM    6  C   UNL     1      -6.448  19.220  64.264  1.00  0.00     0.409 C  
HETATM    7  C   UNL     1      -6.498  20.563  64.985  1.00  0.00    -0.284 C  
HETATM    8  O   UNL     1      -7.773  21.206  64.846  1.00  0.00     0.836 OA 
ENDROOT
BRANCH   4   9
HETATM    9  C   UNL     1      -6.916  18.785  67.897  1.00  0.00    -0.221 A  
HETATM   10  C   UNL     1      -5.651  18.293  68.205  1.00  0.00    -0.170 A  
HETATM   11  C   UNL     1      -5.493  17.002  68.702  1.00  0.00    -0.133 A  
HETATM   12  C   UNL     1      -6.603  16.189  68.887  1.00  0.00    -0.138 A  
HETATM   13  N   UNL     1      -8.013  18.032  68.112  1.00  0.00    -0.259 NA 
HETATM   14  C   UNL     1      -7.833  16.761  68.574  1.00  0.00    -0.229 A  
BRANCH  12  15
HETATM   15  N   UNL     1      -6.516  14.844  69.333  1.00  0.00    -0.120 N  
HETATM   16  C   UNL     1      -6.520  14.459  70.668  1.00  0.00     0.007 C  
HETATM   17  H   UNL     1      -6.446  14.111  68.626  1.00  0.00     0.000 HD 
HETATM   18  O   UNL     1      -6.743  15.222  71.602  1.00  0.00     1.238 OA 
BRANCH  16  19
HETATM   19  C   UNL     1      -6.320  13.009  70.998  1.00  0.00     0.990 A  
HETATM   20  C   UNL     1      -5.486  12.638  72.058  1.00  0.00     0.361 A  
HETATM   21  C   UNL     1      -5.150  11.301  72.240  1.00  0.00     0.245 A  
HETATM   22  C   UNL     1      -5.553  10.346  71.305  1.00  0.00    -0.012 A  
HETATM   23  C   UNL     1      -6.368  10.673  70.200  1.00  0.00    -0.139 A  
HETATM   24  C   UNL     1      -7.957  12.385  69.160  1.00  0.00     0.399 C  
HETATM   25  C   UNL     1      -6.856  12.008  70.131  1.00  0.00     0.628 A  
BRANCH  23  26
HETATM   26  C   UNL     1      -6.593   9.649  69.132  1.00  0.00    -0.049 A  
HETATM   27  C   UNL     1      -6.585   9.975  67.765  1.00  0.00    -0.067 A  
HETATM   28  C   UNL     1      -6.863   9.013  66.783  1.00  0.00    -0.080 A  
HETATM   29  C   UNL     1      -7.120   7.685  67.125  1.00  0.00    -0.085 A  
HETATM   30  C   UNL     1      -7.177   7.342  68.469  1.00  0.00    -0.094 A  
HETATM   31  C   UNL     1      -6.931   8.316  69.448  1.00  0.00    -0.050 A  
BRANCH  29  32
HETATM   32  O   UNL     1      -7.347   6.856  66.070  1.00  0.00    -0.072 OA 
HETATM   33  C   UNL     1      -8.636   6.836  65.474  1.00  0.00    -0.086 C  
HETATM   34  F   UNL     1      -8.583   7.426  64.261  1.00  0.00    -0.010 F  
HETATM   35  F   UNL     1      -9.594   7.434  66.211  1.00  0.00    -0.225 F  
HETATM   36  F   UNL     1      -8.998   5.545  65.297  1.00  0.00    -0.158 F  
ENDBRANCH  29  32
ENDBRANCH  23  26
ENDBRANCH  16  19
ENDBRANCH  12  15
ENDBRANCH   4   9
TORSDOF 5
ENDMDL
MODEL       93
REMARK 921   NORMALIZED FREE ENERGY PREDICTED BY IDOCK:    4.65 KCAL/MOL
REMARK 922        TOTAL FREE ENERGY PREDICTED BY IDOCK:    5.00 KCAL/MOL
REMARK 923 INTER-LIGAND FREE ENERGY PREDICTED BY IDOCK:    4.83 KCAL/MOL
REMARK 924 INTRA-LIGAND FREE ENERGY PREDICTED BY IDOCK:    0.16 KCAL/MOL
REMARK 927      BINDING AFFINITY PREDICTED BY RF-SCORE:    0.00 PKD
ROOT
HETATM    1  C   UNL     1     -11.006   2.241  72.378  1.00  0.00     0.366 C  
HETATM    2  C   UNL     1      -9.590   2.825  72.516  1.00  0.00    -0.116 C  
HETATM    3  C   UNL     1     -11.639   2.467  71.011  1.00  0.00     5.938 C  
HETATM    4  N   UNL     1      -9.578   4.231  72.918  1.00  0.00    -0.123 NA 
HETATM    5  C   UNL     1     -10.487   4.579  74.013  1.00  0.00    -0.261 C  
HETATM    6  C   UNL     1     -12.804   4.814  72.918  1.00  0.00     1.108 C  
HETATM    7  C   UNL     1     -11.897   3.985  73.822  1.00  0.00     0.433 C  
HETATM    8  O   UNL     1     -11.888   2.598  73.455  1.00  0.00    -0.096 OA 
ENDROOT
BRANCH   4   9
HETATM    9  C   UNL     1      -9.254   5.216  72.002  1.00  0.00    -0.137 A  
HETATM   10  C   UNL     1      -8.173   6.049  72.274  1.00  0.00    -0.110 A  
HETATM   11  C   UNL     1      -7.825   7.072  71.396  1.00  0.00    -0.095 A  
HETATM   12  C   UNL     1      -8.564   7.273  70.238  1.00  0.00    -0.142 A  
HETATM   13  N   UNL     1      -9.958   5.361  70.861  1.00  0.00    -0.191 NA 
HETATM   14  C   UNL     1      -9.617   6.386  70.028  1.00  0.00    -0.158 A  
BRANCH  12  15
HETATM   15  N   UNL     1      -8.308   8.330  69.325  1.00  0.00    -0.121 N  
HETATM   16  C   UNL     1      -7.775   8.155  68.054  1.00  0.00    -0.114 C  
HETATM   17  H   UNL     1      -8.530   9.281  69.622  1.00  0.00     0.000 HD 
HETATM   18  O   UNL     1      -7.601   7.062  67.527  1.00  0.00    -0.104 OA 
BRANCH  16  19
HETATM   19  C   UNL     1      -7.462   9.373  67.234  1.00  0.00    -0.091 A  
HETATM   20  C   UNL     1      -6.311   9.407  66.439  1.00  0.00    -0.065 A  
HETATM   21  C   UNL     1      -5.922  10.597  65.835  1.00  0.00    -0.133 A  
HETATM   22  C   UNL     1      -6.614  11.778  66.109  1.00  0.00     0.571 A  
HETATM   23  C   UNL     1      -7.762  11.805  66.929  1.00  0.00    -0.129 A  
HETATM   24  C   UNL     1      -9.625  10.439  68.026  1.00  0.00    -0.156 C  
HETATM   25  C   UNL     1      -8.255  10.551  67.389  1.00  0.00    -0.118 A  
BRANCH  23  26
HETATM   26  C   UNL     1      -8.332  13.124  67.344  1.00  0.00    -0.188 A  
HETATM   27  C   UNL     1      -8.321  13.561  68.680  1.00  0.00    -0.024 A  
HETATM   28  C   UNL     1      -8.919  14.772  69.057  1.00  0.00    -0.135 A  
HETATM   29  C   UNL     1      -9.515  15.609  68.113  1.00  0.00    -0.195 A  
HETATM   30  C   UNL     1      -9.579  15.185  66.792  1.00  0.00    -0.260 A  
HETATM   31  C   UNL     1      -9.009  13.956  66.427  1.00  0.00    -0.017 A  
BRANCH  29  32
HETATM   32  O   UNL     1     -10.031  16.763  68.616  1.00  0.00    -0.248 OA 
HETATM   33  C   UNL     1     -10.877  17.555  67.794  1.00  0.00    -0.249 C  
HETATM   34  F   UNL     1     -12.149  17.468  68.238  1.00  0.00     0.822 F  
HETATM   35  F   UNL     1     -10.844  17.224  66.487  1.00  0.00    -0.251 F  
HETATM   36  F   UNL     1     -10.483  18.844  67.903  1.00  0.00    -0.377 F  
ENDBRANCH  29  32
ENDBRANCH  23  26
ENDBRANCH  16  19
ENDBRANCH  12  15
ENDBRANCH   4   9
TORSDOF 5
ENDMDL
MODEL       94
REMARK 921   NORMALIZED FREE ENERGY PREDICTED BY IDOCK:    6.02 KCAL/MOL
REMARK 922        TOTAL FREE ENERGY PREDICTED BY IDOCK:    6.76 KCAL/MOL
REMARK 923 INTER-LIGAND FREE ENERGY PREDICTED BY IDOCK:    5.63 KCAL/MOL
REMARK 924 INTRA-LIGAND FREE ENERGY PREDICTED BY IDOCK:    1.14 KCAL/MOL
REMARK 927      BINDING AFFINITY PREDICTED BY RF-SCORE:    0.00 PKD
ROOT
HETATM    1  C   UNL     1     -11.079   4.042  72.808  1.00  0.00     0.084 C  
HETATM    2  C   UNL     1     -11.754   4.438  71.484  1.00  0.00     2.788 C  
HETATM    3  C   UNL     1     -10.272   5.162  73.451  1.00  0.00    -0.220 C  
HETATM    4  N   UNL     1     -10.889   4.270  70.318  1.00  0.00     1.307 NA 
HETATM    5  C   UNL     1     -10.141   3.011  70.265  1.00  0.00     0.679 C  
HETATM    6  C   UNL     1      -8.128   3.354  71.829  1.00  0.00    -0.062 C  
HETATM    7  C   UNL     1      -9.470   2.665  71.610  1.00  0.00    -0.137 C  
HETATM    8  O   UNL     1     -10.344   2.809  72.738  1.00  0.00    -0.150 OA 
ENDROOT
BRANCH   4   9
HETATM    9  C   UNL     1     -10.347   5.375  69.687  1.00  0.00    -0.291 A  
HETATM   10  C   UNL     1      -9.214   5.968  70.237  1.00  0.00    -0.166 A  
HETATM   11  C   UNL     1      -8.648   7.098  69.653  1.00  0.00    -0.137 A  
HETATM   12  C   UNL     1      -9.219   7.649  68.514  1.00  0.00    -0.143 A  
HETATM   13  N   UNL     1     -10.891   5.865  68.554  1.00  0.00    -0.269 NA 
HETATM   14  C   UNL     1     -10.337   6.988  68.014  1.00  0.00    -0.193 A  
BRANCH  12  15
HETATM   15  N   UNL     1      -8.735   8.834  67.897  1.00  0.00    -0.136 N  
HETATM   16  C   UNL     1      -7.391   9.172  67.798  1.00  0.00    -0.084 C  
HETATM   17  H   UNL     1      -9.419   9.479  67.500  1.00  0.00     0.000 HD 
HETATM   18  O   UNL     1      -6.470   8.422  68.102  1.00  0.00    -0.054 OA 
BRANCH  16  19
HETATM   19  C   UNL     1      -7.028  10.504  67.209  1.00  0.00    -0.087 A  
HETATM   20  C   UNL     1      -5.714  10.755  66.798  1.00  0.00    -0.069 A  
HETATM   21  C   UNL     1      -5.337  12.044  66.435  1.00  0.00     0.404 A  
HETATM   22  C   UNL     1      -6.234  13.103  66.585  1.00  0.00     1.808 A  
HETATM   23  C   UNL     1      -7.561  12.908  67.026  1.00  0.00     0.057 A  
HETATM   24  C   UNL     1      -9.453  11.230  67.405  1.00  0.00    -0.175 C  
HETATM   25  C   UNL     1      -7.986  11.563  67.215  1.00  0.00    -0.153 A  
BRANCH  23  26
HETATM   26  C   UNL     1      -8.401  14.100  67.358  1.00  0.00    -0.210 A  
HETATM   27  C   UNL     1      -8.499  14.611  68.663  1.00  0.00    -0.164 A  
HETATM   28  C   UNL     1      -9.343  15.689  68.965  1.00  0.00    -0.243 A  
HETATM   29  C   UNL     1     -10.090  16.322  67.970  1.00  0.00    -0.245 A  
HETATM   30  C   UNL     1     -10.048  15.813  66.679  1.00  0.00    -0.287 A  
HETATM   31  C   UNL     1      -9.226  14.713  66.391  1.00  0.00    -0.280 A  
BRANCH  29  32
HETATM   32  O   UNL     1     -10.845  17.369  68.400  1.00  0.00    -0.336 OA 
HETATM   33  C   UNL     1     -10.376  18.158  69.485  1.00  0.00     0.387 C  
HETATM   34  F   UNL     1      -9.987  19.368  69.029  1.00  0.00    -0.447 F  
HETATM   35  F   UNL     1      -9.357  17.600  70.172  1.00  0.00     0.935 F  
HETATM   36  F   UNL     1     -11.401  18.344  70.346  1.00  0.00     1.917 F  
ENDBRANCH  29  32
ENDBRANCH  23  26
ENDBRANCH  16  19
ENDBRANCH  12  15
ENDBRANCH   4   9
TORSDOF 5
ENDMDL
MODEL       95
REMARK 921   NORMALIZED FREE ENERGY PREDICTED BY IDOCK:    8.89 KCAL/MOL
REMARK 922        TOTAL FREE ENERGY PREDICTED BY IDOCK:   10.47 KCAL/MOL
REMARK 923 INTER-LIGAND FREE ENERGY PREDICTED BY IDOCK:   10.51 KCAL/MOL
REMARK 924 INTRA-LIGAND FREE ENERGY PREDICTED BY IDOCK:   -0.04 KCAL/MOL
REMARK 927      BINDING AFFINITY PREDICTED BY RF-SCORE:    0.00 PKD
ROOT
HETATM    1  C   UNL     1      -9.879   2.171  65.113  1.00  0.00     0.369 C  
HETATM    2  C   UNL     1     -10.692   3.226  65.883  1.00  0.00     2.145 C  
HETATM    3  C   UNL     1      -8.371   2.357  65.215  1.00  0.00    -0.096 C  
HETATM    4  N   UNL     1     -10.948   4.440  65.109  1.00  0.00    -0.152 NA 
HETATM    5  C   UNL     1     -11.387   4.225  63.728  1.00  0.00     0.819 C  
HETATM    6  C   UNL     1      -9.237   3.722  62.407  1.00  0.00    -0.096 C  
HETATM    7  C   UNL     1     -10.533   3.172  62.993  1.00  0.00    -0.186 C  
HETATM    8  O   UNL     1     -10.317   1.977  63.758  1.00  0.00    -0.133 OA 
ENDROOT
BRANCH   4   9
HETATM    9  C   UNL     1     -10.270   5.610  65.402  1.00  0.00     0.729 A  
HETATM   10  C   UNL     1     -10.591   6.291  66.573  1.00  0.00    -0.179 A  
HETATM   11  C   UNL     1      -9.955   7.486  66.897  1.00  0.00    -0.318 A  
HETATM   12  C   UNL     1      -8.994   8.014  66.044  1.00  0.00    -0.163 A  
HETATM   13  N   UNL     1      -9.307   6.078  64.582  1.00  0.00     0.717 NA 
HETATM   14  C   UNL     1      -8.716   7.264  64.905  1.00  0.00     0.289 A  
BRANCH  12  15
HETATM   15  N   UNL     1      -8.346   9.256  66.277  1.00  0.00    -0.120 N  
HETATM   16  C   UNL     1      -8.197  10.252  65.319  1.00  0.00    -0.161 C  
HETATM   17  H   UNL     1      -7.965   9.429  67.207  1.00  0.00     0.000 HD 
HETATM   18  O   UNL     1      -8.731  10.230  64.216  1.00  0.00    -0.181 OA 
BRANCH  16  19
HETATM   19  C   UNL     1      -7.401  11.474  65.674  1.00  0.00     0.729 A  
HETATM   20  C   UNL     1      -6.002  11.432  65.651  1.00  0.00     0.500 A  
HETATM   21  C   UNL     1      -5.270  12.497  66.162  1.00  0.00     1.941 A  
HETATM   22  C   UNL     1      -5.924  13.555  66.796  1.00  0.00     1.832 A  
HETATM   23  C   UNL     1      -7.331  13.630  66.875  1.00  0.00     0.628 A  
HETATM   24  C   UNL     1      -9.562  12.774  65.965  1.00  0.00    -0.182 C  
HETATM   25  C   UNL     1      -8.070  12.628  66.185  1.00  0.00     0.935 A  
BRANCH  23  26
HETATM   26  C   UNL     1      -7.958  14.678  67.740  1.00  0.00    -0.166 A  
HETATM   27  C   UNL     1      -8.873  15.618  67.236  1.00  0.00    -0.215 A  
HETATM   28  C   UNL     1      -9.399  16.633  68.049  1.00  0.00    -0.227 A  
HETATM   29  C   UNL     1      -9.062  16.724  69.400  1.00  0.00     0.113 A  
HETATM   30  C   UNL     1      -8.127  15.836  69.916  1.00  0.00     0.322 A  
HETATM   31  C   UNL     1      -7.580  14.844  69.088  1.00  0.00    -0.160 A  
BRANCH  29  32
HETATM   32  O   UNL     1      -9.667  17.740  70.073  1.00  0.00     0.791 OA 
HETATM   33  C   UNL     1      -9.815  18.999  69.433  1.00  0.00    -0.035 C  
HETATM   34  F   UNL     1     -11.113  19.199  69.122  1.00  0.00     0.685 F  
HETATM   35  F   UNL     1      -9.070  19.142  68.317  1.00  0.00    -0.319 F  
HETATM   36  F   UNL     1      -9.440  19.963  70.304  1.00  0.00     0.053 F  
ENDBRANCH  29  32
ENDBRANCH  23  26
ENDBRANCH  16  19
ENDBRANCH  12  15
ENDBRANCH   4   9
TORSDOF 5
ENDMDL
MODEL       96
REMARK 921   NORMALIZED FREE ENERGY PREDICTED BY IDOCK:    9.88 KCAL/MOL
REMARK 922        TOTAL FREE ENERGY PREDICTED BY IDOCK:   11.75 KCAL/MOL
REMARK 923 INTER-LIGAND FREE ENERGY PREDICTED BY IDOCK:   11.31 KCAL/MOL
REMARK 924 INTRA-LIGAND FREE ENERGY PREDICTED BY IDOCK:    0.44 KCAL/MOL
REMARK 927      BINDING AFFINITY PREDICTED BY RF-SCORE:    0.00 PKD
ROOT
HETATM    1  C   UNL     1     -12.523  18.104  67.662  1.00  0.00     4.849 C  
HETATM    2  C   UNL     1     -11.721  17.588  68.869  1.00  0.00     1.950 C  
HETATM    3  C   UNL     1     -13.107  17.000  66.789  1.00  0.00     7.592 C  
HETATM    4  N   UNL     1     -10.321  17.308  68.560  1.00  0.00    -0.349 NA 
HETATM    5  C   UNL     1      -9.634  18.334  67.769  1.00  0.00    -0.283 C  
HETATM    6  C   UNL     1     -10.356  17.907  65.336  1.00  0.00     0.268 C  
HETATM    7  C   UNL     1     -10.470  18.807  66.562  1.00  0.00    -0.427 C  
HETATM    8  O   UNL     1     -11.834  19.103  66.893  1.00  0.00     1.119 OA 
ENDROOT
BRANCH   4   9
HETATM    9  C   UNL     1      -9.876  16.002  68.458  1.00  0.00    -0.216 A  
HETATM   10  C   UNL     1      -9.298  15.406  69.575  1.00  0.00    -0.252 A  
HETATM   11  C   UNL     1      -8.810  14.104  69.514  1.00  0.00     0.674 A  
HETATM   12  C   UNL     1      -8.892  13.388  68.328  1.00  0.00    -0.172 A  
HETATM   13  N   UNL     1     -10.009  15.311  67.308  1.00  0.00    -0.225 NA 
HETATM   14  C   UNL     1      -9.501  14.046  67.263  1.00  0.00    -0.231 A  
BRANCH  12  15
HETATM   15  N   UNL     1      -8.365  12.079  68.171  1.00  0.00    -0.159 N  
HETATM   16  C   UNL     1      -9.086  10.998  67.676  1.00  0.00    -0.145 C  
HETATM   17  H   UNL     1      -7.393  11.920  68.439  1.00  0.00     0.000 HD 
HETATM   18  O   UNL     1     -10.206  11.086  67.187  1.00  0.00    -0.193 OA 
BRANCH  16  19
HETATM   19  C   UNL     1      -8.432   9.647  67.660  1.00  0.00    -0.125 A  
HETATM   20  C   UNL     1      -7.892   9.144  66.471  1.00  0.00    -0.100 A  
HETATM   21  C   UNL     1      -7.462   7.822  66.413  1.00  0.00    -0.084 A  
HETATM   22  C   UNL     1      -7.671   6.970  67.498  1.00  0.00    -0.111 A  
HETATM   23  C   UNL     1      -8.241   7.420  68.709  1.00  0.00    -0.129 A  
HETATM   24  C   UNL     1      -8.840   9.440  70.157  1.00  0.00    -0.249 C  
HETATM   25  C   UNL     1      -8.503   8.815  68.818  1.00  0.00    -0.129 A  
BRANCH  23  26
HETATM   26  C   UNL     1      -8.621   6.418  69.752  1.00  0.00    -0.138 A  
HETATM   27  C   UNL     1      -8.570   6.707  71.126  1.00  0.00    -0.130 A  
HETATM   28  C   UNL     1      -8.867   5.733  72.090  1.00  0.00    -0.137 A  
HETATM   29  C   UNL     1      -9.265   4.448  71.719  1.00  0.00    -0.134 A  
HETATM   30  C   UNL     1      -9.284   4.119  70.370  1.00  0.00    -0.196 A  
HETATM   31  C   UNL     1      -8.952   5.089  69.412  1.00  0.00    -0.125 A  
BRANCH  29  32
HETATM   32  O   UNL     1      -9.548   3.614  72.757  1.00  0.00    -0.120 OA 
HETATM   33  C   UNL     1      -9.792   2.241  72.491  1.00  0.00    -0.129 C  
HETATM   34  F   UNL     1      -8.751   1.503  72.933  1.00  0.00    -0.057 F  
HETATM   35  F   UNL     1     -10.007   1.960  71.189  1.00  0.00    -0.209 F  
HETATM   36  F   UNL     1     -10.893   1.866  73.180  1.00  0.00    -0.192 F  
ENDBRANCH  29  32
ENDBRANCH  23  26
ENDBRANCH  16  19
ENDBRANCH  12  15
ENDBRANCH   4   9
TORSDOF 5
ENDMDL
MODEL       97
REMARK 921   NORMALIZED FREE ENERGY PREDICTED BY IDOCK:   18.15 KCAL/MOL
REMARK 922        TOTAL FREE ENERGY PREDICTED BY IDOCK:   22.45 KCAL/MOL
REMARK 923 INTER-LIGAND FREE ENERGY PREDICTED BY IDOCK:   22.25 KCAL/MOL
REMARK 924 INTRA-LIGAND FREE ENERGY PREDICTED BY IDOCK:    0.19 KCAL/MOL
REMARK 927      BINDING AFFINITY PREDICTED BY RF-SCORE:    0.00 PKD
ROOT
HETATM    1  C   UNL     1     -11.983   4.448  68.778  1.00  0.00    11.045 C  
HETATM    2  C   UNL     1     -10.875   4.721  67.746  1.00  0.00     0.838 C  
HETATM    3  C   UNL     1     -12.603   5.708  69.368  1.00  0.00     6.550 C  
HETATM    4  N   UNL     1      -9.555   4.900  68.346  1.00  0.00    -0.139 NA 
HETATM    5  C   UNL     1      -9.195   3.925  69.379  1.00  0.00    -0.153 C  
HETATM    6  C   UNL     1     -10.380   4.735  71.514  1.00  0.00    -0.203 C  
HETATM    7  C   UNL     1     -10.330   3.697  70.398  1.00  0.00     0.934 C  
HETATM    8  O   UNL     1     -11.613   3.496  69.788  1.00  0.00     7.542 OA 
ENDROOT
BRANCH   4   9
HETATM    9  C   UNL     1      -8.983   6.158  68.412  1.00  0.00    -0.115 A  
HETATM   10  C   UNL     1      -9.674   7.234  67.860  1.00  0.00    -0.161 A  
HETATM   11  C   UNL     1      -9.128   8.514  67.878  1.00  0.00    -0.145 A  
HETATM   12  C   UNL     1      -7.878   8.727  68.445  1.00  0.00    -0.104 A  
HETATM   13  N   UNL     1      -7.790   6.348  69.010  1.00  0.00    -0.108 NA 
HETATM   14  C   UNL     1      -7.261   7.606  68.992  1.00  0.00    -0.080 A  
BRANCH  12  15
HETATM   15  N   UNL     1      -7.231   9.991  68.448  1.00  0.00    -0.072 N  
HETATM   16  C   UNL     1      -7.870  11.198  68.191  1.00  0.00    -0.118 C  
HETATM   17  H   UNL     1      -6.231  10.014  68.651  1.00  0.00     0.000 HD 
HETATM   18  O   UNL     1      -9.084  11.322  68.077  1.00  0.00    -0.145 OA 
BRANCH  16  19
HETATM   19  C   UNL     1      -7.042  12.448  68.128  1.00  0.00    -0.097 A  
HETATM   20  C   UNL     1      -5.809  12.508  68.787  1.00  0.00    -0.064 A  
HETATM   21  C   UNL     1      -5.137  13.721  68.889  1.00  0.00    -0.072 A  
HETATM   22  C   UNL     1      -5.739  14.894  68.433  1.00  0.00    -0.108 A  
HETATM   23  C   UNL     1      -6.996  14.894  67.790  1.00  0.00    -0.193 A  
HETATM   24  C   UNL     1      -8.775  13.497  66.599  1.00  0.00    -0.017 C  
HETATM   25  C   UNL     1      -7.585  13.625  67.527  1.00  0.00    -0.180 A  
BRANCH  23  26
HETATM   26  C   UNL     1      -7.672  16.199  67.511  1.00  0.00    -0.170 A  
HETATM   27  C   UNL     1      -9.012  16.440  67.861  1.00  0.00    -0.196 A  
HETATM   28  C   UNL     1      -9.647  17.646  67.532  1.00  0.00    -0.267 A  
HETATM   29  C   UNL     1      -8.960  18.669  66.878  1.00  0.00    -0.294 A  
HETATM   30  C   UNL     1      -7.648  18.444  66.481  1.00  0.00    -0.267 A  
HETATM   31  C   UNL     1      -7.029  17.222  66.784  1.00  0.00    -0.249 A  
BRANCH  29  32
HETATM   32  O   UNL     1      -9.691  19.793  66.645  1.00  0.00    -0.350 OA 
HETATM   33  C   UNL     1     -10.896  19.689  65.900  1.00  0.00    -0.317 C  
HETATM   34  F   UNL     1     -11.953  19.864  66.721  1.00  0.00     0.332 F  
HETATM   35  F   UNL     1     -11.039  18.519  65.243  1.00  0.00    -0.376 F  
HETATM   36  F   UNL     1     -10.910  20.682  64.981  1.00  0.00    -0.229 F  
ENDBRANCH  29  32
ENDBRANCH  23  26
ENDBRANCH  16  19
ENDBRANCH  12  15
ENDBRANCH   4   9
TORSDOF 5
ENDMDL
MODEL       98
REMARK 921   NORMALIZED FREE ENERGY PREDICTED BY IDOCK:   20.16 KCAL/MOL
REMARK 922        TOTAL FREE ENERGY PREDICTED BY IDOCK:   25.04 KCAL/MOL
REMARK 923 INTER-LIGAND FREE ENERGY PREDICTED BY IDOCK:   24.92 KCAL/MOL
REMARK 924 INTRA-LIGAND FREE ENERGY PREDICTED BY IDOCK:    0.12 KCAL/MOL
REMARK 927      BINDING AFFINITY PREDICTED BY RF-SCORE:    0.00 PKD
ROOT
HETATM    1  C   UNL     1      -7.847   4.869  72.184  1.00  0.00    -0.109 C  
HETATM    2  C   UNL     1      -8.029   5.977  73.236  1.00  0.00    -0.108 C  
HETATM    3  C   UNL     1      -7.769   5.381  70.752  1.00  0.00    -0.090 C  
HETATM    4  N   UNL     1      -9.427   6.342  73.458  1.00  0.00    -0.139 NA 
HETATM    5  C   UNL     1     -10.357   5.218  73.594  1.00  0.00    -0.231 C  
HETATM    6  C   UNL     1     -10.842   4.449  71.187  1.00  0.00     0.678 C  
HETATM    7  C   UNL     1     -10.147   4.142  72.509  1.00  0.00    -0.170 C  
HETATM    8  O   UNL     1      -8.771   3.778  72.326  1.00  0.00    -0.094 OA 
ENDROOT
BRANCH   4   9
HETATM    9  C   UNL     1      -9.920   7.541  72.974  1.00  0.00    -0.268 A  
HETATM   10  C   UNL     1     -10.129   8.586  73.869  1.00  0.00     2.396 A  
HETATM   11  C   UNL     1     -10.649   9.802  73.434  1.00  0.00     7.243 A  
HETATM   12  C   UNL     1     -10.971   9.978  72.095  1.00  0.00     1.959 A  
HETATM   13  N   UNL     1     -10.181   7.704  71.661  1.00  0.00    -0.184 NA 
HETATM   14  C   UNL     1     -10.714   8.894  71.261  1.00  0.00    -0.287 A  
BRANCH  12  15
HETATM   15  N   UNL     1     -11.560  11.166  71.587  1.00  0.00     0.775 N  
HETATM   16  C   UNL     1     -11.939  11.348  70.262  1.00  0.00    -0.373 C  
HETATM   17  H   UNL     1     -11.715  11.938  72.237  1.00  0.00     0.000 HD 
HETATM   18  O   UNL     1     -11.941  10.457  69.420  1.00  0.00    -0.196 OA 
BRANCH  16  19
HETATM   19  C   UNL     1     -12.457  12.692  69.842  1.00  0.00     0.002 A  
HETATM   20  C   UNL     1     -13.835  12.927  69.786  1.00  0.00     4.399 A  
HETATM   21  C   UNL     1     -14.314  14.102  69.215  1.00  0.00     8.105 A  
HETATM   22  C   UNL     1     -13.430  14.992  68.603  1.00  0.00     3.835 A  
HETATM   23  C   UNL     1     -12.034  14.786  68.603  1.00  0.00    -0.292 A  
HETATM   24  C   UNL     1     -10.069  13.533  69.654  1.00  0.00     0.884 C  
HETATM   25  C   UNL     1     -11.546  13.677  69.351  1.00  0.00    -0.368 A  
BRANCH  23  26
HETATM   26  C   UNL     1     -11.167  15.665  67.759  1.00  0.00    -0.297 A  
HETATM   27  C   UNL     1     -10.851  16.985  68.126  1.00  0.00    -0.338 A  
HETATM   28  C   UNL     1     -10.091  17.814  67.289  1.00  0.00    -0.337 A  
HETATM   29  C   UNL     1      -9.586  17.347  66.075  1.00  0.00    -0.118 A  
HETATM   30  C   UNL     1      -9.917  16.062  65.665  1.00  0.00    -0.346 A  
HETATM   31  C   UNL     1     -10.706  15.249  66.493  1.00  0.00    -0.311 A  
BRANCH  29  32
HETATM   32  O   UNL     1      -8.843  18.250  65.379  1.00  0.00     0.277 OA 
HETATM   33  C   UNL     1      -7.889  19.040  66.073  1.00  0.00    -0.204 C  
HETATM   34  F   UNL     1      -6.643  18.631  65.752  1.00  0.00    -0.222 F  
HETATM   35  F   UNL     1      -8.026  19.018  67.416  1.00  0.00    -0.251 F  
HETATM   36  F   UNL     1      -8.027  20.323  65.667  1.00  0.00    -0.299 F  
ENDBRANCH  29  32
ENDBRANCH  23  26
ENDBRANCH  16  19
ENDBRANCH  12  15
ENDBRANCH   4   9
TORSDOF 5
ENDMDL
MODEL       99
REMARK 921   NORMALIZED FREE ENERGY PREDICTED BY IDOCK:   26.39 KCAL/MOL
REMARK 922        TOTAL FREE ENERGY PREDICTED BY IDOCK:   33.09 KCAL/MOL
REMARK 923 INTER-LIGAND FREE ENERGY PREDICTED BY IDOCK:   32.57 KCAL/MOL
REMARK 924 INTRA-LIGAND FREE ENERGY PREDICTED BY IDOCK:    0.53 KCAL/MOL
REMARK 927      BINDING AFFINITY PREDICTED BY RF-SCORE:    0.00 PKD
ROOT
HETATM    1  C   UNL     1      -9.066  19.640  65.499  1.00  0.00     0.558 C  
HETATM    2  C   UNL     1      -8.658  18.352  64.762  1.00  0.00     4.637 C  
HETATM    3  C   UNL     1      -9.350  19.441  66.982  1.00  0.00    -0.393 C  
HETATM    4  N   UNL     1      -9.797  17.575  64.278  1.00  0.00     4.323 NA 
HETATM    5  C   UNL     1     -10.849  18.348  63.612  1.00  0.00    10.353 C  
HETATM    6  C   UNL     1     -12.239  19.378  65.516  1.00  0.00     5.500 C  
HETATM    7  C   UNL     1     -11.234  19.619  64.395  1.00  0.00     3.810 C  
HETATM    8  O   UNL     1     -10.102  20.382  64.837  1.00  0.00     0.332 OA 
ENDROOT
BRANCH   4   9
HETATM    9  C   UNL     1     -10.156  16.396  64.907  1.00  0.00     0.679 A  
HETATM   10  C   UNL     1      -9.477  16.025  66.065  1.00  0.00    -0.384 A  
HETATM   11  C   UNL     1      -9.783  14.835  66.718  1.00  0.00    -0.264 A  
HETATM   12  C   UNL     1     -10.771  14.001  66.212  1.00  0.00    -0.289 A  
HETATM   13  N   UNL     1     -11.150  15.625  64.423  1.00  0.00    -0.333 NA 
HETATM   14  C   UNL     1     -11.416  14.451  65.064  1.00  0.00    -0.372 A  
BRANCH  12  15
HETATM   15  N   UNL     1     -11.098  12.745  66.788  1.00  0.00    -0.267 N  
HETATM   16  C   UNL     1     -10.356  12.124  67.787  1.00  0.00    -0.206 C  
HETATM   17  H   UNL     1     -11.932  12.266  66.448  1.00  0.00     0.000 HD 
HETATM   18  O   UNL     1      -9.423  12.655  68.379  1.00  0.00    -0.214 OA 
BRANCH  16  19
HETATM   19  C   UNL     1     -10.762  10.750  68.232  1.00  0.00    -0.253 A  
HETATM   20  C   UNL     1     -12.051  10.276  67.962  1.00  0.00     1.535 A  
HETATM   21  C   UNL     1     -12.486   9.088  68.539  1.00  0.00     4.862 A  
HETATM   22  C   UNL     1     -11.683   8.428  69.471  1.00  0.00     0.799 A  
HETATM   23  C   UNL     1     -10.389   8.881  69.803  1.00  0.00    -0.213 A  
HETATM   24  C   UNL     1      -8.421  10.373  69.139  1.00  0.00    -0.168 C  
HETATM   25  C   UNL     1      -9.885   9.991  69.067  1.00  0.00    -0.203 A  
BRANCH  23  26
HETATM   26  C   UNL     1      -9.667   8.249  70.951  1.00  0.00    -0.204 A  
HETATM   27  C   UNL     1      -8.618   8.895  71.627  1.00  0.00    -0.160 A  
HETATM   28  C   UNL     1      -7.912   8.259  72.657  1.00  0.00    -0.193 A  
HETATM   29  C   UNL     1      -8.249   6.971  73.077  1.00  0.00    -0.105 A  
HETATM   30  C   UNL     1      -9.252   6.291  72.399  1.00  0.00    -0.138 A  
HETATM   31  C   UNL     1      -9.933   6.921  71.347  1.00  0.00    -0.190 A  
BRANCH  29  32
HETATM   32  O   UNL     1      -7.497   6.488  74.103  1.00  0.00    -0.088 OA 
HETATM   33  C   UNL     1      -6.205   5.969  73.826  1.00  0.00    -0.064 C  
HETATM   34  F   UNL     1      -5.266   6.818  74.297  1.00  0.00    -0.042 F  
HETATM   35  F   UNL     1      -5.971   5.740  72.517  1.00  0.00    -0.031 F  
HETATM   36  F   UNL     1      -6.072   4.793  74.480  1.00  0.00    -0.042 F  
ENDBRANCH  29  32
ENDBRANCH  23  26
ENDBRANCH  16  19
ENDBRANCH  12  15
ENDBRANCH   4   9
TORSDOF 5
ENDMDL
MODEL      100
REMARK 921   NORMALIZED FREE ENERGY PREDICTED BY IDOCK:   29.93 KCAL/MOL
REMARK 922        TOTAL FREE ENERGY PREDICTED BY IDOCK:   37.66 KCAL/MOL
REMARK 923 INTER-LIGAND FREE ENERGY PREDICTED BY IDOCK:   36.62 KCAL/MOL
REMARK 924 INTRA-LIGAND FREE ENERGY PREDICTED BY IDOCK:    1.04 KCAL/MOL
REMARK 927      BINDING AFFINITY PREDICTED BY RF-SCORE:    0.00 PKD
ROOT
HETATM    1  C   UNL     1     -12.926  17.533  68.756  1.00  0.00     7.184 C  
HETATM    2  C   UNL     1     -13.724  16.620  69.703  1.00  0.00     6.213 C  
HETATM    3  C   UNL     1     -12.183  16.786  67.656  1.00  0.00     1.930 C  
HETATM    4  N   UNL     1     -12.929  16.098  70.813  1.00  0.00     0.073 NA 
HETATM    5  C   UNL     1     -12.076  17.079  71.490  1.00  0.00     1.903 C  
HETATM    6  C   UNL     1      -9.999  17.318  69.990  1.00  0.00     0.805 C  
HETATM    7  C   UNL     1     -11.285  17.959  70.501  1.00  0.00     2.770 C  
HETATM    8  O   UNL     1     -12.090  18.483  69.435  1.00  0.00     5.547 OA 
ENDROOT
BRANCH   4   9
HETATM    9  C   UNL     1     -12.534  14.772  70.825  1.00  0.00    -0.337 A  
HETATM   10  C   UNL     1     -12.721  14.032  71.990  1.00  0.00    -0.367 A  
HETATM   11  C   UNL     1     -12.315  12.703  72.060  1.00  0.00     0.560 A  
HETATM   12  C   UNL     1     -11.710  12.104  70.963  1.00  0.00     0.854 A  
HETATM   13  N   UNL     1     -11.991  14.199  69.732  1.00  0.00    -0.319 NA 
HETATM   14  C   UNL     1     -11.576  12.904  69.832  1.00  0.00    -0.176 A  
BRANCH  12  15
HETATM   15  N   UNL     1     -11.216  10.773  70.978  1.00  0.00    -0.113 N  
HETATM   16  C   UNL     1     -11.145   9.951  69.859  1.00  0.00    -0.275 C  
HETATM   17  H   UNL     1     -10.892  10.394  71.869  1.00  0.00     0.000 HD 
HETATM   18  O   UNL     1     -11.364  10.330  68.714  1.00  0.00    -0.230 OA 
BRANCH  16  19
HETATM   19  C   UNL     1     -10.695   8.531  70.040  1.00  0.00    -0.234 A  
HETATM   20  C   UNL     1      -9.724   8.219  70.999  1.00  0.00    -0.201 A  
HETATM   21  C   UNL     1      -9.171   6.943  71.033  1.00  0.00    -0.156 A  
HETATM   22  C   UNL     1      -9.501   6.012  70.047  1.00  0.00    -0.180 A  
HETATM   23  C   UNL     1     -10.449   6.287  69.039  1.00  0.00    -0.287 A  
HETATM   24  C   UNL     1     -12.368   7.796  68.278  1.00  0.00     4.766 C  
HETATM   25  C   UNL     1     -11.142   7.527  69.127  1.00  0.00     0.071 A  
BRANCH  23  26
HETATM   26  C   UNL     1     -10.604   5.327  67.902  1.00  0.00    -0.098 A  
HETATM   27  C   UNL     1     -11.095   5.723  66.646  1.00  0.00    -0.069 A  
HETATM   28  C   UNL     1     -11.294   4.795  65.614  1.00  0.00     0.592 A  
HETATM   29  C   UNL     1     -10.976   3.447  65.783  1.00  0.00     2.464 A  
HETATM   30  C   UNL     1     -10.530   3.018  67.026  1.00  0.00     2.613 A  
HETATM   31  C   UNL     1     -10.364   3.947  68.065  1.00  0.00     0.844 A  
BRANCH  29  32
HETATM   32  O   UNL     1     -11.195   2.665  64.691  1.00  0.00     0.891 OA 
HETATM   33  C   UNL     1     -10.716   3.099  63.426  1.00  0.00    -0.244 C  
HETATM   34  F   UNL     1      -9.670   2.331  63.051  1.00  0.00    -0.090 F  
HETATM   35  F   UNL     1     -10.344   4.395  63.391  1.00  0.00    -0.118 F  
HETATM   36  F   UNL     1     -11.705   2.930  62.519  1.00  0.00     0.035 F  
ENDBRANCH  29  32
ENDBRANCH  23  26
ENDBRANCH  16  19
ENDBRANCH  12  15
ENDBRANCH   4   9
TORSDOF 5
ENDMDL
MODEL      101
REMARK 921   NORMALIZED FREE ENERGY PREDICTED BY IDOCK:   38.61 KCAL/MOL
REMARK 922        TOTAL FREE ENERGY PREDICTED BY IDOCK:   48.88 KCAL/MOL
REMARK 923 INTER-LIGAND FREE ENERGY PREDICTED BY IDOCK:   48.47 KCAL/MOL
REMARK 924 INTRA-LIGAND FREE ENERGY PREDICTED BY IDOCK:    0.41 KCAL/MOL
REMARK 927      BINDING AFFINITY PREDICTED BY RF-SCORE:    0.00 PKD
ROOT
HETATM    1  C   UNL     1     -12.874  18.632  65.477  1.00  0.00    11.875 C  
HETATM    2  C   UNL     1     -13.588  17.270  65.447  1.00  0.00    12.048 C  
HETATM    3  C   UNL     1     -11.501  18.626  64.817  1.00  0.00     3.319 C  
HETATM    4  N   UNL     1     -13.228  16.401  66.566  1.00  0.00     5.606 NA 
HETATM    5  C   UNL     1     -13.207  17.046  67.882  1.00  0.00     6.061 C  
HETATM    6  C   UNL     1     -10.952  18.281  67.992  1.00  0.00    -0.022 C  
HETATM    7  C   UNL     1     -12.467  18.399  67.865  1.00  0.00     5.168 C  
HETATM    8  O   UNL     1     -12.854  19.248  66.775  1.00  0.00     4.920 OA 
ENDROOT
BRANCH   4   9
HETATM    9  C   UNL     1     -12.405  15.308  66.363  1.00  0.00     0.782 A  
HETATM   10  C   UNL     1     -12.704  14.118  67.021  1.00  0.00     0.395 A  
HETATM   11  C   UNL     1     -11.890  12.998  66.871  1.00  0.00    -0.442 A  
HETATM   12  C   UNL     1     -10.763  13.064  66.062  1.00  0.00    -0.274 A  
HETATM   13  N   UNL     1     -11.343  15.382  65.536  1.00  0.00    -0.227 NA 
HETATM   14  C   UNL     1     -10.544  14.282  65.424  1.00  0.00    -0.354 A  
BRANCH  12  15
HETATM   15  N   UNL     1      -9.854  11.985  65.907  1.00  0.00    -0.236 N  
HETATM   16  C   UNL     1      -9.014  11.821  64.811  1.00  0.00     0.432 C  
HETATM   17  H   UNL     1      -9.814  11.284  66.647  1.00  0.00     0.000 HD 
HETATM   18  O   UNL     1      -8.861  12.660  63.931  1.00  0.00     1.204 OA 
BRANCH  16  19
HETATM   19  C   UNL     1      -8.176  10.578  64.730  1.00  0.00    -0.100 A  
HETATM   20  C   UNL     1      -7.571  10.217  63.521  1.00  0.00    -0.138 A  
HETATM   21  C   UNL     1      -6.960   8.974  63.398  1.00  0.00    -0.089 A  
HETATM   22  C   UNL     1      -7.045   8.047  64.438  1.00  0.00    -0.077 A  
HETATM   23  C   UNL     1      -7.671   8.349  65.666  1.00  0.00    -0.099 A  
HETATM   24  C   UNL     1      -8.547  10.188  67.211  1.00  0.00    -0.125 C  
HETATM   25  C   UNL     1      -8.127   9.686  65.845  1.00  0.00    -0.112 A  
BRANCH  23  26
HETATM   26  C   UNL     1      -7.905   7.252  66.655  1.00  0.00    -0.102 A  
HETATM   27  C   UNL     1      -9.182   6.956  67.161  1.00  0.00    -0.153 A  
HETATM   28  C   UNL     1      -9.370   5.966  68.137  1.00  0.00    -0.117 A  
HETATM   29  C   UNL     1      -8.298   5.210  68.614  1.00  0.00    -0.088 A  
HETATM   30  C   UNL     1      -7.019   5.508  68.165  1.00  0.00    -0.065 A  
HETATM   31  C   UNL     1      -6.834   6.522  67.213  1.00  0.00    -0.069 A  
BRANCH  29  32
HETATM   32  O   UNL     1      -8.630   4.267  69.538  1.00  0.00    -0.074 OA 
HETATM   33  C   UNL     1      -8.346   4.515  70.907  1.00  0.00    -0.088 C  
HETATM   34  F   UNL     1      -9.498   4.747  71.574  1.00  0.00    -0.163 F  
HETATM   35  F   UNL     1      -7.502   5.546  71.119  1.00  0.00    -0.075 F  
HETATM   36  F   UNL     1      -7.777   3.404  71.428  1.00  0.00    -0.050 F  
ENDBRANCH  29  32
ENDBRANCH  23  26
ENDBRANCH  16  19
ENDBRANCH  12  15
ENDBRANCH   4   9
TORSDOF 5
ENDMDL
MODEL      102
REMARK 921   NORMALIZED FREE ENERGY PREDICTED BY IDOCK:   45.18 KCAL/MOL
REMARK 922        TOTAL FREE ENERGY PREDICTED BY IDOCK:   57.37 KCAL/MOL
REMARK 923 INTER-LIGAND FREE ENERGY PREDICTED BY IDOCK:   56.46 KCAL/MOL
REMARK 924 INTRA-LIGAND FREE ENERGY PREDICTED BY IDOCK:    0.91 KCAL/MOL
REMARK 927      BINDING AFFINITY PREDICTED BY RF-SCORE:    0.00 PKD
ROOT
HETATM    1  C   UNL     1     -12.741  17.031  72.623  1.00  0.00     1.961 C  
HETATM    2  C   UNL     1     -11.492  16.141  72.744  1.00  0.00     0.085 C  
HETATM    3  C   UNL     1     -14.039  16.331  73.004  1.00  0.00     0.249 C  
HETATM    4  N   UNL     1     -11.229  15.343  71.548  1.00  0.00    -0.380 NA 
HETATM    5  C   UNL     1     -11.341  16.062  70.276  1.00  0.00    -0.382 C  
HETATM    6  C   UNL     1     -13.862  16.157  69.773  1.00  0.00     3.636 C  
HETATM    7  C   UNL     1     -12.615  16.926  70.195  1.00  0.00     3.991 C  
HETATM    8  O   UNL     1     -12.840  17.722  71.367  1.00  0.00     8.229 OA 
ENDROOT
BRANCH   4   9
HETATM    9  C   UNL     1     -11.472  13.981  71.550  1.00  0.00     1.010 A  
HETATM   10  C   UNL     1     -12.086  13.412  70.438  1.00  0.00    -0.405 A  
HETATM   11  C   UNL     1     -12.376  12.051  70.404  1.00  0.00    -0.317 A  
HETATM   12  C   UNL     1     -12.059  11.248  71.491  1.00  0.00     0.223 A  
HETATM   13  N   UNL     1     -11.113  13.213  72.599  1.00  0.00     6.482 NA 
HETATM   14  C   UNL     1     -11.430  11.888  72.556  1.00  0.00     7.052 A  
BRANCH  12  15
HETATM   15  N   UNL     1     -12.378   9.865  71.555  1.00  0.00    -0.385 N  
HETATM   16  C   UNL     1     -11.894   8.995  72.525  1.00  0.00     0.007 C  
HETATM   17  H   UNL     1     -13.002   9.486  70.843  1.00  0.00     0.000 HD 
HETATM   18  O   UNL     1     -11.258   9.350  73.511  1.00  0.00     3.553 OA 
BRANCH  16  19
HETATM   19  C   UNL     1     -12.232   7.537  72.412  1.00  0.00    -0.167 A  
HETATM   20  C   UNL     1     -12.698   6.836  73.530  1.00  0.00     3.319 A  
HETATM   21  C   UNL     1     -12.826   5.453  73.475  1.00  0.00     2.958 A  
HETATM   22  C   UNL     1     -12.387   4.754  72.349  1.00  0.00     1.186 A  
HETATM   23  C   UNL     1     -11.879   5.410  71.208  1.00  0.00     1.012 A  
HETATM   24  C   UNL     1     -11.681   7.619  69.936  1.00  0.00     0.266 C  
HETATM   25  C   UNL     1     -11.928   6.833  71.207  1.00  0.00    -0.414 A  
BRANCH  23  26
HETATM   26  C   UNL     1     -11.241   4.600  70.124  1.00  0.00     2.539 A  
HETATM   27  C   UNL     1     -11.347   3.199  70.072  1.00  0.00     7.551 A  
HETATM   28  C   UNL     1     -10.687   2.453  69.085  1.00  0.00     3.760 A  
HETATM   29  C   UNL     1      -9.930   3.077  68.093  1.00  0.00     0.650 A  
HETATM   30  C   UNL     1      -9.771   4.456  68.143  1.00  0.00    -0.181 A  
HETATM   31  C   UNL     1     -10.407   5.193  69.153  1.00  0.00    -0.226 A  
BRANCH  29  32
HETATM   32  O   UNL     1      -9.368   2.233  67.186  1.00  0.00    -0.117 OA 
HETATM   33  C   UNL     1      -9.350   2.606  65.815  1.00  0.00    -0.009 C  
HETATM   34  F   UNL     1      -8.088   2.918  65.448  1.00  0.00    -0.083 F  
HETATM   35  F   UNL     1     -10.162   3.641  65.514  1.00  0.00    -0.122 F  
HETATM   36  F   UNL     1      -9.749   1.542  65.082  1.00  0.00    -0.067 F  
ENDBRANCH  29  32
ENDBRANCH  23  26
ENDBRANCH  16  19
ENDBRANCH  12  15
ENDBRANCH   4   9
TORSDOF 5
ENDMDL
MODEL      103
REMARK 921   NORMALIZED FREE ENERGY PREDICTED BY IDOCK:   52.26 KCAL/MOL
REMARK 922        TOTAL FREE ENERGY PREDICTED BY IDOCK:   66.53 KCAL/MOL
REMARK 923 INTER-LIGAND FREE ENERGY PREDICTED BY IDOCK:   66.31 KCAL/MOL
REMARK 924 INTRA-LIGAND FREE ENERGY PREDICTED BY IDOCK:    0.21 KCAL/MOL
REMARK 927      BINDING AFFINITY PREDICTED BY RF-SCORE:    0.00 PKD
ROOT
HETATM    1  C   UNL     1     -11.442   2.576  71.117  1.00  0.00     4.830 C  
HETATM    2  C   UNL     1     -10.468   3.517  71.847  1.00  0.00     0.209 C  
HETATM    3  C   UNL     1     -11.465   2.763  69.605  1.00  0.00     9.660 C  
HETATM    4  N   UNL     1     -11.051   4.816  72.175  1.00  0.00     0.047 NA 
HETATM    5  C   UNL     1     -12.399   4.774  72.749  1.00  0.00     0.631 C  
HETATM    6  C   UNL     1     -13.978   4.465  70.741  1.00  0.00    15.763 C  
HETATM    7  C   UNL     1     -13.342   3.832  71.974  1.00  0.00     6.721 C  
HETATM    8  O   UNL     1     -12.760   2.552  71.686  1.00  0.00     6.272 OA 
ENDROOT
BRANCH   4   9
HETATM    9  C   UNL     1     -10.679   5.946  71.468  1.00  0.00    -0.256 A  
HETATM   10  C   UNL     1      -9.863   6.885  72.093  1.00  0.00    -0.159 A  
HETATM   11  C   UNL     1      -9.485   8.050  71.432  1.00  0.00    -0.194 A  
HETATM   12  C   UNL     1      -9.928   8.288  70.139  1.00  0.00    -0.187 A  
HETATM   13  N   UNL     1     -11.083   6.133  70.195  1.00  0.00    -0.355 NA 
HETATM   14  C   UNL     1     -10.723   7.293  69.577  1.00  0.00    -0.232 A  
BRANCH  12  15
HETATM   15  N   UNL     1      -9.634   9.479  69.423  1.00  0.00    -0.170 N  
HETATM   16  C   UNL     1      -9.103   9.510  68.139  1.00  0.00    -0.127 C  
HETATM   17  H   UNL     1      -9.826  10.371  69.880  1.00  0.00     0.000 HD 
HETATM   18  O   UNL     1      -8.964   8.520  67.429  1.00  0.00    -0.132 OA 
BRANCH  16  19
HETATM   19  C   UNL     1      -8.747  10.840  67.541  1.00  0.00    -0.125 A  
HETATM   20  C   UNL     1      -7.924  10.904  66.411  1.00  0.00    -0.157 A  
HETATM   21  C   UNL     1      -7.441  12.134  65.977  1.00  0.00     1.138 A  
HETATM   22  C   UNL     1      -7.684  13.285  66.728  1.00  0.00     0.484 A  
HETATM   23  C   UNL     1      -8.481  13.269  67.893  1.00  0.00    -0.177 A  
HETATM   24  C   UNL     1     -10.212  11.986  69.269  1.00  0.00     0.245 C  
HETATM   25  C   UNL     1      -9.120  12.040  68.220  1.00  0.00    -0.190 A  
BRANCH  23  26
HETATM   26  C   UNL     1      -8.533  14.489  68.757  1.00  0.00    -0.145 A  
HETATM   27  C   UNL     1      -8.573  15.788  68.222  1.00  0.00    -0.170 A  
HETATM   28  C   UNL     1      -8.556  16.920  69.049  1.00  0.00    -0.148 A  
HETATM   29  C   UNL     1      -8.537  16.799  70.439  1.00  0.00     3.021 A  
HETATM   30  C   UNL     1      -8.453  15.530  70.997  1.00  0.00     3.050 A  
HETATM   31  C   UNL     1      -8.437  14.403  70.161  1.00  0.00     1.329 A  
BRANCH  29  32
HETATM   32  O   UNL     1      -8.548  17.979  71.117  1.00  0.00     6.471 OA 
HETATM   33  C   UNL     1      -7.313  18.570  71.493  1.00  0.00     5.394 C  
HETATM   34  F   UNL     1      -7.088  19.667  70.737  1.00  0.00     0.116 F  
HETATM   35  F   UNL     1      -6.252  17.743  71.393  1.00  0.00     0.764 F  
HETATM   36  F   UNL     1      -7.409  18.963  72.783  1.00  0.00     3.089 F  
ENDBRANCH  29  32
ENDBRANCH  23  26
ENDBRANCH  16  19
ENDBRANCH  12  15
ENDBRANCH   4   9
TORSDOF 5
ENDMDL
MODEL      104
REMARK 921   NORMALIZED FREE ENERGY PREDICTED BY IDOCK:   62.27 KCAL/MOL
REMARK 922        TOTAL FREE ENERGY PREDICTED BY IDOCK:   79.46 KCAL/MOL
REMARK 923 INTER-LIGAND FREE ENERGY PREDICTED BY IDOCK:   79.98 KCAL/MOL
REMARK 924 INTRA-LIGAND FREE ENERGY PREDICTED BY IDOCK:   -0.52 KCAL/MOL
REMARK 927      BINDING AFFINITY PREDICTED BY RF-SCORE:    0.00 PKD
ROOT
HETATM    1  C   UNL     1     -10.634   3.649  66.912  1.00  0.00     1.969 C  
HETATM    2  C   UNL     1     -10.876   4.993  66.206  1.00  0.00    -0.083 C  
HETATM    3  C   UNL     1     -10.346   3.776  68.403  1.00  0.00     1.024 C  
HETATM    4  N   UNL     1      -9.647   5.641  65.752  1.00  0.00    -0.038 NA 
HETATM    5  C   UNL     1      -8.686   4.765  65.076  1.00  0.00    -0.147 C  
HETATM    6  C   UNL     1      -7.452   3.531  66.966  1.00  0.00    -0.075 C  
HETATM    7  C   UNL     1      -8.465   3.438  65.830  1.00  0.00    -0.110 C  
HETATM    8  O   UNL     1      -9.684   2.805  66.242  1.00  0.00     0.115 OA 
ENDROOT
BRANCH   4   9
HETATM    9  C   UNL     1      -9.159   6.753  66.415  1.00  0.00    -0.152 A  
HETATM   10  C   UNL     1      -7.837   7.131  66.199  1.00  0.00    -0.105 A  
HETATM   11  C   UNL     1      -7.293   8.226  66.864  1.00  0.00    -0.084 A  
HETATM   12  C   UNL     1      -8.069   8.950  67.759  1.00  0.00    -0.106 A  
HETATM   13  N   UNL     1      -9.947   7.469  67.243  1.00  0.00    -0.188 NA 
HETATM   14  C   UNL     1      -9.386   8.522  67.904  1.00  0.00    -0.135 A  
BRANCH  12  15
HETATM   15  N   UNL     1      -7.569  10.041  68.518  1.00  0.00    -0.086 N  
HETATM   16  C   UNL     1      -7.318   9.994  69.884  1.00  0.00    -0.161 C  
HETATM   17  H   UNL     1      -7.380  10.916  68.028  1.00  0.00     0.000 HD 
HETATM   18  O   UNL     1      -7.364   8.970  70.556  1.00  0.00    -0.063 OA 
BRANCH  16  19
HETATM   19  C   UNL     1      -6.885  11.253  70.577  1.00  0.00     0.858 A  
HETATM   20  C   UNL     1      -5.647  11.306  71.228  1.00  0.00     0.120 A  
HETATM   21  C   UNL     1      -5.333  12.399  72.028  1.00  0.00     0.288 A  
HETATM   22  C   UNL     1      -6.289  13.387  72.270  1.00  0.00     2.167 A  
HETATM   23  C   UNL     1      -7.564  13.364  71.664  1.00  0.00     7.240 A  
HETATM   24  C   UNL     1      -9.014  12.394  69.795  1.00  0.00     2.422 C  
HETATM   25  C   UNL     1      -7.803  12.340  70.704  1.00  0.00     5.236 A  
BRANCH  23  26
HETATM   26  C   UNL     1      -8.606  14.335  72.121  1.00  0.00     8.028 A  
HETATM   27  C   UNL     1      -8.287  15.640  72.534  1.00  0.00    10.063 A  
HETATM   28  C   UNL     1      -9.271  16.513  73.021  1.00  0.00    14.181 A  
HETATM   29  C   UNL     1     -10.612  16.131  73.077  1.00  0.00     3.966 A  
HETATM   30  C   UNL     1     -10.951  14.833  72.717  1.00  0.00     1.391 A  
HETATM   31  C   UNL     1      -9.957  13.955  72.262  1.00  0.00     8.481 A  
BRANCH  29  32
HETATM   32  O   UNL     1     -11.460  17.086  73.546  1.00  0.00     0.180 OA 
HETATM   33  C   UNL     1     -11.692  18.247  72.761  1.00  0.00     3.672 C  
HETATM   34  F   UNL     1     -12.941  18.204  72.249  1.00  0.00     6.876 F  
HETATM   35  F   UNL     1     -10.811  18.417  71.753  1.00  0.00     1.057 F  
HETATM   36  F   UNL     1     -11.607  19.328  73.569  1.00  0.00     2.178 F  
ENDBRANCH  29  32
ENDBRANCH  23  26
ENDBRANCH  16  19
ENDBRANCH  12  15
ENDBRANCH   4   9
TORSDOF 5
ENDMDL
