MODEL        1
REMARK 921   NORMALIZED FREE ENERGY PREDICTED BY IDOCK:   -8.37 KCAL/MOL
REMARK 922        TOTAL FREE ENERGY PREDICTED BY IDOCK:  -13.64 KCAL/MOL
REMARK 923 INTER-LIGAND FREE ENERGY PREDICTED BY IDOCK:  -11.80 KCAL/MOL
REMARK 924 INTRA-LIGAND FREE ENERGY PREDICTED BY IDOCK:   -1.85 KCAL/MOL
REMARK 927      BINDING AFFINITY PREDICTED BY RF-SCORE:    0.00 PKD
ROOT
HETATM    1  C   UNL     1     -10.496  17.286  66.397  1.00  0.00    -0.263 C  
HETATM    2  N   UNL     1     -10.627  15.933  65.932  1.00  0.00    -0.336 N  
HETATM    3  C   UNL     1     -11.191  15.646  64.707  1.00  0.00    -0.382 C  
HETATM    4  H   UNL     1     -10.296  15.169  66.519  1.00  0.00     0.000 HD 
HETATM    5  O   UNL     1     -11.628  16.502  63.945  1.00  0.00    -1.175 OA 
ENDROOT
BRANCH   3   6
HETATM    6  C   UNL     1     -11.218  14.191  64.343  1.00  0.00    -0.278 A  
HETATM    7  N   UNL     1     -12.313  13.737  63.672  1.00  0.00    -0.729 NA 
HETATM    8  C   UNL     1     -12.345  12.410  63.415  1.00  0.00    -0.499 A  
HETATM    9  C   UNL     1     -11.367  11.513  63.826  1.00  0.00    -0.420 A  
HETATM   10  C   UNL     1     -10.275  12.009  64.530  1.00  0.00    -0.286 A  
HETATM   11  C   UNL     1     -10.169  13.382  64.745  1.00  0.00    -0.339 A  
BRANCH  10  12
HETATM   12  O   UNL     1      -9.338  11.091  64.971  1.00  0.00    -0.214 OA 
BRANCH  12  13
HETATM   13  C   UNL     1      -9.618  10.382  66.122  1.00  0.00    -0.196 A  
HETATM   14  C   UNL     1     -10.152   9.099  66.096  1.00  0.00    -0.278 A  
HETATM   15  C   UNL     1     -10.557   8.493  67.280  1.00  0.00    -0.315 A  
HETATM   16  C   UNL     1     -10.331   9.087  68.527  1.00  0.00    -0.203 A  
HETATM   17  C   UNL     1      -9.710  10.339  68.555  1.00  0.00    -0.167 A  
HETATM   18  C   UNL     1      -9.353  10.983  67.354  1.00  0.00    -0.165 A  
BRANCH  16  19
HETATM   19  N   UNL     1     -10.717   8.462  69.743  1.00  0.00    -0.256 N  
HETATM   20  H   UNL     1     -10.708   7.443  69.791  1.00  0.00     0.000 HD 
BRANCH  19  21
HETATM   21  C   UNL     1     -11.105   9.176  70.871  1.00  0.00    -0.291 C  
HETATM   22  O   UNL     1     -10.421   9.242  71.884  1.00  0.00    -0.305 OA 
BRANCH  21  23
HETATM   23  N   UNL     1     -12.337   9.794  70.753  1.00  0.00    -0.427 N  
HETATM   24  H   UNL     1     -13.146   9.220  70.516  1.00  0.00     0.000 HD 
BRANCH  23  25
HETATM   25  C   UNL     1     -12.531  11.197  70.947  1.00  0.00    -0.409 A  
HETATM   26  C   UNL     1     -11.939  12.166  70.128  1.00  0.00    -0.394 A  
HETATM   27  C   UNL     1     -12.043  13.544  70.382  1.00  0.00    -0.415 A  
HETATM   28  C   UNL     1     -11.294  14.514  69.509  1.00  0.00    -0.275 C  
HETATM   29  C   UNL     1     -12.827  13.953  71.457  1.00  0.00    -0.361 A  
HETATM   30  F   UNL     1     -10.413  15.288  70.204  1.00  0.00    -0.273 F  
HETATM   31  F   UNL     1     -12.114  15.372  68.841  1.00  0.00    -0.346 F  
HETATM   32  F   UNL     1     -10.546  13.910  68.539  1.00  0.00    -0.225 F  
HETATM   33 CL   UNL     1     -13.044  15.619  71.846  1.00  0.00    -0.524 Cl 
HETATM   34  C   UNL     1     -13.474  13.001  72.258  1.00  0.00    -0.645 A  
HETATM   35  C   UNL     1     -13.325  11.629  72.010  1.00  0.00    -0.405 A  
ENDBRANCH  23  25
ENDBRANCH  21  23
ENDBRANCH  19  21
ENDBRANCH  16  19
ENDBRANCH  12  13
ENDBRANCH  10  12
ENDBRANCH   3   6
TORSDOF 7
ENDMDL
MODEL        2
REMARK 921   NORMALIZED FREE ENERGY PREDICTED BY IDOCK:   -7.81 KCAL/MOL
REMARK 922        TOTAL FREE ENERGY PREDICTED BY IDOCK:  -12.86 KCAL/MOL
REMARK 923 INTER-LIGAND FREE ENERGY PREDICTED BY IDOCK:  -11.56 KCAL/MOL
REMARK 924 INTRA-LIGAND FREE ENERGY PREDICTED BY IDOCK:   -1.30 KCAL/MOL
REMARK 927      BINDING AFFINITY PREDICTED BY RF-SCORE:    0.00 PKD
ROOT
HETATM    1  C   UNL     1     -13.721   9.099  72.425  1.00  0.00    -0.480 C  
HETATM    2  N   UNL     1     -13.637  10.521  72.239  1.00  0.00    -0.506 N  
HETATM    3  C   UNL     1     -12.712  11.081  71.384  1.00  0.00    -0.429 C  
HETATM    4  H   UNL     1     -14.275  11.130  72.750  1.00  0.00     0.000 HD 
HETATM    5  O   UNL     1     -11.898  10.424  70.743  1.00  0.00    -0.312 OA 
ENDROOT
BRANCH   3   6
HETATM    6  C   UNL     1     -12.777  12.574  71.264  1.00  0.00    -0.252 A  
HETATM    7  N   UNL     1     -13.721  13.219  72.006  1.00  0.00    -0.462 NA 
HETATM    8  C   UNL     1     -13.805  14.557  71.829  1.00  0.00    -0.441 A  
HETATM    9  C   UNL     1     -13.030  15.273  70.926  1.00  0.00    -0.522 A  
HETATM   10  C   UNL     1     -12.094  14.579  70.168  1.00  0.00    -0.334 A  
HETATM   11  C   UNL     1     -11.924  13.212  70.379  1.00  0.00    -0.343 A  
BRANCH  10  12
HETATM   12  O   UNL     1     -11.367  15.306  69.241  1.00  0.00    -0.260 OA 
BRANCH  12  13
HETATM   13  C   UNL     1     -11.515  14.983  67.907  1.00  0.00    -0.340 A  
HETATM   14  C   UNL     1     -12.381  13.987  67.471  1.00  0.00    -0.112 A  
HETATM   15  C   UNL     1     -12.377  13.600  66.136  1.00  0.00    -0.476 A  
HETATM   16  C   UNL     1     -11.608  14.270  65.177  1.00  0.00    -0.355 A  
HETATM   17  C   UNL     1     -10.806  15.332  65.603  1.00  0.00    -0.371 A  
HETATM   18  C   UNL     1     -10.762  15.689  66.965  1.00  0.00    -0.314 A  
BRANCH  16  19
HETATM   19  N   UNL     1     -11.620  13.898  63.806  1.00  0.00    -0.617 N  
HETATM   20  H   UNL     1     -11.444  14.618  63.105  1.00  0.00     0.000 HD 
BRANCH  19  21
HETATM   21  C   UNL     1     -11.859  12.599  63.376  1.00  0.00    -0.514 C  
HETATM   22  O   UNL     1     -12.980  12.108  63.333  1.00  0.00    -0.776 OA 
BRANCH  21  23
HETATM   23  N   UNL     1     -10.720  11.904  63.012  1.00  0.00    -0.675 N  
HETATM   24  H   UNL     1     -10.307  12.094  62.098  1.00  0.00     0.000 HD 
BRANCH  23  25
HETATM   25  C   UNL     1     -10.092  10.933  63.852  1.00  0.00    -0.361 A  
HETATM   26  C   UNL     1     -10.541  10.644  65.146  1.00  0.00    -0.190 A  
HETATM   27  C   UNL     1      -9.861   9.769  66.011  1.00  0.00    -0.342 A  
HETATM   28  C   UNL     1     -10.358   9.591  67.420  1.00  0.00    -0.258 C  
HETATM   29  C   UNL     1      -8.733   9.115  65.524  1.00  0.00    -0.181 A  
HETATM   30  F   UNL     1      -9.429   9.924  68.360  1.00  0.00    -0.134 F  
HETATM   31  F   UNL     1     -10.737   8.311  67.692  1.00  0.00    -0.301 F  
HETATM   32  F   UNL     1     -11.450  10.355  67.715  1.00  0.00    -0.376 F  
HETATM   33 CL   UNL     1      -7.837   8.002  66.489  1.00  0.00    -0.096 Cl 
HETATM   34  C   UNL     1      -8.297   9.348  64.212  1.00  0.00    -0.176 A  
HETATM   35  C   UNL     1      -8.967  10.255  63.379  1.00  0.00    -0.254 A  
ENDBRANCH  23  25
ENDBRANCH  21  23
ENDBRANCH  19  21
ENDBRANCH  16  19
ENDBRANCH  12  13
ENDBRANCH  10  12
ENDBRANCH   3   6
TORSDOF 7
ENDMDL
MODEL        3
REMARK 921   NORMALIZED FREE ENERGY PREDICTED BY IDOCK:   -7.76 KCAL/MOL
REMARK 922        TOTAL FREE ENERGY PREDICTED BY IDOCK:  -12.78 KCAL/MOL
REMARK 923 INTER-LIGAND FREE ENERGY PREDICTED BY IDOCK:  -11.97 KCAL/MOL
REMARK 924 INTRA-LIGAND FREE ENERGY PREDICTED BY IDOCK:   -0.81 KCAL/MOL
REMARK 927      BINDING AFFINITY PREDICTED BY RF-SCORE:    0.00 PKD
ROOT
HETATM    1  C   UNL     1     -11.365   5.184  72.947  1.00  0.00    -0.282 C  
HETATM    2  N   UNL     1     -11.526   6.586  72.681  1.00  0.00    -0.417 N  
HETATM    3  C   UNL     1     -11.654   7.063  71.394  1.00  0.00    -0.292 C  
HETATM    4  H   UNL     1     -11.546   7.243  73.460  1.00  0.00     0.000 HD 
HETATM    5  O   UNL     1     -11.626   6.346  70.400  1.00  0.00    -0.386 OA 
ENDROOT
BRANCH   3   6
HETATM    6  C   UNL     1     -11.859   8.545  71.281  1.00  0.00    -0.291 A  
HETATM    7  N   UNL     1     -12.968   9.067  71.877  1.00  0.00    -0.360 NA 
HETATM    8  C   UNL     1     -13.166  10.394  71.704  1.00  0.00    -0.400 A  
HETATM    9  C   UNL     1     -12.344  11.211  70.938  1.00  0.00    -0.500 A  
HETATM   10  C   UNL     1     -11.235  10.639  70.326  1.00  0.00    -0.285 A  
HETATM   11  C   UNL     1     -10.954   9.291  70.545  1.00  0.00    -0.318 A  
BRANCH  10  12
HETATM   12  O   UNL     1     -10.458  11.461  69.529  1.00  0.00    -0.083 OA 
BRANCH  12  13
HETATM   13  C   UNL     1     -11.066  12.092  68.462  1.00  0.00    -0.244 A  
HETATM   14  C   UNL     1     -11.203  11.487  67.218  1.00  0.00    -0.365 A  
HETATM   15  C   UNL     1     -11.685  12.221  66.140  1.00  0.00    -0.440 A  
HETATM   16  C   UNL     1     -12.157  13.530  66.292  1.00  0.00    -0.428 A  
HETATM   17  C   UNL     1     -12.103  14.104  67.565  1.00  0.00    -0.363 A  
HETATM   18  C   UNL     1     -11.561  13.385  68.647  1.00  0.00    -0.362 A  
BRANCH  16  19
HETATM   19  N   UNL     1     -12.676  14.277  65.201  1.00  0.00    -0.632 N  
HETATM   20  H   UNL     1     -13.601  14.037  64.842  1.00  0.00     0.000 HD 
BRANCH  19  21
HETATM   21  C   UNL     1     -11.982  15.320  64.600  1.00  0.00    -0.233 C  
HETATM   22  O   UNL     1     -12.531  16.186  63.930  1.00  0.00    -0.824 OA 
BRANCH  21  23
HETATM   23  N   UNL     1     -10.616  15.289  64.814  1.00  0.00    -0.553 N  
HETATM   24  H   UNL     1     -10.053  14.642  64.261  1.00  0.00     0.000 HD 
BRANCH  23  25
HETATM   25  C   UNL     1      -9.954  16.118  65.772  1.00  0.00    -0.340 A  
HETATM   26  C   UNL     1     -10.387  17.412  66.085  1.00  0.00    -0.329 A  
HETATM   27  C   UNL     1      -9.675  18.265  66.946  1.00  0.00    -0.317 A  
HETATM   28  C   UNL     1     -10.158  19.676  67.151  1.00  0.00    -0.411 C  
HETATM   29  C   UNL     1      -8.531  17.766  67.561  1.00  0.00    -0.227 A  
HETATM   30  F   UNL     1      -9.233  20.613  66.797  1.00  0.00    -0.422 F  
HETATM   31  F   UNL     1     -10.496  19.940  68.444  1.00  0.00    -0.528 F  
HETATM   32  F   UNL     1     -11.271  19.983  66.423  1.00  0.00    -0.428 F  
HETATM   33 CL   UNL     1      -7.595  18.717  68.655  1.00  0.00    -0.345 Cl 
HETATM   34  C   UNL     1      -8.110  16.454  67.305  1.00  0.00    -0.198 A  
HETATM   35  C   UNL     1      -8.812  15.632  66.412  1.00  0.00    -0.365 A  
ENDBRANCH  23  25
ENDBRANCH  21  23
ENDBRANCH  19  21
ENDBRANCH  16  19
ENDBRANCH  12  13
ENDBRANCH  10  12
ENDBRANCH   3   6
TORSDOF 7
ENDMDL
MODEL        4
REMARK 921   NORMALIZED FREE ENERGY PREDICTED BY IDOCK:   -7.65 KCAL/MOL
REMARK 922        TOTAL FREE ENERGY PREDICTED BY IDOCK:  -12.63 KCAL/MOL
REMARK 923 INTER-LIGAND FREE ENERGY PREDICTED BY IDOCK:  -11.77 KCAL/MOL
REMARK 924 INTRA-LIGAND FREE ENERGY PREDICTED BY IDOCK:   -0.86 KCAL/MOL
REMARK 927      BINDING AFFINITY PREDICTED BY RF-SCORE:    0.00 PKD
ROOT
HETATM    1  C   UNL     1     -11.596   5.033  73.023  1.00  0.00    -0.216 C  
HETATM    2  N   UNL     1     -11.719   6.429  72.708  1.00  0.00    -0.499 N  
HETATM    3  C   UNL     1     -11.690   6.878  71.405  1.00  0.00    -0.316 C  
HETATM    4  H   UNL     1     -11.831   7.104  73.464  1.00  0.00     0.000 HD 
HETATM    5  O   UNL     1     -11.545   6.138  70.437  1.00  0.00    -0.343 OA 
ENDROOT
BRANCH   3   6
HETATM    6  C   UNL     1     -11.875   8.356  71.235  1.00  0.00    -0.289 A  
HETATM    7  N   UNL     1     -13.011   8.905  71.750  1.00  0.00    -0.345 NA 
HETATM    8  C   UNL     1     -13.187  10.227  71.525  1.00  0.00    -0.386 A  
HETATM    9  C   UNL     1     -12.315  11.014  70.783  1.00  0.00    -0.496 A  
HETATM   10  C   UNL     1     -11.178  10.415  70.253  1.00  0.00    -0.320 A  
HETATM   11  C   UNL     1     -10.922   9.072  70.529  1.00  0.00    -0.295 A  
BRANCH  10  12
HETATM   12  O   UNL     1     -10.350  11.206  69.478  1.00  0.00    -0.129 OA 
BRANCH  12  13
HETATM   13  C   UNL     1     -10.928  11.969  68.482  1.00  0.00    -0.240 A  
HETATM   14  C   UNL     1     -11.425  13.246  68.714  1.00  0.00    -0.346 A  
HETATM   15  C   UNL     1     -12.133  13.907  67.717  1.00  0.00    -0.328 A  
HETATM   16  C   UNL     1     -12.261  13.375  66.429  1.00  0.00    -0.376 A  
HETATM   17  C   UNL     1     -11.680  12.129  66.172  1.00  0.00    -0.384 A  
HETATM   18  C   UNL     1     -11.014  11.430  67.197  1.00  0.00    -0.340 A  
BRANCH  16  19
HETATM   19  N   UNL     1     -12.959  14.056  65.396  1.00  0.00    -0.743 N  
HETATM   20  H   UNL     1     -13.915  14.363  65.575  1.00  0.00     0.000 HD 
BRANCH  19  21
HETATM   21  C   UNL     1     -12.398  14.322  64.152  1.00  0.00    -0.327 C  
HETATM   22  O   UNL     1     -12.448  13.533  63.218  1.00  0.00    -0.763 OA 
BRANCH  21  23
HETATM   23  N   UNL     1     -11.770  15.551  64.067  1.00  0.00    -0.924 N  
HETATM   24  H   UNL     1     -11.970  16.143  63.260  1.00  0.00     0.000 HD 
BRANCH  23  25
HETATM   25  C   UNL     1     -10.853  16.033  65.052  1.00  0.00    -0.404 A  
HETATM   26  C   UNL     1     -11.009  17.266  65.697  1.00  0.00     0.108 A  
HETATM   27  C   UNL     1     -10.052  17.786  66.585  1.00  0.00    -0.350 A  
HETATM   28  C   UNL     1     -10.251  19.163  67.159  1.00  0.00    -0.401 C  
HETATM   29  C   UNL     1      -8.940  17.003  66.881  1.00  0.00    -0.229 A  
HETATM   30  F   UNL     1      -9.233  20.019  66.859  1.00  0.00    -0.376 F  
HETATM   31  F   UNL     1     -10.364  19.163  68.516  1.00  0.00    -0.423 F  
HETATM   32  F   UNL     1     -11.380  19.785  66.709  1.00  0.00    -0.464 F  
HETATM   33 CL   UNL     1      -7.717  17.532  67.977  1.00  0.00    -0.205 Cl 
HETATM   34  C   UNL     1      -8.792  15.741  66.289  1.00  0.00    -0.378 A  
HETATM   35  C   UNL     1      -9.738  15.257  65.375  1.00  0.00    -0.243 A  
ENDBRANCH  23  25
ENDBRANCH  21  23
ENDBRANCH  19  21
ENDBRANCH  16  19
ENDBRANCH  12  13
ENDBRANCH  10  12
ENDBRANCH   3   6
TORSDOF 7
ENDMDL
MODEL        5
REMARK 921   NORMALIZED FREE ENERGY PREDICTED BY IDOCK:   -7.59 KCAL/MOL
REMARK 922        TOTAL FREE ENERGY PREDICTED BY IDOCK:  -12.54 KCAL/MOL
REMARK 923 INTER-LIGAND FREE ENERGY PREDICTED BY IDOCK:  -11.23 KCAL/MOL
REMARK 924 INTRA-LIGAND FREE ENERGY PREDICTED BY IDOCK:   -1.31 KCAL/MOL
REMARK 927      BINDING AFFINITY PREDICTED BY RF-SCORE:    0.00 PKD
ROOT
HETATM    1  C   UNL     1     -12.443  16.384  73.523  1.00  0.00    -0.459 C  
HETATM    2  N   UNL     1     -12.365  15.051  72.993  1.00  0.00    -0.370 N  
HETATM    3  C   UNL     1     -13.077  14.679  71.874  1.00  0.00    -0.333 C  
HETATM    4  H   UNL     1     -11.768  14.365  73.455  1.00  0.00     0.000 HD 
HETATM    5  O   UNL     1     -13.827  15.436  71.266  1.00  0.00    -0.498 OA 
ENDROOT
BRANCH   3   6
HETATM    6  C   UNL     1     -12.856  13.268  71.417  1.00  0.00    -0.322 A  
HETATM    7  N   UNL     1     -13.490  12.282  72.111  1.00  0.00    -0.461 NA 
HETATM    8  C   UNL     1     -13.221  11.015  71.723  1.00  0.00    -0.400 A  
HETATM    9  C   UNL     1     -12.328  10.682  70.713  1.00  0.00    -0.472 A  
HETATM   10  C   UNL     1     -11.680  11.714  70.042  1.00  0.00    -0.321 A  
HETATM   11  C   UNL     1     -11.990  13.035  70.361  1.00  0.00    -0.337 A  
BRANCH  10  12
HETATM   12  O   UNL     1     -10.759  11.357  69.074  1.00  0.00    -0.205 OA 
BRANCH  12  13
HETATM   13  C   UNL     1     -10.609  12.193  67.985  1.00  0.00    -0.210 A  
HETATM   14  C   UNL     1      -9.445  12.916  67.754  1.00  0.00    -0.202 A  
HETATM   15  C   UNL     1      -9.404  13.857  66.731  1.00  0.00    -0.286 A  
HETATM   16  C   UNL     1     -10.467  14.017  65.835  1.00  0.00    -0.309 A  
HETATM   17  C   UNL     1     -11.603  13.222  66.014  1.00  0.00    -0.384 A  
HETATM   18  C   UNL     1     -11.671  12.311  67.086  1.00  0.00    -0.396 A  
BRANCH  16  19
HETATM   19  N   UNL     1     -10.422  14.956  64.770  1.00  0.00    -0.544 N  
HETATM   20  H   UNL     1      -9.860  14.734  63.948  1.00  0.00     0.000 HD 
BRANCH  19  21
HETATM   21  C   UNL     1     -11.111  16.163  64.796  1.00  0.00    -0.333 C  
HETATM   22  O   UNL     1     -11.727  16.599  63.831  1.00  0.00    -1.153 OA 
BRANCH  21  23
HETATM   23  N   UNL     1     -11.029  16.836  66.001  1.00  0.00     0.012 N  
HETATM   24  H   UNL     1     -11.707  16.611  66.729  1.00  0.00     0.000 HD 
BRANCH  23  25
HETATM   25  C   UNL     1     -10.040  17.831  66.278  1.00  0.00    -0.344 A  
HETATM   26  C   UNL     1      -8.789  17.526  66.827  1.00  0.00    -0.275 A  
HETATM   27  C   UNL     1      -7.859  18.513  67.199  1.00  0.00    -0.236 A  
HETATM   28  C   UNL     1      -6.578  18.103  67.873  1.00  0.00    -0.195 C  
HETATM   29  C   UNL     1      -8.181  19.843  66.941  1.00  0.00    -0.318 A  
HETATM   30  F   UNL     1      -6.423  18.660  69.107  1.00  0.00    -0.237 F  
HETATM   31  F   UNL     1      -5.469  18.441  67.157  1.00  0.00    -0.129 F  
HETATM   32  F   UNL     1      -6.474  16.757  68.075  1.00  0.00    -0.130 F  
HETATM   33 CL   UNL     1      -7.105  21.133  67.333  1.00  0.00    -0.403 Cl 
HETATM   34  C   UNL     1      -9.406  20.167  66.342  1.00  0.00    -0.446 A  
HETATM   35  C   UNL     1     -10.335  19.169  66.015  1.00  0.00    -0.538 A  
ENDBRANCH  23  25
ENDBRANCH  21  23
ENDBRANCH  19  21
ENDBRANCH  16  19
ENDBRANCH  12  13
ENDBRANCH  10  12
ENDBRANCH   3   6
TORSDOF 7
ENDMDL
MODEL        6
REMARK 921   NORMALIZED FREE ENERGY PREDICTED BY IDOCK:   -7.44 KCAL/MOL
REMARK 922        TOTAL FREE ENERGY PREDICTED BY IDOCK:  -12.33 KCAL/MOL
REMARK 923 INTER-LIGAND FREE ENERGY PREDICTED BY IDOCK:  -10.53 KCAL/MOL
REMARK 924 INTRA-LIGAND FREE ENERGY PREDICTED BY IDOCK:   -1.79 KCAL/MOL
REMARK 927      BINDING AFFINITY PREDICTED BY RF-SCORE:    0.00 PKD
ROOT
HETATM    1  C   UNL     1     -13.431  15.270  71.189  1.00  0.00    -0.489 C  
HETATM    2  N   UNL     1     -12.916  13.943  70.999  1.00  0.00    -0.312 N  
HETATM    3  C   UNL     1     -13.394  12.875  71.726  1.00  0.00    -0.359 C  
HETATM    4  H   UNL     1     -12.180  13.787  70.310  1.00  0.00     0.000 HD 
HETATM    5  O   UNL     1     -14.266  12.975  72.583  1.00  0.00    -0.609 OA 
ENDROOT
BRANCH   3   6
HETATM    6  C   UNL     1     -12.789  11.547  71.382  1.00  0.00    -0.384 A  
HETATM    7  N   UNL     1     -13.328  10.444  71.973  1.00  0.00    -0.410 NA 
HETATM    8  C   UNL     1     -12.722   9.266  71.700  1.00  0.00    -0.364 A  
HETATM    9  C   UNL     1     -11.590   9.139  70.906  1.00  0.00    -0.350 A  
HETATM   10  C   UNL     1     -11.052  10.288  70.339  1.00  0.00    -0.319 A  
HETATM   11  C   UNL     1     -11.695  11.510  70.534  1.00  0.00    -0.248 A  
BRANCH  10  12
HETATM   12  O   UNL     1      -9.896  10.144  69.592  1.00  0.00    -0.224 OA 
BRANCH  12  13
HETATM   13  C   UNL     1      -9.886  10.656  68.310  1.00  0.00    -0.163 A  
HETATM   14  C   UNL     1      -8.998  11.647  67.909  1.00  0.00    -0.170 A  
HETATM   15  C   UNL     1      -9.132  12.234  66.656  1.00  0.00    -0.203 A  
HETATM   16  C   UNL     1     -10.067  11.771  65.722  1.00  0.00    -0.237 A  
HETATM   17  C   UNL     1     -10.898  10.711  66.096  1.00  0.00    -0.069 A  
HETATM   18  C   UNL     1     -10.806  10.155  67.386  1.00  0.00    -0.323 A  
BRANCH  16  19
HETATM   19  N   UNL     1     -10.191  12.346  64.429  1.00  0.00    -0.405 N  
HETATM   20  H   UNL     1      -9.434  12.208  63.759  1.00  0.00     0.000 HD 
BRANCH  19  21
HETATM   21  C   UNL     1     -11.298  13.089  64.035  1.00  0.00    -0.410 C  
HETATM   22  O   UNL     1     -12.306  12.580  63.560  1.00  0.00    -0.554 OA 
BRANCH  21  23
HETATM   23  N   UNL     1     -11.157  14.453  64.214  1.00  0.00    -0.605 N  
HETATM   24  H   UNL     1     -11.121  15.049  63.387  1.00  0.00     0.000 HD 
BRANCH  23  25
HETATM   25  C   UNL     1     -11.059  15.068  65.500  1.00  0.00    -0.357 A  
HETATM   26  C   UNL     1     -10.202  16.144  65.764  1.00  0.00    -0.397 A  
HETATM   27  C   UNL     1     -10.026  16.679  67.053  1.00  0.00    -0.271 A  
HETATM   28  C   UNL     1      -9.012  17.769  67.266  1.00  0.00    -0.246 C  
HETATM   29  C   UNL     1     -10.793  16.153  68.088  1.00  0.00    -0.329 A  
HETATM   30  F   UNL     1      -8.048  17.433  68.168  1.00  0.00    -0.203 F  
HETATM   31  F   UNL     1      -9.566  18.931  67.711  1.00  0.00    -0.305 F  
HETATM   32  F   UNL     1      -8.332  18.112  66.132  1.00  0.00    -0.275 F  
HETATM   33 CL   UNL     1     -10.676  16.750  69.702  1.00  0.00    -0.302 Cl 
HETATM   34  C   UNL     1     -11.697  15.112  67.835  1.00  0.00    -0.275 A  
HETATM   35  C   UNL     1     -11.829  14.567  66.551  1.00  0.00    -0.367 A  
ENDBRANCH  23  25
ENDBRANCH  21  23
ENDBRANCH  19  21
ENDBRANCH  16  19
ENDBRANCH  12  13
ENDBRANCH  10  12
ENDBRANCH   3   6
TORSDOF 7
ENDMDL
MODEL        7
REMARK 921   NORMALIZED FREE ENERGY PREDICTED BY IDOCK:   -7.38 KCAL/MOL
REMARK 922        TOTAL FREE ENERGY PREDICTED BY IDOCK:  -12.25 KCAL/MOL
REMARK 923 INTER-LIGAND FREE ENERGY PREDICTED BY IDOCK:  -10.69 KCAL/MOL
REMARK 924 INTRA-LIGAND FREE ENERGY PREDICTED BY IDOCK:   -1.55 KCAL/MOL
REMARK 927      BINDING AFFINITY PREDICTED BY RF-SCORE:    0.00 PKD
ROOT
HETATM    1  C   UNL     1     -13.005   9.484  71.979  1.00  0.00    -0.426 C  
HETATM    2  N   UNL     1     -12.446   9.209  70.684  1.00  0.00    -0.487 N  
HETATM    3  C   UNL     1     -11.084   9.142  70.489  1.00  0.00    -0.260 C  
HETATM    4  H   UNL     1     -13.071   9.059  69.893  1.00  0.00     0.000 HD 
HETATM    5  O   UNL     1     -10.262   9.324  71.381  1.00  0.00    -0.320 OA 
ENDROOT
BRANCH   3   6
HETATM    6  C   UNL     1     -10.656   8.802  69.092  1.00  0.00    -0.184 A  
HETATM    7  N   UNL     1     -10.103   7.573  68.891  1.00  0.00    -0.186 NA 
HETATM    8  C   UNL     1      -9.664   7.317  67.638  1.00  0.00    -0.142 A  
HETATM    9  C   UNL     1      -9.711   8.231  66.594  1.00  0.00    -0.321 A  
HETATM   10  C   UNL     1     -10.261   9.484  66.841  1.00  0.00    -0.249 A  
HETATM   11  C   UNL     1     -10.795   9.758  68.099  1.00  0.00    -0.264 A  
BRANCH  10  12
HETATM   12  O   UNL     1     -10.253  10.394  65.799  1.00  0.00    -0.260 OA 
BRANCH  12  13
HETATM   13  C   UNL     1      -9.824  11.679  66.066  1.00  0.00    -0.230 A  
HETATM   14  C   UNL     1      -8.746  11.947  66.901  1.00  0.00    -0.191 A  
HETATM   15  C   UNL     1      -8.453  13.259  67.255  1.00  0.00    -0.203 A  
HETATM   16  C   UNL     1      -9.139  14.344  66.698  1.00  0.00    -0.240 A  
HETATM   17  C   UNL     1     -10.164  14.074  65.786  1.00  0.00    -0.343 A  
HETATM   18  C   UNL     1     -10.503  12.744  65.470  1.00  0.00    -0.306 A  
BRANCH  16  19
HETATM   19  N   UNL     1      -8.828  15.689  67.033  1.00  0.00    -0.209 N  
HETATM   20  H   UNL     1      -8.395  16.280  66.324  1.00  0.00     0.000 HD 
BRANCH  19  21
HETATM   21  C   UNL     1      -9.086  16.235  68.285  1.00  0.00    -0.197 C  
HETATM   22  O   UNL     1      -8.206  16.465  69.105  1.00  0.00    -0.240 OA 
BRANCH  21  23
HETATM   23  N   UNL     1     -10.424  16.486  68.528  1.00  0.00    -0.282 N  
HETATM   24  H   UNL     1     -10.879  17.237  68.008  1.00  0.00     0.000 HD 
BRANCH  23  25
HETATM   25  C   UNL     1     -11.202  15.746  69.472  1.00  0.00    -0.317 A  
HETATM   26  C   UNL     1     -11.471  16.210  70.764  1.00  0.00    -0.408 A  
HETATM   27  C   UNL     1     -12.144  15.437  71.727  1.00  0.00    -0.461 A  
HETATM   28  C   UNL     1     -12.305  15.974  73.123  1.00  0.00    -0.531 C  
HETATM   29  C   UNL     1     -12.616  14.184  71.344  1.00  0.00    -0.368 A  
HETATM   30  F   UNL     1     -11.741  15.174  74.071  1.00  0.00    -0.556 F  
HETATM   31  F   UNL     1     -13.609  16.135  73.483  1.00  0.00    -0.639 F  
HETATM   32  F   UNL     1     -11.732  17.199  73.306  1.00  0.00    -0.491 F  
HETATM   33 CL   UNL     1     -13.475  13.162  72.436  1.00  0.00    -0.667 Cl 
HETATM   34  C   UNL     1     -12.404  13.722  70.038  1.00  0.00    -0.364 A  
HETATM   35  C   UNL     1     -11.698  14.493  69.105  1.00  0.00    -0.349 A  
ENDBRANCH  23  25
ENDBRANCH  21  23
ENDBRANCH  19  21
ENDBRANCH  16  19
ENDBRANCH  12  13
ENDBRANCH  10  12
ENDBRANCH   3   6
TORSDOF 7
ENDMDL
MODEL        8
REMARK 921   NORMALIZED FREE ENERGY PREDICTED BY IDOCK:   -7.32 KCAL/MOL
REMARK 922        TOTAL FREE ENERGY PREDICTED BY IDOCK:  -12.16 KCAL/MOL
REMARK 923 INTER-LIGAND FREE ENERGY PREDICTED BY IDOCK:  -10.54 KCAL/MOL
REMARK 924 INTRA-LIGAND FREE ENERGY PREDICTED BY IDOCK:   -1.62 KCAL/MOL
REMARK 927      BINDING AFFINITY PREDICTED BY RF-SCORE:    0.00 PKD
ROOT
HETATM    1  C   UNL     1     -12.093  14.853  64.279  1.00  0.00    -0.353 C  
HETATM    2  N   UNL     1     -11.124  13.797  64.190  1.00  0.00    -0.587 N  
HETATM    3  C   UNL     1     -11.498  12.497  63.927  1.00  0.00    -0.437 C  
HETATM    4  H   UNL     1     -10.136  14.014  64.324  1.00  0.00     0.000 HD 
HETATM    5  O   UNL     1     -12.663  12.148  63.767  1.00  0.00    -0.661 OA 
ENDROOT
BRANCH   3   6
HETATM    6  C   UNL     1     -10.368  11.517  63.821  1.00  0.00    -0.399 A  
HETATM    7  N   UNL     1     -10.111  10.994  62.589  1.00  0.00    -0.073 NA 
HETATM    8  C   UNL     1      -9.132  10.063  62.532  1.00  0.00    -0.292 A  
HETATM    9  C   UNL     1      -8.431   9.600  63.638  1.00  0.00    -0.189 A  
HETATM   10  C   UNL     1      -8.737  10.139  64.883  1.00  0.00    -0.181 A  
HETATM   11  C   UNL     1      -9.685  11.158  64.970  1.00  0.00    -0.298 A  
BRANCH  10  12
HETATM   12  O   UNL     1      -8.060   9.629  65.976  1.00  0.00    -0.110 OA 
BRANCH  12  13
HETATM   13  C   UNL     1      -8.807   9.117  67.019  1.00  0.00    -0.123 A  
HETATM   14  C   UNL     1      -9.872   8.247  66.816  1.00  0.00    -0.333 A  
HETATM   15  C   UNL     1     -10.683   7.884  67.885  1.00  0.00    -0.147 A  
HETATM   16  C   UNL     1     -10.390   8.272  69.197  1.00  0.00    -0.217 A  
HETATM   17  C   UNL     1      -9.264   9.072  69.410  1.00  0.00    -0.150 A  
HETATM   18  C   UNL     1      -8.474   9.491  68.322  1.00  0.00    -0.119 A  
BRANCH  16  19
HETATM   19  N   UNL     1     -11.198   7.882  70.299  1.00  0.00    -0.380 N  
HETATM   20  H   UNL     1     -11.318   6.886  70.488  1.00  0.00     0.000 HD 
BRANCH  19  21
HETATM   21  C   UNL     1     -11.834   8.795  71.132  1.00  0.00    -0.295 C  
HETATM   22  O   UNL     1     -11.653   8.829  72.342  1.00  0.00    -0.352 OA 
BRANCH  21  23
HETATM   23  N   UNL     1     -12.697   9.654  70.476  1.00  0.00    -0.512 N  
HETATM   24  H   UNL     1     -13.587   9.284  70.141  1.00  0.00     0.000 HD 
BRANCH  23  25
HETATM   25  C   UNL     1     -12.404  11.033  70.244  1.00  0.00    -0.328 A  
HETATM   26  C   UNL     1     -12.673  12.036  71.184  1.00  0.00    -0.365 A  
HETATM   27  C   UNL     1     -12.484  13.403  70.914  1.00  0.00    -0.439 A  
HETATM   28  C   UNL     1     -12.891  14.420  71.945  1.00  0.00    -0.349 C  
HETATM   29  C   UNL     1     -11.941  13.757  69.682  1.00  0.00    -0.342 A  
HETATM   30  F   UNL     1     -13.823  15.302  71.486  1.00  0.00    -0.443 F  
HETATM   31  F   UNL     1     -11.846  15.168  72.396  1.00  0.00    -0.390 F  
HETATM   32  F   UNL     1     -13.444  13.871  73.066  1.00  0.00    -0.581 F  
HETATM   33 CL   UNL     1     -11.644  15.402  69.256  1.00  0.00    -0.328 Cl 
HETATM   34  C   UNL     1     -11.614  12.765  68.747  1.00  0.00    -0.353 A  
HETATM   35  C   UNL     1     -11.846  11.410  69.021  1.00  0.00    -0.415 A  
ENDBRANCH  23  25
ENDBRANCH  21  23
ENDBRANCH  19  21
ENDBRANCH  16  19
ENDBRANCH  12  13
ENDBRANCH  10  12
ENDBRANCH   3   6
TORSDOF 7
ENDMDL
MODEL        9
REMARK 921   NORMALIZED FREE ENERGY PREDICTED BY IDOCK:   -7.30 KCAL/MOL
REMARK 922        TOTAL FREE ENERGY PREDICTED BY IDOCK:  -12.13 KCAL/MOL
REMARK 923 INTER-LIGAND FREE ENERGY PREDICTED BY IDOCK:  -10.92 KCAL/MOL
REMARK 924 INTRA-LIGAND FREE ENERGY PREDICTED BY IDOCK:   -1.21 KCAL/MOL
REMARK 927      BINDING AFFINITY PREDICTED BY RF-SCORE:    0.00 PKD
ROOT
HETATM    1  C   UNL     1     -13.527  15.422  71.217  1.00  0.00    -0.519 C  
HETATM    2  N   UNL     1     -13.052  14.077  71.042  1.00  0.00    -0.305 N  
HETATM    3  C   UNL     1     -13.461  13.057  71.873  1.00  0.00    -0.408 C  
HETATM    4  H   UNL     1     -12.398  13.873  70.287  1.00  0.00     0.000 HD 
HETATM    5  O   UNL     1     -14.232  13.217  72.813  1.00  0.00    -0.661 OA 
ENDROOT
BRANCH   3   6
HETATM    6  C   UNL     1     -12.912  11.702  71.537  1.00  0.00    -0.358 A  
HETATM    7  N   UNL     1     -13.381  10.644  72.256  1.00  0.00    -0.267 NA 
HETATM    8  C   UNL     1     -12.823   9.444  71.980  1.00  0.00    -0.414 A  
HETATM    9  C   UNL     1     -11.799   9.254  71.061  1.00  0.00    -0.376 A  
HETATM   10  C   UNL     1     -11.329  10.360  70.363  1.00  0.00    -0.337 A  
HETATM   11  C   UNL     1     -11.934  11.600  70.562  1.00  0.00    -0.413 A  
BRANCH  10  12
HETATM   12  O   UNL     1     -10.277  10.155  69.488  1.00  0.00    -0.209 OA 
BRANCH  12  13
HETATM   13  C   UNL     1     -10.205  10.955  68.364  1.00  0.00    -0.178 A  
HETATM   14  C   UNL     1      -9.288  11.993  68.245  1.00  0.00    -0.197 A  
HETATM   15  C   UNL     1      -9.361  12.861  67.161  1.00  0.00    -0.229 A  
HETATM   16  C   UNL     1     -10.258  12.651  66.108  1.00  0.00    -0.258 A  
HETATM   17  C   UNL     1     -11.117  11.550  66.187  1.00  0.00    -0.302 A  
HETATM   18  C   UNL     1     -11.088  10.704  67.312  1.00  0.00    -0.313 A  
BRANCH  16  19
HETATM   19  N   UNL     1     -10.320  13.516  64.984  1.00  0.00    -0.415 N  
HETATM   20  H   UNL     1      -9.686  13.345  64.202  1.00  0.00     0.000 HD 
BRANCH  19  21
HETATM   21  C   UNL     1     -11.203  14.586  64.899  1.00  0.00    -0.391 C  
HETATM   22  O   UNL     1     -12.417  14.455  64.998  1.00  0.00    -0.436 OA 
BRANCH  21  23
HETATM   23  N   UNL     1     -10.593  15.808  64.682  1.00  0.00    -0.450 N  
HETATM   24  H   UNL     1     -10.674  16.233  63.758  1.00  0.00     0.000 HD 
BRANCH  23  25
HETATM   25  C   UNL     1      -9.854  16.505  65.688  1.00  0.00    -0.152 A  
HETATM   26  C   UNL     1     -10.381  17.584  66.406  1.00  0.00    -0.334 A  
HETATM   27  C   UNL     1      -9.620  18.337  67.318  1.00  0.00    -0.281 A  
HETATM   28  C   UNL     1     -10.236  19.542  67.975  1.00  0.00    -0.437 C  
HETATM   29  C   UNL     1      -8.308  17.939  67.558  1.00  0.00    -0.228 A  
HETATM   30  F   UNL     1      -9.555  20.695  67.719  1.00  0.00    -0.487 F  
HETATM   31  F   UNL     1     -10.307  19.431  69.331  1.00  0.00    -0.383 F  
HETATM   32  F   UNL     1     -11.516  19.789  67.571  1.00  0.00    -0.371 F  
HETATM   33 CL   UNL     1      -7.292  18.773  68.674  1.00  0.00    -0.323 Cl 
HETATM   34  C   UNL     1      -7.777  16.827  66.889  1.00  0.00    -0.254 A  
HETATM   35  C   UNL     1      -8.541  16.114  65.955  1.00  0.00    -0.231 A  
ENDBRANCH  23  25
ENDBRANCH  21  23
ENDBRANCH  19  21
ENDBRANCH  16  19
ENDBRANCH  12  13
ENDBRANCH  10  12
ENDBRANCH   3   6
TORSDOF 7
ENDMDL
MODEL       10
REMARK 921   NORMALIZED FREE ENERGY PREDICTED BY IDOCK:   -7.29 KCAL/MOL
REMARK 922        TOTAL FREE ENERGY PREDICTED BY IDOCK:  -12.12 KCAL/MOL
REMARK 923 INTER-LIGAND FREE ENERGY PREDICTED BY IDOCK:  -10.10 KCAL/MOL
REMARK 924 INTRA-LIGAND FREE ENERGY PREDICTED BY IDOCK:   -2.01 KCAL/MOL
REMARK 927      BINDING AFFINITY PREDICTED BY RF-SCORE:    0.00 PKD
ROOT
HETATM    1  C   UNL     1     -11.821  15.015  64.532  1.00  0.00    -0.371 C  
HETATM    2  N   UNL     1     -10.910  13.910  64.422  1.00  0.00    -0.584 N  
HETATM    3  C   UNL     1     -11.315  12.692  63.921  1.00  0.00    -0.441 C  
HETATM    4  H   UNL     1      -9.942  14.030  64.720  1.00  0.00     0.000 HD 
HETATM    5  O   UNL     1     -12.461  12.458  63.553  1.00  0.00    -0.612 OA 
ENDROOT
BRANCH   3   6
HETATM    6  C   UNL     1     -10.238  11.652  63.827  1.00  0.00    -0.389 A  
HETATM    7  N   UNL     1     -10.012  11.098  62.603  1.00  0.00    -0.139 NA 
HETATM    8  C   UNL     1      -9.084  10.115  62.557  1.00  0.00    -0.287 A  
HETATM    9  C   UNL     1      -8.406   9.632  63.669  1.00  0.00    -0.172 A  
HETATM   10  C   UNL     1      -8.680  10.204  64.906  1.00  0.00    -0.181 A  
HETATM   11  C   UNL     1      -9.572  11.273  64.981  1.00  0.00    -0.267 A  
BRANCH  10  12
HETATM   12  O   UNL     1      -8.028   9.675  66.005  1.00  0.00    -0.106 OA 
BRANCH  12  13
HETATM   13  C   UNL     1      -8.795   9.088  66.992  1.00  0.00    -0.119 A  
HETATM   14  C   UNL     1      -9.694   8.062  66.727  1.00  0.00    -0.305 A  
HETATM   15  C   UNL     1     -10.550   7.613  67.727  1.00  0.00    -0.265 A  
HETATM   16  C   UNL     1     -10.454   8.081  69.042  1.00  0.00    -0.199 A  
HETATM   17  C   UNL     1      -9.486   9.049  69.327  1.00  0.00    -0.157 A  
HETATM   18  C   UNL     1      -8.658   9.549  68.304  1.00  0.00    -0.120 A  
BRANCH  16  19
HETATM   19  N   UNL     1     -11.306   7.608  70.076  1.00  0.00    -0.452 N  
HETATM   20  H   UNL     1     -11.679   6.661  70.004  1.00  0.00     0.000 HD 
BRANCH  19  21
HETATM   21  C   UNL     1     -11.653   8.376  71.181  1.00  0.00    -0.279 C  
HETATM   22  O   UNL     1     -11.021   8.357  72.229  1.00  0.00    -0.316 OA 
BRANCH  21  23
HETATM   23  N   UNL     1     -12.782   9.153  70.997  1.00  0.00    -0.502 N  
HETATM   24  H   UNL     1     -13.689   8.688  70.948  1.00  0.00     0.000 HD 
BRANCH  23  25
HETATM   25  C   UNL     1     -12.742  10.577  70.874  1.00  0.00    -0.402 A  
HETATM   26  C   UNL     1     -12.269  11.227  69.727  1.00  0.00    -0.343 A  
HETATM   27  C   UNL     1     -12.129  12.623  69.647  1.00  0.00    -0.277 A  
HETATM   28  C   UNL     1     -11.520  13.233  68.413  1.00  0.00    -0.314 C  
HETATM   29  C   UNL     1     -12.546  13.385  70.734  1.00  0.00    -0.294 A  
HETATM   30  F   UNL     1     -10.398  13.961  68.676  1.00  0.00    -0.225 F  
HETATM   31  F   UNL     1     -12.374  14.067  67.756  1.00  0.00    -0.385 F  
HETATM   32  F   UNL     1     -11.136  12.312  67.481  1.00  0.00    -0.252 F  
HETATM   33 CL   UNL     1     -12.443  15.107  70.733  1.00  0.00    -0.389 Cl 
HETATM   34  C   UNL     1     -13.073  12.758  71.872  1.00  0.00    -0.474 A  
HETATM   35  C   UNL     1     -13.168  11.361  71.947  1.00  0.00    -0.485 A  
ENDBRANCH  23  25
ENDBRANCH  21  23
ENDBRANCH  19  21
ENDBRANCH  16  19
ENDBRANCH  12  13
ENDBRANCH  10  12
ENDBRANCH   3   6
TORSDOF 7
ENDMDL
MODEL       11
REMARK 921   NORMALIZED FREE ENERGY PREDICTED BY IDOCK:   -7.28 KCAL/MOL
REMARK 922        TOTAL FREE ENERGY PREDICTED BY IDOCK:  -12.10 KCAL/MOL
REMARK 923 INTER-LIGAND FREE ENERGY PREDICTED BY IDOCK:  -10.90 KCAL/MOL
REMARK 924 INTRA-LIGAND FREE ENERGY PREDICTED BY IDOCK:   -1.20 KCAL/MOL
REMARK 927      BINDING AFFINITY PREDICTED BY RF-SCORE:    0.00 PKD
ROOT
HETATM    1  C   UNL     1     -12.656   6.858  71.200  1.00  0.00    -0.314 C  
HETATM    2  N   UNL     1     -11.911   6.870  69.972  1.00  0.00    -0.629 N  
HETATM    3  C   UNL     1     -10.790   6.085  69.804  1.00  0.00    -0.363 C  
HETATM    4  H   UNL     1     -12.217   7.472  69.208  1.00  0.00     0.000 HD 
HETATM    5  O   UNL     1     -10.345   5.345  70.674  1.00  0.00    -0.236 OA 
ENDROOT
BRANCH   3   6
HETATM    6  C   UNL     1     -10.147   6.175  68.452  1.00  0.00    -0.158 A  
HETATM    7  N   UNL     1     -10.063   5.025  67.725  1.00  0.00    -0.146 NA 
HETATM    8  C   UNL     1      -9.419   5.118  66.539  1.00  0.00    -0.148 A  
HETATM    9  C   UNL     1      -8.822   6.279  66.065  1.00  0.00    -0.159 A  
HETATM   10  C   UNL     1      -8.907   7.427  66.845  1.00  0.00    -0.132 A  
HETATM   11  C   UNL     1      -9.630   7.390  68.036  1.00  0.00    -0.152 A  
BRANCH  10  12
HETATM   12  O   UNL     1      -8.264   8.559  66.376  1.00  0.00    -0.104 OA 
BRANCH  12  13
HETATM   13  C   UNL     1      -8.961   9.391  65.522  1.00  0.00    -0.204 A  
HETATM   14  C   UNL     1      -8.727   9.420  64.153  1.00  0.00    -0.224 A  
HETATM   15  C   UNL     1      -9.346  10.383  63.364  1.00  0.00    -0.334 A  
HETATM   16  C   UNL     1     -10.304  11.259  63.887  1.00  0.00    -0.381 A  
HETATM   17  C   UNL     1     -10.605  11.166  65.249  1.00  0.00    -0.303 A  
HETATM   18  C   UNL     1      -9.936  10.232  66.063  1.00  0.00    -0.308 A  
BRANCH  16  19
HETATM   19  N   UNL     1     -10.962  12.227  63.082  1.00  0.00    -0.654 N  
HETATM   20  H   UNL     1     -10.475  12.592  62.263  1.00  0.00     0.000 HD 
BRANCH  19  21
HETATM   21  C   UNL     1     -12.239  12.700  63.359  1.00  0.00    -0.517 C  
HETATM   22  O   UNL     1     -13.224  11.973  63.395  1.00  0.00    -0.687 OA 
BRANCH  21  23
HETATM   23  N   UNL     1     -12.303  14.064  63.579  1.00  0.00    -1.118 N  
HETATM   24  H   UNL     1     -12.767  14.646  62.883  1.00  0.00     0.000 HD 
BRANCH  23  25
HETATM   25  C   UNL     1     -11.748  14.697  64.735  1.00  0.00    -0.428 A  
HETATM   26  C   UNL     1     -11.815  14.135  66.015  1.00  0.00    -0.409 A  
HETATM   27  C   UNL     1     -11.366  14.806  67.166  1.00  0.00    -0.363 A  
HETATM   28  C   UNL     1     -11.565  14.170  68.515  1.00  0.00    -0.316 C  
HETATM   29  C   UNL     1     -10.770  16.053  67.004  1.00  0.00    -0.277 A  
HETATM   30  F   UNL     1     -12.311  14.936  69.361  1.00  0.00    -0.317 F  
HETATM   31  F   UNL     1     -10.393  13.915  69.161  1.00  0.00    -0.218 F  
HETATM   32  F   UNL     1     -12.210  12.968  68.463  1.00  0.00    -0.355 F  
HETATM   33 CL   UNL     1     -10.161  16.954  68.344  1.00  0.00    -0.301 Cl 
HETATM   34  C   UNL     1     -10.643  16.611  65.724  1.00  0.00    -0.278 A  
HETATM   35  C   UNL     1     -11.133  15.942  64.594  1.00  0.00    -0.368 A  
ENDBRANCH  23  25
ENDBRANCH  21  23
ENDBRANCH  19  21
ENDBRANCH  16  19
ENDBRANCH  12  13
ENDBRANCH  10  12
ENDBRANCH   3   6
TORSDOF 7
ENDMDL
MODEL       12
REMARK 921   NORMALIZED FREE ENERGY PREDICTED BY IDOCK:   -7.25 KCAL/MOL
REMARK 922        TOTAL FREE ENERGY PREDICTED BY IDOCK:  -12.06 KCAL/MOL
REMARK 923 INTER-LIGAND FREE ENERGY PREDICTED BY IDOCK:  -11.08 KCAL/MOL
REMARK 924 INTRA-LIGAND FREE ENERGY PREDICTED BY IDOCK:   -0.98 KCAL/MOL
REMARK 927      BINDING AFFINITY PREDICTED BY RF-SCORE:    0.00 PKD
ROOT
HETATM    1  C   UNL     1     -10.711   7.365  73.561  1.00  0.00    -0.296 C  
HETATM    2  N   UNL     1     -10.673   7.586  72.142  1.00  0.00    -0.224 N  
HETATM    3  C   UNL     1     -10.599   6.536  71.252  1.00  0.00    -0.227 C  
HETATM    4  H   UNL     1     -10.703   8.541  71.784  1.00  0.00     0.000 HD 
HETATM    5  O   UNL     1     -10.545   5.360  71.597  1.00  0.00    -0.227 OA 
ENDROOT
BRANCH   3   6
HETATM    6  C   UNL     1     -10.613   6.925  69.804  1.00  0.00    -0.233 A  
HETATM    7  N   UNL     1     -11.160   6.037  68.926  1.00  0.00    -0.335 NA 
HETATM    8  C   UNL     1     -11.100   6.381  67.620  1.00  0.00    -0.289 A  
HETATM    9  C   UNL     1     -10.490   7.534  67.144  1.00  0.00    -0.407 A  
HETATM   10  C   UNL     1      -9.921   8.405  68.067  1.00  0.00    -0.182 A  
HETATM   11  C   UNL     1     -10.032   8.124  69.428  1.00  0.00    -0.188 A  
BRANCH  10  12
HETATM   12  O   UNL     1      -9.277   9.523  67.568  1.00  0.00    -0.127 OA 
BRANCH  12  13
HETATM   13  C   UNL     1     -10.048  10.502  66.972  1.00  0.00    -0.213 A  
HETATM   14  C   UNL     1     -10.836  11.380  67.707  1.00  0.00    -0.281 A  
HETATM   15  C   UNL     1     -11.708  12.243  67.052  1.00  0.00    -0.399 A  
HETATM   16  C   UNL     1     -11.732  12.346  65.656  1.00  0.00    -0.414 A  
HETATM   17  C   UNL     1     -10.870  11.526  64.922  1.00  0.00    -0.345 A  
HETATM   18  C   UNL     1     -10.029  10.608  65.580  1.00  0.00    -0.333 A  
BRANCH  16  19
HETATM   19  N   UNL     1     -12.600  13.245  64.980  1.00  0.00    -0.620 N  
HETATM   20  H   UNL     1     -13.594  13.021  64.934  1.00  0.00     0.000 HD 
BRANCH  19  21
HETATM   21  C   UNL     1     -12.155  14.416  64.378  1.00  0.00    -0.470 C  
HETATM   22  O   UNL     1     -12.890  15.151  63.730  1.00  0.00    -0.636 OA 
BRANCH  21  23
HETATM   23  N   UNL     1     -10.809  14.673  64.564  1.00  0.00    -0.625 N  
HETATM   24  H   UNL     1     -10.136  14.184  63.974  1.00  0.00     0.000 HD 
BRANCH  23  25
HETATM   25  C   UNL     1     -10.315  15.590  65.543  1.00  0.00    -0.394 A  
HETATM   26  C   UNL     1     -10.614  16.958  65.522  1.00  0.00    -0.215 A  
HETATM   27  C   UNL     1     -10.042  17.876  66.420  1.00  0.00    -0.369 A  
HETATM   28  C   UNL     1     -10.342  19.343  66.265  1.00  0.00    -0.493 C  
HETATM   29  C   UNL     1      -9.198  17.382  67.410  1.00  0.00    -0.236 A  
HETATM   30  F   UNL     1      -9.224  20.097  66.066  1.00  0.00    -0.408 F  
HETATM   31  F   UNL     1     -10.975  19.873  67.348  1.00  0.00    -0.515 F  
HETATM   32  F   UNL     1     -11.154  19.625  65.205  1.00  0.00    -0.526 F  
HETATM   33 CL   UNL     1      -8.462  18.415  68.579  1.00  0.00    -0.345 Cl 
HETATM   34  C   UNL     1      -8.928  16.008  67.484  1.00  0.00    -0.201 A  
HETATM   35  C   UNL     1      -9.478  15.115  66.554  1.00  0.00    -0.308 A  
ENDBRANCH  23  25
ENDBRANCH  21  23
ENDBRANCH  19  21
ENDBRANCH  16  19
ENDBRANCH  12  13
ENDBRANCH  10  12
ENDBRANCH   3   6
TORSDOF 7
ENDMDL
MODEL       13
REMARK 921   NORMALIZED FREE ENERGY PREDICTED BY IDOCK:   -7.24 KCAL/MOL
REMARK 922        TOTAL FREE ENERGY PREDICTED BY IDOCK:  -12.05 KCAL/MOL
REMARK 923 INTER-LIGAND FREE ENERGY PREDICTED BY IDOCK:  -10.54 KCAL/MOL
REMARK 924 INTRA-LIGAND FREE ENERGY PREDICTED BY IDOCK:   -1.50 KCAL/MOL
REMARK 927      BINDING AFFINITY PREDICTED BY RF-SCORE:    0.00 PKD
ROOT
HETATM    1  C   UNL     1     -13.638  15.466  71.488  1.00  0.00    -0.512 C  
HETATM    2  N   UNL     1     -13.056  14.201  71.136  1.00  0.00    -0.340 N  
HETATM    3  C   UNL     1     -13.417  13.039  71.782  1.00  0.00    -0.314 C  
HETATM    4  H   UNL     1     -12.360  14.162  70.392  1.00  0.00     0.000 HD 
HETATM    5  O   UNL     1     -14.234  12.998  72.696  1.00  0.00    -0.609 OA 
ENDROOT
BRANCH   3   6
HETATM    6  C   UNL     1     -12.755  11.794  71.271  1.00  0.00    -0.316 A  
HETATM    7  N   UNL     1     -13.151  10.609  71.816  1.00  0.00    -0.468 NA 
HETATM    8  C   UNL     1     -12.492   9.509  71.388  1.00  0.00    -0.362 A  
HETATM    9  C   UNL     1     -11.439   9.534  70.483  1.00  0.00    -0.337 A  
HETATM   10  C   UNL     1     -11.046  10.763  69.966  1.00  0.00    -0.255 A  
HETATM   11  C   UNL     1     -11.753  11.910  70.323  1.00  0.00    -0.293 A  
BRANCH  10  12
HETATM   12  O   UNL     1      -9.964  10.769  69.104  1.00  0.00    -0.208 OA 
BRANCH  12  13
HETATM   13  C   UNL     1     -10.088  11.462  67.916  1.00  0.00    -0.183 A  
HETATM   14  C   UNL     1      -9.100  12.320  67.447  1.00  0.00    -0.184 A  
HETATM   15  C   UNL     1      -9.341  13.107  66.326  1.00  0.00    -0.138 A  
HETATM   16  C   UNL     1     -10.512  12.976  65.572  1.00  0.00    -0.285 A  
HETATM   17  C   UNL     1     -11.465  12.045  65.994  1.00  0.00    -0.399 A  
HETATM   18  C   UNL     1     -11.251  11.289  67.163  1.00  0.00    -0.344 A  
BRANCH  16  19
HETATM   19  N   UNL     1     -10.753  13.757  64.409  1.00  0.00    -0.571 N  
HETATM   20  H   UNL     1     -10.190  13.579  63.577  1.00  0.00     0.000 HD 
BRANCH  19  21
HETATM   21  C   UNL     1     -11.722  14.752  64.354  1.00  0.00    -0.336 C  
HETATM   22  O   UNL     1     -12.923  14.512  64.343  1.00  0.00    -0.510 OA 
BRANCH  21  23
HETATM   23  N   UNL     1     -11.212  16.036  64.300  1.00  0.00    -0.735 N  
HETATM   24  H   UNL     1     -11.105  16.478  63.387  1.00  0.00     0.000 HD 
BRANCH  23  25
HETATM   25  C   UNL     1     -10.825  16.775  65.461  1.00  0.00    -0.129 A  
HETATM   26  C   UNL     1     -10.607  16.174  66.707  1.00  0.00    -0.277 A  
HETATM   27  C   UNL     1     -10.332  16.912  67.871  1.00  0.00    -0.332 A  
HETATM   28  C   UNL     1     -10.208  16.193  69.187  1.00  0.00    -0.255 C  
HETATM   29  C   UNL     1     -10.206  18.293  67.754  1.00  0.00    -0.385 A  
HETATM   30  F   UNL     1     -11.107  16.623  70.117  1.00  0.00    -0.351 F  
HETATM   31  F   UNL     1      -8.976  16.329  69.753  1.00  0.00    -0.140 F  
HETATM   32  F   UNL     1     -10.410  14.846  69.095  1.00  0.00    -0.218 F  
HETATM   33 CL   UNL     1      -9.846  19.293  69.113  1.00  0.00    -0.453 Cl 
HETATM   34  C   UNL     1     -10.367  18.911  66.506  1.00  0.00    -0.493 A  
HETATM   35  C   UNL     1     -10.679  18.160  65.364  1.00  0.00     0.191 A  
ENDBRANCH  23  25
ENDBRANCH  21  23
ENDBRANCH  19  21
ENDBRANCH  16  19
ENDBRANCH  12  13
ENDBRANCH  10  12
ENDBRANCH   3   6
TORSDOF 7
ENDMDL
MODEL       14
REMARK 921   NORMALIZED FREE ENERGY PREDICTED BY IDOCK:   -7.18 KCAL/MOL
REMARK 922        TOTAL FREE ENERGY PREDICTED BY IDOCK:  -11.96 KCAL/MOL
REMARK 923 INTER-LIGAND FREE ENERGY PREDICTED BY IDOCK:  -10.96 KCAL/MOL
REMARK 924 INTRA-LIGAND FREE ENERGY PREDICTED BY IDOCK:   -1.00 KCAL/MOL
REMARK 927      BINDING AFFINITY PREDICTED BY RF-SCORE:    0.00 PKD
ROOT
HETATM    1  C   UNL     1     -10.013  11.920  63.274  1.00  0.00    -0.380 C  
HETATM    2  N   UNL     1      -9.873  12.745  64.441  1.00  0.00    -0.589 N  
HETATM    3  C   UNL     1     -10.886  13.582  64.855  1.00  0.00    -0.362 C  
HETATM    4  H   UNL     1      -9.005  12.710  64.976  1.00  0.00     0.000 HD 
HETATM    5  O   UNL     1     -11.955  13.696  64.264  1.00  0.00    -0.410 OA 
ENDROOT
BRANCH   3   6
HETATM    6  C   UNL     1     -10.607  14.346  66.115  1.00  0.00    -0.298 A  
HETATM    7  N   UNL     1      -9.351  14.848  66.274  1.00  0.00    -0.300 NA 
HETATM    8  C   UNL     1      -9.105  15.474  67.448  1.00  0.00    -0.199 A  
HETATM    9  C   UNL     1     -10.028  15.586  68.479  1.00  0.00    -0.208 A  
HETATM   10  C   UNL     1     -11.293  15.040  68.292  1.00  0.00    -0.318 A  
HETATM   11  C   UNL     1     -11.609  14.457  67.065  1.00  0.00    -0.402 A  
BRANCH  10  12
HETATM   12  O   UNL     1     -12.180  15.122  69.350  1.00  0.00    -0.275 OA 
BRANCH  12  13
HETATM   13  C   UNL     1     -12.367  13.995  70.126  1.00  0.00    -0.345 A  
HETATM   14  C   UNL     1     -11.852  12.753  69.773  1.00  0.00    -0.380 A  
HETATM   15  C   UNL     1     -12.199  11.624  70.508  1.00  0.00    -0.451 A  
HETATM   16  C   UNL     1     -12.961  11.713  71.679  1.00  0.00    -0.378 A  
HETATM   17  C   UNL     1     -13.401  12.977  72.082  1.00  0.00    -0.622 A  
HETATM   18  C   UNL     1     -13.102  14.115  71.307  1.00  0.00    -0.420 A  
BRANCH  16  19
HETATM   19  N   UNL     1     -13.296  10.569  72.451  1.00  0.00    -0.532 N  
HETATM   20  H   UNL     1     -13.617  10.705  73.409  1.00  0.00     0.000 HD 
BRANCH  19  21
HETATM   21  C   UNL     1     -13.207   9.272  71.959  1.00  0.00    -0.447 C  
HETATM   22  O   UNL     1     -14.126   8.720  71.368  1.00  0.00    -0.371 OA 
BRANCH  21  23
HETATM   23  N   UNL     1     -11.994   8.655  72.206  1.00  0.00    -0.375 N  
HETATM   24  H   UNL     1     -11.493   8.896  73.062  1.00  0.00     0.000 HD 
BRANCH  23  25
HETATM   25  C   UNL     1     -11.407   7.697  71.322  1.00  0.00    -0.264 A  
HETATM   26  C   UNL     1     -11.150   7.967  69.973  1.00  0.00    -0.165 A  
HETATM   27  C   UNL     1     -10.673   6.992  69.079  1.00  0.00    -0.234 A  
HETATM   28  C   UNL     1     -10.517   7.340  67.623  1.00  0.00    -0.242 C  
HETATM   29  C   UNL     1     -10.384   5.728  69.584  1.00  0.00    -0.260 A  
HETATM   30  F   UNL     1     -11.261   6.546  66.802  1.00  0.00    -0.442 F  
HETATM   31  F   UNL     1      -9.230   7.241  67.188  1.00  0.00    -0.124 F  
HETATM   32  F   UNL     1     -10.897   8.616  67.323  1.00  0.00    -0.358 F  
HETATM   33 CL   UNL     1      -9.772   4.464  68.583  1.00  0.00    -0.214 Cl 
HETATM   34  C   UNL     1     -10.583   5.452  70.945  1.00  0.00    -0.283 A  
HETATM   35  C   UNL     1     -11.096   6.427  71.811  1.00  0.00    -0.311 A  
ENDBRANCH  23  25
ENDBRANCH  21  23
ENDBRANCH  19  21
ENDBRANCH  16  19
ENDBRANCH  12  13
ENDBRANCH  10  12
ENDBRANCH   3   6
TORSDOF 7
ENDMDL
MODEL       15
REMARK 921   NORMALIZED FREE ENERGY PREDICTED BY IDOCK:   -7.16 KCAL/MOL
REMARK 922        TOTAL FREE ENERGY PREDICTED BY IDOCK:  -11.94 KCAL/MOL
REMARK 923 INTER-LIGAND FREE ENERGY PREDICTED BY IDOCK:  -10.89 KCAL/MOL
REMARK 924 INTRA-LIGAND FREE ENERGY PREDICTED BY IDOCK:   -1.05 KCAL/MOL
REMARK 927      BINDING AFFINITY PREDICTED BY RF-SCORE:    0.00 PKD
ROOT
HETATM    1  C   UNL     1     -13.831   7.552  71.510  1.00  0.00    -0.387 C  
HETATM    2  N   UNL     1     -12.570   7.698  70.837  1.00  0.00    -0.537 N  
HETATM    3  C   UNL     1     -11.707   8.727  71.144  1.00  0.00    -0.291 C  
HETATM    4  H   UNL     1     -12.308   7.025  70.117  1.00  0.00     0.000 HD 
HETATM    5  O   UNL     1     -11.950   9.586  71.985  1.00  0.00    -0.348 OA 
ENDROOT
BRANCH   3   6
HETATM    6  C   UNL     1     -10.412   8.719  70.389  1.00  0.00    -0.209 A  
HETATM    7  N   UNL     1      -9.288   9.071  71.075  1.00  0.00    -0.253 NA 
HETATM    8  C   UNL     1      -8.144   9.122  70.355  1.00  0.00    -0.152 A  
HETATM    9  C   UNL     1      -8.071   8.882  68.989  1.00  0.00    -0.115 A  
HETATM   10  C   UNL     1      -9.242   8.549  68.317  1.00  0.00    -0.138 A  
HETATM   11  C   UNL     1     -10.427   8.410  69.039  1.00  0.00    -0.216 A  
BRANCH  10  12
HETATM   12  O   UNL     1      -9.154   8.362  66.949  1.00  0.00    -0.137 OA 
BRANCH  12  13
HETATM   13  C   UNL     1      -9.557   9.396  66.127  1.00  0.00    -0.247 A  
HETATM   14  C   UNL     1     -10.383  10.422  66.570  1.00  0.00    -0.287 A  
HETATM   15  C   UNL     1     -10.880  11.352  65.663  1.00  0.00    -0.280 A  
HETATM   16  C   UNL     1     -10.475  11.364  64.324  1.00  0.00    -0.342 A  
HETATM   17  C   UNL     1      -9.570  10.385  63.903  1.00  0.00    -0.370 A  
HETATM   18  C   UNL     1      -9.111   9.406  64.804  1.00  0.00    -0.248 A  
BRANCH  16  19
HETATM   19  N   UNL     1     -10.957  12.328  63.398  1.00  0.00    -0.602 N  
HETATM   20  H   UNL     1     -10.322  12.667  62.674  1.00  0.00     0.000 HD 
BRANCH  19  21
HETATM   21  C   UNL     1     -12.252  12.829  63.432  1.00  0.00    -0.504 C  
HETATM   22  O   UNL     1     -13.241  12.130  63.248  1.00  0.00    -0.620 OA 
BRANCH  21  23
HETATM   23  N   UNL     1     -12.328  14.187  63.679  1.00  0.00    -1.092 N  
HETATM   24  H   UNL     1     -12.852  14.771  63.027  1.00  0.00     0.000 HD 
BRANCH  23  25
HETATM   25  C   UNL     1     -11.706  14.814  64.803  1.00  0.00    -0.422 A  
HETATM   26  C   UNL     1     -11.775  14.291  66.100  1.00  0.00    -0.397 A  
HETATM   27  C   UNL     1     -11.256  14.962  67.221  1.00  0.00    -0.348 A  
HETATM   28  C   UNL     1     -11.460  14.375  68.591  1.00  0.00    -0.287 C  
HETATM   29  C   UNL     1     -10.587  16.164  67.010  1.00  0.00    -0.292 A  
HETATM   30  F   UNL     1     -12.134  15.208  69.433  1.00  0.00    -0.310 F  
HETATM   31  F   UNL     1     -10.290  14.063  69.216  1.00  0.00    -0.209 F  
HETATM   32  F   UNL     1     -12.180  13.215  68.587  1.00  0.00    -0.360 F  
HETATM   33 CL   UNL     1      -9.889  17.058  68.310  1.00  0.00    -0.266 Cl 
HETATM   34  C   UNL     1     -10.458  16.680  65.713  1.00  0.00    -0.324 A  
HETATM   35  C   UNL     1     -11.017  16.014  64.613  1.00  0.00    -0.297 A  
ENDBRANCH  23  25
ENDBRANCH  21  23
ENDBRANCH  19  21
ENDBRANCH  16  19
ENDBRANCH  12  13
ENDBRANCH  10  12
ENDBRANCH   3   6
TORSDOF 7
ENDMDL
MODEL       16
REMARK 921   NORMALIZED FREE ENERGY PREDICTED BY IDOCK:   -7.14 KCAL/MOL
REMARK 922        TOTAL FREE ENERGY PREDICTED BY IDOCK:  -11.91 KCAL/MOL
REMARK 923 INTER-LIGAND FREE ENERGY PREDICTED BY IDOCK:  -10.81 KCAL/MOL
REMARK 924 INTRA-LIGAND FREE ENERGY PREDICTED BY IDOCK:   -1.09 KCAL/MOL
REMARK 927      BINDING AFFINITY PREDICTED BY RF-SCORE:    0.00 PKD
ROOT
HETATM    1  C   UNL     1     -10.105  18.419  66.098  1.00  0.00    -0.360 C  
HETATM    2  N   UNL     1     -10.300  17.004  66.253  1.00  0.00    -0.321 N  
HETATM    3  C   UNL     1     -10.964  16.261  65.300  1.00  0.00    -0.236 C  
HETATM    4  H   UNL     1      -9.939  16.539  67.085  1.00  0.00     0.000 HD 
HETATM    5  O   UNL     1     -11.442  16.743  64.279  1.00  0.00    -1.125 OA 
ENDROOT
BRANCH   3   6
HETATM    6  C   UNL     1     -11.048  14.791  65.583  1.00  0.00    -0.342 A  
HETATM    7  N   UNL     1     -11.973  14.074  64.885  1.00  0.00    -0.383 NA 
HETATM    8  C   UNL     1     -12.076  12.765  65.206  1.00  0.00    -0.457 A  
HETATM    9  C   UNL     1     -11.339  12.148  66.208  1.00  0.00    -0.411 A  
HETATM   10  C   UNL     1     -10.421  12.916  66.917  1.00  0.00    -0.246 A  
HETATM   11  C   UNL     1     -10.231  14.250  66.562  1.00  0.00    -0.277 A  
BRANCH  10  12
HETATM   12  O   UNL     1      -9.733  12.292  67.942  1.00  0.00    -0.190 OA 
BRANCH  12  13
HETATM   13  C   UNL     1     -10.466  11.600  68.886  1.00  0.00    -0.175 A  
HETATM   14  C   UNL     1     -11.657  12.088  69.411  1.00  0.00    -0.393 A  
HETATM   15  C   UNL     1     -12.272  11.424  70.467  1.00  0.00    -0.478 A  
HETATM   16  C   UNL     1     -11.795  10.199  70.945  1.00  0.00    -0.374 A  
HETATM   17  C   UNL     1     -10.648   9.664  70.352  1.00  0.00    -0.354 A  
HETATM   18  C   UNL     1      -9.987  10.363  69.323  1.00  0.00    -0.246 A  
BRANCH  16  19
HETATM   19  N   UNL     1     -12.434   9.501  72.005  1.00  0.00    -0.367 N  
HETATM   20  H   UNL     1     -12.222   9.773  72.965  1.00  0.00     0.000 HD 
BRANCH  19  21
HETATM   21  C   UNL     1     -13.335   8.464  71.793  1.00  0.00    -0.357 C  
HETATM   22  O   UNL     1     -14.399   8.617  71.206  1.00  0.00    -0.340 OA 
BRANCH  21  23
HETATM   23  N   UNL     1     -12.930   7.248  72.312  1.00  0.00    -0.505 N  
HETATM   24  H   UNL     1     -13.413   6.887  73.135  1.00  0.00     0.000 HD 
BRANCH  23  25
HETATM   25  C   UNL     1     -11.869   6.471  71.752  1.00  0.00    -0.335 A  
HETATM   26  C   UNL     1     -11.517   6.529  70.398  1.00  0.00    -0.465 A  
HETATM   27  C   UNL     1     -10.546   5.688  69.827  1.00  0.00    -0.400 A  
HETATM   28  C   UNL     1     -10.299   5.748  68.344  1.00  0.00    -0.213 C  
HETATM   29  C   UNL     1      -9.864   4.813  70.667  1.00  0.00    -0.222 A  
HETATM   30  F   UNL     1     -10.512   4.556  67.719  1.00  0.00    -0.104 F  
HETATM   31  F   UNL     1      -9.028   6.123  68.031  1.00  0.00    -0.116 F  
HETATM   32  F   UNL     1     -11.103   6.639  67.692  1.00  0.00    -0.318 F  
HETATM   33 CL   UNL     1      -8.636   3.755  70.078  1.00  0.00    -0.098 Cl 
HETATM   34  C   UNL     1     -10.162   4.777  72.037  1.00  0.00    -0.261 A  
HETATM   35  C   UNL     1     -11.161   5.597  72.579  1.00  0.00    -0.346 A  
ENDBRANCH  23  25
ENDBRANCH  21  23
ENDBRANCH  19  21
ENDBRANCH  16  19
ENDBRANCH  12  13
ENDBRANCH  10  12
ENDBRANCH   3   6
TORSDOF 7
ENDMDL
MODEL       17
REMARK 921   NORMALIZED FREE ENERGY PREDICTED BY IDOCK:   -7.13 KCAL/MOL
REMARK 922        TOTAL FREE ENERGY PREDICTED BY IDOCK:  -11.90 KCAL/MOL
REMARK 923 INTER-LIGAND FREE ENERGY PREDICTED BY IDOCK:  -10.93 KCAL/MOL
REMARK 924 INTRA-LIGAND FREE ENERGY PREDICTED BY IDOCK:   -0.97 KCAL/MOL
REMARK 927      BINDING AFFINITY PREDICTED BY RF-SCORE:    0.00 PKD
ROOT
HETATM    1  C   UNL     1     -14.346  15.176  71.764  1.00  0.00    -0.597 C  
HETATM    2  N   UNL     1     -13.547  15.485  70.611  1.00  0.00    -0.849 N  
HETATM    3  C   UNL     1     -12.517  14.663  70.209  1.00  0.00    -0.346 C  
HETATM    4  H   UNL     1     -13.747  16.331  70.078  1.00  0.00     0.000 HD 
HETATM    5  O   UNL     1     -12.200  13.636  70.800  1.00  0.00    -0.343 OA 
ENDROOT
BRANCH   3   6
HETATM    6  C   UNL     1     -11.805  15.097  68.963  1.00  0.00    -0.304 A  
HETATM    7  N   UNL     1     -11.107  16.266  69.018  1.00  0.00    -0.325 NA 
HETATM    8  C   UNL     1     -10.530  16.669  67.863  1.00  0.00    -0.322 A  
HETATM    9  C   UNL     1     -10.648  15.993  66.656  1.00  0.00    -0.297 A  
HETATM   10  C   UNL     1     -11.388  14.816  66.631  1.00  0.00    -0.347 A  
HETATM   11  C   UNL     1     -11.932  14.327  67.818  1.00  0.00    -0.384 A  
BRANCH  10  12
HETATM   12  O   UNL     1     -11.532  14.185  65.408  1.00  0.00    -0.311 OA 
BRANCH  12  13
HETATM   13  C   UNL     1     -10.898  12.972  65.227  1.00  0.00    -0.291 A  
HETATM   14  C   UNL     1     -10.833  12.341  63.990  1.00  0.00    -0.439 A  
HETATM   15  C   UNL     1     -10.318  11.054  63.895  1.00  0.00    -0.436 A  
HETATM   16  C   UNL     1      -9.742  10.407  64.994  1.00  0.00    -0.300 A  
HETATM   17  C   UNL     1      -9.725  11.082  66.219  1.00  0.00    -0.244 A  
HETATM   18  C   UNL     1     -10.300  12.363  66.333  1.00  0.00    -0.255 A  
BRANCH  16  19
HETATM   19  N   UNL     1      -9.188   9.103  64.899  1.00  0.00    -0.437 N  
HETATM   20  H   UNL     1      -8.960   8.736  63.975  1.00  0.00     0.000 HD 
BRANCH  19  21
HETATM   21  C   UNL     1      -8.942   8.302  66.008  1.00  0.00    -0.181 C  
HETATM   22  O   UNL     1      -7.859   8.270  66.579  1.00  0.00    -0.091 OA 
BRANCH  21  23
HETATM   23  N   UNL     1     -10.023   7.536  66.404  1.00  0.00    -0.451 N  
HETATM   24  H   UNL     1     -10.558   7.045  65.687  1.00  0.00     0.000 HD 
BRANCH  23  25
HETATM   25  C   UNL     1     -10.428   7.398  67.768  1.00  0.00    -0.232 A  
HETATM   26  C   UNL     1     -10.525   8.484  68.646  1.00  0.00    -0.200 A  
HETATM   27  C   UNL     1     -10.819   8.335  70.013  1.00  0.00    -0.232 A  
HETATM   28  C   UNL     1     -10.806   9.546  70.905  1.00  0.00    -0.337 C  
HETATM   29  C   UNL     1     -11.090   7.055  70.487  1.00  0.00    -0.280 A  
HETATM   30  F   UNL     1      -9.913   9.445  71.930  1.00  0.00    -0.360 F  
HETATM   31  F   UNL     1     -12.017   9.799  71.476  1.00  0.00    -0.390 F  
HETATM   32  F   UNL     1     -10.472  10.700  70.256  1.00  0.00    -0.273 F  
HETATM   33 CL   UNL     1     -11.486   6.760  72.139  1.00  0.00    -0.303 Cl 
HETATM   34  C   UNL     1     -11.052   5.959  69.613  1.00  0.00    -0.414 A  
HETATM   35  C   UNL     1     -10.719   6.125  68.262  1.00  0.00    -0.361 A  
ENDBRANCH  23  25
ENDBRANCH  21  23
ENDBRANCH  19  21
ENDBRANCH  16  19
ENDBRANCH  12  13
ENDBRANCH  10  12
ENDBRANCH   3   6
TORSDOF 7
ENDMDL
MODEL       18
REMARK 921   NORMALIZED FREE ENERGY PREDICTED BY IDOCK:   -7.03 KCAL/MOL
REMARK 922        TOTAL FREE ENERGY PREDICTED BY IDOCK:  -11.75 KCAL/MOL
REMARK 923 INTER-LIGAND FREE ENERGY PREDICTED BY IDOCK:  -10.03 KCAL/MOL
REMARK 924 INTRA-LIGAND FREE ENERGY PREDICTED BY IDOCK:   -1.72 KCAL/MOL
REMARK 927      BINDING AFFINITY PREDICTED BY RF-SCORE:    0.00 PKD
ROOT
HETATM    1  C   UNL     1     -11.963  13.416  70.279  1.00  0.00    -0.308 C  
HETATM    2  N   UNL     1     -12.008  11.984  70.388  1.00  0.00    -0.476 N  
HETATM    3  C   UNL     1     -12.810  11.359  71.318  1.00  0.00    -0.379 C  
HETATM    4  H   UNL     1     -11.434  11.418  69.764  1.00  0.00     0.000 HD 
HETATM    5  O   UNL     1     -13.520  11.963  72.116  1.00  0.00    -0.458 OA 
ENDROOT
BRANCH   3   6
HETATM    6  C   UNL     1     -12.782   9.860  71.280  1.00  0.00    -0.383 A  
HETATM    7  N   UNL     1     -13.880   9.204  71.750  1.00  0.00    -0.385 NA 
HETATM    8  C   UNL     1     -13.803   7.854  71.768  1.00  0.00    -0.375 A  
HETATM    9  C   UNL     1     -12.680   7.132  71.383  1.00  0.00    -0.433 A  
HETATM   10  C   UNL     1     -11.570   7.836  70.931  1.00  0.00    -0.274 A  
HETATM   11  C   UNL     1     -11.639   9.224  70.824  1.00  0.00    -0.345 A  
BRANCH  10  12
HETATM   12  O   UNL     1     -10.447   7.099  70.599  1.00  0.00    -0.207 OA 
BRANCH  12  13
HETATM   13  C   UNL     1      -9.954   7.215  69.314  1.00  0.00    -0.168 A  
HETATM   14  C   UNL     1      -8.701   7.753  69.042  1.00  0.00    -0.135 A  
HETATM   15  C   UNL     1      -8.319   7.986  67.725  1.00  0.00    -0.129 A  
HETATM   16  C   UNL     1      -9.111   7.582  66.645  1.00  0.00    -0.158 A  
HETATM   17  C   UNL     1     -10.331   6.957  66.923  1.00  0.00    -0.332 A  
HETATM   18  C   UNL     1     -10.749   6.773  68.255  1.00  0.00    -0.290 A  
BRANCH  16  19
HETATM   19  N   UNL     1      -8.715   7.792  65.297  1.00  0.00    -0.361 N  
HETATM   20  H   UNL     1      -8.518   6.977  64.715  1.00  0.00     0.000 HD 
BRANCH  19  21
HETATM   21  C   UNL     1      -8.584   9.056  64.735  1.00  0.00    -0.175 C  
HETATM   22  O   UNL     1      -7.500   9.543  64.440  1.00  0.00    -0.109 OA 
BRANCH  21  23
HETATM   23  N   UNL     1      -9.783   9.720  64.549  1.00  0.00    -0.417 N  
HETATM   24  H   UNL     1     -10.462   9.323  63.900  1.00  0.00     0.000 HD 
BRANCH  23  25
HETATM   25  C   UNL     1     -10.117  10.936  65.223  1.00  0.00    -0.280 A  
HETATM   26  C   UNL     1     -10.935  11.920  64.654  1.00  0.00    -0.370 A  
HETATM   27  C   UNL     1     -11.176  13.160  65.271  1.00  0.00    -0.315 A  
HETATM   28  C   UNL     1     -11.988  14.199  64.545  1.00  0.00    -0.458 C  
HETATM   29  C   UNL     1     -10.629  13.380  66.531  1.00  0.00    -0.287 A  
HETATM   30  F   UNL     1     -11.307  15.362  64.342  1.00  0.00    -0.370 F  
HETATM   31  F   UNL     1     -13.132  14.534  65.202  1.00  0.00    -0.381 F  
HETATM   32  F   UNL     1     -12.394  13.804  63.303  1.00  0.00    -0.550 F  
HETATM   33 CL   UNL     1     -10.882  14.854  67.390  1.00  0.00    -0.296 Cl 
HETATM   34  C   UNL     1      -9.852  12.386  67.144  1.00  0.00    -0.206 A  
HETATM   35  C   UNL     1      -9.591  11.172  66.494  1.00  0.00    -0.222 A  
ENDBRANCH  23  25
ENDBRANCH  21  23
ENDBRANCH  19  21
ENDBRANCH  16  19
ENDBRANCH  12  13
ENDBRANCH  10  12
ENDBRANCH   3   6
TORSDOF 7
ENDMDL
MODEL       19
REMARK 921   NORMALIZED FREE ENERGY PREDICTED BY IDOCK:   -7.00 KCAL/MOL
REMARK 922        TOTAL FREE ENERGY PREDICTED BY IDOCK:  -11.72 KCAL/MOL
REMARK 923 INTER-LIGAND FREE ENERGY PREDICTED BY IDOCK:  -10.74 KCAL/MOL
REMARK 924 INTRA-LIGAND FREE ENERGY PREDICTED BY IDOCK:   -0.98 KCAL/MOL
REMARK 927      BINDING AFFINITY PREDICTED BY RF-SCORE:    0.00 PKD
ROOT
HETATM    1  C   UNL     1     -12.322  11.967  63.351  1.00  0.00    -0.462 C  
HETATM    2  N   UNL     1     -11.629  12.526  64.478  1.00  0.00    -0.331 N  
HETATM    3  C   UNL     1     -11.964  13.762  64.987  1.00  0.00    -0.383 C  
HETATM    4  H   UNL     1     -10.873  11.997  64.912  1.00  0.00     0.000 HD 
HETATM    5  O   UNL     1     -12.849  14.470  64.517  1.00  0.00    -0.613 OA 
ENDROOT
BRANCH   3   6
HETATM    6  C   UNL     1     -11.181  14.189  66.192  1.00  0.00    -0.326 A  
HETATM    7  N   UNL     1      -9.823  14.214  66.075  1.00  0.00    -0.314 NA 
HETATM    8  C   UNL     1      -9.137  14.538  67.195  1.00  0.00    -0.225 A  
HETATM    9  C   UNL     1      -9.728  14.794  68.425  1.00  0.00    -0.214 A  
HETATM   10  C   UNL     1     -11.114  14.735  68.512  1.00  0.00    -0.264 A  
HETATM   11  C   UNL     1     -11.860  14.483  67.362  1.00  0.00    -0.416 A  
BRANCH  10  12
HETATM   12  O   UNL     1     -11.679  14.947  69.758  1.00  0.00    -0.270 OA 
BRANCH  12  13
HETATM   13  C   UNL     1     -12.212  13.859  70.419  1.00  0.00    -0.368 A  
HETATM   14  C   UNL     1     -13.095  13.993  71.485  1.00  0.00    -0.436 A  
HETATM   15  C   UNL     1     -13.481  12.872  72.211  1.00  0.00    -0.631 A  
HETATM   16  C   UNL     1     -13.104  11.580  71.827  1.00  0.00    -0.398 A  
HETATM   17  C   UNL     1     -12.290  11.441  70.699  1.00  0.00    -0.466 A  
HETATM   18  C   UNL     1     -11.848  12.579  69.996  1.00  0.00    -0.363 A  
BRANCH  16  19
HETATM   19  N   UNL     1     -13.517  10.427  72.547  1.00  0.00    -0.474 N  
HETATM   20  H   UNL     1     -13.880  10.547  73.493  1.00  0.00     0.000 HD 
BRANCH  19  21
HETATM   21  C   UNL     1     -13.449   9.142  72.021  1.00  0.00    -0.448 C  
HETATM   22  O   UNL     1     -14.111   8.783  71.056  1.00  0.00    -0.161 OA 
BRANCH  21  23
HETATM   23  N   UNL     1     -12.578   8.302  72.690  1.00  0.00    -0.607 N  
HETATM   24  H   UNL     1     -12.965   7.631  73.355  1.00  0.00     0.000 HD 
BRANCH  23  25
HETATM   25  C   UNL     1     -11.161   8.327  72.497  1.00  0.00    -0.376 A  
HETATM   26  C   UNL     1     -10.555   8.956  71.404  1.00  0.00    -0.374 A  
HETATM   27  C   UNL     1      -9.172   8.889  71.157  1.00  0.00    -0.324 A  
HETATM   28  C   UNL     1      -8.616   9.511  69.905  1.00  0.00    -0.204 C  
HETATM   29  C   UNL     1      -8.375   8.224  72.084  1.00  0.00    -0.174 A  
HETATM   30  F   UNL     1      -7.967   8.616  69.107  1.00  0.00    -0.100 F  
HETATM   31  F   UNL     1      -7.728  10.513  70.158  1.00  0.00    -0.156 F  
HETATM   32  F   UNL     1      -9.568  10.074  69.105  1.00  0.00    -0.167 F  
HETATM   33 CL   UNL     1      -6.665   8.103  71.895  1.00  0.00    -0.063 Cl 
HETATM   34  C   UNL     1      -8.955   7.634  73.216  1.00  0.00    -0.259 A  
HETATM   35  C   UNL     1     -10.341   7.679  73.422  1.00  0.00    -0.374 A  
ENDBRANCH  23  25
ENDBRANCH  21  23
ENDBRANCH  19  21
ENDBRANCH  16  19
ENDBRANCH  12  13
ENDBRANCH  10  12
ENDBRANCH   3   6
TORSDOF 7
ENDMDL
MODEL       20
REMARK 921   NORMALIZED FREE ENERGY PREDICTED BY IDOCK:   -6.97 KCAL/MOL
REMARK 922        TOTAL FREE ENERGY PREDICTED BY IDOCK:  -11.67 KCAL/MOL
REMARK 923 INTER-LIGAND FREE ENERGY PREDICTED BY IDOCK:  -10.50 KCAL/MOL
REMARK 924 INTRA-LIGAND FREE ENERGY PREDICTED BY IDOCK:   -1.17 KCAL/MOL
REMARK 927      BINDING AFFINITY PREDICTED BY RF-SCORE:    0.00 PKD
ROOT
HETATM    1  C   UNL     1     -13.818  15.842  72.710  1.00  0.00    -0.523 C  
HETATM    2  N   UNL     1     -13.451  15.197  71.480  1.00  0.00    -0.424 N  
HETATM    3  C   UNL     1     -12.251  15.463  70.858  1.00  0.00    -0.373 C  
HETATM    4  H   UNL     1     -14.093  14.526  71.057  1.00  0.00     0.000 HD 
HETATM    5  O   UNL     1     -11.428  16.265  71.289  1.00  0.00    -0.423 OA 
ENDROOT
BRANCH   3   6
HETATM    6  C   UNL     1     -11.993  14.679  69.606  1.00  0.00    -0.323 A  
HETATM    7  N   UNL     1     -11.858  15.382  68.447  1.00  0.00    -0.313 NA 
HETATM    8  C   UNL     1     -11.693  14.648  67.323  1.00  0.00    -0.385 A  
HETATM    9  C   UNL     1     -11.699  13.260  67.291  1.00  0.00    -0.424 A  
HETATM   10  C   UNL     1     -11.864  12.575  68.489  1.00  0.00    -0.295 A  
HETATM   11  C   UNL     1     -11.957  13.296  69.679  1.00  0.00    -0.376 A  
BRANCH  10  12
HETATM   12  O   UNL     1     -11.914  11.194  68.427  1.00  0.00    -0.561 OA 
BRANCH  12  13
HETATM   13  C   UNL     1     -11.747  10.487  69.601  1.00  0.00    -0.256 A  
HETATM   14  C   UNL     1     -10.505  10.030  70.027  1.00  0.00    -0.337 A  
HETATM   15  C   UNL     1     -10.416   9.194  71.134  1.00  0.00    -0.385 A  
HETATM   16  C   UNL     1     -11.534   8.890  71.919  1.00  0.00    -0.372 A  
HETATM   17  C   UNL     1     -12.768   9.427  71.541  1.00  0.00    -0.444 A  
HETATM   18  C   UNL     1     -12.873  10.225  70.386  1.00  0.00    -0.202 A  
BRANCH  16  19
HETATM   19  N   UNL     1     -11.447   8.059  73.069  1.00  0.00    -0.475 N  
HETATM   20  H   UNL     1     -11.713   8.449  73.973  1.00  0.00     0.000 HD 
BRANCH  19  21
HETATM   21  C   UNL     1     -11.015   6.739  73.017  1.00  0.00    -0.260 C  
HETATM   22  O   UNL     1     -10.204   6.274  73.808  1.00  0.00    -0.221 OA 
BRANCH  21  23
HETATM   23  N   UNL     1     -11.572   6.002  71.988  1.00  0.00    -0.298 N  
HETATM   24  H   UNL     1     -12.574   5.812  72.015  1.00  0.00     0.000 HD 
BRANCH  23  25
HETATM   25  C   UNL     1     -10.812   5.492  70.890  1.00  0.00    -0.176 A  
HETATM   26  C   UNL     1     -10.941   5.983  69.585  1.00  0.00    -0.470 A  
HETATM   27  C   UNL     1     -10.274   5.411  68.487  1.00  0.00    -0.237 A  
HETATM   28  C   UNL     1     -10.544   5.939  67.104  1.00  0.00    -0.299 C  
HETATM   29  C   UNL     1      -9.400   4.356  68.731  1.00  0.00    -0.151 A  
HETATM   30  F   UNL     1     -11.028   4.988  66.255  1.00  0.00    -0.332 F  
HETATM   31  F   UNL     1      -9.435   6.457  66.507  1.00  0.00    -0.158 F  
HETATM   32  F   UNL     1     -11.467   6.944  67.074  1.00  0.00    -0.445 F  
HETATM   33 CL   UNL     1      -8.511   3.596  67.463  1.00  0.00    -0.098 Cl 
HETATM   34  C   UNL     1      -9.215   3.884  70.039  1.00  0.00    -0.220 A  
HETATM   35  C   UNL     1      -9.919   4.443  71.114  1.00  0.00    -0.243 A  
ENDBRANCH  23  25
ENDBRANCH  21  23
ENDBRANCH  19  21
ENDBRANCH  16  19
ENDBRANCH  12  13
ENDBRANCH  10  12
ENDBRANCH   3   6
TORSDOF 7
ENDMDL
MODEL       21
REMARK 921   NORMALIZED FREE ENERGY PREDICTED BY IDOCK:   -6.93 KCAL/MOL
REMARK 922        TOTAL FREE ENERGY PREDICTED BY IDOCK:  -11.62 KCAL/MOL
REMARK 923 INTER-LIGAND FREE ENERGY PREDICTED BY IDOCK:  -10.08 KCAL/MOL
REMARK 924 INTRA-LIGAND FREE ENERGY PREDICTED BY IDOCK:   -1.54 KCAL/MOL
REMARK 927      BINDING AFFINITY PREDICTED BY RF-SCORE:    0.00 PKD
ROOT
HETATM    1  C   UNL     1      -9.578   7.932  66.388  1.00  0.00    -0.181 C  
HETATM    2  N   UNL     1      -9.996   9.285  66.147  1.00  0.00    -0.290 N  
HETATM    3  C   UNL     1      -9.684   9.934  64.972  1.00  0.00    -0.288 C  
HETATM    4  H   UNL     1     -10.535   9.775  66.860  1.00  0.00     0.000 HD 
HETATM    5  O   UNL     1      -9.029   9.424  64.069  1.00  0.00    -0.213 OA 
ENDROOT
BRANCH   3   6
HETATM    6  C   UNL     1     -10.229  11.326  64.850  1.00  0.00    -0.286 A  
HETATM    7  N   UNL     1     -11.227  11.528  63.944  1.00  0.00    -0.388 NA 
HETATM    8  C   UNL     1     -11.654  12.803  63.805  1.00  0.00    -0.481 A  
HETATM    9  C   UNL     1     -11.112  13.885  64.486  1.00  0.00    -0.374 A  
HETATM   10  C   UNL     1     -10.078  13.646  65.384  1.00  0.00    -0.271 A  
HETATM   11  C   UNL     1      -9.665  12.334  65.614  1.00  0.00    -0.205 A  
BRANCH  10  12
HETATM   12  O   UNL     1      -9.522  14.744  66.016  1.00  0.00    -0.297 OA 
BRANCH  12  13
HETATM   13  C   UNL     1     -10.067  15.143  67.220  1.00  0.00    -0.235 A  
HETATM   14  C   UNL     1     -11.409  15.476  67.358  1.00  0.00    -0.203 A  
HETATM   15  C   UNL     1     -11.871  16.016  68.553  1.00  0.00    -0.126 A  
HETATM   16  C   UNL     1     -11.047  16.125  69.679  1.00  0.00    -0.344 A  
HETATM   17  C   UNL     1      -9.719  15.703  69.564  1.00  0.00    -0.287 A  
HETATM   18  C   UNL     1      -9.232  15.211  68.338  1.00  0.00    -0.189 A  
BRANCH  16  19
HETATM   19  N   UNL     1     -11.517  16.650  70.912  1.00  0.00    -0.483 N  
HETATM   20  H   UNL     1     -11.368  17.640  71.109  1.00  0.00     0.000 HD 
BRANCH  19  21
HETATM   21  C   UNL     1     -12.172  15.876  71.863  1.00  0.00    -0.483 C  
HETATM   22  O   UNL     1     -11.962  15.981  73.065  1.00  0.00    -0.465 OA 
BRANCH  21  23
HETATM   23  N   UNL     1     -13.072  14.969  71.333  1.00  0.00    -0.356 N  
HETATM   24  H   UNL     1     -13.938  15.326  70.928  1.00  0.00     0.000 HD 
BRANCH  23  25
HETATM   25  C   UNL     1     -12.848  13.557  71.324  1.00  0.00    -0.338 A  
HETATM   26  C   UNL     1     -11.971  12.933  70.429  1.00  0.00    -0.329 A  
HETATM   27  C   UNL     1     -11.832  11.536  70.349  1.00  0.00    -0.413 A  
HETATM   28  C   UNL     1     -10.941  10.944  69.291  1.00  0.00    -0.244 C  
HETATM   29  C   UNL     1     -12.551  10.755  71.250  1.00  0.00    -0.426 A  
HETATM   30  F   UNL     1     -11.601  10.101  68.448  1.00  0.00    -0.270 F  
HETATM   31  F   UNL     1      -9.902  10.231  69.809  1.00  0.00    -0.232 F  
HETATM   32  F   UNL     1     -10.362  11.876  68.480  1.00  0.00    -0.194 F  
HETATM   33 CL   UNL     1     -12.437   9.034  71.257  1.00  0.00    -0.354 Cl 
HETATM   34  C   UNL     1     -13.393  11.363  72.191  1.00  0.00    -0.271 A  
HETATM   35  C   UNL     1     -13.547  12.756  72.228  1.00  0.00    -0.563 A  
ENDBRANCH  23  25
ENDBRANCH  21  23
ENDBRANCH  19  21
ENDBRANCH  16  19
ENDBRANCH  12  13
ENDBRANCH  10  12
ENDBRANCH   3   6
TORSDOF 7
ENDMDL
MODEL       22
REMARK 921   NORMALIZED FREE ENERGY PREDICTED BY IDOCK:   -6.92 KCAL/MOL
REMARK 922        TOTAL FREE ENERGY PREDICTED BY IDOCK:  -11.60 KCAL/MOL
REMARK 923 INTER-LIGAND FREE ENERGY PREDICTED BY IDOCK:  -10.31 KCAL/MOL
REMARK 924 INTRA-LIGAND FREE ENERGY PREDICTED BY IDOCK:   -1.29 KCAL/MOL
REMARK 927      BINDING AFFINITY PREDICTED BY RF-SCORE:    0.00 PKD
ROOT
HETATM    1  C   UNL     1     -11.001   2.176  63.319  1.00  0.00    -0.221 C  
HETATM    2  N   UNL     1     -10.868   3.301  64.203  1.00  0.00    -0.480 N  
HETATM    3  C   UNL     1      -9.644   3.668  64.719  1.00  0.00    -0.173 C  
HETATM    4  H   UNL     1     -11.696   3.839  64.454  1.00  0.00     0.000 HD 
HETATM    5  O   UNL     1      -8.601   3.068  64.481  1.00  0.00    -0.093 OA 
ENDROOT
BRANCH   3   6
HETATM    6  C   UNL     1      -9.660   4.888  65.591  1.00  0.00    -0.155 A  
HETATM    7  N   UNL     1     -10.599   4.937  66.577  1.00  0.00    -0.255 NA 
HETATM    8  C   UNL     1     -10.637   6.076  67.306  1.00  0.00    -0.294 A  
HETATM    9  C   UNL     1      -9.821   7.176  67.075  1.00  0.00    -0.257 A  
HETATM   10  C   UNL     1      -8.891   7.100  66.045  1.00  0.00    -0.131 A  
HETATM   11  C   UNL     1      -8.768   5.913  65.323  1.00  0.00    -0.078 A  
BRANCH  10  12
HETATM   12  O   UNL     1      -8.123   8.224  65.803  1.00  0.00    -0.097 OA 
BRANCH  12  13
HETATM   13  C   UNL     1      -8.721   9.291  65.162  1.00  0.00    -0.185 A  
HETATM   14  C   UNL     1      -9.351  10.319  65.854  1.00  0.00    -0.226 A  
HETATM   15  C   UNL     1     -10.068  11.286  65.158  1.00  0.00    -0.326 A  
HETATM   16  C   UNL     1     -10.077  11.332  63.760  1.00  0.00    -0.361 A  
HETATM   17  C   UNL     1      -9.365  10.349  63.066  1.00  0.00    -0.344 A  
HETATM   18  C   UNL     1      -8.687   9.333  63.766  1.00  0.00    -0.190 A  
BRANCH  16  19
HETATM   19  N   UNL     1     -10.784  12.333  63.041  1.00  0.00    -0.581 N  
HETATM   20  H   UNL     1     -10.320  12.785  62.252  1.00  0.00     0.000 HD 
BRANCH  19  21
HETATM   21  C   UNL     1     -12.078  12.724  63.363  1.00  0.00    -0.534 C  
HETATM   22  O   UNL     1     -13.026  11.950  63.364  1.00  0.00    -0.730 OA 
BRANCH  21  23
HETATM   23  N   UNL     1     -12.203  14.067  63.671  1.00  0.00    -1.021 N  
HETATM   24  H   UNL     1     -12.696  14.671  63.013  1.00  0.00     0.000 HD 
BRANCH  23  25
HETATM   25  C   UNL     1     -11.674  14.650  64.864  1.00  0.00    -0.403 A  
HETATM   26  C   UNL     1     -11.875  14.095  66.134  1.00  0.00    -0.420 A  
HETATM   27  C   UNL     1     -11.448  14.724  67.316  1.00  0.00    -0.378 A  
HETATM   28  C   UNL     1     -11.792  14.108  68.645  1.00  0.00    -0.348 C  
HETATM   29  C   UNL     1     -10.736  15.914  67.202  1.00  0.00    -0.301 A  
HETATM   30  F   UNL     1     -12.523  14.935  69.444  1.00  0.00    -0.290 F  
HETATM   31  F   UNL     1     -10.692  13.751  69.366  1.00  0.00    -0.224 F  
HETATM   32  F   UNL     1     -12.534  12.967  68.542  1.00  0.00    -0.191 F  
HETATM   33 CL   UNL     1     -10.143  16.758  68.585  1.00  0.00    -0.262 Cl 
HETATM   34  C   UNL     1     -10.476  16.460  65.937  1.00  0.00    -0.350 A  
HETATM   35  C   UNL     1     -10.945  15.836  64.772  1.00  0.00    -0.410 A  
ENDBRANCH  23  25
ENDBRANCH  21  23
ENDBRANCH  19  21
ENDBRANCH  16  19
ENDBRANCH  12  13
ENDBRANCH  10  12
ENDBRANCH   3   6
TORSDOF 7
ENDMDL
MODEL       23
REMARK 921   NORMALIZED FREE ENERGY PREDICTED BY IDOCK:   -6.91 KCAL/MOL
REMARK 922        TOTAL FREE ENERGY PREDICTED BY IDOCK:  -11.59 KCAL/MOL
REMARK 923 INTER-LIGAND FREE ENERGY PREDICTED BY IDOCK:  -10.78 KCAL/MOL
REMARK 924 INTRA-LIGAND FREE ENERGY PREDICTED BY IDOCK:   -0.81 KCAL/MOL
REMARK 927      BINDING AFFINITY PREDICTED BY RF-SCORE:    0.00 PKD
ROOT
HETATM    1  C   UNL     1     -13.637   9.110  72.287  1.00  0.00    -0.489 C  
HETATM    2  N   UNL     1     -13.560  10.537  72.145  1.00  0.00    -0.468 N  
HETATM    3  C   UNL     1     -12.612  11.129  71.338  1.00  0.00    -0.374 C  
HETATM    4  H   UNL     1     -14.220  11.125  72.652  1.00  0.00     0.000 HD 
HETATM    5  O   UNL     1     -11.772  10.497  70.705  1.00  0.00    -0.310 OA 
ENDROOT
BRANCH   3   6
HETATM    6  C   UNL     1     -12.687  12.624  71.258  1.00  0.00    -0.257 A  
HETATM    7  N   UNL     1     -13.629  13.243  72.025  1.00  0.00    -0.488 NA 
HETATM    8  C   UNL     1     -13.721  14.585  71.885  1.00  0.00    -0.428 A  
HETATM    9  C   UNL     1     -12.957  15.330  70.996  1.00  0.00    -0.526 A  
HETATM   10  C   UNL     1     -12.022  14.662  70.213  1.00  0.00    -0.308 A  
HETATM   11  C   UNL     1     -11.843  13.290  70.385  1.00  0.00    -0.270 A  
BRANCH  10  12
HETATM   12  O   UNL     1     -11.307  15.418  69.301  1.00  0.00    -0.273 OA 
BRANCH  12  13
HETATM   13  C   UNL     1     -11.447  15.118  67.961  1.00  0.00    -0.342 A  
HETATM   14  C   UNL     1     -12.399  14.220  67.493  1.00  0.00    -0.084 A  
HETATM   15  C   UNL     1     -12.396  13.840  66.155  1.00  0.00    -0.496 A  
HETATM   16  C   UNL     1     -11.533  14.429  65.224  1.00  0.00    -0.350 A  
HETATM   17  C   UNL     1     -10.637  15.399  65.682  1.00  0.00    -0.379 A  
HETATM   18  C   UNL     1     -10.596  15.743  67.046  1.00  0.00    -0.316 A  
BRANCH  16  19
HETATM   19  N   UNL     1     -11.542  14.066  63.851  1.00  0.00    -0.634 N  
HETATM   20  H   UNL     1     -11.266  14.765  63.161  1.00  0.00     0.000 HD 
BRANCH  19  21
HETATM   21  C   UNL     1     -11.909  12.802  63.404  1.00  0.00    -0.518 C  
HETATM   22  O   UNL     1     -13.074  12.429  63.349  1.00  0.00    -0.689 OA 
BRANCH  21  23
HETATM   23  N   UNL     1     -10.843  12.000  63.038  1.00  0.00    -0.652 N  
HETATM   24  H   UNL     1     -10.465  12.096  62.096  1.00  0.00     0.000 HD 
BRANCH  23  25
HETATM   25  C   UNL     1     -10.246  11.042  63.916  1.00  0.00    -0.364 A  
HETATM   26  C   UNL     1      -9.165  10.236  63.539  1.00  0.00    -0.321 A  
HETATM   27  C   UNL     1      -8.648   9.222  64.363  1.00  0.00    -0.216 A  
HETATM   28  C   UNL     1      -7.549   8.337  63.841  1.00  0.00    -0.133 C  
HETATM   29  C   UNL     1      -9.198   9.067  65.632  1.00  0.00    -0.225 A  
HETATM   30  F   UNL     1      -7.888   7.017  63.827  1.00  0.00    -0.107 F  
HETATM   31  F   UNL     1      -6.400   8.430  64.568  1.00  0.00    -0.062 F  
HETATM   32  F   UNL     1      -7.181   8.622  62.558  1.00  0.00    -0.097 F  
HETATM   33 CL   UNL     1      -8.624   7.871  66.735  1.00  0.00    -0.127 Cl 
HETATM   34  C   UNL     1     -10.246   9.900  66.051  1.00  0.00    -0.269 A  
HETATM   35  C   UNL     1     -10.773  10.880  65.199  1.00  0.00    -0.209 A  
ENDBRANCH  23  25
ENDBRANCH  21  23
ENDBRANCH  19  21
ENDBRANCH  16  19
ENDBRANCH  12  13
ENDBRANCH  10  12
ENDBRANCH   3   6
TORSDOF 7
ENDMDL
MODEL       24
REMARK 921   NORMALIZED FREE ENERGY PREDICTED BY IDOCK:   -6.85 KCAL/MOL
REMARK 922        TOTAL FREE ENERGY PREDICTED BY IDOCK:  -11.51 KCAL/MOL
REMARK 923 INTER-LIGAND FREE ENERGY PREDICTED BY IDOCK:  -10.16 KCAL/MOL
REMARK 924 INTRA-LIGAND FREE ENERGY PREDICTED BY IDOCK:   -1.35 KCAL/MOL
REMARK 927      BINDING AFFINITY PREDICTED BY RF-SCORE:    0.00 PKD
ROOT
HETATM    1  C   UNL     1     -12.653   7.036  71.420  1.00  0.00    -0.386 C  
HETATM    2  N   UNL     1     -12.017   6.982  70.133  1.00  0.00    -0.614 N  
HETATM    3  C   UNL     1     -10.938   6.158  69.898  1.00  0.00    -0.389 C  
HETATM    4  H   UNL     1     -12.372   7.567  69.377  1.00  0.00     0.000 HD 
HETATM    5  O   UNL     1     -10.440   5.434  70.754  1.00  0.00    -0.247 OA 
ENDROOT
BRANCH   3   6
HETATM    6  C   UNL     1     -10.413   6.181  68.493  1.00  0.00    -0.237 A  
HETATM    7  N   UNL     1     -10.652   5.084  67.721  1.00  0.00     0.013 NA 
HETATM    8  C   UNL     1     -10.111   5.101  66.482  1.00  0.00    -0.239 A  
HETATM    9  C   UNL     1      -9.315   6.128  65.993  1.00  0.00    -0.085 A  
HETATM   10  C   UNL     1      -9.071   7.221  66.818  1.00  0.00    -0.148 A  
HETATM   11  C   UNL     1      -9.677   7.276  68.073  1.00  0.00    -0.157 A  
BRANCH  10  12
HETATM   12  O   UNL     1      -8.236   8.209  66.328  1.00  0.00    -0.106 OA 
BRANCH  12  13
HETATM   13  C   UNL     1      -8.802   9.219  65.575  1.00  0.00    -0.187 A  
HETATM   14  C   UNL     1      -9.468  10.295  66.150  1.00  0.00    -0.229 A  
HETATM   15  C   UNL     1     -10.148  11.200  65.343  1.00  0.00    -0.317 A  
HETATM   16  C   UNL     1     -10.085  11.135  63.947  1.00  0.00    -0.348 A  
HETATM   17  C   UNL     1      -9.336  10.104  63.371  1.00  0.00    -0.334 A  
HETATM   18  C   UNL     1      -8.695   9.150  64.184  1.00  0.00    -0.170 A  
BRANCH  16  19
HETATM   19  N   UNL     1     -10.754  12.073  63.116  1.00  0.00    -0.666 N  
HETATM   20  H   UNL     1     -10.272  12.418  62.285  1.00  0.00     0.000 HD 
BRANCH  19  21
HETATM   21  C   UNL     1     -12.035  12.541  63.382  1.00  0.00    -0.514 C  
HETATM   22  O   UNL     1     -13.037  11.850  63.246  1.00  0.00    -0.674 OA 
BRANCH  21  23
HETATM   23  N   UNL     1     -12.081  13.858  63.801  1.00  0.00    -0.806 N  
HETATM   24  H   UNL     1     -12.370  14.570  63.131  1.00  0.00     0.000 HD 
BRANCH  23  25
HETATM   25  C   UNL     1     -11.743  14.270  65.128  1.00  0.00    -0.368 A  
HETATM   26  C   UNL     1     -10.701  15.163  65.403  1.00  0.00    -0.396 A  
HETATM   27  C   UNL     1     -10.300  15.485  66.712  1.00  0.00    -0.288 A  
HETATM   28  C   UNL     1      -9.107  16.378  66.918  1.00  0.00    -0.216 C  
HETATM   29  C   UNL     1     -11.022  14.939  67.769  1.00  0.00    -0.293 A  
HETATM   30  F   UNL     1      -8.115  15.785  67.641  1.00  0.00    -0.133 F  
HETATM   31  F   UNL     1      -9.415  17.536  67.567  1.00  0.00    -0.245 F  
HETATM   32  F   UNL     1      -8.511  16.772  65.755  1.00  0.00    -0.312 F  
HETATM   33 CL   UNL     1     -10.633  15.286  69.413  1.00  0.00    -0.243 Cl 
HETATM   34  C   UNL     1     -12.104  14.084  67.515  1.00  0.00    -0.361 A  
HETATM   35  C   UNL     1     -12.463  13.746  66.203  1.00  0.00    -0.466 A  
ENDBRANCH  23  25
ENDBRANCH  21  23
ENDBRANCH  19  21
ENDBRANCH  16  19
ENDBRANCH  12  13
ENDBRANCH  10  12
ENDBRANCH   3   6
TORSDOF 7
ENDMDL
MODEL       25
REMARK 921   NORMALIZED FREE ENERGY PREDICTED BY IDOCK:   -6.85 KCAL/MOL
REMARK 922        TOTAL FREE ENERGY PREDICTED BY IDOCK:  -11.50 KCAL/MOL
REMARK 923 INTER-LIGAND FREE ENERGY PREDICTED BY IDOCK:  -10.50 KCAL/MOL
REMARK 924 INTRA-LIGAND FREE ENERGY PREDICTED BY IDOCK:   -1.00 KCAL/MOL
REMARK 927      BINDING AFFINITY PREDICTED BY RF-SCORE:    0.00 PKD
ROOT
HETATM    1  C   UNL     1     -10.581   3.561  64.155  1.00  0.00    -0.202 C  
HETATM    2  N   UNL     1     -10.672   4.431  65.295  1.00  0.00    -0.650 N  
HETATM    3  C   UNL     1      -9.593   5.176  65.719  1.00  0.00    -0.122 C  
HETATM    4  H   UNL     1     -11.554   4.499  65.801  1.00  0.00     0.000 HD 
HETATM    5  O   UNL     1      -8.493   5.143  65.177  1.00  0.00    -0.134 OA 
ENDROOT
BRANCH   3   6
HETATM    6  C   UNL     1      -9.857   6.068  66.894  1.00  0.00    -0.158 A  
HETATM    7  N   UNL     1     -10.659   5.578  67.881  1.00  0.00    -0.183 NA 
HETATM    8  C   UNL     1     -10.936   6.426  68.897  1.00  0.00    -0.346 A  
HETATM    9  C   UNL     1     -10.493   7.740  68.959  1.00  0.00    -0.215 A  
HETATM   10  C   UNL     1      -9.696   8.214  67.922  1.00  0.00    -0.161 A  
HETATM   11  C   UNL     1      -9.324   7.346  66.897  1.00  0.00    -0.195 A  
BRANCH  10  12
HETATM   12  O   UNL     1      -9.306   9.540  67.981  1.00  0.00    -0.133 OA 
BRANCH  12  13
HETATM   13  C   UNL     1     -10.118  10.481  67.377  1.00  0.00    -0.197 A  
HETATM   14  C   UNL     1     -10.279  10.552  65.998  1.00  0.00    -0.310 A  
HETATM   15  C   UNL     1     -10.984  11.610  65.436  1.00  0.00    -0.328 A  
HETATM   16  C   UNL     1     -11.649  12.554  66.227  1.00  0.00    -0.394 A  
HETATM   17  C   UNL     1     -11.561  12.427  67.616  1.00  0.00    -0.421 A  
HETATM   18  C   UNL     1     -10.798  11.391  68.189  1.00  0.00    -0.259 A  
BRANCH  16  19
HETATM   19  N   UNL     1     -12.395  13.623  65.661  1.00  0.00    -0.451 N  
HETATM   20  H   UNL     1     -13.317  13.830  66.045  1.00  0.00     0.000 HD 
BRANCH  19  21
HETATM   21  C   UNL     1     -11.925  14.399  64.608  1.00  0.00    -0.464 C  
HETATM   22  O   UNL     1     -12.629  14.736  63.665  1.00  0.00    -0.749 OA 
BRANCH  21  23
HETATM   23  N   UNL     1     -10.591  14.747  64.713  1.00  0.00    -0.563 N  
HETATM   24  H   UNL     1      -9.931  14.344  64.047  1.00  0.00     0.000 HD 
BRANCH  23  25
HETATM   25  C   UNL     1     -10.090  15.642  65.708  1.00  0.00    -0.366 A  
HETATM   26  C   UNL     1     -10.372  17.014  65.707  1.00  0.00    -0.275 A  
HETATM   27  C   UNL     1      -9.794  17.911  66.622  1.00  0.00    -0.342 A  
HETATM   28  C   UNL     1     -10.075  19.383  66.489  1.00  0.00    -0.422 C  
HETATM   29  C   UNL     1      -8.961  17.391  67.608  1.00  0.00    -0.233 A  
HETATM   30  F   UNL     1      -8.948  20.127  66.306  1.00  0.00    -0.368 F  
HETATM   31  F   UNL     1     -10.707  19.904  67.577  1.00  0.00    -0.524 F  
HETATM   32  F   UNL     1     -10.879  19.692  65.430  1.00  0.00    -0.584 F  
HETATM   33 CL   UNL     1      -8.218  18.397  68.797  1.00  0.00    -0.296 Cl 
HETATM   34  C   UNL     1      -8.708  16.013  67.661  1.00  0.00    -0.180 A  
HETATM   35  C   UNL     1      -9.264  15.141  66.715  1.00  0.00    -0.277 A  
ENDBRANCH  23  25
ENDBRANCH  21  23
ENDBRANCH  19  21
ENDBRANCH  16  19
ENDBRANCH  12  13
ENDBRANCH  10  12
ENDBRANCH   3   6
TORSDOF 7
ENDMDL
MODEL       26
REMARK 921   NORMALIZED FREE ENERGY PREDICTED BY IDOCK:   -6.83 KCAL/MOL
REMARK 922        TOTAL FREE ENERGY PREDICTED BY IDOCK:  -11.47 KCAL/MOL
REMARK 923 INTER-LIGAND FREE ENERGY PREDICTED BY IDOCK:  -10.60 KCAL/MOL
REMARK 924 INTRA-LIGAND FREE ENERGY PREDICTED BY IDOCK:   -0.87 KCAL/MOL
REMARK 927      BINDING AFFINITY PREDICTED BY RF-SCORE:    0.00 PKD
ROOT
HETATM    1  C   UNL     1     -11.636   8.282  72.416  1.00  0.00    -0.396 C  
HETATM    2  N   UNL     1     -10.812   8.669  71.305  1.00  0.00    -0.242 N  
HETATM    3  C   UNL     1      -9.467   8.928  71.464  1.00  0.00    -0.277 C  
HETATM    4  H   UNL     1     -11.230   8.754  70.379  1.00  0.00     0.000 HD 
HETATM    5  O   UNL     1      -8.888   8.864  72.543  1.00  0.00    -0.381 OA 
ENDROOT
BRANCH   3   6
HETATM    6  C   UNL     1      -8.733   9.277  70.204  1.00  0.00    -0.204 A  
HETATM    7  N   UNL     1      -7.657  10.105  70.319  1.00  0.00    -0.226 NA 
HETATM    8  C   UNL     1      -7.052  10.459  69.162  1.00  0.00    -0.080 A  
HETATM    9  C   UNL     1      -7.488  10.066  67.904  1.00  0.00    -0.089 A  
HETATM   10  C   UNL     1      -8.604   9.241  67.823  1.00  0.00    -0.117 A  
HETATM   11  C   UNL     1      -9.207   8.791  68.997  1.00  0.00    -0.141 A  
BRANCH  10  12
HETATM   12  O   UNL     1      -9.049   8.902  66.557  1.00  0.00    -0.147 OA 
BRANCH  12  13
HETATM   13  C   UNL     1      -9.667   9.881  65.804  1.00  0.00    -0.266 A  
HETATM   14  C   UNL     1      -9.463  10.009  64.435  1.00  0.00    -0.349 A  
HETATM   15  C   UNL     1      -9.987  11.102  63.756  1.00  0.00    -0.401 A  
HETATM   16  C   UNL     1     -10.827  12.028  64.386  1.00  0.00    -0.329 A  
HETATM   17  C   UNL     1     -11.105  11.845  65.743  1.00  0.00    -0.367 A  
HETATM   18  C   UNL     1     -10.527  10.772  66.449  1.00  0.00    -0.293 A  
BRANCH  16  19
HETATM   19  N   UNL     1     -11.390  13.132  63.692  1.00  0.00    -0.606 N  
HETATM   20  H   UNL     1     -11.314  13.158  62.674  1.00  0.00     0.000 HD 
BRANCH  19  21
HETATM   21  C   UNL     1     -12.039  14.179  64.335  1.00  0.00    -0.463 C  
HETATM   22  O   UNL     1     -13.072  14.028  64.975  1.00  0.00    -0.742 OA 
BRANCH  21  23
HETATM   23  N   UNL     1     -11.423  15.408  64.180  1.00  0.00    -0.749 N  
HETATM   24  H   UNL     1     -11.524  15.892  63.287  1.00  0.00     0.000 HD 
BRANCH  23  25
HETATM   25  C   UNL     1     -10.651  16.033  65.208  1.00  0.00    -0.402 A  
HETATM   26  C   UNL     1     -10.732  17.402  65.492  1.00  0.00    -0.081 A  
HETATM   27  C   UNL     1      -9.897  18.035  66.429  1.00  0.00    -0.340 A  
HETATM   28  C   UNL     1      -9.983  19.527  66.603  1.00  0.00    -0.407 C  
HETATM   29  C   UNL     1      -9.003  17.245  67.147  1.00  0.00    -0.226 A  
HETATM   30  F   UNL     1      -8.803  20.163  66.352  1.00  0.00    -0.350 F  
HETATM   31  F   UNL     1     -10.357  19.896  67.860  1.00  0.00    -0.487 F  
HETATM   32  F   UNL     1     -10.889  20.122  65.774  1.00  0.00    -0.503 F  
HETATM   33 CL   UNL     1      -7.949  17.914  68.337  1.00  0.00    -0.290 Cl 
HETATM   34  C   UNL     1      -8.944  15.864  66.916  1.00  0.00    -0.257 A  
HETATM   35  C   UNL     1      -9.758  15.258  65.950  1.00  0.00    -0.390 A  
ENDBRANCH  23  25
ENDBRANCH  21  23
ENDBRANCH  19  21
ENDBRANCH  16  19
ENDBRANCH  12  13
ENDBRANCH  10  12
ENDBRANCH   3   6
TORSDOF 7
ENDMDL
MODEL       27
REMARK 921   NORMALIZED FREE ENERGY PREDICTED BY IDOCK:   -6.83 KCAL/MOL
REMARK 922        TOTAL FREE ENERGY PREDICTED BY IDOCK:  -11.47 KCAL/MOL
REMARK 923 INTER-LIGAND FREE ENERGY PREDICTED BY IDOCK:  -10.48 KCAL/MOL
REMARK 924 INTRA-LIGAND FREE ENERGY PREDICTED BY IDOCK:   -0.99 KCAL/MOL
REMARK 927      BINDING AFFINITY PREDICTED BY RF-SCORE:    0.00 PKD
ROOT
HETATM    1  C   UNL     1     -10.610   5.551  68.993  1.00  0.00    -0.201 C  
HETATM    2  N   UNL     1     -11.304   6.699  69.509  1.00  0.00    -0.542 N  
HETATM    3  C   UNL     1     -10.965   7.260  70.721  1.00  0.00    -0.251 C  
HETATM    4  H   UNL     1     -12.064   7.107  68.966  1.00  0.00     0.000 HD 
HETATM    5  O   UNL     1     -10.075   6.824  71.443  1.00  0.00    -0.183 OA 
ENDROOT
BRANCH   3   6
HETATM    6  C   UNL     1     -11.751   8.479  71.101  1.00  0.00    -0.281 A  
HETATM    7  N   UNL     1     -12.917   8.282  71.778  1.00  0.00    -0.336 NA 
HETATM    8  C   UNL     1     -13.640   9.392  72.050  1.00  0.00    -0.433 A  
HETATM    9  C   UNL     1     -13.284  10.673  71.648  1.00  0.00    -0.495 A  
HETATM   10  C   UNL     1     -12.099  10.833  70.938  1.00  0.00    -0.370 A  
HETATM   11  C   UNL     1     -11.287   9.723  70.707  1.00  0.00    -0.416 A  
BRANCH  10  12
HETATM   12  O   UNL     1     -11.788  12.110  70.507  1.00  0.00    -0.287 OA 
BRANCH  12  13
HETATM   13  C   UNL     1     -11.795  12.354  69.148  1.00  0.00    -0.300 A  
HETATM   14  C   UNL     1     -11.627  11.343  68.208  1.00  0.00    -0.376 A  
HETATM   15  C   UNL     1     -11.489  11.664  66.862  1.00  0.00    -0.320 A  
HETATM   16  C   UNL     1     -11.638  12.976  66.399  1.00  0.00    -0.363 A  
HETATM   17  C   UNL     1     -11.899  13.979  67.338  1.00  0.00    -0.445 A  
HETATM   18  C   UNL     1     -11.980  13.666  68.708  1.00  0.00    -0.394 A  
BRANCH  16  19
HETATM   19  N   UNL     1     -11.526  13.309  65.022  1.00  0.00    -0.299 N  
HETATM   20  H   UNL     1     -11.085  14.193  64.768  1.00  0.00     0.000 HD 
BRANCH  19  21
HETATM   21  C   UNL     1     -11.992  12.484  64.005  1.00  0.00    -0.454 C  
HETATM   22  O   UNL     1     -13.153  12.103  63.937  1.00  0.00    -0.749 OA 
BRANCH  21  23
HETATM   23  N   UNL     1     -11.026  12.124  63.082  1.00  0.00    -0.681 N  
HETATM   24  H   UNL     1     -11.051  12.558  62.160  1.00  0.00     0.000 HD 
BRANCH  23  25
HETATM   25  C   UNL     1      -9.996  11.171  63.358  1.00  0.00    -0.387 A  
HETATM   26  C   UNL     1     -10.078  10.246  64.406  1.00  0.00    -0.242 A  
HETATM   27  C   UNL     1      -9.021   9.383  64.744  1.00  0.00    -0.241 A  
HETATM   28  C   UNL     1      -9.155   8.488  65.946  1.00  0.00    -0.183 C  
HETATM   29  C   UNL     1      -7.876   9.412  63.952  1.00  0.00    -0.129 A  
HETATM   30  F   UNL     1      -8.188   8.703  66.882  1.00  0.00    -0.101 F  
HETATM   31  F   UNL     1      -9.098   7.164  65.632  1.00  0.00    -0.144 F  
HETATM   32  F   UNL     1     -10.336   8.643  66.613  1.00  0.00    -0.327 F  
HETATM   33 CL   UNL     1      -6.529   8.379  64.261  1.00  0.00    -0.066 Cl 
HETATM   34  C   UNL     1      -7.795  10.293  62.865  1.00  0.00    -0.151 A  
HETATM   35  C   UNL     1      -8.845  11.172  62.569  1.00  0.00    -0.331 A  
ENDBRANCH  23  25
ENDBRANCH  21  23
ENDBRANCH  19  21
ENDBRANCH  16  19
ENDBRANCH  12  13
ENDBRANCH  10  12
ENDBRANCH   3   6
TORSDOF 7
ENDMDL
MODEL       28
REMARK 921   NORMALIZED FREE ENERGY PREDICTED BY IDOCK:   -6.82 KCAL/MOL
REMARK 922        TOTAL FREE ENERGY PREDICTED BY IDOCK:  -11.45 KCAL/MOL
REMARK 923 INTER-LIGAND FREE ENERGY PREDICTED BY IDOCK:  -10.42 KCAL/MOL
REMARK 924 INTRA-LIGAND FREE ENERGY PREDICTED BY IDOCK:   -1.04 KCAL/MOL
REMARK 927      BINDING AFFINITY PREDICTED BY RF-SCORE:    0.00 PKD
ROOT
HETATM    1  C   UNL     1     -10.313  17.866  65.989  1.00  0.00    -0.318 C  
HETATM    2  N   UNL     1     -10.484  16.448  65.837  1.00  0.00    -0.346 N  
HETATM    3  C   UNL     1     -11.180  15.918  64.771  1.00  0.00    -0.355 C  
HETATM    4  H   UNL     1     -10.083  15.819  66.532  1.00  0.00     0.000 HD 
HETATM    5  O   UNL     1     -11.706  16.602  63.899  1.00  0.00    -1.153 OA 
ENDROOT
BRANCH   3   6
HETATM    6  C   UNL     1     -11.235  14.420  64.727  1.00  0.00    -0.387 A  
HETATM    7  N   UNL     1     -12.163  13.855  63.905  1.00  0.00    -0.629 NA 
HETATM    8  C   UNL     1     -12.238  12.505  63.933  1.00  0.00    -0.503 A  
HETATM    9  C   UNL     1     -11.471  11.699  64.764  1.00  0.00    -0.225 A  
HETATM   10  C   UNL     1     -10.551  12.312  65.608  1.00  0.00    -0.260 A  
HETATM   11  C   UNL     1     -10.389  13.695  65.550  1.00  0.00    -0.319 A  
BRANCH  10  12
HETATM   12  O   UNL     1      -9.832  11.493  66.460  1.00  0.00    -0.195 OA 
BRANCH  12  13
HETATM   13  C   UNL     1     -10.424  11.120  67.651  1.00  0.00    -0.196 A  
HETATM   14  C   UNL     1     -11.543  11.767  68.163  1.00  0.00    -0.391 A  
HETATM   15  C   UNL     1     -12.004  11.451  69.436  1.00  0.00    -0.407 A  
HETATM   16  C   UNL     1     -11.449  10.406  70.182  1.00  0.00    -0.319 A  
HETATM   17  C   UNL     1     -10.381   9.696  69.625  1.00  0.00    -0.245 A  
HETATM   18  C   UNL     1      -9.873  10.052  68.361  1.00  0.00    -0.169 A  
BRANCH  16  19
HETATM   19  N   UNL     1     -11.932  10.059  71.472  1.00  0.00    -0.378 N  
HETATM   20  H   UNL     1     -11.507  10.500  72.287  1.00  0.00     0.000 HD 
BRANCH  19  21
HETATM   21  C   UNL     1     -12.960   9.145  71.674  1.00  0.00    -0.365 C  
HETATM   22  O   UNL     1     -14.096   9.318  71.253  1.00  0.00    -0.249 OA 
BRANCH  21  23
HETATM   23  N   UNL     1     -12.589   8.029  72.403  1.00  0.00    -0.546 N  
HETATM   24  H   UNL     1     -12.910   7.952  73.369  1.00  0.00     0.000 HD 
BRANCH  23  25
HETATM   25  C   UNL     1     -11.780   6.978  71.870  1.00  0.00    -0.296 A  
HETATM   26  C   UNL     1     -10.912   6.214  72.658  1.00  0.00    -0.291 A  
HETATM   27  C   UNL     1     -10.038   5.254  72.118  1.00  0.00    -0.241 A  
HETATM   28  C   UNL     1      -9.068   4.546  73.024  1.00  0.00    -0.119 C  
HETATM   29  C   UNL     1     -10.097   5.015  70.748  1.00  0.00    -0.237 A  
HETATM   30  F   UNL     1      -7.767   4.733  72.664  1.00  0.00    -0.084 F  
HETATM   31  F   UNL     1      -9.265   3.199  73.066  1.00  0.00    -0.093 F  
HETATM   32  F   UNL     1      -9.138   4.956  74.325  1.00  0.00    -0.111 F  
HETATM   33 CL   UNL     1      -9.089   3.843  69.983  1.00  0.00    -0.170 Cl 
HETATM   34  C   UNL     1     -10.999   5.731  69.947  1.00  0.00    -0.389 A  
HETATM   35  C   UNL     1     -11.834   6.711  70.501  1.00  0.00    -0.430 A  
ENDBRANCH  23  25
ENDBRANCH  21  23
ENDBRANCH  19  21
ENDBRANCH  16  19
ENDBRANCH  12  13
ENDBRANCH  10  12
ENDBRANCH   3   6
TORSDOF 7
ENDMDL
MODEL       29
REMARK 921   NORMALIZED FREE ENERGY PREDICTED BY IDOCK:   -6.79 KCAL/MOL
REMARK 922        TOTAL FREE ENERGY PREDICTED BY IDOCK:  -11.42 KCAL/MOL
REMARK 923 INTER-LIGAND FREE ENERGY PREDICTED BY IDOCK:  -10.03 KCAL/MOL
REMARK 924 INTRA-LIGAND FREE ENERGY PREDICTED BY IDOCK:   -1.39 KCAL/MOL
REMARK 927      BINDING AFFINITY PREDICTED BY RF-SCORE:    0.00 PKD
ROOT
HETATM    1  C   UNL     1     -13.325   9.184  72.265  1.00  0.00    -0.477 C  
HETATM    2  N   UNL     1     -13.310  10.618  72.173  1.00  0.00    -0.580 N  
HETATM    3  C   UNL     1     -12.604  11.268  71.184  1.00  0.00    -0.397 C  
HETATM    4  H   UNL     1     -13.834  11.167  72.854  1.00  0.00     0.000 HD 
HETATM    5  O   UNL     1     -11.937  10.687  70.335  1.00  0.00    -0.286 OA 
ENDROOT
BRANCH   3   6
HETATM    6  C   UNL     1     -12.723  12.763  71.194  1.00  0.00    -0.263 A  
HETATM    7  N   UNL     1     -13.638  13.310  72.043  1.00  0.00    -0.488 NA 
HETATM    8  C   UNL     1     -13.773  14.654  71.985  1.00  0.00    -0.430 A  
HETATM    9  C   UNL     1     -13.079  15.470  71.101  1.00  0.00    -0.573 A  
HETATM   10  C   UNL     1     -12.171  14.874  70.233  1.00  0.00    -0.335 A  
HETATM   11  C   UNL     1     -11.946  13.501  70.317  1.00  0.00    -0.386 A  
BRANCH  10  12
HETATM   12  O   UNL     1     -11.526  15.700  69.329  1.00  0.00    -0.312 OA 
BRANCH  12  13
HETATM   13  C   UNL     1     -11.324  15.225  68.048  1.00  0.00    -0.338 A  
HETATM   14  C   UNL     1     -12.158  14.278  67.464  1.00  0.00    -0.347 A  
HETATM   15  C   UNL     1     -11.821  13.723  66.234  1.00  0.00    -0.426 A  
HETATM   16  C   UNL     1     -10.723  14.178  65.496  1.00  0.00    -0.324 A  
HETATM   17  C   UNL     1      -9.939  15.197  66.046  1.00  0.00    -0.335 A  
HETATM   18  C   UNL     1     -10.241  15.720  67.318  1.00  0.00    -0.268 A  
BRANCH  16  19
HETATM   19  N   UNL     1     -10.389  13.636  64.226  1.00  0.00    -0.648 N  
HETATM   20  H   UNL     1     -10.086  14.273  63.489  1.00  0.00     0.000 HD 
BRANCH  19  21
HETATM   21  C   UNL     1     -10.455  12.277  63.942  1.00  0.00    -0.429 C  
HETATM   22  O   UNL     1     -11.408  11.763  63.370  1.00  0.00    -0.402 OA 
BRANCH  21  23
HETATM   23  N   UNL     1      -9.357  11.555  64.374  1.00  0.00    -0.420 N  
HETATM   24  H   UNL     1      -8.562  11.458  63.742  1.00  0.00     0.000 HD 
BRANCH  23  25
HETATM   25  C   UNL     1      -9.283  10.937  65.660  1.00  0.00    -0.203 A  
HETATM   26  C   UNL     1      -8.219  11.149  66.545  1.00  0.00    -0.167 A  
HETATM   27  C   UNL     1      -8.092  10.460  67.763  1.00  0.00    -0.103 A  
HETATM   28  C   UNL     1      -6.866  10.676  68.609  1.00  0.00    -0.059 C  
HETATM   29  C   UNL     1      -9.109   9.582  68.126  1.00  0.00    -0.127 A  
HETATM   30  F   UNL     1      -6.163   9.530  68.833  1.00  0.00    -0.042 F  
HETATM   31  F   UNL     1      -7.151  11.197  69.835  1.00  0.00    -0.138 F  
HETATM   32  F   UNL     1      -5.966  11.541  68.056  1.00  0.00    -0.046 F  
HETATM   33 CL   UNL     1      -9.068   8.702  69.609  1.00  0.00    -0.147 Cl 
HETATM   34  C   UNL     1     -10.211   9.394  67.280  1.00  0.00    -0.308 A  
HETATM   35  C   UNL     1     -10.299  10.063  66.051  1.00  0.00    -0.222 A  
ENDBRANCH  23  25
ENDBRANCH  21  23
ENDBRANCH  19  21
ENDBRANCH  16  19
ENDBRANCH  12  13
ENDBRANCH  10  12
ENDBRANCH   3   6
TORSDOF 7
ENDMDL
MODEL       30
REMARK 921   NORMALIZED FREE ENERGY PREDICTED BY IDOCK:   -6.77 KCAL/MOL
REMARK 922        TOTAL FREE ENERGY PREDICTED BY IDOCK:  -11.39 KCAL/MOL
REMARK 923 INTER-LIGAND FREE ENERGY PREDICTED BY IDOCK:  -10.38 KCAL/MOL
REMARK 924 INTRA-LIGAND FREE ENERGY PREDICTED BY IDOCK:   -1.01 KCAL/MOL
REMARK 927      BINDING AFFINITY PREDICTED BY RF-SCORE:    0.00 PKD
ROOT
HETATM    1  C   UNL     1     -11.529   4.580  73.281  1.00  0.00    -0.219 C  
HETATM    2  N   UNL     1     -11.774   5.931  72.857  1.00  0.00    -0.520 N  
HETATM    3  C   UNL     1     -11.073   6.495  71.813  1.00  0.00    -0.257 C  
HETATM    4  H   UNL     1     -12.482   6.484  73.339  1.00  0.00     0.000 HD 
HETATM    5  O   UNL     1     -10.196   5.906  71.190  1.00  0.00    -0.198 OA 
ENDROOT
BRANCH   3   6
HETATM    6  C   UNL     1     -11.474   7.896  71.461  1.00  0.00    -0.265 A  
HETATM    7  N   UNL     1     -12.743   8.280  71.775  1.00  0.00    -0.325 NA 
HETATM    8  C   UNL     1     -13.101   9.524  71.386  1.00  0.00    -0.370 A  
HETATM    9  C   UNL     1     -12.279  10.384  70.670  1.00  0.00    -0.441 A  
HETATM   10  C   UNL     1     -10.998   9.950  70.346  1.00  0.00    -0.318 A  
HETATM   11  C   UNL     1     -10.565   8.704  70.797  1.00  0.00    -0.254 A  
BRANCH  10  12
HETATM   12  O   UNL     1     -10.214  10.804  69.590  1.00  0.00    -0.180 OA 
BRANCH  12  13
HETATM   13  C   UNL     1     -10.842  11.601  68.653  1.00  0.00    -0.213 A  
HETATM   14  C   UNL     1     -11.093  11.170  67.356  1.00  0.00    -0.370 A  
HETATM   15  C   UNL     1     -11.588  12.063  66.412  1.00  0.00    -0.381 A  
HETATM   16  C   UNL     1     -11.962  13.367  66.757  1.00  0.00    -0.394 A  
HETATM   17  C   UNL     1     -11.794  13.768  68.086  1.00  0.00    -0.411 A  
HETATM   18  C   UNL     1     -11.237  12.886  69.031  1.00  0.00    -0.320 A  
BRANCH  16  19
HETATM   19  N   UNL     1     -12.495  14.277  65.805  1.00  0.00    -0.431 N  
HETATM   20  H   UNL     1     -13.297  14.848  66.073  1.00  0.00     0.000 HD 
BRANCH  19  21
HETATM   21  C   UNL     1     -11.974  14.424  64.525  1.00  0.00    -0.472 C  
HETATM   22  O   UNL     1     -12.612  14.163  63.513  1.00  0.00    -0.834 OA 
BRANCH  21  23
HETATM   23  N   UNL     1     -10.668  14.880  64.495  1.00  0.00    -0.601 N  
HETATM   24  H   UNL     1     -10.025  14.465  63.820  1.00  0.00     0.000 HD 
BRANCH  23  25
HETATM   25  C   UNL     1     -10.175  15.903  65.363  1.00  0.00    -0.323 A  
HETATM   26  C   UNL     1      -9.153  15.682  66.294  1.00  0.00    -0.376 A  
HETATM   27  C   UNL     1      -8.743  16.657  67.220  1.00  0.00    -0.207 A  
HETATM   28  C   UNL     1      -7.705  16.305  68.251  1.00  0.00    -0.158 C  
HETATM   29  C   UNL     1      -9.338  17.914  67.153  1.00  0.00    -0.265 A  
HETATM   30  F   UNL     1      -8.150  16.459  69.530  1.00  0.00    -0.222 F  
HETATM   31  F   UNL     1      -6.573  17.055  68.145  1.00  0.00    -0.136 F  
HETATM   32  F   UNL     1      -7.280  15.009  68.177  1.00  0.00    -0.096 F  
HETATM   33 CL   UNL     1      -8.893  19.191  68.223  1.00  0.00    -0.361 Cl 
HETATM   34  C   UNL     1     -10.325  18.173  66.192  1.00  0.00    -0.394 A  
HETATM   35  C   UNL     1     -10.748  17.175  65.303  1.00  0.00    -0.067 A  
ENDBRANCH  23  25
ENDBRANCH  21  23
ENDBRANCH  19  21
ENDBRANCH  16  19
ENDBRANCH  12  13
ENDBRANCH  10  12
ENDBRANCH   3   6
TORSDOF 7
ENDMDL
MODEL       31
REMARK 921   NORMALIZED FREE ENERGY PREDICTED BY IDOCK:   -6.76 KCAL/MOL
REMARK 922        TOTAL FREE ENERGY PREDICTED BY IDOCK:  -11.37 KCAL/MOL
REMARK 923 INTER-LIGAND FREE ENERGY PREDICTED BY IDOCK:   -9.88 KCAL/MOL
REMARK 924 INTRA-LIGAND FREE ENERGY PREDICTED BY IDOCK:   -1.50 KCAL/MOL
REMARK 927      BINDING AFFINITY PREDICTED BY RF-SCORE:    0.00 PKD
ROOT
HETATM    1  C   UNL     1     -13.227  11.848  71.941  1.00  0.00    -0.362 C  
HETATM    2  N   UNL     1     -12.419  10.807  71.368  1.00  0.00    -0.378 N  
HETATM    3  C   UNL     1     -12.823   9.490  71.388  1.00  0.00    -0.358 C  
HETATM    4  H   UNL     1     -11.527  11.049  70.938  1.00  0.00     0.000 HD 
HETATM    5  O   UNL     1     -13.872   9.111  71.898  1.00  0.00    -0.402 OA 
ENDROOT
BRANCH   3   6
HETATM    6  C   UNL     1     -11.892   8.528  70.712  1.00  0.00    -0.163 A  
HETATM    7  N   UNL     1     -12.147   7.199  70.872  1.00  0.00    -0.340 NA 
HETATM    8  C   UNL     1     -11.255   6.351  70.309  1.00  0.00    -0.382 A  
HETATM    9  C   UNL     1     -10.111   6.759  69.636  1.00  0.00    -0.197 A  
HETATM   10  C   UNL     1      -9.871   8.122  69.513  1.00  0.00    -0.181 A  
HETATM   11  C   UNL     1     -10.807   9.027  70.011  1.00  0.00    -0.247 A  
BRANCH  10  12
HETATM   12  O   UNL     1      -8.701   8.504  68.881  1.00  0.00    -0.130 OA 
BRANCH  12  13
HETATM   13  C   UNL     1      -8.804   9.224  67.707  1.00  0.00    -0.120 A  
HETATM   14  C   UNL     1      -8.302  10.513  67.576  1.00  0.00    -0.118 A  
HETATM   15  C   UNL     1      -8.568  11.247  66.425  1.00  0.00    -0.174 A  
HETATM   16  C   UNL     1      -9.229  10.683  65.328  1.00  0.00    -0.197 A  
HETATM   17  C   UNL     1      -9.653   9.354  65.429  1.00  0.00    -0.296 A  
HETATM   18  C   UNL     1      -9.438   8.627  66.615  1.00  0.00    -0.267 A  
BRANCH  16  19
HETATM   19  N   UNL     1      -9.480  11.417  64.138  1.00  0.00    -0.385 N  
HETATM   20  H   UNL     1      -8.825  11.323  63.361  1.00  0.00     0.000 HD 
BRANCH  19  21
HETATM   21  C   UNL     1     -10.577  12.256  63.983  1.00  0.00    -0.400 C  
HETATM   22  O   UNL     1     -11.682  11.850  63.647  1.00  0.00    -0.445 OA 
BRANCH  21  23
HETATM   23  N   UNL     1     -10.308  13.590  64.231  1.00  0.00    -0.656 N  
HETATM   24  H   UNL     1      -9.826  14.128  63.511  1.00  0.00     0.000 HD 
BRANCH  23  25
HETATM   25  C   UNL     1     -10.674  14.250  65.445  1.00  0.00    -0.343 A  
HETATM   26  C   UNL     1     -10.319  15.575  65.724  1.00  0.00    -0.384 A  
HETATM   27  C   UNL     1     -10.585  16.190  66.961  1.00  0.00    -0.292 A  
HETATM   28  C   UNL     1     -10.082  17.586  67.214  1.00  0.00    -0.327 C  
HETATM   29  C   UNL     1     -11.292  15.462  67.913  1.00  0.00    -0.325 A  
HETATM   30  F   UNL     1      -9.246  17.665  68.286  1.00  0.00    -0.249 F  
HETATM   31  F   UNL     1     -11.085  18.479  67.442  1.00  0.00    -0.436 F  
HETATM   32  F   UNL     1      -9.373  18.108  66.171  1.00  0.00    -0.294 F  
HETATM   33 CL   UNL     1     -11.694  16.126  69.454  1.00  0.00    -0.269 Cl 
HETATM   34  C   UNL     1     -11.705  14.152  67.633  1.00  0.00    -0.421 A  
HETATM   35  C   UNL     1     -11.395  13.544  66.409  1.00  0.00    -0.335 A  
ENDBRANCH  23  25
ENDBRANCH  21  23
ENDBRANCH  19  21
ENDBRANCH  16  19
ENDBRANCH  12  13
ENDBRANCH  10  12
ENDBRANCH   3   6
TORSDOF 7
ENDMDL
MODEL       32
REMARK 921   NORMALIZED FREE ENERGY PREDICTED BY IDOCK:   -6.71 KCAL/MOL
REMARK 922        TOTAL FREE ENERGY PREDICTED BY IDOCK:  -11.30 KCAL/MOL
REMARK 923 INTER-LIGAND FREE ENERGY PREDICTED BY IDOCK:   -9.88 KCAL/MOL
REMARK 924 INTRA-LIGAND FREE ENERGY PREDICTED BY IDOCK:   -1.42 KCAL/MOL
REMARK 927      BINDING AFFINITY PREDICTED BY RF-SCORE:    0.00 PKD
ROOT
HETATM    1  C   UNL     1     -13.066   9.551  72.328  1.00  0.00    -0.408 C  
HETATM    2  N   UNL     1     -11.891   9.485  71.504  1.00  0.00    -0.381 N  
HETATM    3  C   UNL     1     -10.826   8.676  71.834  1.00  0.00    -0.348 C  
HETATM    4  H   UNL     1     -11.844  10.049  70.656  1.00  0.00     0.000 HD 
HETATM    5  O   UNL     1     -10.793   7.977  72.842  1.00  0.00    -0.366 OA 
ENDROOT
BRANCH   3   6
HETATM    6  C   UNL     1      -9.692   8.682  70.852  1.00  0.00    -0.204 A  
HETATM    7  N   UNL     1      -8.507   9.206  71.272  1.00  0.00    -0.325 NA 
HETATM    8  C   UNL     1      -7.521   9.262  70.348  1.00  0.00    -0.121 A  
HETATM    9  C   UNL     1      -7.669   8.863  69.026  1.00  0.00    -0.090 A  
HETATM   10  C   UNL     1      -8.900   8.355  68.627  1.00  0.00    -0.136 A  
HETATM   11  C   UNL     1      -9.916   8.209  69.570  1.00  0.00    -0.187 A  
BRANCH  10  12
HETATM   12  O   UNL     1      -9.039   8.009  67.294  1.00  0.00    -0.131 OA 
BRANCH  12  13
HETATM   13  C   UNL     1      -9.397   9.001  66.402  1.00  0.00    -0.206 A  
HETATM   14  C   UNL     1     -10.280  10.021  66.736  1.00  0.00    -0.295 A  
HETATM   15  C   UNL     1     -10.723  10.902  65.756  1.00  0.00    -0.179 A  
HETATM   16  C   UNL     1     -10.212  10.874  64.454  1.00  0.00    -0.358 A  
HETATM   17  C   UNL     1      -9.253   9.904  64.146  1.00  0.00    -0.312 A  
HETATM   18  C   UNL     1      -8.846   8.971  65.119  1.00  0.00    -0.224 A  
BRANCH  16  19
HETATM   19  N   UNL     1     -10.638  11.789  63.454  1.00  0.00    -0.554 N  
HETATM   20  H   UNL     1     -10.050  11.920  62.631  1.00  0.00     0.000 HD 
BRANCH  19  21
HETATM   21  C   UNL     1     -11.822  12.512  63.546  1.00  0.00    -0.534 C  
HETATM   22  O   UNL     1     -12.918  12.029  63.292  1.00  0.00    -0.736 OA 
BRANCH  21  23
HETATM   23  N   UNL     1     -11.651  13.828  63.937  1.00  0.00    -0.638 N  
HETATM   24  H   UNL     1     -11.693  14.555  63.223  1.00  0.00     0.000 HD 
BRANCH  23  25
HETATM   25  C   UNL     1     -11.420  14.219  65.292  1.00  0.00    -0.344 A  
HETATM   26  C   UNL     1     -10.279  14.922  65.696  1.00  0.00    -0.382 A  
HETATM   27  C   UNL     1     -10.000  15.212  67.043  1.00  0.00    -0.242 A  
HETATM   28  C   UNL     1      -8.702  15.886  67.399  1.00  0.00    -0.181 C  
HETATM   29  C   UNL     1     -10.940  14.840  67.999  1.00  0.00    -0.271 A  
HETATM   30  F   UNL     1      -7.937  15.151  68.254  1.00  0.00    -0.119 F  
HETATM   31  F   UNL     1      -8.877  17.101  67.988  1.00  0.00    -0.210 F  
HETATM   32  F   UNL     1      -7.898  16.126  66.321  1.00  0.00    -0.298 F  
HETATM   33 CL   UNL     1     -10.712  15.169  69.677  1.00  0.00    -0.274 Cl 
HETATM   34  C   UNL     1     -12.116  14.183  67.611  1.00  0.00    -0.337 A  
HETATM   35  C   UNL     1     -12.356  13.869  66.267  1.00  0.00    -0.489 A  
ENDBRANCH  23  25
ENDBRANCH  21  23
ENDBRANCH  19  21
ENDBRANCH  16  19
ENDBRANCH  12  13
ENDBRANCH  10  12
ENDBRANCH   3   6
TORSDOF 7
ENDMDL
MODEL       33
REMARK 921   NORMALIZED FREE ENERGY PREDICTED BY IDOCK:   -6.71 KCAL/MOL
REMARK 922        TOTAL FREE ENERGY PREDICTED BY IDOCK:  -11.30 KCAL/MOL
REMARK 923 INTER-LIGAND FREE ENERGY PREDICTED BY IDOCK:  -10.20 KCAL/MOL
REMARK 924 INTRA-LIGAND FREE ENERGY PREDICTED BY IDOCK:   -1.09 KCAL/MOL
REMARK 927      BINDING AFFINITY PREDICTED BY RF-SCORE:    0.00 PKD
ROOT
HETATM    1  C   UNL     1      -9.597   4.222  67.929  1.00  0.00    -0.152 C  
HETATM    2  N   UNL     1     -10.020   5.180  68.912  1.00  0.00    -0.173 N  
HETATM    3  C   UNL     1     -10.127   4.844  70.244  1.00  0.00    -0.252 C  
HETATM    4  H   UNL     1     -10.247   6.130  68.617  1.00  0.00     0.000 HD 
HETATM    5  O   UNL     1      -9.888   3.723  70.681  1.00  0.00    -0.184 OA 
ENDROOT
BRANCH   3   6
HETATM    6  C   UNL     1     -10.537   5.964  71.153  1.00  0.00    -0.246 A  
HETATM    7  N   UNL     1      -9.907   6.052  72.357  1.00  0.00    -0.162 NA 
HETATM    8  C   UNL     1     -10.342   7.029  73.186  1.00  0.00    -0.281 A  
HETATM    9  C   UNL     1     -11.393   7.888  72.893  1.00  0.00    -0.399 A  
HETATM   10  C   UNL     1     -12.029   7.754  71.664  1.00  0.00    -0.297 A  
HETATM   11  C   UNL     1     -11.558   6.811  70.752  1.00  0.00    -0.418 A  
BRANCH  10  12
HETATM   12  O   UNL     1     -13.104   8.588  71.414  1.00  0.00    -0.303 OA 
BRANCH  12  13
HETATM   13  C   UNL     1     -12.852   9.936  71.248  1.00  0.00    -0.390 A  
HETATM   14  C   UNL     1     -13.401  10.905  72.079  1.00  0.00    -0.394 A  
HETATM   15  C   UNL     1     -13.238  12.252  71.775  1.00  0.00    -0.428 A  
HETATM   16  C   UNL     1     -12.428  12.675  70.715  1.00  0.00    -0.270 A  
HETATM   17  C   UNL     1     -11.801  11.698  69.936  1.00  0.00    -0.434 A  
HETATM   18  C   UNL     1     -12.012  10.332  70.205  1.00  0.00    -0.313 A  
BRANCH  16  19
HETATM   19  N   UNL     1     -12.234  14.050  70.415  1.00  0.00    -0.341 N  
HETATM   20  H   UNL     1     -12.606  14.747  71.060  1.00  0.00     0.000 HD 
BRANCH  19  21
HETATM   21  C   UNL     1     -11.560  14.489  69.281  1.00  0.00    -0.302 C  
HETATM   22  O   UNL     1     -10.388  14.843  69.300  1.00  0.00    -0.237 OA 
BRANCH  21  23
HETATM   23  N   UNL     1     -12.331  14.503  68.134  1.00  0.00    -0.588 N  
HETATM   24  H   UNL     1     -13.176  15.075  68.124  1.00  0.00     0.000 HD 
BRANCH  23  25
HETATM   25  C   UNL     1     -12.005  13.753  66.961  1.00  0.00    -0.413 A  
HETATM   26  C   UNL     1     -11.205  12.605  66.992  1.00  0.00    -0.348 A  
HETATM   27  C   UNL     1     -10.796  11.931  65.828  1.00  0.00    -0.341 A  
HETATM   28  C   UNL     1      -9.855  10.762  65.945  1.00  0.00    -0.239 C  
HETATM   29  C   UNL     1     -11.269  12.394  64.604  1.00  0.00    -0.312 A  
HETATM   30  F   UNL     1      -8.691  10.943  65.259  1.00  0.00    -0.184 F  
HETATM   31  F   UNL     1     -10.394   9.598  65.486  1.00  0.00    -0.351 F  
HETATM   32  F   UNL     1      -9.473  10.495  67.228  1.00  0.00    -0.160 F  
HETATM   33 CL   UNL     1     -10.851  11.629  63.116  1.00  0.00    -0.342 Cl 
HETATM   34  C   UNL     1     -12.116  13.511  64.554  1.00  0.00    -0.460 A  
HETATM   35  C   UNL     1     -12.480  14.192  65.724  1.00  0.00    -0.490 A  
ENDBRANCH  23  25
ENDBRANCH  21  23
ENDBRANCH  19  21
ENDBRANCH  16  19
ENDBRANCH  12  13
ENDBRANCH  10  12
ENDBRANCH   3   6
TORSDOF 7
ENDMDL
MODEL       34
REMARK 921   NORMALIZED FREE ENERGY PREDICTED BY IDOCK:   -6.70 KCAL/MOL
REMARK 922        TOTAL FREE ENERGY PREDICTED BY IDOCK:  -11.29 KCAL/MOL
REMARK 923 INTER-LIGAND FREE ENERGY PREDICTED BY IDOCK:   -9.23 KCAL/MOL
REMARK 924 INTRA-LIGAND FREE ENERGY PREDICTED BY IDOCK:   -2.06 KCAL/MOL
REMARK 927      BINDING AFFINITY PREDICTED BY RF-SCORE:    0.00 PKD
ROOT
HETATM    1  C   UNL     1      -6.513  14.545  67.702  1.00  0.00    -0.132 C  
HETATM    2  N   UNL     1      -7.127  13.273  67.439  1.00  0.00    -0.293 N  
HETATM    3  C   UNL     1      -6.388  12.196  66.999  1.00  0.00    -0.095 C  
HETATM    4  H   UNL     1      -8.130  13.165  67.580  1.00  0.00     0.000 HD 
HETATM    5  O   UNL     1      -5.180  12.243  66.790  1.00  0.00    -0.332 OA 
ENDROOT
BRANCH   3   6
HETATM    6  C   UNL     1      -7.163  10.926  66.812  1.00  0.00    -0.134 A  
HETATM    7  N   UNL     1      -7.890  10.803  65.666  1.00  0.00    -0.120 NA 
HETATM    8  C   UNL     1      -8.633   9.679  65.551  1.00  0.00    -0.147 A  
HETATM    9  C   UNL     1      -8.719   8.698  66.531  1.00  0.00    -0.143 A  
HETATM   10  C   UNL     1      -7.982   8.868  67.697  1.00  0.00    -0.102 A  
HETATM   11  C   UNL     1      -7.143   9.975  67.819  1.00  0.00    -0.086 A  
BRANCH  10  12
HETATM   12  O   UNL     1      -8.120   7.903  68.679  1.00  0.00    -0.122 OA 
BRANCH  12  13
HETATM   13  C   UNL     1      -9.137   8.058  69.600  1.00  0.00    -0.152 A  
HETATM   14  C   UNL     1      -9.085   9.005  70.616  1.00  0.00    -0.280 A  
HETATM   15  C   UNL     1     -10.063   9.015  71.605  1.00  0.00    -0.405 A  
HETATM   16  C   UNL     1     -11.179   8.173  71.546  1.00  0.00    -0.259 A  
HETATM   17  C   UNL     1     -11.274   7.284  70.472  1.00  0.00    -0.305 A  
HETATM   18  C   UNL     1     -10.256   7.229  69.501  1.00  0.00    -0.200 A  
BRANCH  16  19
HETATM   19  N   UNL     1     -12.196   8.196  72.537  1.00  0.00    -0.550 N  
HETATM   20  H   UNL     1     -11.996   7.788  73.451  1.00  0.00     0.000 HD 
BRANCH  19  21
HETATM   21  C   UNL     1     -13.452   8.751  72.320  1.00  0.00    -0.420 C  
HETATM   22  O   UNL     1     -14.392   8.111  71.868  1.00  0.00    -0.425 OA 
BRANCH  21  23
HETATM   23  N   UNL     1     -13.542  10.092  72.647  1.00  0.00    -0.537 N  
HETATM   24  H   UNL     1     -13.923  10.344  73.559  1.00  0.00     0.000 HD 
BRANCH  23  25
HETATM   25  C   UNL     1     -13.129  11.142  71.769  1.00  0.00    -0.431 A  
HETATM   26  C   UNL     1     -12.520  10.902  70.532  1.00  0.00    -0.438 A  
HETATM   27  C   UNL     1     -12.017  11.933  69.718  1.00  0.00    -0.377 A  
HETATM   28  C   UNL     1     -11.289  11.582  68.449  1.00  0.00    -0.279 C  
HETATM   29  C   UNL     1     -12.201  13.247  70.140  1.00  0.00    -0.306 A  
HETATM   30  F   UNL     1     -10.011  12.053  68.420  1.00  0.00    -0.191 F  
HETATM   31  F   UNL     1     -11.902  12.065  67.333  1.00  0.00    -0.391 F  
HETATM   32  F   UNL     1     -11.177  10.238  68.238  1.00  0.00    -0.288 F  
HETATM   33 CL   UNL     1     -11.647  14.589  69.209  1.00  0.00    -0.314 Cl 
HETATM   34  C   UNL     1     -12.857  13.511  71.351  1.00  0.00    -0.440 A  
HETATM   35  C   UNL     1     -13.316  12.467  72.166  1.00  0.00    -0.540 A  
ENDBRANCH  23  25
ENDBRANCH  21  23
ENDBRANCH  19  21
ENDBRANCH  16  19
ENDBRANCH  12  13
ENDBRANCH  10  12
ENDBRANCH   3   6
TORSDOF 7
ENDMDL
MODEL       35
REMARK 921   NORMALIZED FREE ENERGY PREDICTED BY IDOCK:   -6.70 KCAL/MOL
REMARK 922        TOTAL FREE ENERGY PREDICTED BY IDOCK:  -11.29 KCAL/MOL
REMARK 923 INTER-LIGAND FREE ENERGY PREDICTED BY IDOCK:  -10.23 KCAL/MOL
REMARK 924 INTRA-LIGAND FREE ENERGY PREDICTED BY IDOCK:   -1.06 KCAL/MOL
REMARK 927      BINDING AFFINITY PREDICTED BY RF-SCORE:    0.00 PKD
ROOT
HETATM    1  C   UNL     1      -9.999   4.778  67.155  1.00  0.00    -0.190 C  
HETATM    2  N   UNL     1     -10.444   5.518  68.303  1.00  0.00    -0.180 N  
HETATM    3  C   UNL     1      -9.966   5.241  69.566  1.00  0.00    -0.227 C  
HETATM    4  H   UNL     1     -11.127   6.264  68.182  1.00  0.00     0.000 HD 
HETATM    5  O   UNL     1      -9.154   4.353  69.803  1.00  0.00    -0.094 OA 
ENDROOT
BRANCH   3   6
HETATM    6  C   UNL     1     -10.491   6.128  70.655  1.00  0.00    -0.236 A  
HETATM    7  N   UNL     1      -9.985   5.945  71.907  1.00  0.00    -0.169 NA 
HETATM    8  C   UNL     1     -10.523   6.710  72.883  1.00  0.00    -0.229 A  
HETATM    9  C   UNL     1     -11.561   7.611  72.684  1.00  0.00    -0.371 A  
HETATM   10  C   UNL     1     -12.069   7.755  71.399  1.00  0.00    -0.311 A  
HETATM   11  C   UNL     1     -11.488   7.041  70.351  1.00  0.00    -0.355 A  
BRANCH  10  12
HETATM   12  O   UNL     1     -13.134   8.622  71.233  1.00  0.00    -0.272 OA 
BRANCH  12  13
HETATM   13  C   UNL     1     -12.857   9.967  71.085  1.00  0.00    -0.368 A  
HETATM   14  C   UNL     1     -12.054  10.454  70.061  1.00  0.00    -0.297 A  
HETATM   15  C   UNL     1     -11.684  11.795  70.048  1.00  0.00    -0.386 A  
HETATM   16  C   UNL     1     -12.196  12.709  70.976  1.00  0.00    -0.097 A  
HETATM   17  C   UNL     1     -13.077  12.232  71.951  1.00  0.00    -0.469 A  
HETATM   18  C   UNL     1     -13.407  10.864  72.003  1.00  0.00    -0.394 A  
BRANCH  16  19
HETATM   19  N   UNL     1     -11.844  14.085  70.953  1.00  0.00    -0.501 N  
HETATM   20  H   UNL     1     -10.996  14.379  71.439  1.00  0.00     0.000 HD 
BRANCH  19  21
HETATM   21  C   UNL     1     -12.602  15.049  70.300  1.00  0.00    -0.317 C  
HETATM   22  O   UNL     1     -13.400  15.774  70.881  1.00  0.00    -0.576 OA 
BRANCH  21  23
HETATM   23  N   UNL     1     -12.386  15.110  68.935  1.00  0.00    -0.603 N  
HETATM   24  H   UNL     1     -13.096  14.722  68.314  1.00  0.00     0.000 HD 
BRANCH  23  25
HETATM   25  C   UNL     1     -11.216  15.691  68.353  1.00  0.00    -0.352 A  
HETATM   26  C   UNL     1     -10.773  16.982  68.664  1.00  0.00    -0.333 A  
HETATM   27  C   UNL     1      -9.687  17.592  68.013  1.00  0.00    -0.287 A  
HETATM   28  C   UNL     1      -9.338  19.019  68.339  1.00  0.00    -0.355 C  
HETATM   29  C   UNL     1      -8.988  16.845  67.069  1.00  0.00    -0.215 A  
HETATM   30  F   UNL     1      -9.390  19.842  67.254  1.00  0.00    -0.364 F  
HETATM   31  F   UNL     1      -8.089  19.154  68.864  1.00  0.00    -0.360 F  
HETATM   32  F   UNL     1     -10.173  19.588  69.257  1.00  0.00    -0.468 F  
HETATM   33 CL   UNL     1      -7.625  17.484  66.228  1.00  0.00    -0.329 Cl 
HETATM   34  C   UNL     1      -9.381  15.530  66.781  1.00  0.00    -0.267 A  
HETATM   35  C   UNL     1     -10.492  14.954  67.414  1.00  0.00    -0.255 A  
ENDBRANCH  23  25
ENDBRANCH  21  23
ENDBRANCH  19  21
ENDBRANCH  16  19
ENDBRANCH  12  13
ENDBRANCH  10  12
ENDBRANCH   3   6
TORSDOF 7
ENDMDL
MODEL       36
REMARK 921   NORMALIZED FREE ENERGY PREDICTED BY IDOCK:   -6.69 KCAL/MOL
REMARK 922        TOTAL FREE ENERGY PREDICTED BY IDOCK:  -11.27 KCAL/MOL
REMARK 923 INTER-LIGAND FREE ENERGY PREDICTED BY IDOCK:  -10.79 KCAL/MOL
REMARK 924 INTRA-LIGAND FREE ENERGY PREDICTED BY IDOCK:   -0.48 KCAL/MOL
REMARK 927      BINDING AFFINITY PREDICTED BY RF-SCORE:    0.00 PKD
ROOT
HETATM    1  C   UNL     1      -9.488   4.611  71.129  1.00  0.00    -0.156 C  
HETATM    2  N   UNL     1     -10.642   5.413  71.427  1.00  0.00    -0.232 N  
HETATM    3  C   UNL     1     -10.669   6.764  71.154  1.00  0.00    -0.229 C  
HETATM    4  H   UNL     1     -11.459   4.974  71.849  1.00  0.00     0.000 HD 
HETATM    5  O   UNL     1      -9.725   7.374  70.662  1.00  0.00    -0.175 OA 
ENDROOT
BRANCH   3   6
HETATM    6  C   UNL     1     -11.959   7.455  71.481  1.00  0.00    -0.307 A  
HETATM    7  N   UNL     1     -13.110   6.757  71.269  1.00  0.00    -0.207 NA 
HETATM    8  C   UNL     1     -14.262   7.424  71.507  1.00  0.00    -0.427 A  
HETATM    9  C   UNL     1     -14.324   8.754  71.901  1.00  0.00    -0.441 A  
HETATM   10  C   UNL     1     -13.130   9.443  72.084  1.00  0.00    -0.442 A  
HETATM   11  C   UNL     1     -11.922   8.766  71.925  1.00  0.00    -0.435 A  
BRANCH  10  12
HETATM   12  O   UNL     1     -13.218  10.779  72.430  1.00  0.00    -0.275 OA 
BRANCH  12  13
HETATM   13  C   UNL     1     -12.872  11.718  71.478  1.00  0.00    -0.345 A  
HETATM   14  C   UNL     1     -12.351  11.366  70.238  1.00  0.00    -0.379 A  
HETATM   15  C   UNL     1     -11.878  12.353  69.380  1.00  0.00    -0.365 A  
HETATM   16  C   UNL     1     -12.021  13.714  69.672  1.00  0.00    -0.343 A  
HETATM   17  C   UNL     1     -12.630  14.066  70.880  1.00  0.00    -0.431 A  
HETATM   18  C   UNL     1     -13.055  13.069  71.779  1.00  0.00    -0.469 A  
BRANCH  16  19
HETATM   19  N   UNL     1     -11.566  14.728  68.788  1.00  0.00    -0.305 N  
HETATM   20  H   UNL     1     -11.368  15.654  69.168  1.00  0.00     0.000 HD 
BRANCH  19  21
HETATM   21  C   UNL     1     -11.378  14.517  67.427  1.00  0.00    -0.356 C  
HETATM   22  O   UNL     1     -12.292  14.227  66.666  1.00  0.00    -0.446 OA 
BRANCH  21  23
HETATM   23  N   UNL     1     -10.066  14.652  67.009  1.00  0.00    -0.247 N  
HETATM   24  H   UNL     1      -9.534  13.806  66.801  1.00  0.00     0.000 HD 
BRANCH  23  25
HETATM   25  C   UNL     1      -9.419  15.917  66.855  1.00  0.00    -0.227 A  
HETATM   26  C   UNL     1     -10.088  17.137  67.009  1.00  0.00    -0.297 A  
HETATM   27  C   UNL     1      -9.479  18.378  66.753  1.00  0.00    -0.297 A  
HETATM   28  C   UNL     1     -10.300  19.635  66.848  1.00  0.00    -0.465 C  
HETATM   29  C   UNL     1      -8.133  18.383  66.399  1.00  0.00    -0.260 A  
HETATM   30  F   UNL     1     -10.333  20.340  65.682  1.00  0.00    -0.529 F  
HETATM   31  F   UNL     1      -9.847  20.495  67.803  1.00  0.00    -0.512 F  
HETATM   32  F   UNL     1     -11.608  19.411  67.165  1.00  0.00    -0.302 F  
HETATM   33 CL   UNL     1      -7.280  19.849  66.086  1.00  0.00    -0.281 Cl 
HETATM   34  C   UNL     1      -7.429  17.176  66.292  1.00  0.00    -0.344 A  
HETATM   35  C   UNL     1      -8.066  15.947  66.514  1.00  0.00    -0.270 A  
ENDBRANCH  23  25
ENDBRANCH  21  23
ENDBRANCH  19  21
ENDBRANCH  16  19
ENDBRANCH  12  13
ENDBRANCH  10  12
ENDBRANCH   3   6
TORSDOF 7
ENDMDL
MODEL       37
REMARK 921   NORMALIZED FREE ENERGY PREDICTED BY IDOCK:   -6.69 KCAL/MOL
REMARK 922        TOTAL FREE ENERGY PREDICTED BY IDOCK:  -11.27 KCAL/MOL
REMARK 923 INTER-LIGAND FREE ENERGY PREDICTED BY IDOCK:  -10.15 KCAL/MOL
REMARK 924 INTRA-LIGAND FREE ENERGY PREDICTED BY IDOCK:   -1.12 KCAL/MOL
REMARK 927      BINDING AFFINITY PREDICTED BY RF-SCORE:    0.00 PKD
ROOT
HETATM    1  C   UNL     1     -10.292  17.632  66.287  1.00  0.00    -0.342 C  
HETATM    2  N   UNL     1     -10.615  16.260  66.009  1.00  0.00    -0.308 N  
HETATM    3  C   UNL     1     -11.178  15.882  64.809  1.00  0.00    -0.355 C  
HETATM    4  H   UNL     1     -10.422  15.549  66.715  1.00  0.00     0.000 HD 
HETATM    5  O   UNL     1     -11.455  16.673  63.913  1.00  0.00    -1.186 OA 
ENDROOT
BRANCH   3   6
HETATM    6  C   UNL     1     -11.414  14.410  64.651  1.00  0.00    -0.387 A  
HETATM    7  N   UNL     1     -12.708  13.982  64.665  1.00  0.00    -0.669 NA 
HETATM    8  C   UNL     1     -12.892  12.645  64.588  1.00  0.00    -0.275 A  
HETATM    9  C   UNL     1     -11.860  11.717  64.542  1.00  0.00    -0.235 A  
HETATM   10  C   UNL     1     -10.552  12.189  64.555  1.00  0.00    -0.310 A  
HETATM   11  C   UNL     1     -10.323  13.564  64.553  1.00  0.00    -0.381 A  
BRANCH  10  12
HETATM   12  O   UNL     1      -9.540  11.245  64.557  1.00  0.00    -0.235 OA 
BRANCH  12  13
HETATM   13  C   UNL     1      -9.354  10.498  65.704  1.00  0.00    -0.200 A  
HETATM   14  C   UNL     1      -8.825  11.040  66.869  1.00  0.00    -0.150 A  
HETATM   15  C   UNL     1      -8.517  10.211  67.942  1.00  0.00    -0.118 A  
HETATM   16  C   UNL     1      -8.838   8.849  67.935  1.00  0.00    -0.133 A  
HETATM   17  C   UNL     1      -9.454   8.324  66.795  1.00  0.00    -0.256 A  
HETATM   18  C   UNL     1      -9.713   9.149  65.684  1.00  0.00    -0.247 A  
BRANCH  16  19
HETATM   19  N   UNL     1      -8.552   8.000  69.038  1.00  0.00    -0.136 N  
HETATM   20  H   UNL     1      -9.053   7.114  69.114  1.00  0.00     0.000 HD 
BRANCH  19  21
HETATM   21  C   UNL     1      -7.620   8.320  70.018  1.00  0.00    -0.072 C  
HETATM   22  O   UNL     1      -6.415   8.345  69.807  1.00  0.00    -0.035 OA 
BRANCH  21  23
HETATM   23  N   UNL     1      -8.173   8.597  71.255  1.00  0.00    -0.142 N  
HETATM   24  H   UNL     1      -7.545   8.787  72.036  1.00  0.00     0.000 HD 
BRANCH  23  25
HETATM   25  C   UNL     1      -9.583   8.631  71.494  1.00  0.00    -0.257 A  
HETATM   26  C   UNL     1     -10.412   9.647  71.004  1.00  0.00    -0.327 A  
HETATM   27  C   UNL     1     -11.777   9.738  71.328  1.00  0.00    -0.472 A  
HETATM   28  C   UNL     1     -12.574  10.917  70.839  1.00  0.00    -0.397 C  
HETATM   29  C   UNL     1     -12.330   8.732  72.114  1.00  0.00    -0.389 A  
HETATM   30  F   UNL     1     -13.130  11.642  71.850  1.00  0.00    -0.533 F  
HETATM   31  F   UNL     1     -13.597  10.562  70.013  1.00  0.00    -0.117 F  
HETATM   32  F   UNL     1     -11.836  11.815  70.122  1.00  0.00    -0.353 F  
HETATM   33 CL   UNL     1     -13.999   8.730  72.551  1.00  0.00    -0.459 Cl 
HETATM   34  C   UNL     1     -11.530   7.675  72.570  1.00  0.00    -0.405 A  
HETATM   35  C   UNL     1     -10.162   7.624  72.268  1.00  0.00    -0.268 A  
ENDBRANCH  23  25
ENDBRANCH  21  23
ENDBRANCH  19  21
ENDBRANCH  16  19
ENDBRANCH  12  13
ENDBRANCH  10  12
ENDBRANCH   3   6
TORSDOF 7
ENDMDL
MODEL       38
REMARK 921   NORMALIZED FREE ENERGY PREDICTED BY IDOCK:   -6.67 KCAL/MOL
REMARK 922        TOTAL FREE ENERGY PREDICTED BY IDOCK:  -11.25 KCAL/MOL
REMARK 923 INTER-LIGAND FREE ENERGY PREDICTED BY IDOCK:   -9.87 KCAL/MOL
REMARK 924 INTRA-LIGAND FREE ENERGY PREDICTED BY IDOCK:   -1.38 KCAL/MOL
REMARK 927      BINDING AFFINITY PREDICTED BY RF-SCORE:    0.00 PKD
ROOT
HETATM    1  C   UNL     1     -11.785  15.900  64.176  1.00  0.00    -0.027 C  
HETATM    2  N   UNL     1     -11.134  14.720  64.673  1.00  0.00    -0.578 N  
HETATM    3  C   UNL     1     -11.467  13.466  64.209  1.00  0.00    -0.393 C  
HETATM    4  H   UNL     1     -10.409  14.813  65.384  1.00  0.00     0.000 HD 
HETATM    5  O   UNL     1     -12.335  13.264  63.367  1.00  0.00    -0.726 OA 
ENDROOT
BRANCH   3   6
HETATM    6  C   UNL     1     -10.668  12.338  64.792  1.00  0.00    -0.300 A  
HETATM    7  N   UNL     1     -10.612  11.180  64.076  1.00  0.00    -0.367 NA 
HETATM    8  C   UNL     1      -9.942  10.157  64.654  1.00  0.00    -0.234 A  
HETATM    9  C   UNL     1      -9.366  10.216  65.916  1.00  0.00    -0.224 A  
HETATM   10  C   UNL     1      -9.464  11.407  66.628  1.00  0.00    -0.189 A  
HETATM   11  C   UNL     1     -10.078  12.508  66.033  1.00  0.00    -0.268 A  
BRANCH  10  12
HETATM   12  O   UNL     1      -8.925  11.428  67.902  1.00  0.00    -0.143 OA 
BRANCH  12  13
HETATM   13  C   UNL     1      -9.612  10.775  68.906  1.00  0.00    -0.195 A  
HETATM   14  C   UNL     1     -10.973  10.961  69.122  1.00  0.00    -0.290 A  
HETATM   15  C   UNL     1     -11.581  10.398  70.238  1.00  0.00    -0.410 A  
HETATM   16  C   UNL     1     -10.889   9.539  71.099  1.00  0.00    -0.355 A  
HETATM   17  C   UNL     1      -9.543   9.280  70.827  1.00  0.00    -0.341 A  
HETATM   18  C   UNL     1      -8.908   9.895  69.731  1.00  0.00    -0.229 A  
BRANCH  16  19
HETATM   19  N   UNL     1     -11.511   8.937  72.227  1.00  0.00    -0.311 N  
HETATM   20  H   UNL     1     -11.002   8.918  73.111  1.00  0.00     0.000 HD 
BRANCH  19  21
HETATM   21  C   UNL     1     -12.780   8.375  72.180  1.00  0.00    -0.356 C  
HETATM   22  O   UNL     1     -13.801   9.017  72.393  1.00  0.00    -0.464 OA 
BRANCH  21  23
HETATM   23  N   UNL     1     -12.790   7.024  71.884  1.00  0.00    -0.504 N  
HETATM   24  H   UNL     1     -13.586   6.465  72.194  1.00  0.00     0.000 HD 
BRANCH  23  25
HETATM   25  C   UNL     1     -11.740   6.371  71.166  1.00  0.00    -0.298 A  
HETATM   26  C   UNL     1     -11.565   6.511  69.784  1.00  0.00    -0.392 A  
HETATM   27  C   UNL     1     -10.600   5.787  69.062  1.00  0.00    -0.351 A  
HETATM   28  C   UNL     1     -10.544   5.924  67.565  1.00  0.00    -0.273 C  
HETATM   29  C   UNL     1      -9.745   4.950  69.773  1.00  0.00    -0.192 A  
HETATM   30  F   UNL     1     -10.725   4.740  66.913  1.00  0.00    -0.239 F  
HETATM   31  F   UNL     1      -9.358   6.428  67.121  1.00  0.00    -0.119 F  
HETATM   32  F   UNL     1     -11.497   6.758  67.056  1.00  0.00    -0.464 F  
HETATM   33 CL   UNL     1      -8.509   4.034  68.992  1.00  0.00    -0.091 Cl 
HETATM   34  C   UNL     1      -9.868   4.836  71.165  1.00  0.00    -0.260 A  
HETATM   35  C   UNL     1     -10.862   5.538  71.861  1.00  0.00    -0.286 A  
ENDBRANCH  23  25
ENDBRANCH  21  23
ENDBRANCH  19  21
ENDBRANCH  16  19
ENDBRANCH  12  13
ENDBRANCH  10  12
ENDBRANCH   3   6
TORSDOF 7
ENDMDL
MODEL       39
REMARK 921   NORMALIZED FREE ENERGY PREDICTED BY IDOCK:   -6.65 KCAL/MOL
REMARK 922        TOTAL FREE ENERGY PREDICTED BY IDOCK:  -11.22 KCAL/MOL
REMARK 923 INTER-LIGAND FREE ENERGY PREDICTED BY IDOCK:  -10.13 KCAL/MOL
REMARK 924 INTRA-LIGAND FREE ENERGY PREDICTED BY IDOCK:   -1.10 KCAL/MOL
REMARK 927      BINDING AFFINITY PREDICTED BY RF-SCORE:    0.00 PKD
ROOT
HETATM    1  C   UNL     1      -6.943  19.091  67.947  1.00  0.00    -0.229 C  
HETATM    2  N   UNL     1      -8.083  18.263  68.228  1.00  0.00    -0.289 N  
HETATM    3  C   UNL     1      -8.767  17.616  67.222  1.00  0.00    -0.235 C  
HETATM    4  H   UNL     1      -8.392  18.151  69.193  1.00  0.00     0.000 HD 
HETATM    5  O   UNL     1      -8.472  17.708  66.035  1.00  0.00    -0.499 OA 
ENDROOT
BRANCH   3   6
HETATM    6  C   UNL     1      -9.906  16.754  67.678  1.00  0.00    -0.261 A  
HETATM    7  N   UNL     1     -10.173  16.729  69.014  1.00  0.00    -0.292 NA 
HETATM    8  C   UNL     1     -11.160  15.893  69.408  1.00  0.00    -0.322 A  
HETATM    9  C   UNL     1     -11.861  15.056  68.549  1.00  0.00    -0.319 A  
HETATM   10  C   UNL     1     -11.545  15.090  67.195  1.00  0.00    -0.261 A  
HETATM   11  C   UNL     1     -10.588  15.996  66.741  1.00  0.00    -0.297 A  
BRANCH  10  12
HETATM   12  O   UNL     1     -12.222  14.213  66.366  1.00  0.00    -0.444 OA 
BRANCH  12  13
HETATM   13  C   UNL     1     -11.630  12.996  66.090  1.00  0.00    -0.366 A  
HETATM   14  C   UNL     1     -11.329  12.071  67.082  1.00  0.00    -0.396 A  
HETATM   15  C   UNL     1     -10.597  10.931  66.768  1.00  0.00    -0.313 A  
HETATM   16  C   UNL     1     -10.252  10.618  65.448  1.00  0.00    -0.273 A  
HETATM   17  C   UNL     1     -10.638  11.506  64.440  1.00  0.00    -0.392 A  
HETATM   18  C   UNL     1     -11.327  12.691  64.761  1.00  0.00    -0.350 A  
BRANCH  16  19
HETATM   19  N   UNL     1      -9.529   9.441  65.116  1.00  0.00    -0.426 N  
HETATM   20  H   UNL     1      -9.313   9.263  64.134  1.00  0.00     0.000 HD 
BRANCH  19  21
HETATM   21  C   UNL     1      -9.101   8.522  66.066  1.00  0.00    -0.194 C  
HETATM   22  O   UNL     1      -7.961   8.509  66.513  1.00  0.00    -0.097 OA 
BRANCH  21  23
HETATM   23  N   UNL     1     -10.071   7.615  66.453  1.00  0.00    -0.476 N  
HETATM   24  H   UNL     1     -10.580   7.111  65.727  1.00  0.00     0.000 HD 
BRANCH  23  25
HETATM   25  C   UNL     1     -10.395   7.351  67.820  1.00  0.00    -0.213 A  
HETATM   26  C   UNL     1     -10.525   8.362  68.779  1.00  0.00    -0.202 A  
HETATM   27  C   UNL     1     -10.738   8.096  70.143  1.00  0.00    -0.243 A  
HETATM   28  C   UNL     1     -10.767   9.238  71.122  1.00  0.00    -0.333 C  
HETATM   29  C   UNL     1     -10.893   6.768  70.533  1.00  0.00    -0.258 A  
HETATM   30  F   UNL     1      -9.818   9.132  72.094  1.00  0.00    -0.379 F  
HETATM   31  F   UNL     1     -11.962   9.358  71.764  1.00  0.00    -0.388 F  
HETATM   32  F   UNL     1     -10.549  10.456  70.546  1.00  0.00    -0.336 F  
HETATM   33 CL   UNL     1     -11.183   6.328  72.175  1.00  0.00    -0.307 Cl 
HETATM   34  C   UNL     1     -10.821   5.743  69.579  1.00  0.00    -0.410 A  
HETATM   35  C   UNL     1     -10.569   6.028  68.230  1.00  0.00    -0.325 A  
ENDBRANCH  23  25
ENDBRANCH  21  23
ENDBRANCH  19  21
ENDBRANCH  16  19
ENDBRANCH  12  13
ENDBRANCH  10  12
ENDBRANCH   3   6
TORSDOF 7
ENDMDL
MODEL       40
REMARK 921   NORMALIZED FREE ENERGY PREDICTED BY IDOCK:   -6.65 KCAL/MOL
REMARK 922        TOTAL FREE ENERGY PREDICTED BY IDOCK:  -11.22 KCAL/MOL
REMARK 923 INTER-LIGAND FREE ENERGY PREDICTED BY IDOCK:   -9.77 KCAL/MOL
REMARK 924 INTRA-LIGAND FREE ENERGY PREDICTED BY IDOCK:   -1.45 KCAL/MOL
REMARK 927      BINDING AFFINITY PREDICTED BY RF-SCORE:    0.00 PKD
ROOT
HETATM    1  C   UNL     1     -12.083  13.859  70.480  1.00  0.00    -0.356 C  
HETATM    2  N   UNL     1     -12.035  12.424  70.529  1.00  0.00    -0.520 N  
HETATM    3  C   UNL     1     -12.787  11.711  71.438  1.00  0.00    -0.356 C  
HETATM    4  H   UNL     1     -11.432  11.922  69.878  1.00  0.00     0.000 HD 
HETATM    5  O   UNL     1     -13.526  12.234  72.265  1.00  0.00    -0.520 OA 
ENDROOT
BRANCH   3   6
HETATM    6  C   UNL     1     -12.663  10.220  71.336  1.00  0.00    -0.442 A  
HETATM    7  N   UNL     1     -13.708   9.475  71.795  1.00  0.00    -0.342 NA 
HETATM    8  C   UNL     1     -13.544   8.133  71.755  1.00  0.00    -0.359 A  
HETATM    9  C   UNL     1     -12.385   7.502  71.323  1.00  0.00    -0.356 A  
HETATM   10  C   UNL     1     -11.330   8.294  70.884  1.00  0.00    -0.268 A  
HETATM   11  C   UNL     1     -11.490   9.678  70.836  1.00  0.00    -0.427 A  
BRANCH  10  12
HETATM   12  O   UNL     1     -10.168   7.646  70.504  1.00  0.00    -0.199 OA 
BRANCH  12  13
HETATM   13  C   UNL     1      -9.778   7.740  69.183  1.00  0.00    -0.161 A  
HETATM   14  C   UNL     1      -8.777   8.607  68.760  1.00  0.00    -0.135 A  
HETATM   15  C   UNL     1      -8.531   8.772  67.401  1.00  0.00    -0.116 A  
HETATM   16  C   UNL     1      -9.180   7.994  66.436  1.00  0.00    -0.194 A  
HETATM   17  C   UNL     1     -10.120   7.056  66.871  1.00  0.00    -0.296 A  
HETATM   18  C   UNL     1     -10.416   6.929  68.241  1.00  0.00    -0.240 A  
BRANCH  16  19
HETATM   19  N   UNL     1      -8.913   8.137  65.047  1.00  0.00    -0.386 N  
HETATM   20  H   UNL     1      -8.681   7.302  64.508  1.00  0.00     0.000 HD 
BRANCH  19  21
HETATM   21  C   UNL     1      -8.955   9.361  64.390  1.00  0.00    -0.169 C  
HETATM   22  O   UNL     1      -7.952   9.926  63.974  1.00  0.00    -0.137 OA 
BRANCH  21  23
HETATM   23  N   UNL     1     -10.226   9.890  64.259  1.00  0.00    -0.303 N  
HETATM   24  H   UNL     1     -11.007   9.247  64.127  1.00  0.00     0.000 HD 
BRANCH  23  25
HETATM   25  C   UNL     1     -10.499  11.292  64.299  1.00  0.00    -0.357 A  
HETATM   26  C   UNL     1      -9.945  12.147  65.259  1.00  0.00    -0.260 A  
HETATM   27  C   UNL     1     -10.296  13.505  65.364  1.00  0.00    -0.329 A  
HETATM   28  C   UNL     1      -9.728  14.329  66.487  1.00  0.00    -0.291 C  
HETATM   29  C   UNL     1     -11.181  14.024  64.424  1.00  0.00    -0.306 A  
HETATM   30  F   UNL     1     -10.687  14.868  67.291  1.00  0.00    -0.271 F  
HETATM   31  F   UNL     1      -8.965  15.369  66.050  1.00  0.00    -0.324 F  
HETATM   32  F   UNL     1      -8.917  13.622  67.327  1.00  0.00    -0.185 F  
HETATM   33 CL   UNL     1     -11.662  15.681  64.442  1.00  0.00    -0.318 Cl 
HETATM   34  C   UNL     1     -11.706  13.198  63.419  1.00  0.00    -0.409 A  
HETATM   35  C   UNL     1     -11.372  11.838  63.357  1.00  0.00    -0.437 A  
ENDBRANCH  23  25
ENDBRANCH  21  23
ENDBRANCH  19  21
ENDBRANCH  16  19
ENDBRANCH  12  13
ENDBRANCH  10  12
ENDBRANCH   3   6
TORSDOF 7
ENDMDL
MODEL       41
REMARK 921   NORMALIZED FREE ENERGY PREDICTED BY IDOCK:   -6.63 KCAL/MOL
REMARK 922        TOTAL FREE ENERGY PREDICTED BY IDOCK:  -11.19 KCAL/MOL
REMARK 923 INTER-LIGAND FREE ENERGY PREDICTED BY IDOCK:  -10.57 KCAL/MOL
REMARK 924 INTRA-LIGAND FREE ENERGY PREDICTED BY IDOCK:   -0.63 KCAL/MOL
REMARK 927      BINDING AFFINITY PREDICTED BY RF-SCORE:    0.00 PKD
ROOT
HETATM    1  C   UNL     1     -12.670  11.932  63.405  1.00  0.00    -0.366 C  
HETATM    2  N   UNL     1     -11.941  12.508  64.501  1.00  0.00    -0.381 N  
HETATM    3  C   UNL     1     -11.956  13.864  64.741  1.00  0.00    -0.406 C  
HETATM    4  H   UNL     1     -11.401  11.899  65.115  1.00  0.00     0.000 HD 
HETATM    5  O   UNL     1     -12.567  14.668  64.045  1.00  0.00    -0.819 OA 
ENDROOT
BRANCH   3   6
HETATM    6  C   UNL     1     -11.184  14.307  65.948  1.00  0.00    -0.319 A  
HETATM    7  N   UNL     1      -9.825  14.336  65.841  1.00  0.00    -0.310 NA 
HETATM    8  C   UNL     1      -9.149  14.673  66.963  1.00  0.00    -0.238 A  
HETATM    9  C   UNL     1      -9.751  14.940  68.186  1.00  0.00    -0.214 A  
HETATM   10  C   UNL     1     -11.137  14.878  68.263  1.00  0.00    -0.282 A  
HETATM   11  C   UNL     1     -11.874  14.611  67.109  1.00  0.00    -0.367 A  
BRANCH  10  12
HETATM   12  O   UNL     1     -11.712  15.100  69.502  1.00  0.00    -0.290 OA 
BRANCH  12  13
HETATM   13  C   UNL     1     -12.187  14.008  70.200  1.00  0.00    -0.359 A  
HETATM   14  C   UNL     1     -13.045  14.132  71.287  1.00  0.00    -0.420 A  
HETATM   15  C   UNL     1     -13.370  13.014  72.046  1.00  0.00    -0.588 A  
HETATM   16  C   UNL     1     -12.956  11.728  71.678  1.00  0.00    -0.362 A  
HETATM   17  C   UNL     1     -12.169  11.595  70.530  1.00  0.00    -0.451 A  
HETATM   18  C   UNL     1     -11.788  12.733  69.793  1.00  0.00    -0.380 A  
BRANCH  16  19
HETATM   19  N   UNL     1     -13.307  10.577  72.432  1.00  0.00    -0.532 N  
HETATM   20  H   UNL     1     -13.369  10.660  73.447  1.00  0.00     0.000 HD 
BRANCH  19  21
HETATM   21  C   UNL     1     -13.568   9.342  71.850  1.00  0.00    -0.427 C  
HETATM   22  O   UNL     1     -14.253   9.213  70.843  1.00  0.00    -0.047 OA 
BRANCH  21  23
HETATM   23  N   UNL     1     -12.998   8.271  72.514  1.00  0.00    -0.588 N  
HETATM   24  H   UNL     1     -13.443   7.938  73.370  1.00  0.00     0.000 HD 
BRANCH  23  25
HETATM   25  C   UNL     1     -11.815   7.609  72.061  1.00  0.00    -0.301 A  
HETATM   26  C   UNL     1     -11.553   6.258  72.323  1.00  0.00    -0.355 A  
HETATM   27  C   UNL     1     -10.343   5.635  71.971  1.00  0.00    -0.261 A  
HETATM   28  C   UNL     1     -10.104   4.206  72.377  1.00  0.00    -0.177 C  
HETATM   29  C   UNL     1      -9.401   6.385  71.273  1.00  0.00    -0.156 A  
HETATM   30  F   UNL     1      -9.003   4.052  73.164  1.00  0.00    -0.104 F  
HETATM   31  F   UNL     1      -9.936   3.372  71.313  1.00  0.00    -0.249 F  
HETATM   32  F   UNL     1     -11.131   3.663  73.094  1.00  0.00    -0.259 F  
HETATM   33 CL   UNL     1      -7.894   5.714  70.770  1.00  0.00    -0.092 Cl 
HETATM   34  C   UNL     1      -9.666   7.724  70.952  1.00  0.00    -0.174 A  
HETATM   35  C   UNL     1     -10.863   8.337  71.347  1.00  0.00    -0.293 A  
ENDBRANCH  23  25
ENDBRANCH  21  23
ENDBRANCH  19  21
ENDBRANCH  16  19
ENDBRANCH  12  13
ENDBRANCH  10  12
ENDBRANCH   3   6
TORSDOF 7
ENDMDL
MODEL       42
REMARK 921   NORMALIZED FREE ENERGY PREDICTED BY IDOCK:   -6.62 KCAL/MOL
REMARK 922        TOTAL FREE ENERGY PREDICTED BY IDOCK:  -11.18 KCAL/MOL
REMARK 923 INTER-LIGAND FREE ENERGY PREDICTED BY IDOCK:  -10.02 KCAL/MOL
REMARK 924 INTRA-LIGAND FREE ENERGY PREDICTED BY IDOCK:   -1.15 KCAL/MOL
REMARK 927      BINDING AFFINITY PREDICTED BY RF-SCORE:    0.00 PKD
ROOT
HETATM    1  C   UNL     1     -12.512  13.813  63.723  1.00  0.00    -0.159 C  
HETATM    2  N   UNL     1     -11.443  14.277  64.562  1.00  0.00    -0.505 N  
HETATM    3  C   UNL     1     -11.084  15.607  64.601  1.00  0.00    -0.373 C  
HETATM    4  H   UNL     1     -10.938  13.607  65.142  1.00  0.00     0.000 HD 
HETATM    5  O   UNL     1     -11.628  16.475  63.927  1.00  0.00    -1.175 OA 
ENDROOT
BRANCH   3   6
HETATM    6  C   UNL     1      -9.980  15.942  65.559  1.00  0.00    -0.278 A  
HETATM    7  N   UNL     1      -9.727  17.262  65.781  1.00  0.00    -0.544 NA 
HETATM    8  C   UNL     1      -8.683  17.538  66.596  1.00  0.00    -0.263 A  
HETATM    9  C   UNL     1      -7.860  16.573  67.161  1.00  0.00    -0.215 A  
HETATM   10  C   UNL     1      -8.133  15.237  66.893  1.00  0.00    -0.189 A  
HETATM   11  C   UNL     1      -9.247  14.910  66.122  1.00  0.00    -0.268 A  
BRANCH  10  12
HETATM   12  O   UNL     1      -7.271  14.296  67.427  1.00  0.00    -0.185 OA 
BRANCH  12  13
HETATM   13  C   UNL     1      -7.777  13.043  67.712  1.00  0.00    -0.151 A  
HETATM   14  C   UNL     1      -8.660  12.385  66.864  1.00  0.00    -0.171 A  
HETATM   15  C   UNL     1      -9.256  11.196  67.270  1.00  0.00    -0.166 A  
HETATM   16  C   UNL     1      -8.901  10.566  68.468  1.00  0.00    -0.144 A  
HETATM   17  C   UNL     1      -7.943  11.185  69.277  1.00  0.00     0.018 A  
HETATM   18  C   UNL     1      -7.382  12.419  68.897  1.00  0.00    -0.031 A  
BRANCH  16  19
HETATM   19  N   UNL     1      -9.484   9.337  68.877  1.00  0.00    -0.152 N  
HETATM   20  H   UNL     1      -9.202   8.481  68.399  1.00  0.00     0.000 HD 
BRANCH  19  21
HETATM   21  C   UNL     1     -10.422   9.248  69.899  1.00  0.00    -0.227 C  
HETATM   22  O   UNL     1     -10.189   8.699  70.969  1.00  0.00    -0.196 OA 
BRANCH  21  23
HETATM   23  N   UNL     1     -11.644   9.821  69.598  1.00  0.00    -0.448 N  
HETATM   24  H   UNL     1     -12.204   9.406  68.853  1.00  0.00     0.000 HD 
BRANCH  23  25
HETATM   25  C   UNL     1     -12.160  10.968  70.278  1.00  0.00    -0.362 A  
HETATM   26  C   UNL     1     -11.796  12.277  69.944  1.00  0.00    -0.383 A  
HETATM   27  C   UNL     1     -12.220  13.397  70.681  1.00  0.00    -0.427 A  
HETATM   28  C   UNL     1     -11.702  14.761  70.313  1.00  0.00    -0.298 C  
HETATM   29  C   UNL     1     -13.093  13.187  71.744  1.00  0.00    -0.383 A  
HETATM   30  F   UNL     1     -11.035  15.372  71.333  1.00  0.00    -0.392 F  
HETATM   31  F   UNL     1     -12.689  15.619  69.932  1.00  0.00    -0.363 F  
HETATM   32  F   UNL     1     -10.821  14.748  69.271  1.00  0.00    -0.231 F  
HETATM   33 CL   UNL     1     -13.696  14.490  72.700  1.00  0.00    -0.559 Cl 
HETATM   34  C   UNL     1     -13.514  11.888  72.062  1.00  0.00    -0.336 A  
HETATM   35  C   UNL     1     -13.049  10.781  71.339  1.00  0.00    -0.469 A  
ENDBRANCH  23  25
ENDBRANCH  21  23
ENDBRANCH  19  21
ENDBRANCH  16  19
ENDBRANCH  12  13
ENDBRANCH  10  12
ENDBRANCH   3   6
TORSDOF 7
ENDMDL
MODEL       43
REMARK 921   NORMALIZED FREE ENERGY PREDICTED BY IDOCK:   -6.62 KCAL/MOL
REMARK 922        TOTAL FREE ENERGY PREDICTED BY IDOCK:  -11.17 KCAL/MOL
REMARK 923 INTER-LIGAND FREE ENERGY PREDICTED BY IDOCK:   -9.81 KCAL/MOL
REMARK 924 INTRA-LIGAND FREE ENERGY PREDICTED BY IDOCK:   -1.37 KCAL/MOL
REMARK 927      BINDING AFFINITY PREDICTED BY RF-SCORE:    0.00 PKD
ROOT
HETATM    1  C   UNL     1     -10.035   4.770  67.309  1.00  0.00    -0.174 C  
HETATM    2  N   UNL     1     -10.332   5.670  68.389  1.00  0.00    -0.193 N  
HETATM    3  C   UNL     1     -10.177   5.289  69.704  1.00  0.00    -0.278 C  
HETATM    4  H   UNL     1     -10.663   6.610  68.178  1.00  0.00     0.000 HD 
HETATM    5  O   UNL     1      -9.798   4.174  70.046  1.00  0.00    -0.217 OA 
ENDROOT
BRANCH   3   6
HETATM    6  C   UNL     1     -10.484   6.353  70.716  1.00  0.00    -0.222 A  
HETATM    7  N   UNL     1      -9.688   6.410  71.820  1.00  0.00    -0.160 NA 
HETATM    8  C   UNL     1     -10.026   7.333  72.749  1.00  0.00    -0.194 A  
HETATM    9  C   UNL     1     -11.132   8.167  72.652  1.00  0.00    -0.450 A  
HETATM   10  C   UNL     1     -11.936   8.064  71.522  1.00  0.00    -0.297 A  
HETATM   11  C   UNL     1     -11.575   7.180  70.507  1.00  0.00    -0.331 A  
BRANCH  10  12
HETATM   12  O   UNL     1     -13.059   8.871  71.469  1.00  0.00    -0.332 OA 
BRANCH  12  13
HETATM   13  C   UNL     1     -12.874  10.227  71.290  1.00  0.00    -0.422 A  
HETATM   14  C   UNL     1     -13.366  11.172  72.184  1.00  0.00    -0.270 A  
HETATM   15  C   UNL     1     -13.284  12.525  71.877  1.00  0.00    -0.495 A  
HETATM   16  C   UNL     1     -12.606  12.983  70.742  1.00  0.00    -0.241 A  
HETATM   17  C   UNL     1     -12.031  12.033  69.892  1.00  0.00    -0.391 A  
HETATM   18  C   UNL     1     -12.164  10.659  70.168  1.00  0.00    -0.398 A  
BRANCH  16  19
HETATM   19  N   UNL     1     -12.493  14.366  70.435  1.00  0.00    -0.342 N  
HETATM   20  H   UNL     1     -13.307  14.848  70.053  1.00  0.00     0.000 HD 
BRANCH  19  21
HETATM   21  C   UNL     1     -11.325  15.092  70.633  1.00  0.00    -0.293 C  
HETATM   22  O   UNL     1     -10.870  15.331  71.745  1.00  0.00    -0.182 OA 
BRANCH  21  23
HETATM   23  N   UNL     1     -10.727  15.532  69.466  1.00  0.00    -0.250 N  
HETATM   24  H   UNL     1     -10.444  16.510  69.404  1.00  0.00     0.000 HD 
BRANCH  23  25
HETATM   25  C   UNL     1     -10.487  14.683  68.341  1.00  0.00    -0.243 A  
HETATM   26  C   UNL     1     -11.392  14.553  67.280  1.00  0.00    -0.363 A  
HETATM   27  C   UNL     1     -11.207  13.640  66.228  1.00  0.00    -0.313 A  
HETATM   28  C   UNL     1     -12.277  13.494  65.180  1.00  0.00    -0.428 C  
HETATM   29  C   UNL     1     -10.036  12.887  66.216  1.00  0.00    -0.270 A  
HETATM   30  F   UNL     1     -12.773  12.228  65.097  1.00  0.00    -0.487 F  
HETATM   31  F   UNL     1     -11.845  13.820  63.930  1.00  0.00    -0.428 F  
HETATM   32  F   UNL     1     -13.365  14.288  65.398  1.00  0.00    -0.478 F  
HETATM   33 CL   UNL     1      -9.693  11.755  64.960  1.00  0.00    -0.243 Cl 
HETATM   34  C   UNL     1      -9.090  13.041  67.239  1.00  0.00    -0.209 A  
HETATM   35  C   UNL     1      -9.313  13.930  68.300  1.00  0.00    -0.209 A  
ENDBRANCH  23  25
ENDBRANCH  21  23
ENDBRANCH  19  21
ENDBRANCH  16  19
ENDBRANCH  12  13
ENDBRANCH  10  12
ENDBRANCH   3   6
TORSDOF 7
ENDMDL
MODEL       44
REMARK 921   NORMALIZED FREE ENERGY PREDICTED BY IDOCK:   -6.61 KCAL/MOL
REMARK 922        TOTAL FREE ENERGY PREDICTED BY IDOCK:  -11.17 KCAL/MOL
REMARK 923 INTER-LIGAND FREE ENERGY PREDICTED BY IDOCK:  -10.58 KCAL/MOL
REMARK 924 INTRA-LIGAND FREE ENERGY PREDICTED BY IDOCK:   -0.59 KCAL/MOL
REMARK 927      BINDING AFFINITY PREDICTED BY RF-SCORE:    0.00 PKD
ROOT
HETATM    1  C   UNL     1      -8.554   6.182  72.748  1.00  0.00    -0.123 C  
HETATM    2  N   UNL     1      -9.752   6.971  72.667  1.00  0.00    -0.149 N  
HETATM    3  C   UNL     1     -10.623   6.849  71.606  1.00  0.00    -0.209 C  
HETATM    4  H   UNL     1      -9.963   7.635  73.411  1.00  0.00     0.000 HD 
HETATM    5  O   UNL     1     -10.439   6.086  70.663  1.00  0.00    -0.218 OA 
ENDROOT
BRANCH   3   6
HETATM    6  C   UNL     1     -11.850   7.707  71.686  1.00  0.00    -0.291 A  
HETATM    7  N   UNL     1     -13.056   7.079  71.594  1.00  0.00    -0.371 NA 
HETATM    8  C   UNL     1     -14.145   7.881  71.601  1.00  0.00    -0.434 A  
HETATM    9  C   UNL     1     -14.091   9.268  71.654  1.00  0.00    -0.230 A  
HETATM   10  C   UNL     1     -12.843   9.875  71.723  1.00  0.00    -0.442 A  
HETATM   11  C   UNL     1     -11.700   9.079  71.797  1.00  0.00    -0.440 A  
BRANCH  10  12
HETATM   12  O   UNL     1     -12.811  11.258  71.725  1.00  0.00    -0.416 OA 
BRANCH  12  13
HETATM   13  C   UNL     1     -12.409  11.898  70.570  1.00  0.00    -0.284 A  
HETATM   14  C   UNL     1     -12.285  13.280  70.487  1.00  0.00    -0.416 A  
HETATM   15  C   UNL     1     -12.025  13.881  69.260  1.00  0.00    -0.402 A  
HETATM   16  C   UNL     1     -11.760  13.126  68.112  1.00  0.00    -0.355 A  
HETATM   17  C   UNL     1     -11.795  11.733  68.219  1.00  0.00    -0.340 A  
HETATM   18  C   UNL     1     -12.117  11.122  69.446  1.00  0.00    -0.396 A  
BRANCH  16  19
HETATM   19  N   UNL     1     -11.467  13.732  66.861  1.00  0.00    -0.331 N  
HETATM   20  H   UNL     1     -12.242  14.060  66.285  1.00  0.00     0.000 HD 
BRANCH  19  21
HETATM   21  C   UNL     1     -10.171  13.898  66.386  1.00  0.00    -0.292 C  
HETATM   22  O   UNL     1      -9.335  13.004  66.410  1.00  0.00    -0.244 OA 
BRANCH  21  23
HETATM   23  N   UNL     1      -9.906  15.164  65.896  1.00  0.00    -0.318 N  
HETATM   24  H   UNL     1     -10.094  15.352  64.911  1.00  0.00     0.000 HD 
BRANCH  23  25
HETATM   25  C   UNL     1      -9.381  16.222  66.701  1.00  0.00    -0.248 A  
HETATM   26  C   UNL     1     -10.072  17.417  66.930  1.00  0.00    -0.314 A  
HETATM   27  C   UNL     1      -9.511  18.499  67.632  1.00  0.00    -0.295 A  
HETATM   28  C   UNL     1     -10.285  19.784  67.748  1.00  0.00    -0.437 C  
HETATM   29  C   UNL     1      -8.241  18.336  68.176  1.00  0.00    -0.283 A  
HETATM   30  F   UNL     1      -9.628  20.853  67.217  1.00  0.00    -0.576 F  
HETATM   31  F   UNL     1     -10.578  20.114  69.036  1.00  0.00    -0.505 F  
HETATM   32  F   UNL     1     -11.490  19.755  67.107  1.00  0.00    -0.418 F  
HETATM   33 CL   UNL     1      -7.468  19.587  69.077  1.00  0.00    -0.403 Cl 
HETATM   34  C   UNL     1      -7.552  17.126  68.006  1.00  0.00    -0.192 A  
HETATM   35  C   UNL     1      -8.114  16.074  67.269  1.00  0.00    -0.205 A  
ENDBRANCH  23  25
ENDBRANCH  21  23
ENDBRANCH  19  21
ENDBRANCH  16  19
ENDBRANCH  12  13
ENDBRANCH  10  12
ENDBRANCH   3   6
TORSDOF 7
ENDMDL
MODEL       45
REMARK 921   NORMALIZED FREE ENERGY PREDICTED BY IDOCK:   -6.61 KCAL/MOL
REMARK 922        TOTAL FREE ENERGY PREDICTED BY IDOCK:  -11.16 KCAL/MOL
REMARK 923 INTER-LIGAND FREE ENERGY PREDICTED BY IDOCK:   -8.83 KCAL/MOL
REMARK 924 INTRA-LIGAND FREE ENERGY PREDICTED BY IDOCK:   -2.34 KCAL/MOL
REMARK 927      BINDING AFFINITY PREDICTED BY RF-SCORE:    0.00 PKD
ROOT
HETATM    1  C   UNL     1     -10.650  15.654  65.256  1.00  0.00    -0.426 C  
HETATM    2  N   UNL     1      -9.580  14.824  65.734  1.00  0.00    -0.477 N  
HETATM    3  C   UNL     1      -8.799  15.202  66.804  1.00  0.00    -0.271 C  
HETATM    4  H   UNL     1      -9.394  13.934  65.271  1.00  0.00     0.000 HD 
HETATM    5  O   UNL     1      -8.944  16.260  67.408  1.00  0.00    -0.185 OA 
ENDROOT
BRANCH   3   6
HETATM    6  C   UNL     1      -7.751  14.209  67.211  1.00  0.00    -0.108 A  
HETATM    7  N   UNL     1      -6.512  14.695  67.503  1.00  0.00    -0.306 NA 
HETATM    8  C   UNL     1      -5.568  13.774  67.802  1.00  0.00    -0.058 A  
HETATM    9  C   UNL     1      -5.784  12.402  67.784  1.00  0.00    -0.105 A  
HETATM   10  C   UNL     1      -7.055  11.942  67.459  1.00  0.00    -0.123 A  
HETATM   11  C   UNL     1      -8.075  12.863  67.222  1.00  0.00    -0.164 A  
BRANCH  10  12
HETATM   12  O   UNL     1      -7.235  10.571  67.401  1.00  0.00    -0.089 OA 
BRANCH  12  13
HETATM   13  C   UNL     1      -8.274  10.023  68.127  1.00  0.00    -0.109 A  
HETATM   14  C   UNL     1      -8.309  10.051  69.516  1.00  0.00    -0.180 A  
HETATM   15  C   UNL     1      -9.299   9.352  70.199  1.00  0.00    -0.276 A  
HETATM   16  C   UNL     1     -10.347   8.714  69.526  1.00  0.00    -0.214 A  
HETATM   17  C   UNL     1     -10.360   8.767  68.129  1.00  0.00    -0.266 A  
HETATM   18  C   UNL     1      -9.326   9.422  67.433  1.00  0.00    -0.151 A  
BRANCH  16  19
HETATM   19  N   UNL     1     -11.377   8.022  70.217  1.00  0.00    -0.431 N  
HETATM   20  H   UNL     1     -11.648   7.095  69.887  1.00  0.00     0.000 HD 
BRANCH  19  21
HETATM   21  C   UNL     1     -12.034   8.550  71.323  1.00  0.00    -0.294 C  
HETATM   22  O   UNL     1     -11.707   8.293  72.475  1.00  0.00    -0.386 OA 
BRANCH  21  23
HETATM   23  N   UNL     1     -13.095   9.379  71.008  1.00  0.00    -0.543 N  
HETATM   24  H   UNL     1     -13.990   8.951  70.770  1.00  0.00     0.000 HD 
BRANCH  23  25
HETATM   25  C   UNL     1     -12.999  10.805  71.000  1.00  0.00    -0.332 A  
HETATM   26  C   UNL     1     -12.372  11.519  69.972  1.00  0.00    -0.287 A  
HETATM   27  C   UNL     1     -12.184  12.911  70.017  1.00  0.00    -0.292 A  
HETATM   28  C   UNL     1     -11.412  13.586  68.916  1.00  0.00    -0.306 C  
HETATM   29  C   UNL     1     -12.709  13.607  71.102  1.00  0.00    -0.353 A  
HETATM   30  F   UNL     1     -10.311  14.251  69.365  1.00  0.00    -0.211 F  
HETATM   31  F   UNL     1     -12.155  14.497  68.227  1.00  0.00    -0.345 F  
HETATM   32  F   UNL     1     -10.943  12.722  67.968  1.00  0.00    -0.224 F  
HETATM   33 CL   UNL     1     -12.558  15.319  71.246  1.00  0.00    -0.403 Cl 
HETATM   34  C   UNL     1     -13.389  12.918  72.117  1.00  0.00    -0.615 A  
HETATM   35  C   UNL     1     -13.531  11.524  72.072  1.00  0.00    -0.298 A  
ENDBRANCH  23  25
ENDBRANCH  21  23
ENDBRANCH  19  21
ENDBRANCH  16  19
ENDBRANCH  12  13
ENDBRANCH  10  12
ENDBRANCH   3   6
TORSDOF 7
ENDMDL
MODEL       46
REMARK 921   NORMALIZED FREE ENERGY PREDICTED BY IDOCK:   -6.57 KCAL/MOL
REMARK 922        TOTAL FREE ENERGY PREDICTED BY IDOCK:  -11.11 KCAL/MOL
REMARK 923 INTER-LIGAND FREE ENERGY PREDICTED BY IDOCK:  -10.21 KCAL/MOL
REMARK 924 INTRA-LIGAND FREE ENERGY PREDICTED BY IDOCK:   -0.90 KCAL/MOL
REMARK 927      BINDING AFFINITY PREDICTED BY RF-SCORE:    0.00 PKD
ROOT
HETATM    1  C   UNL     1     -10.488  17.767  67.549  1.00  0.00    -0.372 C  
HETATM    2  N   UNL     1     -10.584  16.340  67.417  1.00  0.00    -0.312 N  
HETATM    3  C   UNL     1     -10.640  15.735  66.180  1.00  0.00    -0.313 C  
HETATM    4  H   UNL     1     -10.610  15.762  68.256  1.00  0.00     0.000 HD 
HETATM    5  O   UNL     1     -10.628  16.355  65.122  1.00  0.00    -0.610 OA 
ENDROOT
BRANCH   3   6
HETATM    6  C   UNL     1     -10.693  14.237  66.205  1.00  0.00    -0.295 A  
HETATM    7  N   UNL     1     -10.037  13.573  65.212  1.00  0.00    -0.287 NA 
HETATM    8  C   UNL     1     -10.155  12.226  65.218  1.00  0.00    -0.271 A  
HETATM    9  C   UNL     1     -10.922  11.516  66.132  1.00  0.00    -0.320 A  
HETATM   10  C   UNL     1     -11.597  12.227  67.117  1.00  0.00    -0.353 A  
HETATM   11  C   UNL     1     -11.436  13.610  67.191  1.00  0.00    -0.367 A  
BRANCH  10  12
HETATM   12  O   UNL     1     -12.394  11.503  67.986  1.00  0.00    -0.445 OA 
BRANCH  12  13
HETATM   13  C   UNL     1     -11.779  10.860  69.043  1.00  0.00    -0.320 A  
HETATM   14  C   UNL     1     -10.471  10.397  68.975  1.00  0.00    -0.240 A  
HETATM   15  C   UNL     1      -9.954   9.623  70.008  1.00  0.00    -0.288 A  
HETATM   16  C   UNL     1     -10.674   9.393  71.186  1.00  0.00    -0.347 A  
HETATM   17  C   UNL     1     -11.957   9.939  71.290  1.00  0.00    -0.489 A  
HETATM   18  C   UNL     1     -12.506  10.672  70.220  1.00  0.00    -0.381 A  
BRANCH  16  19
HETATM   19  N   UNL     1     -10.143   8.627  72.259  1.00  0.00    -0.313 N  
HETATM   20  H   UNL     1      -9.285   8.948  72.708  1.00  0.00     0.000 HD 
BRANCH  19  21
HETATM   21  C   UNL     1     -10.739   7.462  72.724  1.00  0.00    -0.314 C  
HETATM   22  O   UNL     1     -10.656   7.091  73.888  1.00  0.00    -0.371 OA 
BRANCH  21  23
HETATM   23  N   UNL     1     -11.424   6.751  71.755  1.00  0.00    -0.267 N  
HETATM   24  H   UNL     1     -12.444   6.779  71.763  1.00  0.00     0.000 HD 
BRANCH  23  25
HETATM   25  C   UNL     1     -10.774   5.978  70.744  1.00  0.00    -0.276 A  
HETATM   26  C   UNL     1     -10.854   6.289  69.381  1.00  0.00    -0.404 A  
HETATM   27  C   UNL     1     -10.304   5.469  68.380  1.00  0.00    -0.243 A  
HETATM   28  C   UNL     1     -10.521   5.826  66.934  1.00  0.00    -0.285 C  
HETATM   29  C   UNL     1      -9.595   4.340  68.776  1.00  0.00    -0.149 A  
HETATM   30  F   UNL     1     -11.160   4.848  66.233  1.00  0.00    -0.290 F  
HETATM   31  F   UNL     1      -9.359   6.078  66.269  1.00  0.00    -0.154 F  
HETATM   32  F   UNL     1     -11.281   6.946  66.756  1.00  0.00    -0.457 F  
HETATM   33 CL   UNL     1      -8.858   3.278  67.634  1.00  0.00    -0.140 Cl 
HETATM   34  C   UNL     1      -9.456   4.039  70.139  1.00  0.00    -0.258 A  
HETATM   35  C   UNL     1     -10.045   4.848  71.120  1.00  0.00    -0.277 A  
ENDBRANCH  23  25
ENDBRANCH  21  23
ENDBRANCH  19  21
ENDBRANCH  16  19
ENDBRANCH  12  13
ENDBRANCH  10  12
ENDBRANCH   3   6
TORSDOF 7
ENDMDL
MODEL       47
REMARK 921   NORMALIZED FREE ENERGY PREDICTED BY IDOCK:   -6.55 KCAL/MOL
REMARK 922        TOTAL FREE ENERGY PREDICTED BY IDOCK:  -11.08 KCAL/MOL
REMARK 923 INTER-LIGAND FREE ENERGY PREDICTED BY IDOCK:  -10.05 KCAL/MOL
REMARK 924 INTRA-LIGAND FREE ENERGY PREDICTED BY IDOCK:   -1.02 KCAL/MOL
REMARK 927      BINDING AFFINITY PREDICTED BY RF-SCORE:    0.00 PKD
ROOT
HETATM    1  C   UNL     1      -9.831  19.033  68.568  1.00  0.00    -0.411 C  
HETATM    2  N   UNL     1     -10.528  17.920  69.151  1.00  0.00    -0.407 N  
HETATM    3  C   UNL     1     -10.351  16.636  68.683  1.00  0.00    -0.304 C  
HETATM    4  H   UNL     1     -11.166  18.084  69.929  1.00  0.00     0.000 HD 
HETATM    5  O   UNL     1      -9.614  16.353  67.744  1.00  0.00    -0.228 OA 
ENDROOT
BRANCH   3   6
HETATM    6  C   UNL     1     -11.112  15.577  69.424  1.00  0.00    -0.291 A  
HETATM    7  N   UNL     1     -11.498  15.864  70.699  1.00  0.00    -0.372 NA 
HETATM    8  C   UNL     1     -12.124  14.870  71.368  1.00  0.00    -0.337 A  
HETATM    9  C   UNL     1     -12.345  13.600  70.850  1.00  0.00    -0.450 A  
HETATM   10  C   UNL     1     -11.916  13.336  69.554  1.00  0.00    -0.307 A  
HETATM   11  C   UNL     1     -11.338  14.359  68.804  1.00  0.00    -0.299 A  
BRANCH  10  12
HETATM   12  O   UNL     1     -12.104  12.051  69.076  1.00  0.00    -0.271 OA 
BRANCH  12  13
HETATM   13  C   UNL     1     -12.040  11.009  69.979  1.00  0.00    -0.364 A  
HETATM   14  C   UNL     1     -13.135  10.607  70.734  1.00  0.00    -0.299 A  
HETATM   15  C   UNL     1     -12.976   9.656  71.736  1.00  0.00    -0.514 A  
HETATM   16  C   UNL     1     -11.761   8.990  71.933  1.00  0.00    -0.374 A  
HETATM   17  C   UNL     1     -10.684   9.331  71.109  1.00  0.00    -0.403 A  
HETATM   18  C   UNL     1     -10.825  10.337  70.133  1.00  0.00    -0.362 A  
BRANCH  16  19
HETATM   19  N   UNL     1     -11.597   7.997  72.935  1.00  0.00    -0.542 N  
HETATM   20  H   UNL     1     -12.100   8.107  73.816  1.00  0.00     0.000 HD 
BRANCH  19  21
HETATM   21  C   UNL     1     -10.783   6.883  72.771  1.00  0.00    -0.255 C  
HETATM   22  O   UNL     1      -9.687   6.775  73.307  1.00  0.00    -0.158 OA 
BRANCH  21  23
HETATM   23  N   UNL     1     -11.312   5.913  71.940  1.00  0.00    -0.270 N  
HETATM   24  H   UNL     1     -12.221   5.514  72.177  1.00  0.00     0.000 HD 
BRANCH  23  25
HETATM   25  C   UNL     1     -10.649   5.440  70.765  1.00  0.00    -0.223 A  
HETATM   26  C   UNL     1     -10.815   6.035  69.508  1.00  0.00    -0.439 A  
HETATM   27  C   UNL     1     -10.248   5.507  68.335  1.00  0.00    -0.242 A  
HETATM   28  C   UNL     1     -10.557   6.152  67.012  1.00  0.00    -0.315 C  
HETATM   29  C   UNL     1      -9.434   4.384  68.452  1.00  0.00    -0.154 A  
HETATM   30  F   UNL     1     -11.148   5.300  66.127  1.00  0.00    -0.314 F  
HETATM   31  F   UNL     1      -9.450   6.644  66.389  1.00  0.00    -0.177 F  
HETATM   32  F   UNL     1     -11.411   7.213  67.107  1.00  0.00    -0.380 F  
HETATM   33 CL   UNL     1      -8.668   3.667  67.082  1.00  0.00    -0.115 Cl 
HETATM   34  C   UNL     1      -9.211   3.804  69.709  1.00  0.00    -0.213 A  
HETATM   35  C   UNL     1      -9.817   4.324  70.861  1.00  0.00    -0.259 A  
ENDBRANCH  23  25
ENDBRANCH  21  23
ENDBRANCH  19  21
ENDBRANCH  16  19
ENDBRANCH  12  13
ENDBRANCH  10  12
ENDBRANCH   3   6
TORSDOF 7
ENDMDL
MODEL       48
REMARK 921   NORMALIZED FREE ENERGY PREDICTED BY IDOCK:   -6.55 KCAL/MOL
REMARK 922        TOTAL FREE ENERGY PREDICTED BY IDOCK:  -11.07 KCAL/MOL
REMARK 923 INTER-LIGAND FREE ENERGY PREDICTED BY IDOCK:   -9.76 KCAL/MOL
REMARK 924 INTRA-LIGAND FREE ENERGY PREDICTED BY IDOCK:   -1.31 KCAL/MOL
REMARK 927      BINDING AFFINITY PREDICTED BY RF-SCORE:    0.00 PKD
ROOT
HETATM    1  C   UNL     1      -9.959   7.310  73.503  1.00  0.00    -0.320 C  
HETATM    2  N   UNL     1      -9.876   7.159  72.077  1.00  0.00    -0.159 N  
HETATM    3  C   UNL     1     -10.939   7.469  71.257  1.00  0.00    -0.242 C  
HETATM    4  H   UNL     1      -9.010   6.814  71.662  1.00  0.00     0.000 HD 
HETATM    5  O   UNL     1     -12.019   7.875  71.674  1.00  0.00    -0.273 OA 
ENDROOT
BRANCH   3   6
HETATM    6  C   UNL     1     -10.683   7.300  69.789  1.00  0.00    -0.239 A  
HETATM    7  N   UNL     1     -11.327   6.279  69.158  1.00  0.00    -0.377 NA 
HETATM    8  C   UNL     1     -11.028   6.106  67.850  1.00  0.00    -0.304 A  
HETATM    9  C   UNL     1     -10.096   6.867  67.157  1.00  0.00    -0.272 A  
HETATM   10  C   UNL     1      -9.441   7.885  67.839  1.00  0.00    -0.145 A  
HETATM   11  C   UNL     1      -9.779   8.145  69.167  1.00  0.00    -0.163 A  
BRANCH  10  12
HETATM   12  O   UNL     1      -8.482   8.599  67.142  1.00  0.00    -0.113 OA 
BRANCH  12  13
HETATM   13  C   UNL     1      -8.912   9.593  66.285  1.00  0.00    -0.155 A  
HETATM   14  C   UNL     1      -9.157  10.892  66.714  1.00  0.00    -0.164 A  
HETATM   15  C   UNL     1      -9.733  11.812  65.844  1.00  0.00    -0.259 A  
HETATM   16  C   UNL     1      -9.965  11.508  64.498  1.00  0.00    -0.263 A  
HETATM   17  C   UNL     1      -9.631  10.227  64.047  1.00  0.00    -0.365 A  
HETATM   18  C   UNL     1      -9.103   9.274  64.939  1.00  0.00    -0.227 A  
BRANCH  16  19
HETATM   19  N   UNL     1     -10.527  12.451  63.597  1.00  0.00    -0.437 N  
HETATM   20  H   UNL     1      -9.948  12.797  62.831  1.00  0.00     0.000 HD 
BRANCH  19  21
HETATM   21  C   UNL     1     -11.829  12.922  63.709  1.00  0.00    -0.504 C  
HETATM   22  O   UNL     1     -12.810  12.231  63.465  1.00  0.00    -0.768 OA 
BRANCH  21  23
HETATM   23  N   UNL     1     -11.920  14.243  64.108  1.00  0.00    -0.651 N  
HETATM   24  H   UNL     1     -12.219  14.937  63.423  1.00  0.00     0.000 HD 
BRANCH  23  25
HETATM   25  C   UNL     1     -11.616  14.684  65.434  1.00  0.00    -0.345 A  
HETATM   26  C   UNL     1     -10.670  15.680  65.704  1.00  0.00    -0.376 A  
HETATM   27  C   UNL     1     -10.294  16.038  67.011  1.00  0.00    -0.292 A  
HETATM   28  C   UNL     1      -9.198  17.049  67.211  1.00  0.00    -0.221 C  
HETATM   29  C   UNL     1     -10.946  15.416  68.072  1.00  0.00    -0.307 A  
HETATM   30  F   UNL     1      -8.144  16.560  67.924  1.00  0.00    -0.155 F  
HETATM   31  F   UNL     1      -9.619  18.166  67.867  1.00  0.00    -0.265 F  
HETATM   32  F   UNL     1      -8.655  17.506  66.045  1.00  0.00    -0.263 F  
HETATM   33 CL   UNL     1     -10.581  15.796  69.714  1.00  0.00    -0.288 Cl 
HETATM   34  C   UNL     1     -11.936  14.455  67.823  1.00  0.00    -0.368 A  
HETATM   35  C   UNL     1     -12.268  14.085  66.512  1.00  0.00    -0.485 A  
ENDBRANCH  23  25
ENDBRANCH  21  23
ENDBRANCH  19  21
ENDBRANCH  16  19
ENDBRANCH  12  13
ENDBRANCH  10  12
ENDBRANCH   3   6
TORSDOF 7
ENDMDL
MODEL       49
REMARK 921   NORMALIZED FREE ENERGY PREDICTED BY IDOCK:   -6.54 KCAL/MOL
REMARK 922        TOTAL FREE ENERGY PREDICTED BY IDOCK:  -11.06 KCAL/MOL
REMARK 923 INTER-LIGAND FREE ENERGY PREDICTED BY IDOCK:  -10.17 KCAL/MOL
REMARK 924 INTRA-LIGAND FREE ENERGY PREDICTED BY IDOCK:   -0.89 KCAL/MOL
REMARK 927      BINDING AFFINITY PREDICTED BY RF-SCORE:    0.00 PKD
ROOT
HETATM    1  C   UNL     1      -6.302  17.525  66.140  1.00  0.00    -0.220 C  
HETATM    2  N   UNL     1      -7.582  16.883  66.251  1.00  0.00    -0.300 N  
HETATM    3  C   UNL     1      -7.751  15.741  67.003  1.00  0.00    -0.232 C  
HETATM    4  H   UNL     1      -8.384  17.280  65.762  1.00  0.00     0.000 HD 
HETATM    5  O   UNL     1      -6.839  15.189  67.610  1.00  0.00    -0.153 OA 
ENDROOT
BRANCH   3   6
HETATM    6  C   UNL     1      -9.154  15.214  67.057  1.00  0.00    -0.230 A  
HETATM    7  N   UNL     1      -9.677  14.717  65.901  1.00  0.00    -0.321 NA 
HETATM    8  C   UNL     1     -10.966  14.311  65.958  1.00  0.00    -0.312 A  
HETATM    9  C   UNL     1     -11.765  14.413  67.090  1.00  0.00    -0.424 A  
HETATM   10  C   UNL     1     -11.205  14.948  68.244  1.00  0.00    -0.294 A  
HETATM   11  C   UNL     1      -9.857  15.304  68.246  1.00  0.00    -0.218 A  
BRANCH  10  12
HETATM   12  O   UNL     1     -12.033  15.084  69.344  1.00  0.00    -0.308 OA 
BRANCH  12  13
HETATM   13  C   UNL     1     -12.270  13.966  70.119  1.00  0.00    -0.358 A  
HETATM   14  C   UNL     1     -11.852  12.695  69.741  1.00  0.00    -0.379 A  
HETATM   15  C   UNL     1     -12.250  11.587  70.481  1.00  0.00    -0.469 A  
HETATM   16  C   UNL     1     -12.964  11.717  71.677  1.00  0.00    -0.378 A  
HETATM   17  C   UNL     1     -13.304  13.005  72.102  1.00  0.00    -0.622 A  
HETATM   18  C   UNL     1     -12.955  14.126  71.325  1.00  0.00    -0.426 A  
BRANCH  16  19
HETATM   19  N   UNL     1     -13.350  10.591  72.453  1.00  0.00    -0.532 N  
HETATM   20  H   UNL     1     -13.731  10.750  73.386  1.00  0.00     0.000 HD 
BRANCH  19  21
HETATM   21  C   UNL     1     -13.233   9.283  71.999  1.00  0.00    -0.447 C  
HETATM   22  O   UNL     1     -14.163   8.670  71.490  1.00  0.00    -0.410 OA 
BRANCH  21  23
HETATM   23  N   UNL     1     -11.978   8.730  72.183  1.00  0.00    -0.366 N  
HETATM   24  H   UNL     1     -11.443   9.005  73.007  1.00  0.00     0.000 HD 
BRANCH  23  25
HETATM   25  C   UNL     1     -11.394   7.793  71.275  1.00  0.00    -0.264 A  
HETATM   26  C   UNL     1     -11.079   8.114  69.950  1.00  0.00    -0.102 A  
HETATM   27  C   UNL     1     -10.605   7.164  69.028  1.00  0.00    -0.225 A  
HETATM   28  C   UNL     1     -10.384   7.572  67.597  1.00  0.00    -0.229 C  
HETATM   29  C   UNL     1     -10.379   5.869  69.483  1.00  0.00    -0.248 A  
HETATM   30  F   UNL     1     -11.125   6.846  66.714  1.00  0.00    -0.432 F  
HETATM   31  F   UNL     1      -9.086   7.447  67.202  1.00  0.00    -0.122 F  
HETATM   32  F   UNL     1     -10.707   8.874  67.344  1.00  0.00    -0.326 F  
HETATM   33 CL   UNL     1      -9.776   4.630  68.445  1.00  0.00    -0.209 Cl 
HETATM   34  C   UNL     1     -10.637   5.538  70.821  1.00  0.00    -0.320 A  
HETATM   35  C   UNL     1     -11.146   6.491  71.714  1.00  0.00    -0.299 A  
ENDBRANCH  23  25
ENDBRANCH  21  23
ENDBRANCH  19  21
ENDBRANCH  16  19
ENDBRANCH  12  13
ENDBRANCH  10  12
ENDBRANCH   3   6
TORSDOF 7
ENDMDL
MODEL       50
REMARK 921   NORMALIZED FREE ENERGY PREDICTED BY IDOCK:   -6.53 KCAL/MOL
REMARK 922        TOTAL FREE ENERGY PREDICTED BY IDOCK:  -11.05 KCAL/MOL
REMARK 923 INTER-LIGAND FREE ENERGY PREDICTED BY IDOCK:   -9.73 KCAL/MOL
REMARK 924 INTRA-LIGAND FREE ENERGY PREDICTED BY IDOCK:   -1.32 KCAL/MOL
REMARK 927      BINDING AFFINITY PREDICTED BY RF-SCORE:    0.00 PKD
ROOT
HETATM    1  C   UNL     1     -13.090  12.867  71.547  1.00  0.00    -0.298 C  
HETATM    2  N   UNL     1     -12.191  11.827  71.131  1.00  0.00    -0.280 N  
HETATM    3  C   UNL     1     -12.457  10.500  71.394  1.00  0.00    -0.411 C  
HETATM    4  H   UNL     1     -11.338  12.074  70.631  1.00  0.00     0.000 HD 
HETATM    5  O   UNL     1     -13.451  10.116  72.002  1.00  0.00    -0.403 OA 
ENDROOT
BRANCH   3   6
HETATM    6  C   UNL     1     -11.447   9.529  70.858  1.00  0.00    -0.334 A  
HETATM    7  N   UNL     1     -10.951   8.604  71.726  1.00  0.00    -0.300 NA 
HETATM    8  C   UNL     1      -9.993   7.784  71.238  1.00  0.00    -0.175 A  
HETATM    9  C   UNL     1      -9.479   7.867  69.950  1.00  0.00    -0.160 A  
HETATM   10  C   UNL     1      -9.992   8.839  69.099  1.00  0.00    -0.191 A  
HETATM   11  C   UNL     1     -11.036   9.651  69.541  1.00  0.00    -0.233 A  
BRANCH  10  12
HETATM   12  O   UNL     1      -9.432   8.935  67.837  1.00  0.00    -0.140 OA 
BRANCH  12  13
HETATM   13  C   UNL     1      -9.502  10.152  67.189  1.00  0.00    -0.158 A  
HETATM   14  C   UNL     1      -8.714  11.237  67.553  1.00  0.00    -0.138 A  
HETATM   15  C   UNL     1      -8.933  12.480  66.969  1.00  0.00    -0.211 A  
HETATM   16  C   UNL     1      -9.848  12.652  65.926  1.00  0.00    -0.244 A  
HETATM   17  C   UNL     1     -10.574  11.536  65.498  1.00  0.00    -0.334 A  
HETATM   18  C   UNL     1     -10.399  10.289  66.127  1.00  0.00    -0.253 A  
BRANCH  16  19
HETATM   19  N   UNL     1     -10.058  13.913  65.304  1.00  0.00    -0.500 N  
HETATM   20  H   UNL     1      -9.318  14.293  64.713  1.00  0.00     0.000 HD 
BRANCH  19  21
HETATM   21  C   UNL     1     -11.224  14.651  65.465  1.00  0.00    -0.343 C  
HETATM   22  O   UNL     1     -12.038  14.812  64.564  1.00  0.00    -0.461 OA 
BRANCH  21  23
HETATM   23  N   UNL     1     -11.380  15.197  66.726  1.00  0.00    -0.296 N  
HETATM   24  H   UNL     1     -12.138  14.851  67.314  1.00  0.00     0.000 HD 
BRANCH  23  25
HETATM   25  C   UNL     1     -10.530  16.223  67.245  1.00  0.00    -0.300 A  
HETATM   26  C   UNL     1     -10.500  17.521  66.723  1.00  0.00    -0.270 A  
HETATM   27  C   UNL     1      -9.590  18.498  67.163  1.00  0.00    -0.302 A  
HETATM   28  C   UNL     1      -9.559  19.838  66.480  1.00  0.00    -0.406 C  
HETATM   29  C   UNL     1      -8.733  18.168  68.209  1.00  0.00    -0.284 A  
HETATM   30  F   UNL     1      -8.345  20.132  65.935  1.00  0.00    -0.343 F  
HETATM   31  F   UNL     1      -9.863  20.869  67.317  1.00  0.00    -0.605 F  
HETATM   32  F   UNL     1     -10.447  19.946  65.448  1.00  0.00    -0.508 F  
HETATM   33 CL   UNL     1      -7.594  19.297  68.844  1.00  0.00    -0.390 Cl 
HETATM   34  C   UNL     1      -8.784  16.890  68.784  1.00  0.00    -0.248 A  
HETATM   35  C   UNL     1      -9.673  15.919  68.304  1.00  0.00    -0.209 A  
ENDBRANCH  23  25
ENDBRANCH  21  23
ENDBRANCH  19  21
ENDBRANCH  16  19
ENDBRANCH  12  13
ENDBRANCH  10  12
ENDBRANCH   3   6
TORSDOF 7
ENDMDL
MODEL       51
REMARK 921   NORMALIZED FREE ENERGY PREDICTED BY IDOCK:   -6.52 KCAL/MOL
REMARK 922        TOTAL FREE ENERGY PREDICTED BY IDOCK:  -11.03 KCAL/MOL
REMARK 923 INTER-LIGAND FREE ENERGY PREDICTED BY IDOCK:   -9.87 KCAL/MOL
REMARK 924 INTRA-LIGAND FREE ENERGY PREDICTED BY IDOCK:   -1.16 KCAL/MOL
REMARK 927      BINDING AFFINITY PREDICTED BY RF-SCORE:    0.00 PKD
ROOT
HETATM    1  C   UNL     1      -8.060   5.265  64.091  1.00  0.00    -0.121 C  
HETATM    2  N   UNL     1      -8.759   6.362  64.701  1.00  0.00    -0.335 N  
HETATM    3  C   UNL     1      -8.361   6.883  65.913  1.00  0.00    -0.137 C  
HETATM    4  H   UNL     1      -9.567   6.765  64.227  1.00  0.00     0.000 HD 
HETATM    5  O   UNL     1      -7.411   6.451  66.557  1.00  0.00    -0.083 OA 
ENDROOT
BRANCH   3   6
HETATM    6  C   UNL     1      -9.163   8.054  66.398  1.00  0.00    -0.194 A  
HETATM    7  N   UNL     1      -9.710   7.963  67.643  1.00  0.00    -0.150 NA 
HETATM    8  C   UNL     1     -10.484   9.002  68.030  1.00  0.00    -0.216 A  
HETATM    9  C   UNL     1     -10.772  10.099  67.229  1.00  0.00    -0.316 A  
HETATM   10  C   UNL     1     -10.217  10.148  65.956  1.00  0.00    -0.218 A  
HETATM   11  C   UNL     1      -9.351   9.133  65.550  1.00  0.00    -0.287 A  
BRANCH  10  12
HETATM   12  O   UNL     1     -10.557  11.226  65.158  1.00  0.00    -0.290 OA 
BRANCH  12  13
HETATM   13  C   UNL     1     -10.130  12.480  65.549  1.00  0.00    -0.265 A  
HETATM   14  C   UNL     1      -9.107  12.665  66.472  1.00  0.00    -0.163 A  
HETATM   15  C   UNL     1      -8.822  13.942  66.944  1.00  0.00    -0.210 A  
HETATM   16  C   UNL     1      -9.454  15.077  66.425  1.00  0.00    -0.297 A  
HETATM   17  C   UNL     1     -10.419  14.894  65.429  1.00  0.00    -0.406 A  
HETATM   18  C   UNL     1     -10.753  13.598  64.992  1.00  0.00    -0.374 A  
BRANCH  16  19
HETATM   19  N   UNL     1      -9.149  16.387  66.881  1.00  0.00    -0.206 N  
HETATM   20  H   UNL     1      -8.762  17.057  66.216  1.00  0.00     0.000 HD 
BRANCH  19  21
HETATM   21  C   UNL     1      -9.354  16.799  68.193  1.00  0.00    -0.234 C  
HETATM   22  O   UNL     1      -8.436  16.990  68.981  1.00  0.00    -0.227 OA 
BRANCH  21  23
HETATM   23  N   UNL     1     -10.684  16.962  68.534  1.00  0.00    -0.357 N  
HETATM   24  H   UNL     1     -11.198  17.741  68.122  1.00  0.00     0.000 HD 
BRANCH  23  25
HETATM   25  C   UNL     1     -11.374  16.092  69.435  1.00  0.00    -0.323 A  
HETATM   26  C   UNL     1     -11.642  16.435  70.765  1.00  0.00    -0.156 A  
HETATM   27  C   UNL     1     -12.224  15.540  71.680  1.00  0.00    -0.468 A  
HETATM   28  C   UNL     1     -12.387  15.956  73.116  1.00  0.00    -0.511 C  
HETATM   29  C   UNL     1     -12.609  14.286  71.212  1.00  0.00    -0.364 A  
HETATM   30  F   UNL     1     -11.736  15.134  73.987  1.00  0.00    -0.556 F  
HETATM   31  F   UNL     1     -13.689  15.985  73.517  1.00  0.00    -0.601 F  
HETATM   32  F   UNL     1     -11.906  17.205  73.381  1.00  0.00    -0.476 F  
HETATM   33 CL   UNL     1     -13.354  13.119  72.240  1.00  0.00    -0.626 Cl 
HETATM   34  C   UNL     1     -12.399  13.942  69.869  1.00  0.00    -0.358 A  
HETATM   35  C   UNL     1     -11.782  14.836  68.983  1.00  0.00    -0.343 A  
ENDBRANCH  23  25
ENDBRANCH  21  23
ENDBRANCH  19  21
ENDBRANCH  16  19
ENDBRANCH  12  13
ENDBRANCH  10  12
ENDBRANCH   3   6
TORSDOF 7
ENDMDL
MODEL       52
REMARK 921   NORMALIZED FREE ENERGY PREDICTED BY IDOCK:   -6.51 KCAL/MOL
REMARK 922        TOTAL FREE ENERGY PREDICTED BY IDOCK:  -11.02 KCAL/MOL
REMARK 923 INTER-LIGAND FREE ENERGY PREDICTED BY IDOCK:  -10.75 KCAL/MOL
REMARK 924 INTRA-LIGAND FREE ENERGY PREDICTED BY IDOCK:   -0.27 KCAL/MOL
REMARK 927      BINDING AFFINITY PREDICTED BY RF-SCORE:    0.00 PKD
ROOT
HETATM    1  C   UNL     1      -9.574  17.539  68.652  1.00  0.00    -0.303 C  
HETATM    2  N   UNL     1     -10.376  17.056  69.741  1.00  0.00    -0.074 N  
HETATM    3  C   UNL     1     -11.167  15.935  69.610  1.00  0.00    -0.331 C  
HETATM    4  H   UNL     1     -10.359  17.553  70.631  1.00  0.00     0.000 HD 
HETATM    5  O   UNL     1     -11.257  15.288  68.572  1.00  0.00    -0.271 OA 
ENDROOT
BRANCH   3   6
HETATM    6  C   UNL     1     -11.910  15.532  70.848  1.00  0.00    -0.371 A  
HETATM    7  N   UNL     1     -11.891  16.401  71.898  1.00  0.00    -0.460 NA 
HETATM    8  C   UNL     1     -12.511  15.984  73.025  1.00  0.00    -0.511 A  
HETATM    9  C   UNL     1     -13.108  14.739  73.172  1.00  0.00    -0.598 A  
HETATM   10  C   UNL     1     -13.088  13.869  72.088  1.00  0.00    -0.406 A  
HETATM   11  C   UNL     1     -12.527  14.292  70.884  1.00  0.00    -0.424 A  
BRANCH  10  12
HETATM   12  O   UNL     1     -13.646  12.616  72.272  1.00  0.00    -0.547 OA 
BRANCH  12  13
HETATM   13  C   UNL     1     -13.070  11.548  71.613  1.00  0.00    -0.373 A  
HETATM   14  C   UNL     1     -13.389  10.228  71.910  1.00  0.00    -0.487 A  
HETATM   15  C   UNL     1     -12.670   9.192  71.325  1.00  0.00    -0.340 A  
HETATM   16  C   UNL     1     -11.703   9.430  70.342  1.00  0.00    -0.144 A  
HETATM   17  C   UNL     1     -11.449  10.756  69.978  1.00  0.00    -0.412 A  
HETATM   18  C   UNL     1     -12.133  11.811  70.612  1.00  0.00    -0.407 A  
BRANCH  16  19
HETATM   19  N   UNL     1     -10.983   8.376  69.719  1.00  0.00    -0.395 N  
HETATM   20  H   UNL     1     -11.337   7.423  69.811  1.00  0.00     0.000 HD 
BRANCH  19  21
HETATM   21  C   UNL     1      -9.819   8.582  68.988  1.00  0.00    -0.183 C  
HETATM   22  O   UNL     1      -8.782   8.993  69.493  1.00  0.00    -0.135 OA 
BRANCH  21  23
HETATM   23  N   UNL     1      -9.938   8.296  67.641  1.00  0.00    -0.177 N  
HETATM   24  H   UNL     1      -9.915   7.319  67.349  1.00  0.00     0.000 HD 
BRANCH  23  25
HETATM   25  C   UNL     1     -10.092   9.302  66.637  1.00  0.00    -0.271 A  
HETATM   26  C   UNL     1     -10.796  10.492  66.855  1.00  0.00    -0.252 A  
HETATM   27  C   UNL     1     -11.038  11.432  65.838  1.00  0.00    -0.225 A  
HETATM   28  C   UNL     1     -11.888  12.637  66.134  1.00  0.00    -0.418 C  
HETATM   29  C   UNL     1     -10.491  11.189  64.581  1.00  0.00    -0.335 A  
HETATM   30  F   UNL     1     -12.993  12.720  65.341  1.00  0.00    -0.500 F  
HETATM   31  F   UNL     1     -11.216  13.812  65.980  1.00  0.00    -0.299 F  
HETATM   32  F   UNL     1     -12.366  12.668  67.413  1.00  0.00    -0.325 F  
HETATM   33 CL   UNL     1     -10.705  12.286  63.267  1.00  0.00    -0.419 Cl 
HETATM   34  C   UNL     1      -9.737  10.029  64.354  1.00  0.00    -0.277 A  
HETATM   35  C   UNL     1      -9.540   9.086  65.373  1.00  0.00    -0.084 A  
ENDBRANCH  23  25
ENDBRANCH  21  23
ENDBRANCH  19  21
ENDBRANCH  16  19
ENDBRANCH  12  13
ENDBRANCH  10  12
ENDBRANCH   3   6
TORSDOF 7
ENDMDL
MODEL       53
REMARK 921   NORMALIZED FREE ENERGY PREDICTED BY IDOCK:   -6.49 KCAL/MOL
REMARK 922        TOTAL FREE ENERGY PREDICTED BY IDOCK:  -11.00 KCAL/MOL
REMARK 923 INTER-LIGAND FREE ENERGY PREDICTED BY IDOCK:   -8.92 KCAL/MOL
REMARK 924 INTRA-LIGAND FREE ENERGY PREDICTED BY IDOCK:   -2.07 KCAL/MOL
REMARK 927      BINDING AFFINITY PREDICTED BY RF-SCORE:    0.00 PKD
ROOT
HETATM    1  C   UNL     1     -13.985   7.478  71.586  1.00  0.00    -0.412 C  
HETATM    2  N   UNL     1     -12.990   7.137  70.607  1.00  0.00    -0.549 N  
HETATM    3  C   UNL     1     -11.662   7.006  70.947  1.00  0.00    -0.343 C  
HETATM    4  H   UNL     1     -13.274   6.989  69.638  1.00  0.00     0.000 HD 
HETATM    5  O   UNL     1     -11.233   7.180  72.083  1.00  0.00    -0.240 OA 
ENDROOT
BRANCH   3   6
HETATM    6  C   UNL     1     -10.753   6.603  69.824  1.00  0.00    -0.257 A  
HETATM    7  N   UNL     1     -10.719   5.282  69.493  1.00  0.00    -0.183 NA 
HETATM    8  C   UNL     1      -9.843   4.935  68.523  1.00  0.00    -0.141 A  
HETATM    9  C   UNL     1      -8.975   5.824  67.902  1.00  0.00    -0.111 A  
HETATM   10  C   UNL     1      -9.020   7.160  68.283  1.00  0.00    -0.125 A  
HETATM   11  C   UNL     1      -9.965   7.570  69.223  1.00  0.00    -0.179 A  
BRANCH  10  12
HETATM   12  O   UNL     1      -8.114   8.018  67.686  1.00  0.00    -0.120 OA 
BRANCH  12  13
HETATM   13  C   UNL     1      -8.605   9.154  67.074  1.00  0.00    -0.123 A  
HETATM   14  C   UNL     1      -8.135  10.427  67.376  1.00  0.00    -0.107 A  
HETATM   15  C   UNL     1      -8.769  11.545  66.844  1.00  0.00    -0.181 A  
HETATM   16  C   UNL     1      -9.802  11.429  65.907  1.00  0.00    -0.226 A  
HETATM   17  C   UNL     1     -10.211  10.145  65.535  1.00  0.00    -0.288 A  
HETATM   18  C   UNL     1      -9.612   9.011  66.116  1.00  0.00    -0.341 A  
BRANCH  16  19
HETATM   19  N   UNL     1     -10.436  12.566  65.337  1.00  0.00    -0.276 N  
HETATM   20  H   UNL     1     -10.061  12.949  64.469  1.00  0.00     0.000 HD 
BRANCH  19  21
HETATM   21  C   UNL     1     -11.544  13.179  65.909  1.00  0.00    -0.354 C  
HETATM   22  O   UNL     1     -12.690  12.967  65.532  1.00  0.00    -0.522 OA 
BRANCH  21  23
HETATM   23  N   UNL     1     -11.239  14.059  66.931  1.00  0.00    -0.304 N  
HETATM   24  H   UNL     1     -10.740  14.918  66.699  1.00  0.00     0.000 HD 
BRANCH  23  25
HETATM   25  C   UNL     1     -11.590  13.825  68.297  1.00  0.00    -0.338 A  
HETATM   26  C   UNL     1     -11.710  12.540  68.841  1.00  0.00    -0.367 A  
HETATM   27  C   UNL     1     -12.158  12.308  70.153  1.00  0.00    -0.364 A  
HETATM   28  C   UNL     1     -12.352  10.893  70.626  1.00  0.00    -0.376 C  
HETATM   29  C   UNL     1     -12.425  13.412  70.958  1.00  0.00    -0.353 A  
HETATM   30  F   UNL     1     -13.630  10.633  71.022  1.00  0.00    -0.303 F  
HETATM   31  F   UNL     1     -11.551  10.569  71.679  1.00  0.00    -0.300 F  
HETATM   32  F   UNL     1     -12.079   9.956  69.671  1.00  0.00    -0.124 F  
HETATM   33 CL   UNL     1     -12.955  13.243  72.590  1.00  0.00    -0.286 Cl 
HETATM   34  C   UNL     1     -12.258  14.708  70.450  1.00  0.00    -0.391 A  
HETATM   35  C   UNL     1     -11.848  14.918  69.127  1.00  0.00    -0.340 A  
ENDBRANCH  23  25
ENDBRANCH  21  23
ENDBRANCH  19  21
ENDBRANCH  16  19
ENDBRANCH  12  13
ENDBRANCH  10  12
ENDBRANCH   3   6
TORSDOF 7
ENDMDL
MODEL       54
REMARK 921   NORMALIZED FREE ENERGY PREDICTED BY IDOCK:   -6.49 KCAL/MOL
REMARK 922        TOTAL FREE ENERGY PREDICTED BY IDOCK:  -11.00 KCAL/MOL
REMARK 923 INTER-LIGAND FREE ENERGY PREDICTED BY IDOCK:  -10.04 KCAL/MOL
REMARK 924 INTRA-LIGAND FREE ENERGY PREDICTED BY IDOCK:   -0.95 KCAL/MOL
REMARK 927      BINDING AFFINITY PREDICTED BY RF-SCORE:    0.00 PKD
ROOT
HETATM    1  C   UNL     1      -9.454  19.323  66.976  1.00  0.00    -0.322 C  
HETATM    2  N   UNL     1     -10.210  18.175  66.559  1.00  0.00    -0.373 N  
HETATM    3  C   UNL     1      -9.603  17.093  65.959  1.00  0.00    -0.163 C  
HETATM    4  H   UNL     1     -11.218  18.160  66.712  1.00  0.00     0.000 HD 
HETATM    5  O   UNL     1      -8.400  17.035  65.726  1.00  0.00    -0.500 OA 
ENDROOT
BRANCH   3   6
HETATM    6  C   UNL     1     -10.518  15.954  65.623  1.00  0.00    -0.392 A  
HETATM    7  N   UNL     1     -11.253  16.062  64.480  1.00  0.00    -0.545 NA 
HETATM    8  C   UNL     1     -12.120  15.054  64.233  1.00  0.00    -0.306 A  
HETATM    9  C   UNL     1     -12.320  13.973  65.083  1.00  0.00    -0.468 A  
HETATM   10  C   UNL     1     -11.571  13.908  66.252  1.00  0.00    -0.365 A  
HETATM   11  C   UNL     1     -10.610  14.888  66.502  1.00  0.00    -0.306 A  
BRANCH  10  12
HETATM   12  O   UNL     1     -11.821  12.849  67.106  1.00  0.00    -0.365 OA 
BRANCH  12  13
HETATM   13  C   UNL     1     -11.183  11.650  66.854  1.00  0.00    -0.313 A  
HETATM   14  C   UNL     1     -10.514  11.397  65.662  1.00  0.00    -0.316 A  
HETATM   15  C   UNL     1     -10.022  10.123  65.400  1.00  0.00    -0.377 A  
HETATM   16  C   UNL     1     -10.071   9.104  66.357  1.00  0.00    -0.274 A  
HETATM   17  C   UNL     1     -10.664   9.389  67.591  1.00  0.00    -0.295 A  
HETATM   18  C   UNL     1     -11.216  10.660  67.838  1.00  0.00    -0.376 A  
BRANCH  16  19
HETATM   19  N   UNL     1      -9.546   7.807  66.108  1.00  0.00    -0.426 N  
HETATM   20  H   UNL     1      -9.637   7.417  65.169  1.00  0.00     0.000 HD 
BRANCH  19  21
HETATM   21  C   UNL     1      -8.913   7.047  67.083  1.00  0.00    -0.121 C  
HETATM   22  O   UNL     1      -7.805   7.322  67.526  1.00  0.00    -0.109 OA 
BRANCH  21  23
HETATM   23  N   UNL     1      -9.638   5.946  67.501  1.00  0.00    -0.110 N  
HETATM   24  H   UNL     1      -9.909   5.251  66.805  1.00  0.00     0.000 HD 
BRANCH  23  25
HETATM   25  C   UNL     1     -10.025   5.733  68.861  1.00  0.00    -0.161 A  
HETATM   26  C   UNL     1     -10.911   6.578  69.540  1.00  0.00    -0.360 A  
HETATM   27  C   UNL     1     -11.208   6.431  70.906  1.00  0.00    -0.384 A  
HETATM   28  C   UNL     1     -12.094   7.443  71.581  1.00  0.00    -0.317 C  
HETATM   29  C   UNL     1     -10.645   5.354  71.584  1.00  0.00    -0.218 A  
HETATM   30  F   UNL     1     -11.485   8.073  72.625  1.00  0.00    -0.370 F  
HETATM   31  F   UNL     1     -13.240   6.899  72.077  1.00  0.00    -0.342 F  
HETATM   32  F   UNL     1     -12.506   8.447  70.753  1.00  0.00    -0.218 F  
HETATM   33 CL   UNL     1     -10.961   5.063  73.255  1.00  0.00    -0.351 Cl 
HETATM   34  C   UNL     1      -9.798   4.463  70.910  1.00  0.00    -0.266 A  
HETATM   35  C   UNL     1      -9.484   4.650  69.557  1.00  0.00    -0.236 A  
ENDBRANCH  23  25
ENDBRANCH  21  23
ENDBRANCH  19  21
ENDBRANCH  16  19
ENDBRANCH  12  13
ENDBRANCH  10  12
ENDBRANCH   3   6
TORSDOF 7
ENDMDL
MODEL       55
REMARK 921   NORMALIZED FREE ENERGY PREDICTED BY IDOCK:   -6.48 KCAL/MOL
REMARK 922        TOTAL FREE ENERGY PREDICTED BY IDOCK:  -10.98 KCAL/MOL
REMARK 923 INTER-LIGAND FREE ENERGY PREDICTED BY IDOCK:  -10.58 KCAL/MOL
REMARK 924 INTRA-LIGAND FREE ENERGY PREDICTED BY IDOCK:   -0.40 KCAL/MOL
REMARK 927      BINDING AFFINITY PREDICTED BY RF-SCORE:    0.00 PKD
ROOT
HETATM    1  C   UNL     1     -10.890   5.939  66.832  1.00  0.00    -0.296 C  
HETATM    2  N   UNL     1     -11.064   6.623  68.083  1.00  0.00    -0.514 N  
HETATM    3  C   UNL     1     -10.729   6.029  69.280  1.00  0.00    -0.332 C  
HETATM    4  H   UNL     1     -11.443   7.569  68.086  1.00  0.00     0.000 HD 
HETATM    5  O   UNL     1     -10.281   4.890  69.369  1.00  0.00    -0.223 OA 
ENDROOT
BRANCH   3   6
HETATM    6  C   UNL     1     -10.926   6.886  70.495  1.00  0.00    -0.273 A  
HETATM    7  N   UNL     1     -10.285   6.507  71.636  1.00  0.00    -0.193 NA 
HETATM    8  C   UNL     1     -10.532   7.257  72.734  1.00  0.00    -0.260 A  
HETATM    9  C   UNL     1     -11.411   8.332  72.761  1.00  0.00    -0.338 A  
HETATM   10  C   UNL     1     -12.066   8.675  71.584  1.00  0.00    -0.326 A  
HETATM   11  C   UNL     1     -11.777   7.975  70.413  1.00  0.00    -0.001 A  
BRANCH  10  12
HETATM   12  O   UNL     1     -12.973   9.719  71.646  1.00  0.00    -0.356 OA 
BRANCH  12  13
HETATM   13  C   UNL     1     -12.619  10.919  71.062  1.00  0.00    -0.417 A  
HETATM   14  C   UNL     1     -12.832  12.143  71.685  1.00  0.00    -0.390 A  
HETATM   15  C   UNL     1     -12.598  13.324  70.990  1.00  0.00    -0.408 A  
HETATM   16  C   UNL     1     -12.034  13.326  69.709  1.00  0.00    -0.324 A  
HETATM   17  C   UNL     1     -11.735  12.094  69.121  1.00  0.00    -0.384 A  
HETATM   18  C   UNL     1     -12.026  10.894  69.798  1.00  0.00    -0.423 A  
BRANCH  16  19
HETATM   19  N   UNL     1     -11.766  14.530  69.004  1.00  0.00    -0.294 N  
HETATM   20  H   UNL     1     -11.907  15.419  69.485  1.00  0.00     0.000 HD 
BRANCH  19  21
HETATM   21  C   UNL     1     -11.320  14.552  67.687  1.00  0.00    -0.337 C  
HETATM   22  O   UNL     1     -12.076  14.464  66.728  1.00  0.00    -0.424 OA 
BRANCH  21  23
HETATM   23  N   UNL     1      -9.949  14.669  67.556  1.00  0.00    -0.223 N  
HETATM   24  H   UNL     1      -9.375  13.839  67.704  1.00  0.00     0.000 HD 
BRANCH  23  25
HETATM   25  C   UNL     1      -9.295  15.897  67.224  1.00  0.00    -0.211 A  
HETATM   26  C   UNL     1      -9.942  17.138  67.268  1.00  0.00    -0.274 A  
HETATM   27  C   UNL     1      -9.333  18.330  66.840  1.00  0.00    -0.286 A  
HETATM   28  C   UNL     1     -10.133  19.604  66.829  1.00  0.00    -0.424 C  
HETATM   29  C   UNL     1      -8.007  18.271  66.421  1.00  0.00    -0.261 A  
HETATM   30  F   UNL     1     -10.218  20.170  65.591  1.00  0.00    -0.535 F  
HETATM   31  F   UNL     1      -9.622  20.560  67.653  1.00  0.00    -0.491 F  
HETATM   32  F   UNL     1     -11.426  19.441  67.233  1.00  0.00    -0.456 F  
HETATM   33 CL   UNL     1      -7.153  19.676  65.898  1.00  0.00    -0.287 Cl 
HETATM   34  C   UNL     1      -7.322  17.048  66.420  1.00  0.00    -0.328 A  
HETATM   35  C   UNL     1      -7.961  15.864  66.815  1.00  0.00    -0.287 A  
ENDBRANCH  23  25
ENDBRANCH  21  23
ENDBRANCH  19  21
ENDBRANCH  16  19
ENDBRANCH  12  13
ENDBRANCH  10  12
ENDBRANCH   3   6
TORSDOF 7
ENDMDL
MODEL       56
REMARK 921   NORMALIZED FREE ENERGY PREDICTED BY IDOCK:   -6.48 KCAL/MOL
REMARK 922        TOTAL FREE ENERGY PREDICTED BY IDOCK:  -10.97 KCAL/MOL
REMARK 923 INTER-LIGAND FREE ENERGY PREDICTED BY IDOCK:  -10.05 KCAL/MOL
REMARK 924 INTRA-LIGAND FREE ENERGY PREDICTED BY IDOCK:   -0.92 KCAL/MOL
REMARK 927      BINDING AFFINITY PREDICTED BY RF-SCORE:    0.00 PKD
ROOT
HETATM    1  C   UNL     1     -10.670  19.810  65.643  1.00  0.00    -0.314 C  
HETATM    2  N   UNL     1     -10.448  18.540  66.277  1.00  0.00    -0.421 N  
HETATM    3  C   UNL     1     -10.364  18.426  67.648  1.00  0.00    -0.405 C  
HETATM    4  H   UNL     1     -10.351  17.705  65.700  1.00  0.00     0.000 HD 
HETATM    5  O   UNL     1     -10.456  19.380  68.413  1.00  0.00    -0.383 OA 
ENDROOT
BRANCH   3   6
HETATM    6  C   UNL     1     -10.175  17.030  68.161  1.00  0.00    -0.322 A  
HETATM    7  N   UNL     1      -8.952  16.715  68.673  1.00  0.00    -0.238 NA 
HETATM    8  C   UNL     1      -8.786  15.432  69.066  1.00  0.00    -0.231 A  
HETATM    9  C   UNL     1      -9.755  14.445  68.938  1.00  0.00    -0.145 A  
HETATM   10  C   UNL     1     -10.982  14.797  68.388  1.00  0.00    -0.252 A  
HETATM   11  C   UNL     1     -11.219  16.127  68.044  1.00  0.00    -0.291 A  
BRANCH  10  12
HETATM   12  O   UNL     1     -11.915  13.788  68.226  1.00  0.00    -0.357 OA 
BRANCH  12  13
HETATM   13  C   UNL     1     -11.911  12.750  69.137  1.00  0.00    -0.301 A  
HETATM   14  C   UNL     1     -11.326  11.519  68.863  1.00  0.00    -0.331 A  
HETATM   15  C   UNL     1     -11.485  10.463  69.753  1.00  0.00    -0.348 A  
HETATM   16  C   UNL     1     -12.118  10.631  70.990  1.00  0.00    -0.368 A  
HETATM   17  C   UNL     1     -12.624  11.896  71.302  1.00  0.00    -0.383 A  
HETATM   18  C   UNL     1     -12.518  12.953  70.378  1.00  0.00    -0.247 A  
BRANCH  16  19
HETATM   19  N   UNL     1     -12.259   9.564  71.917  1.00  0.00    -0.374 N  
HETATM   20  H   UNL     1     -11.479   9.354  72.541  1.00  0.00     0.000 HD 
BRANCH  19  21
HETATM   21  C   UNL     1     -13.411   8.793  72.014  1.00  0.00    -0.418 C  
HETATM   22  O   UNL     1     -14.345   9.082  72.752  1.00  0.00    -0.596 OA 
BRANCH  21  23
HETATM   23  N   UNL     1     -13.406   7.666  71.213  1.00  0.00    -0.554 N  
HETATM   24  H   UNL     1     -14.262   7.422  70.713  1.00  0.00     0.000 HD 
BRANCH  23  25
HETATM   25  C   UNL     1     -12.262   6.825  71.051  1.00  0.00    -0.352 A  
HETATM   26  C   UNL     1     -11.648   6.607  69.811  1.00  0.00    -0.354 A  
HETATM   27  C   UNL     1     -10.590   5.698  69.634  1.00  0.00    -0.401 A  
HETATM   28  C   UNL     1     -10.054   5.452  68.250  1.00  0.00    -0.167 C  
HETATM   29  C   UNL     1     -10.097   5.044  70.759  1.00  0.00    -0.237 A  
HETATM   30  F   UNL     1     -10.149   4.148  67.864  1.00  0.00    -0.178 F  
HETATM   31  F   UNL     1      -8.742   5.796  68.119  1.00  0.00    -0.109 F  
HETATM   32  F   UNL     1     -10.704   6.158  67.279  1.00  0.00    -0.229 F  
HETATM   33 CL   UNL     1      -8.786   3.926  70.661  1.00  0.00    -0.110 Cl 
HETATM   34  C   UNL     1     -10.661   5.287  72.019  1.00  0.00    -0.279 A  
HETATM   35  C   UNL     1     -11.740   6.169  72.167  1.00  0.00    -0.361 A  
ENDBRANCH  23  25
ENDBRANCH  21  23
ENDBRANCH  19  21
ENDBRANCH  16  19
ENDBRANCH  12  13
ENDBRANCH  10  12
ENDBRANCH   3   6
TORSDOF 7
ENDMDL
MODEL       57
REMARK 921   NORMALIZED FREE ENERGY PREDICTED BY IDOCK:   -6.46 KCAL/MOL
REMARK 922        TOTAL FREE ENERGY PREDICTED BY IDOCK:  -10.95 KCAL/MOL
REMARK 923 INTER-LIGAND FREE ENERGY PREDICTED BY IDOCK:  -10.06 KCAL/MOL
REMARK 924 INTRA-LIGAND FREE ENERGY PREDICTED BY IDOCK:   -0.89 KCAL/MOL
REMARK 927      BINDING AFFINITY PREDICTED BY RF-SCORE:    0.00 PKD
ROOT
HETATM    1  C   UNL     1     -10.215  18.373  66.132  1.00  0.00    -0.389 C  
HETATM    2  N   UNL     1     -10.471  16.960  66.125  1.00  0.00    -0.305 N  
HETATM    3  C   UNL     1     -11.051  16.340  65.039  1.00  0.00    -0.254 C  
HETATM    4  H   UNL     1     -10.218  16.403  66.940  1.00  0.00     0.000 HD 
HETATM    5  O   UNL     1     -11.399  16.936  64.025  1.00  0.00    -1.109 OA 
ENDROOT
BRANCH   3   6
HETATM    6  C   UNL     1     -11.212  14.855  65.164  1.00  0.00    -0.386 A  
HETATM    7  N   UNL     1     -12.389  14.317  64.735  1.00  0.00    -0.539 NA 
HETATM    8  C   UNL     1     -12.537  12.986  64.920  1.00  0.00    -0.428 A  
HETATM    9  C   UNL     1     -11.596  12.177  65.544  1.00  0.00    -0.398 A  
HETATM   10  C   UNL     1     -10.418  12.764  65.991  1.00  0.00    -0.274 A  
HETATM   11  C   UNL     1     -10.195  14.118  65.748  1.00  0.00    -0.347 A  
BRANCH  10  12
HETATM   12  O   UNL     1      -9.517  11.948  66.653  1.00  0.00    -0.198 OA 
BRANCH  12  13
HETATM   13  C   UNL     1      -9.705  10.582  66.579  1.00  0.00    -0.192 A  
HETATM   14  C   UNL     1     -10.594   9.906  67.405  1.00  0.00    -0.338 A  
HETATM   15  C   UNL     1     -10.632   8.516  67.393  1.00  0.00    -0.304 A  
HETATM   16  C   UNL     1      -9.883   7.767  66.479  1.00  0.00    -0.185 A  
HETATM   17  C   UNL     1      -9.058   8.456  65.585  1.00  0.00    -0.155 A  
HETATM   18  C   UNL     1      -8.971   9.860  65.635  1.00  0.00    -0.205 A  
BRANCH  16  19
HETATM   19  N   UNL     1      -9.937   6.348  66.441  1.00  0.00    -0.372 N  
HETATM   20  H   UNL     1     -10.371   5.898  65.634  1.00  0.00     0.000 HD 
BRANCH  19  21
HETATM   21  C   UNL     1      -9.425   5.544  67.453  1.00  0.00    -0.117 C  
HETATM   22  O   UNL     1      -8.232   5.286  67.558  1.00  0.00    -0.100 OA 
BRANCH  21  23
HETATM   23  N   UNL     1     -10.381   5.050  68.321  1.00  0.00    -0.074 N  
HETATM   24  H   UNL     1     -11.045   4.360  67.970  1.00  0.00     0.000 HD 
BRANCH  23  25
HETATM   25  C   UNL     1     -10.485   5.459  69.687  1.00  0.00    -0.291 A  
HETATM   26  C   UNL     1     -11.088   6.661  70.076  1.00  0.00    -0.394 A  
HETATM   27  C   UNL     1     -11.095   7.114  71.407  1.00  0.00    -0.267 A  
HETATM   28  C   UNL     1     -11.679   8.464  71.724  1.00  0.00    -0.310 C  
HETATM   29  C   UNL     1     -10.535   6.291  72.380  1.00  0.00    -0.196 A  
HETATM   30  F   UNL     1     -10.783   9.309  72.307  1.00  0.00    -0.371 F  
HETATM   31  F   UNL     1     -12.747   8.397  72.566  1.00  0.00    -0.370 F  
HETATM   32  F   UNL     1     -12.135   9.133  70.625  1.00  0.00    -0.285 F  
HETATM   33 CL   UNL     1     -10.511   6.735  74.047  1.00  0.00    -0.374 Cl 
HETATM   34  C   UNL     1      -9.973   5.057  72.020  1.00  0.00    -0.239 A  
HETATM   35  C   UNL     1      -9.942   4.643  70.681  1.00  0.00    -0.293 A  
ENDBRANCH  23  25
ENDBRANCH  21  23
ENDBRANCH  19  21
ENDBRANCH  16  19
ENDBRANCH  12  13
ENDBRANCH  10  12
ENDBRANCH   3   6
TORSDOF 7
ENDMDL
MODEL       58
REMARK 921   NORMALIZED FREE ENERGY PREDICTED BY IDOCK:   -6.45 KCAL/MOL
REMARK 922        TOTAL FREE ENERGY PREDICTED BY IDOCK:  -10.93 KCAL/MOL
REMARK 923 INTER-LIGAND FREE ENERGY PREDICTED BY IDOCK:  -10.26 KCAL/MOL
REMARK 924 INTRA-LIGAND FREE ENERGY PREDICTED BY IDOCK:   -0.68 KCAL/MOL
REMARK 927      BINDING AFFINITY PREDICTED BY RF-SCORE:    0.00 PKD
ROOT
HETATM    1  C   UNL     1     -12.637  11.886  63.340  1.00  0.00    -0.431 C  
HETATM    2  N   UNL     1     -12.014  12.548  64.453  1.00  0.00    -0.380 N  
HETATM    3  C   UNL     1     -12.028  13.921  64.572  1.00  0.00    -0.437 C  
HETATM    4  H   UNL     1     -11.552  11.990  65.170  1.00  0.00     0.000 HD 
HETATM    5  O   UNL     1     -12.548  14.667  63.749  1.00  0.00    -0.820 OA 
ENDROOT
BRANCH   3   6
HETATM    6  C   UNL     1     -11.375  14.460  65.810  1.00  0.00    -0.330 A  
HETATM    7  N   UNL     1     -10.136  15.011  65.671  1.00  0.00    -0.336 NA 
HETATM    8  C   UNL     1      -9.541  15.428  66.812  1.00  0.00    -0.241 A  
HETATM    9  C   UNL     1     -10.095  15.287  68.077  1.00  0.00    -0.229 A  
HETATM   10  C   UNL     1     -11.350  14.698  68.183  1.00  0.00    -0.302 A  
HETATM   11  C   UNL     1     -12.029  14.327  67.023  1.00  0.00    -0.463 A  
BRANCH  10  12
HETATM   12  O   UNL     1     -11.862  14.525  69.456  1.00  0.00    -0.291 OA 
BRANCH  12  13
HETATM   13  C   UNL     1     -11.989  13.234  69.932  1.00  0.00    -0.330 A  
HETATM   14  C   UNL     1     -11.423  12.142  69.286  1.00  0.00    -0.363 A  
HETATM   15  C   UNL     1     -11.709  10.853  69.722  1.00  0.00    -0.413 A  
HETATM   16  C   UNL     1     -12.460  10.617  70.879  1.00  0.00    -0.397 A  
HETATM   17  C   UNL     1     -12.952  11.723  71.580  1.00  0.00    -0.446 A  
HETATM   18  C   UNL     1     -12.714  13.028  71.108  1.00  0.00    -0.372 A  
BRANCH  16  19
HETATM   19  N   UNL     1     -12.734   9.304  71.347  1.00  0.00    -0.325 N  
HETATM   20  H   UNL     1     -13.642   8.890  71.133  1.00  0.00     0.000 HD 
BRANCH  19  21
HETATM   21  C   UNL     1     -11.822   8.558  72.085  1.00  0.00    -0.379 C  
HETATM   22  O   UNL     1     -10.735   8.998  72.439  1.00  0.00    -0.180 OA 
BRANCH  21  23
HETATM   23  N   UNL     1     -12.244   7.273  72.373  1.00  0.00    -0.502 N  
HETATM   24  H   UNL     1     -13.192   7.142  72.727  1.00  0.00     0.000 HD 
BRANCH  23  25
HETATM   25  C   UNL     1     -11.418   6.120  72.199  1.00  0.00    -0.311 A  
HETATM   26  C   UNL     1     -10.774   5.821  70.992  1.00  0.00    -0.326 A  
HETATM   27  C   UNL     1     -10.050   4.634  70.789  1.00  0.00    -0.264 A  
HETATM   28  C   UNL     1      -9.471   4.347  69.430  1.00  0.00    -0.180 C  
HETATM   29  C   UNL     1      -9.917   3.757  71.862  1.00  0.00    -0.160 A  
HETATM   30  F   UNL     1      -9.936   3.186  68.887  1.00  0.00    -0.120 F  
HETATM   31  F   UNL     1      -8.112   4.249  69.440  1.00  0.00    -0.060 F  
HETATM   32  F   UNL     1      -9.751   5.309  68.503  1.00  0.00    -0.140 F  
HETATM   33 CL   UNL     1      -9.030   2.284  71.732  1.00  0.00    -0.118 Cl 
HETATM   34  C   UNL     1     -10.509   4.063  73.096  1.00  0.00    -0.251 A  
HETATM   35  C   UNL     1     -11.260   5.234  73.266  1.00  0.00    -0.359 A  
ENDBRANCH  23  25
ENDBRANCH  21  23
ENDBRANCH  19  21
ENDBRANCH  16  19
ENDBRANCH  12  13
ENDBRANCH  10  12
ENDBRANCH   3   6
TORSDOF 7
ENDMDL
MODEL       59
REMARK 921   NORMALIZED FREE ENERGY PREDICTED BY IDOCK:   -6.43 KCAL/MOL
REMARK 922        TOTAL FREE ENERGY PREDICTED BY IDOCK:  -10.91 KCAL/MOL
REMARK 923 INTER-LIGAND FREE ENERGY PREDICTED BY IDOCK:   -9.70 KCAL/MOL
REMARK 924 INTRA-LIGAND FREE ENERGY PREDICTED BY IDOCK:   -1.21 KCAL/MOL
REMARK 927      BINDING AFFINITY PREDICTED BY RF-SCORE:    0.00 PKD
ROOT
HETATM    1  C   UNL     1     -12.436  12.079  63.213  1.00  0.00    -0.425 C  
HETATM    2  N   UNL     1     -12.001  12.233  64.574  1.00  0.00    -0.388 N  
HETATM    3  C   UNL     1     -12.451  13.273  65.359  1.00  0.00    -0.489 C  
HETATM    4  H   UNL     1     -11.346  11.559  64.968  1.00  0.00     0.000 HD 
HETATM    5  O   UNL     1     -13.227  14.135  64.961  1.00  0.00    -0.691 OA 
ENDROOT
BRANCH   3   6
HETATM    6  C   UNL     1     -11.941  13.273  66.770  1.00  0.00    -0.382 A  
HETATM    7  N   UNL     1     -12.221  14.367  67.533  1.00  0.00    -0.284 NA 
HETATM    8  C   UNL     1     -11.694  14.373  68.778  1.00  0.00    -0.337 A  
HETATM    9  C   UNL     1     -10.875  13.371  69.282  1.00  0.00    -0.085 A  
HETATM   10  C   UNL     1     -10.591  12.281  68.467  1.00  0.00    -0.234 A  
HETATM   11  C   UNL     1     -11.180  12.201  67.206  1.00  0.00    -0.366 A  
BRANCH  10  12
HETATM   12  O   UNL     1      -9.735  11.319  68.972  1.00  0.00    -0.160 OA 
BRANCH  12  13
HETATM   13  C   UNL     1     -10.230  10.446  69.921  1.00  0.00    -0.141 A  
HETATM   14  C   UNL     1     -11.579  10.391  70.252  1.00  0.00    -0.410 A  
HETATM   15  C   UNL     1     -11.999   9.604  71.319  1.00  0.00    -0.462 A  
HETATM   16  C   UNL     1     -11.118   8.760  72.003  1.00  0.00    -0.371 A  
HETATM   17  C   UNL     1      -9.777   8.749  71.607  1.00  0.00    -0.366 A  
HETATM   18  C   UNL     1      -9.336   9.589  70.566  1.00  0.00    -0.296 A  
BRANCH  16  19
HETATM   19  N   UNL     1     -11.545   7.932  73.076  1.00  0.00    -0.571 N  
HETATM   20  H   UNL     1     -12.196   8.318  73.760  1.00  0.00     0.000 HD 
BRANCH  19  21
HETATM   21  C   UNL     1     -11.116   6.620  73.237  1.00  0.00    -0.120 C  
HETATM   22  O   UNL     1     -10.385   6.266  74.154  1.00  0.00    -0.298 OA 
BRANCH  21  23
HETATM   23  N   UNL     1     -11.575   5.751  72.263  1.00  0.00    -0.277 N  
HETATM   24  H   UNL     1     -12.520   5.379  72.353  1.00  0.00     0.000 HD 
BRANCH  23  25
HETATM   25  C   UNL     1     -10.790   5.350  71.138  1.00  0.00    -0.118 A  
HETATM   26  C   UNL     1     -10.949   5.906  69.863  1.00  0.00    -0.444 A  
HETATM   27  C   UNL     1     -10.253   5.437  68.735  1.00  0.00    -0.252 A  
HETATM   28  C   UNL     1     -10.556   6.025  67.384  1.00  0.00    -0.283 C  
HETATM   29  C   UNL     1      -9.319   4.422  68.920  1.00  0.00    -0.153 A  
HETATM   30  F   UNL     1     -10.987   5.098  66.483  1.00  0.00    -0.320 F  
HETATM   31  F   UNL     1      -9.481   6.640  66.818  1.00  0.00    -0.146 F  
HETATM   32  F   UNL     1     -11.536   6.976  67.410  1.00  0.00    -0.288 F  
HETATM   33 CL   UNL     1      -8.391   3.788  67.611  1.00  0.00    -0.094 Cl 
HETATM   34  C   UNL     1      -9.104   3.887  70.198  1.00  0.00    -0.191 A  
HETATM   35  C   UNL     1      -9.837   4.343  71.303  1.00  0.00    -0.260 A  
ENDBRANCH  23  25
ENDBRANCH  21  23
ENDBRANCH  19  21
ENDBRANCH  16  19
ENDBRANCH  12  13
ENDBRANCH  10  12
ENDBRANCH   3   6
TORSDOF 7
ENDMDL
MODEL       60
REMARK 921   NORMALIZED FREE ENERGY PREDICTED BY IDOCK:   -6.41 KCAL/MOL
REMARK 922        TOTAL FREE ENERGY PREDICTED BY IDOCK:  -10.89 KCAL/MOL
REMARK 923 INTER-LIGAND FREE ENERGY PREDICTED BY IDOCK:   -9.47 KCAL/MOL
REMARK 924 INTRA-LIGAND FREE ENERGY PREDICTED BY IDOCK:   -1.42 KCAL/MOL
REMARK 927      BINDING AFFINITY PREDICTED BY RF-SCORE:    0.00 PKD
ROOT
HETATM    1  C   UNL     1      -9.916   7.692  73.342  1.00  0.00    -0.314 C  
HETATM    2  N   UNL     1      -9.871   7.600  71.909  1.00  0.00    -0.163 N  
HETATM    3  C   UNL     1     -10.994   7.293  71.172  1.00  0.00    -0.247 C  
HETATM    4  H   UNL     1      -8.988   7.767  71.426  1.00  0.00     0.000 HD 
HETATM    5  O   UNL     1     -12.090   7.064  71.672  1.00  0.00    -0.308 OA 
ENDROOT
BRANCH   3   6
HETATM    6  C   UNL     1     -10.797   7.278  69.686  1.00  0.00    -0.222 A  
HETATM    7  N   UNL     1     -11.254   6.188  69.007  1.00  0.00    -0.378 NA 
HETATM    8  C   UNL     1     -11.004   6.168  67.678  1.00  0.00    -0.302 A  
HETATM    9  C   UNL     1     -10.291   7.151  67.004  1.00  0.00    -0.368 A  
HETATM   10  C   UNL     1      -9.819   8.236  67.733  1.00  0.00    -0.170 A  
HETATM   11  C   UNL     1     -10.124   8.332  69.090  1.00  0.00    -0.205 A  
BRANCH  10  12
HETATM   12  O   UNL     1      -9.071   9.179  67.050  1.00  0.00    -0.121 OA 
BRANCH  12  13
HETATM   13  C   UNL     1      -9.747  10.160  66.353  1.00  0.00    -0.205 A  
HETATM   14  C   UNL     1     -10.477  11.158  66.988  1.00  0.00    -0.277 A  
HETATM   15  C   UNL     1     -11.261  12.027  66.238  1.00  0.00    -0.394 A  
HETATM   16  C   UNL     1     -11.247  12.012  64.839  1.00  0.00    -0.320 A  
HETATM   17  C   UNL     1     -10.439  11.066  64.201  1.00  0.00    -0.434 A  
HETATM   18  C   UNL     1      -9.690  10.144  64.957  1.00  0.00    -0.384 A  
BRANCH  16  19
HETATM   19  N   UNL     1     -12.024  12.915  64.065  1.00  0.00    -0.416 N  
HETATM   20  H   UNL     1     -12.308  12.633  63.127  1.00  0.00     0.000 HD 
BRANCH  19  21
HETATM   21  C   UNL     1     -12.414  14.166  64.528  1.00  0.00    -0.322 C  
HETATM   22  O   UNL     1     -13.407  14.337  65.225  1.00  0.00    -0.660 OA 
BRANCH  21  23
HETATM   23  N   UNL     1     -11.591  15.201  64.124  1.00  0.00    -0.723 N  
HETATM   24  H   UNL     1     -11.597  15.469  63.140  1.00  0.00     0.000 HD 
BRANCH  23  25
HETATM   25  C   UNL     1     -10.733  15.914  65.017  1.00  0.00    -0.404 A  
HETATM   26  C   UNL     1      -9.671  15.306  65.698  1.00  0.00    -0.360 A  
HETATM   27  C   UNL     1      -8.895  15.980  66.656  1.00  0.00    -0.307 A  
HETATM   28  C   UNL     1      -7.837  15.224  67.413  1.00  0.00    -0.194 C  
HETATM   29  C   UNL     1      -9.158  17.329  66.879  1.00  0.00    -0.236 A  
HETATM   30  F   UNL     1      -8.031  15.240  68.762  1.00  0.00    -0.124 F  
HETATM   31  F   UNL     1      -6.582  15.709  67.200  1.00  0.00    -0.196 F  
HETATM   32  F   UNL     1      -7.767  13.902  67.080  1.00  0.00    -0.178 F  
HETATM   33 CL   UNL     1      -8.251  18.259  68.013  1.00  0.00    -0.264 Cl 
HETATM   34  C   UNL     1     -10.181  17.972  66.168  1.00  0.00    -0.364 A  
HETATM   35  C   UNL     1     -10.969  17.271  65.245  1.00  0.00     0.089 A  
ENDBRANCH  23  25
ENDBRANCH  21  23
ENDBRANCH  19  21
ENDBRANCH  16  19
ENDBRANCH  12  13
ENDBRANCH  10  12
ENDBRANCH   3   6
TORSDOF 7
ENDMDL
MODEL       61
REMARK 921   NORMALIZED FREE ENERGY PREDICTED BY IDOCK:   -6.41 KCAL/MOL
REMARK 922        TOTAL FREE ENERGY PREDICTED BY IDOCK:  -10.88 KCAL/MOL
REMARK 923 INTER-LIGAND FREE ENERGY PREDICTED BY IDOCK:   -9.94 KCAL/MOL
REMARK 924 INTRA-LIGAND FREE ENERGY PREDICTED BY IDOCK:   -0.94 KCAL/MOL
REMARK 927      BINDING AFFINITY PREDICTED BY RF-SCORE:    0.00 PKD
ROOT
HETATM    1  C   UNL     1      -6.269   6.818  72.395  1.00  0.00    -0.045 C  
HETATM    2  N   UNL     1      -7.672   6.762  72.090  1.00  0.00    -0.094 N  
HETATM    3  C   UNL     1      -8.537   7.753  72.499  1.00  0.00    -0.136 C  
HETATM    4  H   UNL     1      -8.035   5.971  71.558  1.00  0.00     0.000 HD 
HETATM    5  O   UNL     1      -8.187   8.729  73.154  1.00  0.00    -0.411 OA 
ENDROOT
BRANCH   3   6
HETATM    6  C   UNL     1      -9.962   7.575  72.066  1.00  0.00    -0.175 A  
HETATM    7  N   UNL     1     -10.249   6.481  71.305  1.00  0.00    -0.197 NA 
HETATM    8  C   UNL     1     -11.525   6.379  70.871  1.00  0.00    -0.344 A  
HETATM    9  C   UNL     1     -12.512   7.324  71.119  1.00  0.00    -0.373 A  
HETATM   10  C   UNL     1     -12.176   8.439  71.879  1.00  0.00    -0.343 A  
HETATM   11  C   UNL     1     -10.891   8.541  72.410  1.00  0.00    -0.378 A  
BRANCH  10  12
HETATM   12  O   UNL     1     -13.161   9.391  72.073  1.00  0.00    -0.384 OA 
BRANCH  12  13
HETATM   13  C   UNL     1     -12.925  10.671  71.611  1.00  0.00    -0.477 A  
HETATM   14  C   UNL     1     -13.340  11.803  72.302  1.00  0.00    -0.166 A  
HETATM   15  C   UNL     1     -13.212  13.058  71.718  1.00  0.00    -0.486 A  
HETATM   16  C   UNL     1     -12.559  13.237  70.494  1.00  0.00    -0.189 A  
HETATM   17  C   UNL     1     -12.060  12.105  69.844  1.00  0.00    -0.324 A  
HETATM   18  C   UNL     1     -12.241  10.826  70.403  1.00  0.00    -0.437 A  
BRANCH  16  19
HETATM   19  N   UNL     1     -12.399  14.520  69.904  1.00  0.00    -0.430 N  
HETATM   20  H   UNL     1     -13.072  14.819  69.198  1.00  0.00     0.000 HD 
BRANCH  19  21
HETATM   21  C   UNL     1     -11.367  15.386  70.244  1.00  0.00    -0.311 C  
HETATM   22  O   UNL     1     -11.292  15.935  71.336  1.00  0.00    -0.382 OA 
BRANCH  21  23
HETATM   23  N   UNL     1     -10.439  15.584  69.238  1.00  0.00    -0.229 N  
HETATM   24  H   UNL     1      -9.823  16.394  69.299  1.00  0.00     0.000 HD 
BRANCH  23  25
HETATM   25  C   UNL     1     -10.300  14.708  68.117  1.00  0.00    -0.230 A  
HETATM   26  C   UNL     1     -11.258  14.618  67.100  1.00  0.00    -0.349 A  
HETATM   27  C   UNL     1     -11.174  13.682  66.055  1.00  0.00    -0.302 A  
HETATM   28  C   UNL     1     -12.297  13.587  65.058  1.00  0.00    -0.428 C  
HETATM   29  C   UNL     1     -10.052  12.861  66.002  1.00  0.00    -0.285 A  
HETATM   30  F   UNL     1     -12.871  12.351  65.016  1.00  0.00    -0.541 F  
HETATM   31  F   UNL     1     -11.904  13.870  63.785  1.00  0.00    -0.420 F  
HETATM   32  F   UNL     1     -13.327  14.447  65.311  1.00  0.00    -0.383 F  
HETATM   33 CL   UNL     1      -9.834  11.694  64.750  1.00  0.00    -0.268 Cl 
HETATM   34  C   UNL     1      -9.053  12.971  66.980  1.00  0.00    -0.230 A  
HETATM   35  C   UNL     1      -9.175  13.885  68.036  1.00  0.00    -0.193 A  
ENDBRANCH  23  25
ENDBRANCH  21  23
ENDBRANCH  19  21
ENDBRANCH  16  19
ENDBRANCH  12  13
ENDBRANCH  10  12
ENDBRANCH   3   6
TORSDOF 7
ENDMDL
MODEL       62
REMARK 921   NORMALIZED FREE ENERGY PREDICTED BY IDOCK:   -6.38 KCAL/MOL
REMARK 922        TOTAL FREE ENERGY PREDICTED BY IDOCK:  -10.84 KCAL/MOL
REMARK 923 INTER-LIGAND FREE ENERGY PREDICTED BY IDOCK:   -9.62 KCAL/MOL
REMARK 924 INTRA-LIGAND FREE ENERGY PREDICTED BY IDOCK:   -1.23 KCAL/MOL
REMARK 927      BINDING AFFINITY PREDICTED BY RF-SCORE:    0.00 PKD
ROOT
HETATM    1  C   UNL     1     -10.274  10.741  64.666  1.00  0.00    -0.350 C  
HETATM    2  N   UNL     1      -9.565   9.988  65.663  1.00  0.00    -0.231 N  
HETATM    3  C   UNL     1      -8.670   8.999  65.315  1.00  0.00    -0.193 C  
HETATM    4  H   UNL     1      -9.726  10.189  66.649  1.00  0.00     0.000 HD 
HETATM    5  O   UNL     1      -8.428   8.682  64.155  1.00  0.00    -0.157 OA 
ENDROOT
BRANCH   3   6
HETATM    6  C   UNL     1      -7.976   8.333  66.466  1.00  0.00    -0.100 A  
HETATM    7  N   UNL     1      -6.632   8.526  66.579  1.00  0.00    -0.059 NA 
HETATM    8  C   UNL     1      -6.019   7.862  67.584  1.00  0.00    -0.046 A  
HETATM    9  C   UNL     1      -6.666   6.989  68.450  1.00  0.00    -0.064 A  
HETATM   10  C   UNL     1      -8.033   6.798  68.290  1.00  0.00    -0.111 A  
HETATM   11  C   UNL     1      -8.714   7.526  67.315  1.00  0.00    -0.121 A  
BRANCH  10  12
HETATM   12  O   UNL     1      -8.647   5.889  69.133  1.00  0.00    -0.114 OA 
BRANCH  12  13
HETATM   13  C   UNL     1      -9.572   6.369  70.040  1.00  0.00    -0.158 A  
HETATM   14  C   UNL     1     -10.903   5.971  70.029  1.00  0.00    -0.429 A  
HETATM   15  C   UNL     1     -11.821   6.598  70.864  1.00  0.00    -0.434 A  
HETATM   16  C   UNL     1     -11.425   7.546  71.815  1.00  0.00    -0.260 A  
HETATM   17  C   UNL     1     -10.068   7.877  71.886  1.00  0.00    -0.250 A  
HETATM   18  C   UNL     1      -9.145   7.287  71.001  1.00  0.00    -0.153 A  
BRANCH  16  19
HETATM   19  N   UNL     1     -12.352   8.171  72.691  1.00  0.00    -0.606 N  
HETATM   20  H   UNL     1     -12.224   8.058  73.697  1.00  0.00     0.000 HD 
BRANCH  19  21
HETATM   21  C   UNL     1     -13.425   8.930  72.239  1.00  0.00    -0.455 C  
HETATM   22  O   UNL     1     -14.410   9.165  72.929  1.00  0.00    -0.519 OA 
BRANCH  21  23
HETATM   23  N   UNL     1     -13.290   9.386  70.941  1.00  0.00    -0.575 N  
HETATM   24  H   UNL     1     -13.589   8.777  70.179  1.00  0.00     0.000 HD 
BRANCH  23  25
HETATM   25  C   UNL     1     -12.751  10.670  70.614  1.00  0.00    -0.359 A  
HETATM   26  C   UNL     1     -12.993  11.814  71.383  1.00  0.00    -0.408 A  
HETATM   27  C   UNL     1     -12.552  13.094  71.003  1.00  0.00    -0.397 A  
HETATM   28  C   UNL     1     -12.940  14.284  71.838  1.00  0.00    -0.350 C  
HETATM   29  C   UNL     1     -11.786  13.204  69.847  1.00  0.00    -0.308 A  
HETATM   30  F   UNL     1     -13.644  15.219  71.139  1.00  0.00    -0.437 F  
HETATM   31  F   UNL     1     -11.867  14.932  72.372  1.00  0.00    -0.409 F  
HETATM   32  F   UNL     1     -13.732  13.969  72.904  1.00  0.00    -0.558 F  
HETATM   33 CL   UNL     1     -11.173  14.722  69.301  1.00  0.00    -0.282 Cl 
HETATM   34  C   UNL     1     -11.486  12.063  69.090  1.00  0.00    -0.357 A  
HETATM   35  C   UNL     1     -11.967  10.801  69.466  1.00  0.00    -0.364 A  
ENDBRANCH  23  25
ENDBRANCH  21  23
ENDBRANCH  19  21
ENDBRANCH  16  19
ENDBRANCH  12  13
ENDBRANCH  10  12
ENDBRANCH   3   6
TORSDOF 7
ENDMDL
MODEL       63
REMARK 921   NORMALIZED FREE ENERGY PREDICTED BY IDOCK:   -6.37 KCAL/MOL
REMARK 922        TOTAL FREE ENERGY PREDICTED BY IDOCK:  -10.83 KCAL/MOL
REMARK 923 INTER-LIGAND FREE ENERGY PREDICTED BY IDOCK:   -9.32 KCAL/MOL
REMARK 924 INTRA-LIGAND FREE ENERGY PREDICTED BY IDOCK:   -1.51 KCAL/MOL
REMARK 927      BINDING AFFINITY PREDICTED BY RF-SCORE:    0.00 PKD
ROOT
HETATM    1  C   UNL     1     -13.190  10.650  71.809  1.00  0.00    -0.421 C  
HETATM    2  N   UNL     1     -12.364   9.733  71.074  1.00  0.00    -0.322 N  
HETATM    3  C   UNL     1     -12.137   8.450  71.523  1.00  0.00    -0.301 C  
HETATM    4  H   UNL     1     -11.936  10.038  70.200  1.00  0.00     0.000 HD 
HETATM    5  O   UNL     1     -12.601   8.007  72.568  1.00  0.00    -0.228 OA 
ENDROOT
BRANCH   3   6
HETATM    6  C   UNL     1     -11.290   7.600  70.623  1.00  0.00    -0.272 A  
HETATM    7  N   UNL     1     -11.395   6.249  70.763  1.00  0.00    -0.333 NA 
HETATM    8  C   UNL     1     -10.573   5.506  69.988  1.00  0.00    -0.314 A  
HETATM    9  C   UNL     1      -9.630   6.038  69.119  1.00  0.00    -0.156 A  
HETATM   10  C   UNL     1      -9.534   7.421  69.020  1.00  0.00    -0.148 A  
HETATM   11  C   UNL     1     -10.419   8.220  69.743  1.00  0.00    -0.220 A  
BRANCH  10  12
HETATM   12  O   UNL     1      -8.555   7.929  68.184  1.00  0.00    -0.123 OA 
BRANCH  12  13
HETATM   13  C   UNL     1      -8.894   8.980  67.354  1.00  0.00    -0.118 A  
HETATM   14  C   UNL     1      -9.672   8.810  66.215  1.00  0.00    -0.342 A  
HETATM   15  C   UNL     1      -9.854   9.871  65.335  1.00  0.00    -0.384 A  
HETATM   16  C   UNL     1      -9.378  11.156  65.622  1.00  0.00    -0.219 A  
HETATM   17  C   UNL     1      -8.674  11.344  66.815  1.00  0.00    -0.174 A  
HETATM   18  C   UNL     1      -8.435  10.258  67.679  1.00  0.00    -0.118 A  
BRANCH  16  19
HETATM   19  N   UNL     1      -9.584  12.252  64.742  1.00  0.00    -0.461 N  
HETATM   20  H   UNL     1      -8.775  12.802  64.452  1.00  0.00     0.000 HD 
BRANCH  19  21
HETATM   21  C   UNL     1     -10.837  12.608  64.258  1.00  0.00    -0.379 C  
HETATM   22  O   UNL     1     -11.136  12.541  63.073  1.00  0.00    -0.226 OA 
BRANCH  21  23
HETATM   23  N   UNL     1     -11.712  13.058  65.230  1.00  0.00    -0.336 N  
HETATM   24  H   UNL     1     -12.634  12.624  65.291  1.00  0.00     0.000 HD 
BRANCH  23  25
HETATM   25  C   UNL     1     -11.389  14.100  66.154  1.00  0.00    -0.337 A  
HETATM   26  C   UNL     1     -11.645  14.003  67.527  1.00  0.00    -0.397 A  
HETATM   27  C   UNL     1     -11.426  15.068  68.419  1.00  0.00    -0.340 A  
HETATM   28  C   UNL     1     -11.820  14.913  69.863  1.00  0.00    -0.311 C  
HETATM   29  C   UNL     1     -10.868  16.239  67.914  1.00  0.00    -0.330 A  
HETATM   30  F   UNL     1     -12.731  15.842  70.270  1.00  0.00    -0.431 F  
HETATM   31  F   UNL     1     -10.763  15.013  70.716  1.00  0.00    -0.269 F  
HETATM   32  F   UNL     1     -12.393  13.707  70.146  1.00  0.00    -0.358 F  
HETATM   33 CL   UNL     1     -10.534  17.598  68.922  1.00  0.00    -0.322 Cl 
HETATM   34  C   UNL     1     -10.553  16.337  66.551  1.00  0.00    -0.256 A  
HETATM   35  C   UNL     1     -10.815  15.277  65.672  1.00  0.00    -0.371 A  
ENDBRANCH  23  25
ENDBRANCH  21  23
ENDBRANCH  19  21
ENDBRANCH  16  19
ENDBRANCH  12  13
ENDBRANCH  10  12
ENDBRANCH   3   6
TORSDOF 7
ENDMDL
MODEL       64
REMARK 921   NORMALIZED FREE ENERGY PREDICTED BY IDOCK:   -6.36 KCAL/MOL
REMARK 922        TOTAL FREE ENERGY PREDICTED BY IDOCK:  -10.81 KCAL/MOL
REMARK 923 INTER-LIGAND FREE ENERGY PREDICTED BY IDOCK:  -10.13 KCAL/MOL
REMARK 924 INTRA-LIGAND FREE ENERGY PREDICTED BY IDOCK:   -0.68 KCAL/MOL
REMARK 927      BINDING AFFINITY PREDICTED BY RF-SCORE:    0.00 PKD
ROOT
HETATM    1  C   UNL     1      -5.214  21.364  65.896  1.00  0.00    -0.178 C  
HETATM    2  N   UNL     1      -6.484  20.707  66.030  1.00  0.00    -0.243 N  
HETATM    3  C   UNL     1      -7.015  20.414  67.268  1.00  0.00    -0.283 C  
HETATM    4  H   UNL     1      -7.005  20.452  65.192  1.00  0.00     0.000 HD 
HETATM    5  O   UNL     1      -6.450  20.672  68.325  1.00  0.00    -0.305 OA 
ENDROOT
BRANCH   3   6
HETATM    6  C   UNL     1      -8.368  19.768  67.244  1.00  0.00    -0.312 A  
HETATM    7  N   UNL     1      -9.420  20.538  66.847  1.00  0.00    -0.368 NA 
HETATM    8  C   UNL     1     -10.638  19.952  66.899  1.00  0.00    -0.409 A  
HETATM    9  C   UNL     1     -10.864  18.663  67.362  1.00  0.00    -0.381 A  
HETATM   10  C   UNL     1      -9.770  17.914  67.782  1.00  0.00    -0.283 A  
HETATM   11  C   UNL     1      -8.490  18.455  67.669  1.00  0.00    -0.264 A  
BRANCH  10  12
HETATM   12  O   UNL     1     -10.024  16.650  68.284  1.00  0.00    -0.244 OA 
BRANCH  12  13
HETATM   13  C   UNL     1     -10.595  15.721  67.438  1.00  0.00    -0.313 A  
HETATM   14  C   UNL     1     -10.305  15.670  66.079  1.00  0.00    -0.351 A  
HETATM   15  C   UNL     1     -11.022  14.817  65.248  1.00  0.00    -0.382 A  
HETATM   16  C   UNL     1     -11.955  13.906  65.756  1.00  0.00    -0.400 A  
HETATM   17  C   UNL     1     -12.178  13.895  67.136  1.00  0.00    -0.353 A  
HETATM   18  C   UNL     1     -11.498  14.800  67.974  1.00  0.00    -0.351 A  
BRANCH  16  19
HETATM   19  N   UNL     1     -12.671  13.011  64.917  1.00  0.00    -0.706 N  
HETATM   20  H   UNL     1     -13.441  12.476  65.320  1.00  0.00     0.000 HD 
BRANCH  19  21
HETATM   21  C   UNL     1     -12.371  12.830  63.572  1.00  0.00    -0.467 C  
HETATM   22  O   UNL     1     -12.564  13.694  62.726  1.00  0.00    -0.456 OA 
BRANCH  21  23
HETATM   23  N   UNL     1     -11.847  11.586  63.272  1.00  0.00    -0.877 N  
HETATM   24  H   UNL     1     -12.379  10.972  62.654  1.00  0.00     0.000 HD 
BRANCH  23  25
HETATM   25  C   UNL     1     -10.597  11.118  63.783  1.00  0.00    -0.356 A  
HETATM   26  C   UNL     1     -10.283  11.127  65.148  1.00  0.00    -0.347 A  
HETATM   27  C   UNL     1      -9.017  10.767  65.641  1.00  0.00    -0.205 A  
HETATM   28  C   UNL     1      -8.733  10.900  67.112  1.00  0.00    -0.132 C  
HETATM   29  C   UNL     1      -8.064  10.320  64.729  1.00  0.00    -0.151 A  
HETATM   30  F   UNL     1      -7.691  11.736  67.382  1.00  0.00    -0.118 F  
HETATM   31  F   UNL     1      -8.435   9.711  67.706  1.00  0.00    -0.121 F  
HETATM   32  F   UNL     1      -9.783  11.400  67.828  1.00  0.00    -0.166 F  
HETATM   33 CL   UNL     1      -6.487   9.830  65.226  1.00  0.00    -0.083 Cl 
HETATM   34  C   UNL     1      -8.375  10.251  63.364  1.00  0.00    -0.169 A  
HETATM   35  C   UNL     1      -9.632  10.651  62.889  1.00  0.00    -0.358 A  
ENDBRANCH  23  25
ENDBRANCH  21  23
ENDBRANCH  19  21
ENDBRANCH  16  19
ENDBRANCH  12  13
ENDBRANCH  10  12
ENDBRANCH   3   6
TORSDOF 7
ENDMDL
MODEL       65
REMARK 921   NORMALIZED FREE ENERGY PREDICTED BY IDOCK:   -6.33 KCAL/MOL
REMARK 922        TOTAL FREE ENERGY PREDICTED BY IDOCK:  -10.76 KCAL/MOL
REMARK 923 INTER-LIGAND FREE ENERGY PREDICTED BY IDOCK:  -10.00 KCAL/MOL
REMARK 924 INTRA-LIGAND FREE ENERGY PREDICTED BY IDOCK:   -0.76 KCAL/MOL
REMARK 927      BINDING AFFINITY PREDICTED BY RF-SCORE:    0.00 PKD
ROOT
HETATM    1  C   UNL     1      -6.028  16.472  67.016  1.00  0.00    -0.122 C  
HETATM    2  N   UNL     1      -7.285  15.820  67.255  1.00  0.00    -0.205 N  
HETATM    3  C   UNL     1      -8.450  16.269  66.671  1.00  0.00    -0.271 C  
HETATM    4  H   UNL     1      -7.317  15.008  67.870  1.00  0.00     0.000 HD 
HETATM    5  O   UNL     1      -8.504  17.246  65.931  1.00  0.00    -0.533 OA 
ENDROOT
BRANCH   3   6
HETATM    6  C   UNL     1      -9.673  15.458  66.981  1.00  0.00    -0.224 A  
HETATM    7  N   UNL     1     -10.193  14.704  65.972  1.00  0.00    -0.295 NA 
HETATM    8  C   UNL     1     -11.333  14.035  66.258  1.00  0.00    -0.333 A  
HETATM    9  C   UNL     1     -11.998  14.112  67.475  1.00  0.00    -0.419 A  
HETATM   10  C   UNL     1     -11.450  14.909  68.473  1.00  0.00    -0.315 A  
HETATM   11  C   UNL     1     -10.235  15.552  68.244  1.00  0.00    -0.222 A  
BRANCH  10  12
HETATM   12  O   UNL     1     -12.154  15.008  69.661  1.00  0.00    -0.308 OA 
BRANCH  12  13
HETATM   13  C   UNL     1     -12.371  13.851  70.383  1.00  0.00    -0.363 A  
HETATM   14  C   UNL     1     -11.850  12.622  69.996  1.00  0.00    -0.358 A  
HETATM   15  C   UNL     1     -12.225  11.466  70.672  1.00  0.00    -0.484 A  
HETATM   16  C   UNL     1     -13.023  11.511  71.821  1.00  0.00    -0.394 A  
HETATM   17  C   UNL     1     -13.471  12.760  72.261  1.00  0.00    -0.591 A  
HETATM   18  C   UNL     1     -13.143  13.927  71.544  1.00  0.00    -0.441 A  
BRANCH  16  19
HETATM   19  N   UNL     1     -13.388  10.338  72.534  1.00  0.00    -0.504 N  
HETATM   20  H   UNL     1     -13.730  10.435  73.490  1.00  0.00     0.000 HD 
BRANCH  19  21
HETATM   21  C   UNL     1     -13.301   9.063  71.988  1.00  0.00    -0.438 C  
HETATM   22  O   UNL     1     -13.922   8.723  70.989  1.00  0.00    -0.139 OA 
BRANCH  21  23
HETATM   23  N   UNL     1     -12.460   8.208  72.678  1.00  0.00    -0.603 N  
HETATM   24  H   UNL     1     -12.875   7.542  73.330  1.00  0.00     0.000 HD 
BRANCH  23  25
HETATM   25  C   UNL     1     -11.039   8.212  72.524  1.00  0.00    -0.377 A  
HETATM   26  C   UNL     1     -10.392   8.860  71.465  1.00  0.00    -0.394 A  
HETATM   27  C   UNL     1      -9.005   8.774  71.253  1.00  0.00    -0.295 A  
HETATM   28  C   UNL     1      -8.404   9.419  70.034  1.00  0.00    -0.180 C  
HETATM   29  C   UNL     1      -8.245   8.069  72.182  1.00  0.00    -0.137 A  
HETATM   30  F   UNL     1      -7.750   8.534  69.230  1.00  0.00    -0.084 F  
HETATM   31  F   UNL     1      -7.505  10.397  70.338  1.00  0.00    -0.163 F  
HETATM   32  F   UNL     1      -9.324  10.021  69.225  1.00  0.00    -0.164 F  
HETATM   33 CL   UNL     1      -6.533   7.921  72.035  1.00  0.00    -0.047 Cl 
HETATM   34  C   UNL     1      -8.866   7.459  73.281  1.00  0.00    -0.201 A  
HETATM   35  C   UNL     1     -10.256   7.524  73.452  1.00  0.00    -0.399 A  
ENDBRANCH  23  25
ENDBRANCH  21  23
ENDBRANCH  19  21
ENDBRANCH  16  19
ENDBRANCH  12  13
ENDBRANCH  10  12
ENDBRANCH   3   6
TORSDOF 7
ENDMDL
MODEL       66
REMARK 921   NORMALIZED FREE ENERGY PREDICTED BY IDOCK:   -6.31 KCAL/MOL
REMARK 922        TOTAL FREE ENERGY PREDICTED BY IDOCK:  -10.74 KCAL/MOL
REMARK 923 INTER-LIGAND FREE ENERGY PREDICTED BY IDOCK:   -8.68 KCAL/MOL
REMARK 924 INTRA-LIGAND FREE ENERGY PREDICTED BY IDOCK:   -2.05 KCAL/MOL
REMARK 927      BINDING AFFINITY PREDICTED BY RF-SCORE:    0.00 PKD
ROOT
HETATM    1  C   UNL     1     -12.645  12.016  63.349  1.00  0.00    -0.469 C  
HETATM    2  N   UNL     1     -11.804  12.437  64.435  1.00  0.00    -0.367 N  
HETATM    3  C   UNL     1     -12.203  13.421  65.314  1.00  0.00    -0.440 C  
HETATM    4  H   UNL     1     -10.892  11.998  64.559  1.00  0.00     0.000 HD 
HETATM    5  O   UNL     1     -13.275  14.010  65.229  1.00  0.00    -0.782 OA 
ENDROOT
BRANCH   3   6
HETATM    6  C   UNL     1     -11.235  13.718  66.420  1.00  0.00    -0.316 A  
HETATM    7  N   UNL     1     -11.628  14.615  67.367  1.00  0.00    -0.378 NA 
HETATM    8  C   UNL     1     -10.713  14.917  68.316  1.00  0.00    -0.249 A  
HETATM    9  C   UNL     1      -9.422  14.406  68.344  1.00  0.00    -0.207 A  
HETATM   10  C   UNL     1      -9.047  13.512  67.347  1.00  0.00    -0.219 A  
HETATM   11  C   UNL     1      -9.988  13.116  66.398  1.00  0.00    -0.282 A  
BRANCH  10  12
HETATM   12  O   UNL     1      -7.742  13.053  67.367  1.00  0.00    -0.164 OA 
BRANCH  12  13
HETATM   13  C   UNL     1      -7.469  11.911  68.094  1.00  0.00    -0.100 A  
HETATM   14  C   UNL     1      -6.822  11.947  69.324  1.00  0.00    -0.080 A  
HETATM   15  C   UNL     1      -6.436  10.762  69.939  1.00  0.00    -0.135 A  
HETATM   16  C   UNL     1      -6.788   9.512  69.416  1.00  0.00    -0.049 A  
HETATM   17  C   UNL     1      -7.519   9.481  68.225  1.00  0.00    -0.078 A  
HETATM   18  C   UNL     1      -7.860  10.678  67.568  1.00  0.00    -0.106 A  
BRANCH  16  19
HETATM   19  N   UNL     1      -6.422   8.296  70.053  1.00  0.00    -0.035 N  
HETATM   20  H   UNL     1      -5.445   8.002  70.018  1.00  0.00     0.000 HD 
BRANCH  19  21
HETATM   21  C   UNL     1      -7.333   7.488  70.723  1.00  0.00    -0.068 C  
HETATM   22  O   UNL     1      -7.559   6.330  70.397  1.00  0.00    -0.091 OA 
BRANCH  21  23
HETATM   23  N   UNL     1      -7.972   8.111  71.780  1.00  0.00    -0.111 N  
HETATM   24  H   UNL     1      -7.417   8.373  72.595  1.00  0.00     0.000 HD 
BRANCH  23  25
HETATM   25  C   UNL     1      -9.371   8.404  71.788  1.00  0.00    -0.226 A  
HETATM   26  C   UNL     1      -9.936   9.431  71.022  1.00  0.00    -0.334 A  
HETATM   27  C   UNL     1     -11.293   9.788  71.110  1.00  0.00    -0.459 A  
HETATM   28  C   UNL     1     -11.797  10.968  70.324  1.00  0.00    -0.367 C  
HETATM   29  C   UNL     1     -12.113   9.038  71.948  1.00  0.00    -0.378 A  
HETATM   30  F   UNL     1     -12.339  11.941  71.111  1.00  0.00    -0.434 F  
HETATM   31  F   UNL     1     -12.754  10.632  69.416  1.00  0.00    -0.301 F  
HETATM   32  F   UNL     1     -10.826  11.598  69.601  1.00  0.00    -0.234 F  
HETATM   33 CL   UNL     1     -13.797   9.372  72.114  1.00  0.00    -0.457 Cl 
HETATM   34  C   UNL     1     -11.578   7.970  72.683  1.00  0.00    -0.448 A  
HETATM   35  C   UNL     1     -10.214   7.655  72.609  1.00  0.00    -0.321 A  
ENDBRANCH  23  25
ENDBRANCH  21  23
ENDBRANCH  19  21
ENDBRANCH  16  19
ENDBRANCH  12  13
ENDBRANCH  10  12
ENDBRANCH   3   6
TORSDOF 7
ENDMDL
MODEL       67
REMARK 921   NORMALIZED FREE ENERGY PREDICTED BY IDOCK:   -6.30 KCAL/MOL
REMARK 922        TOTAL FREE ENERGY PREDICTED BY IDOCK:  -10.72 KCAL/MOL
REMARK 923 INTER-LIGAND FREE ENERGY PREDICTED BY IDOCK:   -9.46 KCAL/MOL
REMARK 924 INTRA-LIGAND FREE ENERGY PREDICTED BY IDOCK:   -1.26 KCAL/MOL
REMARK 927      BINDING AFFINITY PREDICTED BY RF-SCORE:    0.00 PKD
ROOT
HETATM    1  C   UNL     1      -9.552   4.721  67.344  1.00  0.00    -0.159 C  
HETATM    2  N   UNL     1      -9.965   5.904  68.048  1.00  0.00    -0.128 N  
HETATM    3  C   UNL     1     -10.300   5.865  69.384  1.00  0.00    -0.247 C  
HETATM    4  H   UNL     1     -10.010   6.791  67.548  1.00  0.00     0.000 HD 
HETATM    5  O   UNL     1     -10.287   4.838  70.055  1.00  0.00    -0.249 OA 
ENDROOT
BRANCH   3   6
HETATM    6  C   UNL     1     -10.667   7.187  69.988  1.00  0.00    -0.248 A  
HETATM    7  N   UNL     1     -11.689   7.199  70.889  1.00  0.00    -0.315 NA 
HETATM    8  C   UNL     1     -12.045   8.412  71.368  1.00  0.00    -0.301 A  
HETATM    9  C   UNL     1     -11.466   9.609  70.967  1.00  0.00    -0.444 A  
HETATM   10  C   UNL     1     -10.442   9.561  70.028  1.00  0.00    -0.247 A  
HETATM   11  C   UNL     1      -9.994   8.323  69.569  1.00  0.00    -0.187 A  
BRANCH  10  12
HETATM   12  O   UNL     1      -9.912  10.769  69.607  1.00  0.00    -0.130 OA 
BRANCH  12  13
HETATM   13  C   UNL     1     -10.444  11.347  68.472  1.00  0.00    -0.203 A  
HETATM   14  C   UNL     1     -11.257  12.473  68.519  1.00  0.00    -0.322 A  
HETATM   15  C   UNL     1     -11.887  12.922  67.364  1.00  0.00    -0.418 A  
HETATM   16  C   UNL     1     -11.633  12.346  66.114  1.00  0.00    -0.396 A  
HETATM   17  C   UNL     1     -10.741  11.270  66.056  1.00  0.00    -0.301 A  
HETATM   18  C   UNL     1     -10.147  10.775  67.233  1.00  0.00    -0.233 A  
BRANCH  16  19
HETATM   19  N   UNL     1     -12.251  12.816  64.925  1.00  0.00    -0.437 N  
HETATM   20  H   UNL     1     -12.969  12.238  64.487  1.00  0.00     0.000 HD 
BRANCH  19  21
HETATM   21  C   UNL     1     -11.923  14.029  64.330  1.00  0.00    -0.454 C  
HETATM   22  O   UNL     1     -12.736  14.712  63.721  1.00  0.00    -0.778 OA 
BRANCH  21  23
HETATM   23  N   UNL     1     -10.596  14.390  64.476  1.00  0.00    -0.597 N  
HETATM   24  H   UNL     1      -9.899  13.918  63.900  1.00  0.00     0.000 HD 
BRANCH  23  25
HETATM   25  C   UNL     1     -10.153  15.392  65.395  1.00  0.00    -0.359 A  
HETATM   26  C   UNL     1      -9.316  15.109  66.481  1.00  0.00    -0.308 A  
HETATM   27  C   UNL     1      -8.967  16.072  67.444  1.00  0.00    -0.202 A  
HETATM   28  C   UNL     1      -8.143  15.661  68.633  1.00  0.00    -0.158 C  
HETATM   29  C   UNL     1      -9.425  17.374  67.262  1.00  0.00    -0.251 A  
HETATM   30  F   UNL     1      -8.767  15.894  69.822  1.00  0.00    -0.233 F  
HETATM   31  F   UNL     1      -6.943  16.304  68.697  1.00  0.00    -0.127 F  
HETATM   32  F   UNL     1      -7.834  14.331  68.650  1.00  0.00    -0.120 F  
HETATM   33 CL   UNL     1      -9.038  18.640  68.368  1.00  0.00    -0.340 Cl 
HETATM   34  C   UNL     1     -10.221  17.691  66.151  1.00  0.00    -0.345 A  
HETATM   35  C   UNL     1     -10.588  16.707  65.223  1.00  0.00    -0.224 A  
ENDBRANCH  23  25
ENDBRANCH  21  23
ENDBRANCH  19  21
ENDBRANCH  16  19
ENDBRANCH  12  13
ENDBRANCH  10  12
ENDBRANCH   3   6
TORSDOF 7
ENDMDL
MODEL       68
REMARK 921   NORMALIZED FREE ENERGY PREDICTED BY IDOCK:   -6.29 KCAL/MOL
REMARK 922        TOTAL FREE ENERGY PREDICTED BY IDOCK:  -10.71 KCAL/MOL
REMARK 923 INTER-LIGAND FREE ENERGY PREDICTED BY IDOCK:   -8.75 KCAL/MOL
REMARK 924 INTRA-LIGAND FREE ENERGY PREDICTED BY IDOCK:   -1.97 KCAL/MOL
REMARK 927      BINDING AFFINITY PREDICTED BY RF-SCORE:    0.00 PKD
ROOT
HETATM    1  C   UNL     1     -12.709  16.061  73.945  1.00  0.00    -0.584 C  
HETATM    2  N   UNL     1     -12.475  14.824  73.252  1.00  0.00    -0.404 N  
HETATM    3  C   UNL     1     -13.317  14.392  72.250  1.00  0.00    -0.421 C  
HETATM    4  H   UNL     1     -11.669  14.255  73.507  1.00  0.00     0.000 HD 
HETATM    5  O   UNL     1     -14.315  15.007  71.892  1.00  0.00    -0.482 OA 
ENDROOT
BRANCH   3   6
HETATM    6  C   UNL     1     -12.915  13.105  71.592  1.00  0.00    -0.335 A  
HETATM    7  N   UNL     1     -12.153  13.193  70.466  1.00  0.00    -0.346 NA 
HETATM    8  C   UNL     1     -11.861  12.023  69.853  1.00  0.00    -0.331 A  
HETATM    9  C   UNL     1     -12.321  10.784  70.280  1.00  0.00    -0.423 A  
HETATM   10  C   UNL     1     -13.116  10.735  71.419  1.00  0.00    -0.369 A  
HETATM   11  C   UNL     1     -13.374  11.911  72.123  1.00  0.00    -0.361 A  
BRANCH  10  12
HETATM   12  O   UNL     1     -13.602   9.496  71.798  1.00  0.00    -0.387 OA 
BRANCH  12  13
HETATM   13  C   UNL     1     -12.710   8.445  71.869  1.00  0.00    -0.355 A  
HETATM   14  C   UNL     1     -11.598   8.464  72.703  1.00  0.00    -0.367 A  
HETATM   15  C   UNL     1     -10.653   7.448  72.621  1.00  0.00    -0.322 A  
HETATM   16  C   UNL     1     -10.843   6.328  71.804  1.00  0.00    -0.248 A  
HETATM   17  C   UNL     1     -12.009   6.268  71.034  1.00  0.00    -0.138 A  
HETATM   18  C   UNL     1     -12.940   7.323  71.069  1.00  0.00    -0.233 A  
BRANCH  16  19
HETATM   19  N   UNL     1      -9.895   5.272  71.736  1.00  0.00    -0.165 N  
HETATM   20  H   UNL     1      -9.750   4.694  72.565  1.00  0.00     0.000 HD 
BRANCH  19  21
HETATM   21  C   UNL     1      -9.157   4.990  70.593  1.00  0.00    -0.133 C  
HETATM   22  O   UNL     1      -9.390   4.029  69.871  1.00  0.00    -0.134 OA 
BRANCH  21  23
HETATM   23  N   UNL     1      -8.130   5.883  70.348  1.00  0.00    -0.105 N  
HETATM   24  H   UNL     1      -7.172   5.581  70.526  1.00  0.00     0.000 HD 
BRANCH  23  25
HETATM   25  C   UNL     1      -8.344   7.209  69.859  1.00  0.00    -0.135 A  
HETATM   26  C   UNL     1      -9.233   7.500  68.818  1.00  0.00    -0.145 A  
HETATM   27  C   UNL     1      -9.364   8.787  68.266  1.00  0.00    -0.143 A  
HETATM   28  C   UNL     1     -10.272   8.992  67.083  1.00  0.00    -0.265 C  
HETATM   29  C   UNL     1      -8.623   9.819  68.832  1.00  0.00    -0.134 A  
HETATM   30  F   UNL     1      -9.622   9.486  65.991  1.00  0.00    -0.222 F  
HETATM   31  F   UNL     1     -11.296   9.853  67.342  1.00  0.00    -0.313 F  
HETATM   32  F   UNL     1     -10.873   7.846  66.650  1.00  0.00    -0.390 F  
HETATM   33 CL   UNL     1      -8.725  11.440  68.250  1.00  0.00    -0.154 Cl 
HETATM   34  C   UNL     1      -7.766   9.560  69.912  1.00  0.00    -0.129 A  
HETATM   35  C   UNL     1      -7.621   8.263  70.422  1.00  0.00    -0.075 A  
ENDBRANCH  23  25
ENDBRANCH  21  23
ENDBRANCH  19  21
ENDBRANCH  16  19
ENDBRANCH  12  13
ENDBRANCH  10  12
ENDBRANCH   3   6
TORSDOF 7
ENDMDL
MODEL       69
REMARK 921   NORMALIZED FREE ENERGY PREDICTED BY IDOCK:   -6.29 KCAL/MOL
REMARK 922        TOTAL FREE ENERGY PREDICTED BY IDOCK:  -10.71 KCAL/MOL
REMARK 923 INTER-LIGAND FREE ENERGY PREDICTED BY IDOCK:   -9.20 KCAL/MOL
REMARK 924 INTRA-LIGAND FREE ENERGY PREDICTED BY IDOCK:   -1.50 KCAL/MOL
REMARK 927      BINDING AFFINITY PREDICTED BY RF-SCORE:    0.00 PKD
ROOT
HETATM    1  C   UNL     1     -14.228  15.137  71.365  1.00  0.00    -0.498 C  
HETATM    2  N   UNL     1     -13.253  15.212  70.313  1.00  0.00    -0.660 N  
HETATM    3  C   UNL     1     -12.351  14.192  70.095  1.00  0.00    -0.351 C  
HETATM    4  H   UNL     1     -13.227  16.036  69.714  1.00  0.00     0.000 HD 
HETATM    5  O   UNL     1     -12.304  13.174  70.776  1.00  0.00    -0.357 OA 
ENDROOT
BRANCH   3   6
HETATM    6  C   UNL     1     -11.426  14.397  68.932  1.00  0.00    -0.289 A  
HETATM    7  N   UNL     1     -11.713  15.422  68.081  1.00  0.00    -0.324 NA 
HETATM    8  C   UNL     1     -10.904  15.544  67.004  1.00  0.00    -0.314 A  
HETATM    9  C   UNL     1      -9.858  14.678  66.714  1.00  0.00    -0.262 A  
HETATM   10  C   UNL     1      -9.610  13.629  67.592  1.00  0.00    -0.221 A  
HETATM   11  C   UNL     1     -10.372  13.517  68.754  1.00  0.00    -0.169 A  
BRANCH  10  12
HETATM   12  O   UNL     1      -8.594  12.751  67.257  1.00  0.00    -0.181 OA 
BRANCH  12  13
HETATM   13  C   UNL     1      -8.937  11.445  66.967  1.00  0.00    -0.166 A  
HETATM   14  C   UNL     1      -9.392  11.055  65.713  1.00  0.00    -0.236 A  
HETATM   15  C   UNL     1      -9.867   9.762  65.520  1.00  0.00    -0.378 A  
HETATM   16  C   UNL     1      -9.789   8.791  66.524  1.00  0.00    -0.279 A  
HETATM   17  C   UNL     1      -9.245   9.163  67.757  1.00  0.00    -0.145 A  
HETATM   18  C   UNL     1      -8.818  10.487  67.976  1.00  0.00    -0.131 A  
BRANCH  16  19
HETATM   19  N   UNL     1     -10.247   7.461  66.326  1.00  0.00    -0.441 N  
HETATM   20  H   UNL     1     -11.037   7.305  65.699  1.00  0.00     0.000 HD 
BRANCH  19  21
HETATM   21  C   UNL     1      -9.667   6.361  66.946  1.00  0.00    -0.153 C  
HETATM   22  O   UNL     1      -8.497   6.041  66.776  1.00  0.00    -0.109 OA 
BRANCH  21  23
HETATM   23  N   UNL     1     -10.529   5.652  67.763  1.00  0.00    -0.217 N  
HETATM   24  H   UNL     1     -11.125   4.941  67.338  1.00  0.00     0.000 HD 
BRANCH  23  25
HETATM   25  C   UNL     1     -10.626   5.866  69.173  1.00  0.00    -0.299 A  
HETATM   26  C   UNL     1     -11.217   7.007  69.729  1.00  0.00    -0.257 A  
HETATM   27  C   UNL     1     -11.217   7.268  71.111  1.00  0.00    -0.284 A  
HETATM   28  C   UNL     1     -11.786   8.566  71.616  1.00  0.00    -0.311 C  
HETATM   29  C   UNL     1     -10.664   6.310  71.956  1.00  0.00    -0.228 A  
HETATM   30  F   UNL     1     -10.880   9.311  72.309  1.00  0.00    -0.378 F  
HETATM   31  F   UNL     1     -12.854   8.392  72.443  1.00  0.00    -0.352 F  
HETATM   32  F   UNL     1     -12.236   9.388  70.623  1.00  0.00    -0.300 F  
HETATM   33 CL   UNL     1     -10.633   6.515  73.669  1.00  0.00    -0.313 Cl 
HETATM   34  C   UNL     1     -10.116   5.134  71.424  1.00  0.00    -0.265 A  
HETATM   35  C   UNL     1     -10.092   4.912  70.040  1.00  0.00    -0.337 A  
ENDBRANCH  23  25
ENDBRANCH  21  23
ENDBRANCH  19  21
ENDBRANCH  16  19
ENDBRANCH  12  13
ENDBRANCH  10  12
ENDBRANCH   3   6
TORSDOF 7
ENDMDL
MODEL       70
REMARK 921   NORMALIZED FREE ENERGY PREDICTED BY IDOCK:   -6.26 KCAL/MOL
REMARK 922        TOTAL FREE ENERGY PREDICTED BY IDOCK:  -10.66 KCAL/MOL
REMARK 923 INTER-LIGAND FREE ENERGY PREDICTED BY IDOCK:   -9.00 KCAL/MOL
REMARK 924 INTRA-LIGAND FREE ENERGY PREDICTED BY IDOCK:   -1.66 KCAL/MOL
REMARK 927      BINDING AFFINITY PREDICTED BY RF-SCORE:    0.00 PKD
ROOT
HETATM    1  C   UNL     1     -13.136  15.841  72.223  1.00  0.00    -0.447 C  
HETATM    2  N   UNL     1     -12.617  14.692  71.535  1.00  0.00    -0.324 N  
HETATM    3  C   UNL     1     -13.150  13.437  71.728  1.00  0.00    -0.388 C  
HETATM    4  H   UNL     1     -11.837  14.809  70.889  1.00  0.00     0.000 HD 
HETATM    5  O   UNL     1     -14.078  13.206  72.496  1.00  0.00    -0.672 OA 
ENDROOT
BRANCH   3   6
HETATM    6  C   UNL     1     -12.530  12.347  70.905  1.00  0.00    -0.274 A  
HETATM    7  N   UNL     1     -12.507  11.096  71.443  1.00  0.00    -0.340 NA 
HETATM    8  C   UNL     1     -11.883  10.145  70.711  1.00  0.00    -0.351 A  
HETATM    9  C   UNL     1     -11.249  10.386  69.499  1.00  0.00    -0.325 A  
HETATM   10  C   UNL     1     -11.271  11.680  68.992  1.00  0.00    -0.262 A  
HETATM   11  C   UNL     1     -11.972  12.670  69.679  1.00  0.00    -0.352 A  
BRANCH  10  12
HETATM   12  O   UNL     1     -10.592  11.907  67.808  1.00  0.00    -0.195 OA 
BRANCH  12  13
HETATM   13  C   UNL     1      -9.476  12.719  67.847  1.00  0.00    -0.208 A  
HETATM   14  C   UNL     1      -9.504  14.046  67.435  1.00  0.00    -0.225 A  
HETATM   15  C   UNL     1      -8.321  14.771  67.351  1.00  0.00    -0.218 A  
HETATM   16  C   UNL     1      -7.101  14.244  67.789  1.00  0.00    -0.177 A  
HETATM   17  C   UNL     1      -7.092  12.938  68.291  1.00  0.00    -0.102 A  
HETATM   18  C   UNL     1      -8.278  12.180  68.321  1.00  0.00    -0.168 A  
BRANCH  16  19
HETATM   19  N   UNL     1      -5.892  14.988  67.734  1.00  0.00    -0.135 N  
HETATM   20  H   UNL     1      -5.230  14.786  66.984  1.00  0.00     0.000 HD 
BRANCH  19  21
HETATM   21  C   UNL     1      -5.571  15.979  68.654  1.00  0.00    -0.101 C  
HETATM   22  O   UNL     1      -5.468  15.763  69.855  1.00  0.00    -0.114 OA 
BRANCH  21  23
HETATM   23  N   UNL     1      -5.389  17.231  68.096  1.00  0.00    -0.120 N  
HETATM   24  H   UNL     1      -4.440  17.601  68.033  1.00  0.00     0.000 HD 
BRANCH  23  25
HETATM   25  C   UNL     1      -6.465  18.033  67.603  1.00  0.00    -0.181 A  
HETATM   26  C   UNL     1      -7.700  18.130  68.255  1.00  0.00    -0.291 A  
HETATM   27  C   UNL     1      -8.793  18.832  67.715  1.00  0.00    -0.313 A  
HETATM   28  C   UNL     1     -10.114  18.804  68.433  1.00  0.00    -0.393 C  
HETATM   29  C   UNL     1      -8.604  19.512  66.515  1.00  0.00    -0.348 A  
HETATM   30  F   UNL     1     -11.124  18.292  67.674  1.00  0.00    -0.401 F  
HETATM   31  F   UNL     1     -10.527  20.038  68.837  1.00  0.00    -0.531 F  
HETATM   32  F   UNL     1     -10.104  18.044  69.568  1.00  0.00    -0.246 F  
HETATM   33 CL   UNL     1      -9.867  20.425  65.777  1.00  0.00    -0.266 Cl 
HETATM   34  C   UNL     1      -7.358  19.473  65.873  1.00  0.00    -0.314 A  
HETATM   35  C   UNL     1      -6.293  18.735  66.409  1.00  0.00    -0.218 A  
ENDBRANCH  23  25
ENDBRANCH  21  23
ENDBRANCH  19  21
ENDBRANCH  16  19
ENDBRANCH  12  13
ENDBRANCH  10  12
ENDBRANCH   3   6
TORSDOF 7
ENDMDL
MODEL       71
REMARK 921   NORMALIZED FREE ENERGY PREDICTED BY IDOCK:   -6.23 KCAL/MOL
REMARK 922        TOTAL FREE ENERGY PREDICTED BY IDOCK:  -10.62 KCAL/MOL
REMARK 923 INTER-LIGAND FREE ENERGY PREDICTED BY IDOCK:   -9.61 KCAL/MOL
REMARK 924 INTRA-LIGAND FREE ENERGY PREDICTED BY IDOCK:   -1.01 KCAL/MOL
REMARK 927      BINDING AFFINITY PREDICTED BY RF-SCORE:    0.00 PKD
ROOT
HETATM    1  C   UNL     1      -9.690   4.569  69.860  1.00  0.00    -0.218 C  
HETATM    2  N   UNL     1      -9.524   5.982  69.665  1.00  0.00    -0.143 N  
HETATM    3  C   UNL     1      -8.337   6.509  69.202  1.00  0.00    -0.119 C  
HETATM    4  H   UNL     1     -10.300   6.609  69.872  1.00  0.00     0.000 HD 
HETATM    5  O   UNL     1      -7.350   5.828  68.942  1.00  0.00    -0.079 OA 
ENDROOT
BRANCH   3   6
HETATM    6  C   UNL     1      -8.333   7.996  69.007  1.00  0.00    -0.129 A  
HETATM    7  N   UNL     1      -7.183   8.560  68.542  1.00  0.00    -0.079 NA 
HETATM    8  C   UNL     1      -7.182   9.908  68.439  1.00  0.00    -0.073 A  
HETATM    9  C   UNL     1      -8.246  10.719  68.812  1.00  0.00    -0.145 A  
HETATM   10  C   UNL     1      -9.394  10.110  69.306  1.00  0.00    -0.215 A  
HETATM   11  C   UNL     1      -9.462   8.719  69.352  1.00  0.00    -0.161 A  
BRANCH  10  12
HETATM   12  O   UNL     1     -10.423  10.940  69.716  1.00  0.00    -0.160 OA 
BRANCH  12  13
HETATM   13  C   UNL     1     -11.023  11.745  68.768  1.00  0.00    -0.234 A  
HETATM   14  C   UNL     1     -11.205  11.338  67.452  1.00  0.00    -0.370 A  
HETATM   15  C   UNL     1     -11.674  12.242  66.505  1.00  0.00    -0.420 A  
HETATM   16  C   UNL     1     -12.089  13.530  66.860  1.00  0.00    -0.368 A  
HETATM   17  C   UNL     1     -11.990  13.906  68.203  1.00  0.00    -0.385 A  
HETATM   18  C   UNL     1     -11.460  13.014  69.154  1.00  0.00    -0.353 A  
BRANCH  16  19
HETATM   19  N   UNL     1     -12.596  14.451  65.903  1.00  0.00    -0.338 N  
HETATM   20  H   UNL     1     -13.324  15.104  66.194  1.00  0.00     0.000 HD 
BRANCH  19  21
HETATM   21  C   UNL     1     -12.144  14.503  64.590  1.00  0.00    -0.473 C  
HETATM   22  O   UNL     1     -12.773  14.031  63.651  1.00  0.00    -0.778 OA 
BRANCH  21  23
HETATM   23  N   UNL     1     -10.917  15.123  64.438  1.00  0.00    -0.644 N  
HETATM   24  H   UNL     1     -10.445  15.050  63.536  1.00  0.00     0.000 HD 
BRANCH  23  25
HETATM   25  C   UNL     1     -10.278  15.862  65.482  1.00  0.00    -0.365 A  
HETATM   26  C   UNL     1     -10.654  17.164  65.831  1.00  0.00    -0.219 A  
HETATM   27  C   UNL     1      -9.956  17.928  66.783  1.00  0.00    -0.339 A  
HETATM   28  C   UNL     1     -10.368  19.355  67.028  1.00  0.00    -0.440 C  
HETATM   29  C   UNL     1      -8.891  17.329  67.448  1.00  0.00    -0.218 A  
HETATM   30  F   UNL     1      -9.366  20.248  66.788  1.00  0.00    -0.428 F  
HETATM   31  F   UNL     1     -10.782  19.577  68.307  1.00  0.00    -0.475 F  
HETATM   32  F   UNL     1     -11.406  19.766  66.243  1.00  0.00    -0.365 F  
HETATM   33 CL   UNL     1      -7.981  18.165  68.652  1.00  0.00    -0.312 Cl 
HETATM   34  C   UNL     1      -8.531  16.006  67.152  1.00  0.00    -0.223 A  
HETATM   35  C   UNL     1      -9.215  15.275  66.172  1.00  0.00    -0.345 A  
ENDBRANCH  23  25
ENDBRANCH  21  23
ENDBRANCH  19  21
ENDBRANCH  16  19
ENDBRANCH  12  13
ENDBRANCH  10  12
ENDBRANCH   3   6
TORSDOF 7
ENDMDL
MODEL       72
REMARK 921   NORMALIZED FREE ENERGY PREDICTED BY IDOCK:   -6.18 KCAL/MOL
REMARK 922        TOTAL FREE ENERGY PREDICTED BY IDOCK:  -10.56 KCAL/MOL
REMARK 923 INTER-LIGAND FREE ENERGY PREDICTED BY IDOCK:   -9.01 KCAL/MOL
REMARK 924 INTRA-LIGAND FREE ENERGY PREDICTED BY IDOCK:   -1.55 KCAL/MOL
REMARK 927      BINDING AFFINITY PREDICTED BY RF-SCORE:    0.00 PKD
ROOT
HETATM    1  C   UNL     1     -13.086  15.655  73.503  1.00  0.00    -0.516 C  
HETATM    2  N   UNL     1     -12.898  14.472  72.710  1.00  0.00    -0.423 N  
HETATM    3  C   UNL     1     -12.502  14.546  71.392  1.00  0.00    -0.353 C  
HETATM    4  H   UNL     1     -13.061  13.558  73.131  1.00  0.00     0.000 HD 
HETATM    5  O   UNL     1     -12.299  15.603  70.804  1.00  0.00    -0.383 OA 
ENDROOT
BRANCH   3   6
HETATM    6  C   UNL     1     -12.306  13.224  70.710  1.00  0.00    -0.344 A  
HETATM    7  N   UNL     1     -11.612  13.225  69.538  1.00  0.00    -0.293 NA 
HETATM    8  C   UNL     1     -11.506  12.033  68.909  1.00  0.00    -0.301 A  
HETATM    9  C   UNL     1     -12.090  10.858  69.364  1.00  0.00    -0.362 A  
HETATM   10  C   UNL     1     -12.812  10.899  70.551  1.00  0.00    -0.220 A  
HETATM   11  C   UNL     1     -12.876  12.093  71.269  1.00  0.00    -0.349 A  
BRANCH  10  12
HETATM   12  O   UNL     1     -13.424   9.728  70.960  1.00  0.00    -0.347 OA 
BRANCH  12  13
HETATM   13  C   UNL     1     -12.637   8.758  71.551  1.00  0.00    -0.326 A  
HETATM   14  C   UNL     1     -11.417   9.050  72.149  1.00  0.00    -0.328 A  
HETATM   15  C   UNL     1     -10.597   8.018  72.591  1.00  0.00    -0.419 A  
HETATM   16  C   UNL     1     -11.015   6.683  72.565  1.00  0.00    -0.247 A  
HETATM   17  C   UNL     1     -12.282   6.401  72.046  1.00  0.00    -0.320 A  
HETATM   18  C   UNL     1     -13.091   7.438  71.543  1.00  0.00    -0.424 A  
BRANCH  16  19
HETATM   19  N   UNL     1     -10.194   5.625  73.040  1.00  0.00    -0.181 N  
HETATM   20  H   UNL     1     -10.365   5.259  73.977  1.00  0.00     0.000 HD 
BRANCH  19  21
HETATM   21  C   UNL     1      -9.169   5.066  72.287  1.00  0.00    -0.134 C  
HETATM   22  O   UNL     1      -8.010   5.455  72.348  1.00  0.00    -0.101 OA 
BRANCH  21  23
HETATM   23  N   UNL     1      -9.574   4.039  71.453  1.00  0.00    -0.160 N  
HETATM   24  H   UNL     1      -9.851   3.152  71.875  1.00  0.00     0.000 HD 
BRANCH  23  25
HETATM   25  C   UNL     1      -9.624   4.159  70.030  1.00  0.00    -0.203 A  
HETATM   26  C   UNL     1      -9.967   5.351  69.379  1.00  0.00    -0.280 A  
HETATM   27  C   UNL     1     -10.121   5.440  67.985  1.00  0.00    -0.224 A  
HETATM   28  C   UNL     1     -10.587   6.735  67.376  1.00  0.00    -0.302 C  
HETATM   29  C   UNL     1      -9.851   4.306  67.224  1.00  0.00    -0.146 A  
HETATM   30  F   UNL     1     -11.745   6.605  66.669  1.00  0.00    -0.233 F  
HETATM   31  F   UNL     1      -9.676   7.280  66.523  1.00  0.00    -0.218 F  
HETATM   32  F   UNL     1     -10.842   7.711  68.296  1.00  0.00    -0.217 F  
HETATM   33 CL   UNL     1      -9.983   4.310  65.504  1.00  0.00    -0.222 Cl 
HETATM   34  C   UNL     1      -9.453   3.117  67.851  1.00  0.00    -0.215 A  
HETATM   35  C   UNL     1      -9.344   3.039  69.246  1.00  0.00    -0.217 A  
ENDBRANCH  23  25
ENDBRANCH  21  23
ENDBRANCH  19  21
ENDBRANCH  16  19
ENDBRANCH  12  13
ENDBRANCH  10  12
ENDBRANCH   3   6
TORSDOF 7
ENDMDL
MODEL       73
REMARK 921   NORMALIZED FREE ENERGY PREDICTED BY IDOCK:   -6.17 KCAL/MOL
REMARK 922        TOTAL FREE ENERGY PREDICTED BY IDOCK:  -10.55 KCAL/MOL
REMARK 923 INTER-LIGAND FREE ENERGY PREDICTED BY IDOCK:   -9.70 KCAL/MOL
REMARK 924 INTRA-LIGAND FREE ENERGY PREDICTED BY IDOCK:   -0.85 KCAL/MOL
REMARK 927      BINDING AFFINITY PREDICTED BY RF-SCORE:    0.00 PKD
ROOT
HETATM    1  C   UNL     1     -10.704   3.373  63.711  1.00  0.00    -0.244 C  
HETATM    2  N   UNL     1     -10.005   4.514  64.233  1.00  0.00    -0.376 N  
HETATM    3  C   UNL     1      -9.527   4.535  65.525  1.00  0.00    -0.173 C  
HETATM    4  H   UNL     1      -9.858   5.326  63.634  1.00  0.00     0.000 HD 
HETATM    5  O   UNL     1      -9.673   3.609  66.316  1.00  0.00    -0.170 OA 
ENDROOT
BRANCH   3   6
HETATM    6  C   UNL     1      -8.780   5.777  65.908  1.00  0.00    -0.149 A  
HETATM    7  N   UNL     1      -7.427   5.766  65.744  1.00  0.00    -0.076 NA 
HETATM    8  C   UNL     1      -6.769   6.872  66.160  1.00  0.00    -0.052 A  
HETATM    9  C   UNL     1      -7.382   7.962  66.764  1.00  0.00    -0.089 A  
HETATM   10  C   UNL     1      -8.761   7.929  66.937  1.00  0.00    -0.131 A  
HETATM   11  C   UNL     1      -9.483   6.840  66.451  1.00  0.00    -0.166 A  
BRANCH  10  12
HETATM   12  O   UNL     1      -9.343   9.004  67.585  1.00  0.00    -0.135 OA 
BRANCH  12  13
HETATM   13  C   UNL     1      -9.913   9.995  66.810  1.00  0.00    -0.210 A  
HETATM   14  C   UNL     1     -10.740  10.976  67.343  1.00  0.00    -0.303 A  
HETATM   15  C   UNL     1     -11.407  11.855  66.497  1.00  0.00    -0.403 A  
HETATM   16  C   UNL     1     -11.178  11.866  65.117  1.00  0.00    -0.289 A  
HETATM   17  C   UNL     1     -10.274  10.936  64.594  1.00  0.00    -0.411 A  
HETATM   18  C   UNL     1      -9.642  10.005  65.440  1.00  0.00    -0.342 A  
BRANCH  16  19
HETATM   19  N   UNL     1     -11.834  12.779  64.249  1.00  0.00    -0.368 N  
HETATM   20  H   UNL     1     -12.054  12.477  63.299  1.00  0.00     0.000 HD 
BRANCH  19  21
HETATM   21  C   UNL     1     -12.191  14.066  64.634  1.00  0.00    -0.435 C  
HETATM   22  O   UNL     1     -13.278  14.335  65.131  1.00  0.00    -0.686 OA 
BRANCH  21  23
HETATM   23  N   UNL     1     -11.217  15.018  64.397  1.00  0.00    -0.660 N  
HETATM   24  H   UNL     1     -10.887  15.147  63.440  1.00  0.00     0.000 HD 
BRANCH  23  25
HETATM   25  C   UNL     1     -10.648  15.831  65.426  1.00  0.00    -0.421 A  
HETATM   26  C   UNL     1     -10.748  17.227  65.434  1.00  0.00    -0.074 A  
HETATM   27  C   UNL     1     -10.099  18.032  66.387  1.00  0.00    -0.384 A  
HETATM   28  C   UNL     1     -10.179  19.530  66.264  1.00  0.00    -0.488 C  
HETATM   29  C   UNL     1      -9.386  17.398  67.400  1.00  0.00    -0.237 A  
HETATM   30  F   UNL     1      -8.957  20.121  66.142  1.00  0.00    -0.366 F  
HETATM   31  F   UNL     1     -10.785  20.119  67.332  1.00  0.00    -0.491 F  
HETATM   32  F   UNL     1     -10.887  19.952  65.176  1.00  0.00    -0.548 F  
HETATM   33 CL   UNL     1      -8.572  18.286  68.635  1.00  0.00    -0.326 Cl 
HETATM   34  C   UNL     1      -9.318  15.998  67.443  1.00  0.00    -0.220 A  
HETATM   35  C   UNL     1      -9.940  15.216  66.460  1.00  0.00    -0.279 A  
ENDBRANCH  23  25
ENDBRANCH  21  23
ENDBRANCH  19  21
ENDBRANCH  16  19
ENDBRANCH  12  13
ENDBRANCH  10  12
ENDBRANCH   3   6
TORSDOF 7
ENDMDL
MODEL       74
REMARK 921   NORMALIZED FREE ENERGY PREDICTED BY IDOCK:   -6.17 KCAL/MOL
REMARK 922        TOTAL FREE ENERGY PREDICTED BY IDOCK:  -10.55 KCAL/MOL
REMARK 923 INTER-LIGAND FREE ENERGY PREDICTED BY IDOCK:   -9.41 KCAL/MOL
REMARK 924 INTRA-LIGAND FREE ENERGY PREDICTED BY IDOCK:   -1.14 KCAL/MOL
REMARK 927      BINDING AFFINITY PREDICTED BY RF-SCORE:    0.00 PKD
ROOT
HETATM    1  C   UNL     1     -13.631  15.822  73.014  1.00  0.00    -0.555 C  
HETATM    2  N   UNL     1     -13.303  15.195  71.764  1.00  0.00    -0.377 N  
HETATM    3  C   UNL     1     -12.204  15.587  71.029  1.00  0.00    -0.396 C  
HETATM    4  H   UNL     1     -13.894  14.442  71.413  1.00  0.00     0.000 HD 
HETATM    5  O   UNL     1     -11.450  16.491  71.371  1.00  0.00    -0.340 OA 
ENDROOT
BRANCH   3   6
HETATM    6  C   UNL     1     -11.968  14.807  69.770  1.00  0.00    -0.321 A  
HETATM    7  N   UNL     1     -11.736  15.519  68.632  1.00  0.00    -0.363 NA 
HETATM    8  C   UNL     1     -11.593  14.795  67.498  1.00  0.00    -0.361 A  
HETATM    9  C   UNL     1     -11.710  13.413  67.436  1.00  0.00    -0.415 A  
HETATM   10  C   UNL     1     -11.971  12.722  68.614  1.00  0.00    -0.233 A  
HETATM   11  C   UNL     1     -12.047  13.425  69.815  1.00  0.00    -0.374 A  
BRANCH  10  12
HETATM   12  O   UNL     1     -12.132  11.351  68.520  1.00  0.00    -0.550 OA 
BRANCH  12  13
HETATM   13  C   UNL     1     -11.998  10.603  69.673  1.00  0.00    -0.268 A  
HETATM   14  C   UNL     1     -10.762  10.184  70.151  1.00  0.00    -0.355 A  
HETATM   15  C   UNL     1     -10.696   9.307  71.228  1.00  0.00    -0.422 A  
HETATM   16  C   UNL     1     -11.841   8.923  71.936  1.00  0.00    -0.370 A  
HETATM   17  C   UNL     1     -13.075   9.421  71.508  1.00  0.00    -0.451 A  
HETATM   18  C   UNL     1     -13.152  10.260  70.381  1.00  0.00    -0.089 A  
BRANCH  16  19
HETATM   19  N   UNL     1     -11.779   8.050  73.055  1.00  0.00    -0.518 N  
HETATM   20  H   UNL     1     -12.308   8.294  73.893  1.00  0.00     0.000 HD 
BRANCH  19  21
HETATM   21  C   UNL     1     -11.032   6.878  73.061  1.00  0.00    -0.274 C  
HETATM   22  O   UNL     1      -9.994   6.754  73.698  1.00  0.00    -0.206 OA 
BRANCH  21  23
HETATM   23  N   UNL     1     -11.557   5.868  72.275  1.00  0.00    -0.303 N  
HETATM   24  H   UNL     1     -12.337   5.323  72.642  1.00  0.00     0.000 HD 
BRANCH  23  25
HETATM   25  C   UNL     1     -11.060   5.550  70.973  1.00  0.00    -0.045 A  
HETATM   26  C   UNL     1     -10.101   4.555  70.748  1.00  0.00    -0.233 A  
HETATM   27  C   UNL     1      -9.534   4.315  69.484  1.00  0.00    -0.257 A  
HETATM   28  C   UNL     1      -8.439   3.292  69.350  1.00  0.00    -0.062 C  
HETATM   29  C   UNL     1     -10.004   5.059  68.406  1.00  0.00    -0.136 A  
HETATM   30  F   UNL     1      -7.279   3.814  68.859  1.00  0.00    -0.048 F  
HETATM   31  F   UNL     1      -8.773   2.260  68.527  1.00  0.00    -0.085 F  
HETATM   32  F   UNL     1      -8.091   2.705  70.532  1.00  0.00    -0.042 F  
HETATM   33 CL   UNL     1      -9.397   4.830  66.807  1.00  0.00    -0.136 Cl 
HETATM   34  C   UNL     1     -11.003   6.023  68.599  1.00  0.00    -0.361 A  
HETATM   35  C   UNL     1     -11.527   6.274  69.875  1.00  0.00    -0.459 A  
ENDBRANCH  23  25
ENDBRANCH  21  23
ENDBRANCH  19  21
ENDBRANCH  16  19
ENDBRANCH  12  13
ENDBRANCH  10  12
ENDBRANCH   3   6
TORSDOF 7
ENDMDL
MODEL       75
REMARK 921   NORMALIZED FREE ENERGY PREDICTED BY IDOCK:   -6.16 KCAL/MOL
REMARK 922        TOTAL FREE ENERGY PREDICTED BY IDOCK:  -10.53 KCAL/MOL
REMARK 923 INTER-LIGAND FREE ENERGY PREDICTED BY IDOCK:   -8.67 KCAL/MOL
REMARK 924 INTRA-LIGAND FREE ENERGY PREDICTED BY IDOCK:   -1.86 KCAL/MOL
REMARK 927      BINDING AFFINITY PREDICTED BY RF-SCORE:    0.00 PKD
ROOT
HETATM    1  C   UNL     1     -13.592  15.695  72.743  1.00  0.00    -0.593 C  
HETATM    2  N   UNL     1     -12.619  15.974  71.724  1.00  0.00    -0.534 N  
HETATM    3  C   UNL     1     -12.481  15.162  70.619  1.00  0.00    -0.388 C  
HETATM    4  H   UNL     1     -12.017  16.792  71.820  1.00  0.00     0.000 HD 
HETATM    5  O   UNL     1     -13.153  14.153  70.433  1.00  0.00    -0.218 OA 
ENDROOT
BRANCH   3   6
HETATM    6  C   UNL     1     -11.453  15.609  69.623  1.00  0.00    -0.340 A  
HETATM    7  N   UNL     1     -10.256  16.039  70.113  1.00  0.00    -0.129 NA 
HETATM    8  C   UNL     1      -9.371  16.500  69.201  1.00  0.00    -0.207 A  
HETATM    9  C   UNL     1      -9.633  16.594  67.840  1.00  0.00    -0.234 A  
HETATM   10  C   UNL     1     -10.874  16.169  67.378  1.00  0.00    -0.265 A  
HETATM   11  C   UNL     1     -11.783  15.614  68.278  1.00  0.00    -0.253 A  
BRANCH  10  12
HETATM   12  O   UNL     1     -11.130  16.316  66.027  1.00  0.00    -0.082 OA 
BRANCH  12  13
HETATM   13  C   UNL     1     -11.096  15.185  65.235  1.00  0.00    -0.383 A  
HETATM   14  C   UNL     1     -12.164  14.806  64.430  1.00  0.00    -0.447 A  
HETATM   15  C   UNL     1     -12.136  13.581  63.773  1.00  0.00    -0.482 A  
HETATM   16  C   UNL     1     -11.004  12.758  63.796  1.00  0.00    -0.402 A  
HETATM   17  C   UNL     1      -9.896  13.186  64.533  1.00  0.00     0.006 A  
HETATM   18  C   UNL     1      -9.943  14.398  65.249  1.00  0.00    -0.314 A  
BRANCH  16  19
HETATM   19  N   UNL     1     -10.957  11.518  63.105  1.00  0.00    -0.782 N  
HETATM   20  H   UNL     1     -11.719  11.287  62.466  1.00  0.00     0.000 HD 
BRANCH  19  21
HETATM   21  C   UNL     1      -9.921  10.605  63.258  1.00  0.00    -0.255 C  
HETATM   22  O   UNL     1      -8.846  10.716  62.682  1.00  0.00    -0.212 OA 
BRANCH  21  23
HETATM   23  N   UNL     1     -10.214   9.554  64.108  1.00  0.00     0.309 N  
HETATM   24  H   UNL     1     -10.549   8.681  63.702  1.00  0.00     0.000 HD 
BRANCH  23  25
HETATM   25  C   UNL     1     -10.070   9.632  65.529  1.00  0.00    -0.095 A  
HETATM   26  C   UNL     1     -10.739  10.582  66.309  1.00  0.00    -0.139 A  
HETATM   27  C   UNL     1     -10.515  10.727  67.690  1.00  0.00    -0.252 A  
HETATM   28  C   UNL     1     -11.203  11.839  68.435  1.00  0.00    -0.251 C  
HETATM   29  C   UNL     1      -9.641   9.837  68.307  1.00  0.00    -0.143 A  
HETATM   30  F   UNL     1     -10.332  12.695  69.039  1.00  0.00    -0.198 F  
HETATM   31  F   UNL     1     -12.037  11.387  69.413  1.00  0.00    -0.320 F  
HETATM   32  F   UNL     1     -11.983  12.629  67.640  1.00  0.00    -0.389 F  
HETATM   33 CL   UNL     1      -9.313   9.908  69.999  1.00  0.00    -0.259 Cl 
HETATM   34  C   UNL     1      -9.002   8.843  67.553  1.00  0.00    -0.142 A  
HETATM   35  C   UNL     1      -9.209   8.740  66.171  1.00  0.00    -0.273 A  
ENDBRANCH  23  25
ENDBRANCH  21  23
ENDBRANCH  19  21
ENDBRANCH  16  19
ENDBRANCH  12  13
ENDBRANCH  10  12
ENDBRANCH   3   6
TORSDOF 7
ENDMDL
MODEL       76
REMARK 921   NORMALIZED FREE ENERGY PREDICTED BY IDOCK:   -6.16 KCAL/MOL
REMARK 922        TOTAL FREE ENERGY PREDICTED BY IDOCK:  -10.53 KCAL/MOL
REMARK 923 INTER-LIGAND FREE ENERGY PREDICTED BY IDOCK:   -9.78 KCAL/MOL
REMARK 924 INTRA-LIGAND FREE ENERGY PREDICTED BY IDOCK:   -0.75 KCAL/MOL
REMARK 927      BINDING AFFINITY PREDICTED BY RF-SCORE:    0.00 PKD
ROOT
HETATM    1  C   UNL     1      -5.504  21.073  64.659  1.00  0.00    -0.222 C  
HETATM    2  N   UNL     1      -6.792  20.692  65.170  1.00  0.00    -0.509 N  
HETATM    3  C   UNL     1      -6.966  19.524  65.881  1.00  0.00    -0.277 C  
HETATM    4  H   UNL     1      -7.594  21.298  65.004  1.00  0.00     0.000 HD 
HETATM    5  O   UNL     1      -6.059  18.731  66.114  1.00  0.00    -0.161 OA 
ENDROOT
BRANCH   3   6
HETATM    6  C   UNL     1      -8.358  19.287  66.386  1.00  0.00    -0.321 A  
HETATM    7  N   UNL     1      -9.381  19.844  65.678  1.00  0.00    -0.253 NA 
HETATM    8  C   UNL     1     -10.620  19.672  66.191  1.00  0.00    -0.483 A  
HETATM    9  C   UNL     1     -10.886  19.015  67.385  1.00  0.00    -0.496 A  
HETATM   10  C   UNL     1      -9.815  18.480  68.093  1.00  0.00    -0.346 A  
HETATM   11  C   UNL     1      -8.531  18.568  67.557  1.00  0.00    -0.272 A  
BRANCH  10  12
HETATM   12  O   UNL     1     -10.098  17.872  69.303  1.00  0.00    -0.281 OA 
BRANCH  12  13
HETATM   13  C   UNL     1     -10.493  16.549  69.286  1.00  0.00    -0.326 A  
HETATM   14  C   UNL     1      -9.958  15.623  68.399  1.00  0.00    -0.210 A  
HETATM   15  C   UNL     1     -10.499  14.344  68.322  1.00  0.00    -0.245 A  
HETATM   16  C   UNL     1     -11.497  13.912  69.202  1.00  0.00    -0.299 A  
HETATM   17  C   UNL     1     -11.969  14.819  70.156  1.00  0.00    -0.367 A  
HETATM   18  C   UNL     1     -11.466  16.134  70.198  1.00  0.00    -0.309 A  
BRANCH  16  19
HETATM   19  N   UNL     1     -12.036  12.599  69.148  1.00  0.00    -0.276 N  
HETATM   20  H   UNL     1     -12.550  12.317  68.314  1.00  0.00     0.000 HD 
BRANCH  19  21
HETATM   21  C   UNL     1     -11.893  11.680  70.181  1.00  0.00    -0.344 C  
HETATM   22  O   UNL     1     -12.734  11.530  71.059  1.00  0.00    -0.371 OA 
BRANCH  21  23
HETATM   23  N   UNL     1     -10.714  10.958  70.137  1.00  0.00    -0.440 N  
HETATM   24  H   UNL     1      -9.832  11.470  70.112  1.00  0.00     0.000 HD 
BRANCH  23  25
HETATM   25  C   UNL     1     -10.671   9.529  70.126  1.00  0.00    -0.257 A  
HETATM   26  C   UNL     1     -10.860   8.754  71.276  1.00  0.00    -0.347 A  
HETATM   27  C   UNL     1     -10.711   7.356  71.286  1.00  0.00    -0.238 A  
HETATM   28  C   UNL     1     -10.835   6.610  72.587  1.00  0.00    -0.248 C  
HETATM   29  C   UNL     1     -10.431   6.721  70.080  1.00  0.00    -0.210 A  
HETATM   30  F   UNL     1      -9.713   5.907  72.909  1.00  0.00    -0.154 F  
HETATM   31  F   UNL     1     -11.862   5.715  72.591  1.00  0.00    -0.339 F  
HETATM   32  F   UNL     1     -11.066   7.420  73.661  1.00  0.00    -0.388 F  
HETATM   33 CL   UNL     1     -10.252   5.009  69.971  1.00  0.00    -0.344 Cl 
HETATM   34  C   UNL     1     -10.291   7.473  68.904  1.00  0.00    -0.220 A  
HETATM   35  C   UNL     1     -10.405   8.870  68.924  1.00  0.00    -0.229 A  
ENDBRANCH  23  25
ENDBRANCH  21  23
ENDBRANCH  19  21
ENDBRANCH  16  19
ENDBRANCH  12  13
ENDBRANCH  10  12
ENDBRANCH   3   6
TORSDOF 7
ENDMDL
MODEL       77
REMARK 921   NORMALIZED FREE ENERGY PREDICTED BY IDOCK:   -6.16 KCAL/MOL
REMARK 922        TOTAL FREE ENERGY PREDICTED BY IDOCK:  -10.52 KCAL/MOL
REMARK 923 INTER-LIGAND FREE ENERGY PREDICTED BY IDOCK:   -9.53 KCAL/MOL
REMARK 924 INTRA-LIGAND FREE ENERGY PREDICTED BY IDOCK:   -1.00 KCAL/MOL
REMARK 927      BINDING AFFINITY PREDICTED BY RF-SCORE:    0.00 PKD
ROOT
HETATM    1  C   UNL     1      -9.389  19.704  68.468  1.00  0.00    -0.342 C  
HETATM    2  N   UNL     1      -9.932  18.533  67.837  1.00  0.00    -0.329 N  
HETATM    3  C   UNL     1     -10.148  18.484  66.477  1.00  0.00    -0.400 C  
HETATM    4  H   UNL     1     -10.163  17.720  68.408  1.00  0.00     0.000 HD 
HETATM    5  O   UNL     1      -9.913  19.420  65.720  1.00  0.00    -0.429 OA 
ENDROOT
BRANCH   3   6
HETATM    6  C   UNL     1     -10.677  17.179  65.962  1.00  0.00    -0.113 A  
HETATM    7  N   UNL     1     -11.123  17.152  64.674  1.00  0.00    -1.007 NA 
HETATM    8  C   UNL     1     -11.657  15.982  64.255  1.00  0.00    -0.138 A  
HETATM    9  C   UNL     1     -11.806  14.861  65.060  1.00  0.00    -0.299 A  
HETATM   10  C   UNL     1     -11.363  14.933  66.376  1.00  0.00    -0.308 A  
HETATM   11  C   UNL     1     -10.735  16.095  66.822  1.00  0.00    -0.235 A  
BRANCH  10  12
HETATM   12  O   UNL     1     -11.566  13.820  67.173  1.00  0.00    -0.326 OA 
BRANCH  12  13
HETATM   13  C   UNL     1     -10.979  12.631  66.786  1.00  0.00    -0.262 A  
HETATM   14  C   UNL     1      -9.905  12.073  67.469  1.00  0.00    -0.190 A  
HETATM   15  C   UNL     1      -9.257  10.958  66.949  1.00  0.00    -0.175 A  
HETATM   16  C   UNL     1      -9.730  10.296  65.810  1.00  0.00    -0.238 A  
HETATM   17  C   UNL     1     -10.867  10.807  65.178  1.00  0.00    -0.057 A  
HETATM   18  C   UNL     1     -11.490  11.971  65.667  1.00  0.00    -0.372 A  
BRANCH  16  19
HETATM   19  N   UNL     1      -9.090   9.140  65.288  1.00  0.00    -0.293 N  
HETATM   20  H   UNL     1      -8.762   9.159  64.322  1.00  0.00     0.000 HD 
BRANCH  19  21
HETATM   21  C   UNL     1      -8.891   7.984  66.033  1.00  0.00    -0.162 C  
HETATM   22  O   UNL     1      -7.779   7.535  66.281  1.00  0.00    -0.086 OA 
BRANCH  21  23
HETATM   23  N   UNL     1     -10.058   7.377  66.460  1.00  0.00    -0.454 N  
HETATM   24  H   UNL     1     -10.713   7.036  65.756  1.00  0.00     0.000 HD 
BRANCH  23  25
HETATM   25  C   UNL     1     -10.393   7.206  67.840  1.00  0.00    -0.198 A  
HETATM   26  C   UNL     1     -10.477   8.275  68.740  1.00  0.00    -0.200 A  
HETATM   27  C   UNL     1     -10.700   8.096  70.116  1.00  0.00    -0.243 A  
HETATM   28  C   UNL     1     -10.677   9.292  71.028  1.00  0.00    -0.316 C  
HETATM   29  C   UNL     1     -10.913   6.801  70.580  1.00  0.00    -0.267 A  
HETATM   30  F   UNL     1      -9.733   9.199  72.007  1.00  0.00    -0.374 F  
HETATM   31  F   UNL     1     -11.865   9.502  71.661  1.00  0.00    -0.388 F  
HETATM   32  F   UNL     1     -10.406  10.465  70.385  1.00  0.00    -0.301 F  
HETATM   33 CL   UNL     1     -11.221   6.469  72.244  1.00  0.00    -0.294 Cl 
HETATM   34  C   UNL     1     -10.888   5.721  69.687  1.00  0.00    -0.418 A  
HETATM   35  C   UNL     1     -10.625   5.918  68.324  1.00  0.00    -0.310 A  
ENDBRANCH  23  25
ENDBRANCH  21  23
ENDBRANCH  19  21
ENDBRANCH  16  19
ENDBRANCH  12  13
ENDBRANCH  10  12
ENDBRANCH   3   6
TORSDOF 7
ENDMDL
MODEL       78
REMARK 921   NORMALIZED FREE ENERGY PREDICTED BY IDOCK:   -6.16 KCAL/MOL
REMARK 922        TOTAL FREE ENERGY PREDICTED BY IDOCK:  -10.52 KCAL/MOL
REMARK 923 INTER-LIGAND FREE ENERGY PREDICTED BY IDOCK:   -9.59 KCAL/MOL
REMARK 924 INTRA-LIGAND FREE ENERGY PREDICTED BY IDOCK:   -0.93 KCAL/MOL
REMARK 927      BINDING AFFINITY PREDICTED BY RF-SCORE:    0.00 PKD
ROOT
HETATM    1  C   UNL     1     -10.012   3.871  65.378  1.00  0.00    -0.137 C  
HETATM    2  N   UNL     1      -9.844   3.921  66.804  1.00  0.00    -0.353 N  
HETATM    3  C   UNL     1     -10.341   4.967  67.550  1.00  0.00    -0.089 C  
HETATM    4  H   UNL     1      -9.348   3.165  67.275  1.00  0.00     0.000 HD 
HETATM    5  O   UNL     1     -10.937   5.923  67.064  1.00  0.00    -0.297 OA 
ENDROOT
BRANCH   3   6
HETATM    6  C   UNL     1     -10.125   4.854  69.030  1.00  0.00    -0.140 A  
HETATM    7  N   UNL     1      -9.321   3.844  69.467  1.00  0.00    -0.161 NA 
HETATM    8  C   UNL     1      -9.196   3.722  70.808  1.00  0.00    -0.131 A  
HETATM    9  C   UNL     1      -9.861   4.522  71.728  1.00  0.00    -0.252 A  
HETATM   10  C   UNL     1     -10.692   5.527  71.247  1.00  0.00    -0.218 A  
HETATM   11  C   UNL     1     -10.785   5.735  69.871  1.00  0.00    -0.412 A  
BRANCH  10  12
HETATM   12  O   UNL     1     -11.381   6.280  72.181  1.00  0.00    -0.267 OA 
BRANCH  12  13
HETATM   13  C   UNL     1     -11.796   7.544  71.814  1.00  0.00    -0.294 A  
HETATM   14  C   UNL     1     -13.138   7.873  71.659  1.00  0.00    -0.361 A  
HETATM   15  C   UNL     1     -13.492   9.113  71.141  1.00  0.00    -0.191 A  
HETATM   16  C   UNL     1     -12.538  10.103  70.880  1.00  0.00    -0.360 A  
HETATM   17  C   UNL     1     -11.195   9.801  71.125  1.00  0.00    -0.444 A  
HETATM   18  C   UNL     1     -10.827   8.525  71.592  1.00  0.00    -0.356 A  
BRANCH  16  19
HETATM   19  N   UNL     1     -12.894  11.383  70.377  1.00  0.00    -0.067 N  
HETATM   20  H   UNL     1     -13.552  11.435  69.598  1.00  0.00     0.000 HD 
BRANCH  19  21
HETATM   21  C   UNL     1     -12.388  12.568  70.897  1.00  0.00    -0.255 C  
HETATM   22  O   UNL     1     -12.665  12.973  72.019  1.00  0.00    -0.182 OA 
BRANCH  21  23
HETATM   23  N   UNL     1     -11.555  13.255  70.033  1.00  0.00    -0.513 N  
HETATM   24  H   UNL     1     -11.145  14.134  70.351  1.00  0.00     0.000 HD 
BRANCH  23  25
HETATM   25  C   UNL     1     -11.241  12.796  68.716  1.00  0.00    -0.283 A  
HETATM   26  C   UNL     1     -11.880  13.283  67.570  1.00  0.00    -0.403 A  
HETATM   27  C   UNL     1     -11.648  12.756  66.287  1.00  0.00    -0.433 A  
HETATM   28  C   UNL     1     -12.449  13.271  65.122  1.00  0.00    -0.470 C  
HETATM   29  C   UNL     1     -10.690  11.755  66.156  1.00  0.00    -0.277 A  
HETATM   30  F   UNL     1     -13.165  12.296  64.495  1.00  0.00    -0.514 F  
HETATM   31  F   UNL     1     -11.678  13.858  64.165  1.00  0.00    -0.393 F  
HETATM   32  F   UNL     1     -13.368  14.219  65.468  1.00  0.00    -0.520 F  
HETATM   33 CL   UNL     1     -10.307  11.054  64.627  1.00  0.00    -0.392 Cl 
HETATM   34  C   UNL     1      -9.999  11.290  67.284  1.00  0.00    -0.208 A  
HETATM   35  C   UNL     1     -10.274  11.802  68.560  1.00  0.00    -0.215 A  
ENDBRANCH  23  25
ENDBRANCH  21  23
ENDBRANCH  19  21
ENDBRANCH  16  19
ENDBRANCH  12  13
ENDBRANCH  10  12
ENDBRANCH   3   6
TORSDOF 7
ENDMDL
MODEL       79
REMARK 921   NORMALIZED FREE ENERGY PREDICTED BY IDOCK:   -6.15 KCAL/MOL
REMARK 922        TOTAL FREE ENERGY PREDICTED BY IDOCK:  -10.51 KCAL/MOL
REMARK 923 INTER-LIGAND FREE ENERGY PREDICTED BY IDOCK:   -9.56 KCAL/MOL
REMARK 924 INTRA-LIGAND FREE ENERGY PREDICTED BY IDOCK:   -0.95 KCAL/MOL
REMARK 927      BINDING AFFINITY PREDICTED BY RF-SCORE:    0.00 PKD
ROOT
HETATM    1  C   UNL     1      -6.539  14.509  67.683  1.00  0.00    -0.153 C  
HETATM    2  N   UNL     1      -7.143  13.230  67.432  1.00  0.00    -0.293 N  
HETATM    3  C   UNL     1      -6.404  12.166  66.964  1.00  0.00    -0.095 C  
HETATM    4  H   UNL     1      -8.140  13.107  67.605  1.00  0.00     0.000 HD 
HETATM    5  O   UNL     1      -5.204  12.231  66.716  1.00  0.00    -0.332 OA 
ENDROOT
BRANCH   3   6
HETATM    6  C   UNL     1      -7.166  10.886  66.794  1.00  0.00    -0.134 A  
HETATM    7  N   UNL     1      -7.896  10.742  65.652  1.00  0.00    -0.120 NA 
HETATM    8  C   UNL     1      -8.628   9.609  65.553  1.00  0.00    -0.147 A  
HETATM    9  C   UNL     1      -8.701   8.640  66.545  1.00  0.00    -0.143 A  
HETATM   10  C   UNL     1      -7.962   8.831  67.707  1.00  0.00    -0.106 A  
HETATM   11  C   UNL     1      -7.134   9.948  67.813  1.00  0.00    -0.087 A  
BRANCH  10  12
HETATM   12  O   UNL     1      -8.087   7.877  68.701  1.00  0.00    -0.122 OA 
BRANCH  12  13
HETATM   13  C   UNL     1      -9.119   8.018  69.608  1.00  0.00    -0.152 A  
HETATM   14  C   UNL     1      -9.085   8.953  70.636  1.00  0.00    -0.247 A  
HETATM   15  C   UNL     1     -10.078   8.949  71.609  1.00  0.00    -0.411 A  
HETATM   16  C   UNL     1     -11.191   8.106  71.522  1.00  0.00    -0.259 A  
HETATM   17  C   UNL     1     -11.268   7.230  70.435  1.00  0.00    -0.302 A  
HETATM   18  C   UNL     1     -10.235   7.188  69.480  1.00  0.00    -0.201 A  
BRANCH  16  19
HETATM   19  N   UNL     1     -12.225   8.115  72.497  1.00  0.00    -0.550 N  
HETATM   20  H   UNL     1     -12.055   7.654  73.391  1.00  0.00     0.000 HD 
BRANCH  19  21
HETATM   21  C   UNL     1     -13.456   8.725  72.289  1.00  0.00    -0.420 C  
HETATM   22  O   UNL     1     -14.410   8.142  71.788  1.00  0.00    -0.426 OA 
BRANCH  21  23
HETATM   23  N   UNL     1     -13.507  10.049  72.685  1.00  0.00    -0.518 N  
HETATM   24  H   UNL     1     -13.860  10.263  73.617  1.00  0.00     0.000 HD 
BRANCH  23  25
HETATM   25  C   UNL     1     -13.089  11.132  71.851  1.00  0.00    -0.408 A  
HETATM   26  C   UNL     1     -13.260  12.475  72.208  1.00  0.00    -0.425 A  
HETATM   27  C   UNL     1     -12.947  13.539  71.343  1.00  0.00    -0.421 A  
HETATM   28  C   UNL     1     -13.255  14.949  71.768  1.00  0.00    -0.349 C  
HETATM   29  C   UNL     1     -12.380  13.232  70.110  1.00  0.00    -0.236 A  
HETATM   30  F   UNL     1     -14.104  15.590  70.916  1.00  0.00    -0.498 F  
HETATM   31  F   UNL     1     -12.143  15.731  71.861  1.00  0.00    -0.358 F  
HETATM   32  F   UNL     1     -13.852  15.033  72.993  1.00  0.00    -0.511 F  
HETATM   33 CL   UNL     1     -11.934  14.459  68.982  1.00  0.00    -0.354 Cl 
HETATM   34  C   UNL     1     -12.148  11.896  69.754  1.00  0.00    -0.321 A  
HETATM   35  C   UNL     1     -12.504  10.848  70.616  1.00  0.00    -0.460 A  
ENDBRANCH  23  25
ENDBRANCH  21  23
ENDBRANCH  19  21
ENDBRANCH  16  19
ENDBRANCH  12  13
ENDBRANCH  10  12
ENDBRANCH   3   6
TORSDOF 7
ENDMDL
MODEL       80
REMARK 921   NORMALIZED FREE ENERGY PREDICTED BY IDOCK:   -6.14 KCAL/MOL
REMARK 922        TOTAL FREE ENERGY PREDICTED BY IDOCK:  -10.51 KCAL/MOL
REMARK 923 INTER-LIGAND FREE ENERGY PREDICTED BY IDOCK:   -9.33 KCAL/MOL
REMARK 924 INTRA-LIGAND FREE ENERGY PREDICTED BY IDOCK:   -1.17 KCAL/MOL
REMARK 927      BINDING AFFINITY PREDICTED BY RF-SCORE:    0.00 PKD
ROOT
HETATM    1  C   UNL     1     -10.696  19.661  66.163  1.00  0.00    -0.416 C  
HETATM    2  N   UNL     1     -10.331  18.330  66.563  1.00  0.00    -0.385 N  
HETATM    3  C   UNL     1     -10.588  17.242  65.758  1.00  0.00    -0.194 C  
HETATM    4  H   UNL     1      -9.872  18.188  67.462  1.00  0.00     0.000 HD 
HETATM    5  O   UNL     1     -11.149  17.321  64.670  1.00  0.00    -1.052 OA 
ENDROOT
BRANCH   3   6
HETATM    6  C   UNL     1     -10.108  15.926  66.294  1.00  0.00    -0.301 A  
HETATM    7  N   UNL     1      -8.780  15.816  66.579  1.00  0.00    -0.293 NA 
HETATM    8  C   UNL     1      -8.360  14.600  66.996  1.00  0.00    -0.185 A  
HETATM    9  C   UNL     1      -9.183  13.486  67.102  1.00  0.00    -0.236 A  
HETATM   10  C   UNL     1     -10.527  13.629  66.779  1.00  0.00    -0.270 A  
HETATM   11  C   UNL     1     -11.013  14.886  66.421  1.00  0.00    -0.336 A  
BRANCH  10  12
HETATM   12  O   UNL     1     -11.317  12.495  66.846  1.00  0.00    -0.288 OA 
BRANCH  12  13
HETATM   13  C   UNL     1     -11.540  11.934  68.088  1.00  0.00    -0.334 A  
HETATM   14  C   UNL     1     -11.311  10.589  68.351  1.00  0.00    -0.328 A  
HETATM   15  C   UNL     1     -11.696  10.045  69.572  1.00  0.00    -0.058 A  
HETATM   16  C   UNL     1     -12.203  10.841  70.605  1.00  0.00    -0.379 A  
HETATM   17  C   UNL     1     -12.346  12.211  70.369  1.00  0.00    -0.315 A  
HETATM   18  C   UNL     1     -12.014  12.756  69.114  1.00  0.00    -0.296 A  
BRANCH  16  19
HETATM   19  N   UNL     1     -12.573  10.298  71.865  1.00  0.00    -0.375 N  
HETATM   20  H   UNL     1     -12.461  10.878  72.697  1.00  0.00     0.000 HD 
BRANCH  19  21
HETATM   21  C   UNL     1     -13.080   9.013  72.016  1.00  0.00    -0.414 C  
HETATM   22  O   UNL     1     -14.087   8.624  71.439  1.00  0.00    -0.370 OA 
BRANCH  21  23
HETATM   23  N   UNL     1     -12.354   8.217  72.883  1.00  0.00    -0.572 N  
HETATM   24  H   UNL     1     -12.672   8.137  73.849  1.00  0.00     0.000 HD 
BRANCH  23  25
HETATM   25  C   UNL     1     -11.181   7.500  72.492  1.00  0.00    -0.331 A  
HETATM   26  C   UNL     1     -10.033   8.132  72.000  1.00  0.00    -0.299 A  
HETATM   27  C   UNL     1      -8.920   7.422  71.516  1.00  0.00    -0.132 A  
HETATM   28  C   UNL     1      -7.768   8.179  70.914  1.00  0.00    -0.085 C  
HETATM   29  C   UNL     1      -8.946   6.033  71.599  1.00  0.00    -0.142 A  
HETATM   30  F   UNL     1      -7.517   7.829  69.620  1.00  0.00    -0.080 F  
HETATM   31  F   UNL     1      -6.600   7.999  71.592  1.00  0.00    -0.045 F  
HETATM   32  F   UNL     1      -7.957   9.531  70.885  1.00  0.00    -0.179 F  
HETATM   33 CL   UNL     1      -7.625   5.063  71.058  1.00  0.00    -0.080 Cl 
HETATM   34  C   UNL     1     -10.063   5.381  72.139  1.00  0.00    -0.237 A  
HETATM   35  C   UNL     1     -11.178   6.107  72.580  1.00  0.00    -0.327 A  
ENDBRANCH  23  25
ENDBRANCH  21  23
ENDBRANCH  19  21
ENDBRANCH  16  19
ENDBRANCH  12  13
ENDBRANCH  10  12
ENDBRANCH   3   6
TORSDOF 7
ENDMDL
MODEL       81
REMARK 921   NORMALIZED FREE ENERGY PREDICTED BY IDOCK:   -6.09 KCAL/MOL
REMARK 922        TOTAL FREE ENERGY PREDICTED BY IDOCK:  -10.43 KCAL/MOL
REMARK 923 INTER-LIGAND FREE ENERGY PREDICTED BY IDOCK:   -9.03 KCAL/MOL
REMARK 924 INTRA-LIGAND FREE ENERGY PREDICTED BY IDOCK:   -1.41 KCAL/MOL
REMARK 927      BINDING AFFINITY PREDICTED BY RF-SCORE:    0.00 PKD
ROOT
HETATM    1  C   UNL     1      -6.998   6.050  65.901  1.00  0.00    -0.062 C  
HETATM    2  N   UNL     1      -7.419   6.662  67.131  1.00  0.00    -0.086 N  
HETATM    3  C   UNL     1      -8.703   7.134  67.297  1.00  0.00    -0.120 C  
HETATM    4  H   UNL     1      -6.753   6.749  67.898  1.00  0.00     0.000 HD 
HETATM    5  O   UNL     1      -9.561   7.082  66.422  1.00  0.00    -0.169 OA 
ENDROOT
BRANCH   3   6
HETATM    6  C   UNL     1      -9.002   7.705  68.651  1.00  0.00    -0.133 A  
HETATM    7  N   UNL     1      -7.962   7.815  69.524  1.00  0.00    -0.114 NA 
HETATM    8  C   UNL     1      -8.269   8.269  70.760  1.00  0.00    -0.114 A  
HETATM    9  C   UNL     1      -9.557   8.577  71.179  1.00  0.00    -0.248 A  
HETATM   10  C   UNL     1     -10.598   8.429  70.269  1.00  0.00    -0.227 A  
HETATM   11  C   UNL     1     -10.310   8.038  68.962  1.00  0.00    -0.228 A  
BRANCH  10  12
HETATM   12  O   UNL     1     -11.877   8.694  70.722  1.00  0.00    -0.265 OA 
BRANCH  12  13
HETATM   13  C   UNL     1     -12.252  10.016  70.865  1.00  0.00    -0.346 A  
HETATM   14  C   UNL     1     -11.846  11.006  69.978  1.00  0.00    -0.435 A  
HETATM   15  C   UNL     1     -12.124  12.340  70.253  1.00  0.00    -0.376 A  
HETATM   16  C   UNL     1     -12.916  12.717  71.344  1.00  0.00    -0.266 A  
HETATM   17  C   UNL     1     -13.401  11.710  72.183  1.00  0.00    -0.310 A  
HETATM   18  C   UNL     1     -13.071  10.363  71.942  1.00  0.00    -0.563 A  
BRANCH  16  19
HETATM   19  N   UNL     1     -13.229  14.076  71.617  1.00  0.00    -0.349 N  
HETATM   20  H   UNL     1     -14.205  14.330  71.769  1.00  0.00     0.000 HD 
BRANCH  19  21
HETATM   21  C   UNL     1     -12.265  15.075  71.686  1.00  0.00    -0.347 C  
HETATM   22  O   UNL     1     -11.390  15.096  72.542  1.00  0.00    -0.392 OA 
BRANCH  21  23
HETATM   23  N   UNL     1     -12.389  16.050  70.713  1.00  0.00    -0.500 N  
HETATM   24  H   UNL     1     -13.073  16.793  70.855  1.00  0.00     0.000 HD 
BRANCH  23  25
HETATM   25  C   UNL     1     -11.607  16.066  69.516  1.00  0.00    -0.304 A  
HETATM   26  C   UNL     1     -11.881  15.241  68.419  1.00  0.00    -0.283 A  
HETATM   27  C   UNL     1     -11.050  15.180  67.286  1.00  0.00    -0.332 A  
HETATM   28  C   UNL     1     -11.364  14.194  66.194  1.00  0.00    -0.337 C  
HETATM   29  C   UNL     1      -9.949  16.030  67.237  1.00  0.00    -0.242 A  
HETATM   30  F   UNL     1     -10.352  13.310  65.966  1.00  0.00    -0.266 F  
HETATM   31  F   UNL     1     -11.627  14.792  64.998  1.00  0.00    -0.339 F  
HETATM   32  F   UNL     1     -12.459  13.422  66.453  1.00  0.00    -0.430 F  
HETATM   33 CL   UNL     1      -8.877  16.056  65.886  1.00  0.00    -0.303 Cl 
HETATM   34  C   UNL     1      -9.687  16.904  68.302  1.00  0.00    -0.256 A  
HETATM   35  C   UNL     1     -10.506  16.921  69.439  1.00  0.00    -0.283 A  
ENDBRANCH  23  25
ENDBRANCH  21  23
ENDBRANCH  19  21
ENDBRANCH  16  19
ENDBRANCH  12  13
ENDBRANCH  10  12
ENDBRANCH   3   6
TORSDOF 7
ENDMDL
MODEL       82
REMARK 921   NORMALIZED FREE ENERGY PREDICTED BY IDOCK:   -6.09 KCAL/MOL
REMARK 922        TOTAL FREE ENERGY PREDICTED BY IDOCK:  -10.43 KCAL/MOL
REMARK 923 INTER-LIGAND FREE ENERGY PREDICTED BY IDOCK:   -8.18 KCAL/MOL
REMARK 924 INTRA-LIGAND FREE ENERGY PREDICTED BY IDOCK:   -2.25 KCAL/MOL
REMARK 927      BINDING AFFINITY PREDICTED BY RF-SCORE:    0.00 PKD
ROOT
HETATM    1  C   UNL     1     -11.650  15.222  72.589  1.00  0.00    -0.375 C  
HETATM    2  N   UNL     1     -11.096  14.952  71.291  1.00  0.00    -0.559 N  
HETATM    3  C   UNL     1     -11.780  15.269  70.138  1.00  0.00    -0.312 C  
HETATM    4  H   UNL     1     -10.176  14.517  71.222  1.00  0.00     0.000 HD 
HETATM    5  O   UNL     1     -12.895  15.780  70.131  1.00  0.00    -0.293 OA 
ENDROOT
BRANCH   3   6
HETATM    6  C   UNL     1     -11.053  14.968  68.862  1.00  0.00    -0.266 A  
HETATM    7  N   UNL     1     -11.798  14.882  67.724  1.00  0.00    -0.316 NA 
HETATM    8  C   UNL     1     -11.129  14.543  66.599  1.00  0.00    -0.333 A  
HETATM    9  C   UNL     1      -9.773  14.246  66.558  1.00  0.00    -0.304 A  
HETATM   10  C   UNL     1      -9.048  14.320  67.742  1.00  0.00    -0.195 A  
HETATM   11  C   UNL     1      -9.687  14.743  68.908  1.00  0.00    -0.215 A  
BRANCH  10  12
HETATM   12  O   UNL     1      -7.710  13.974  67.687  1.00  0.00    -0.148 OA 
BRANCH  12  13
HETATM   13  C   UNL     1      -7.329  12.773  68.251  1.00  0.00    -0.117 A  
HETATM   14  C   UNL     1      -7.769  11.547  67.765  1.00  0.00    -0.124 A  
HETATM   15  C   UNL     1      -7.478  10.380  68.463  1.00  0.00    -0.089 A  
HETATM   16  C   UNL     1      -6.644  10.381  69.586  1.00  0.00    -0.085 A  
HETATM   17  C   UNL     1      -6.127  11.606  70.019  1.00  0.00    -0.158 A  
HETATM   18  C   UNL     1      -6.468  12.798  69.351  1.00  0.00    -0.096 A  
BRANCH  16  19
HETATM   19  N   UNL     1      -6.319   9.190  70.288  1.00  0.00    -0.043 N  
HETATM   20  H   UNL     1      -5.376   9.088  70.666  1.00  0.00     0.000 HD 
BRANCH  19  21
HETATM   21  C   UNL     1      -7.226   8.155  70.483  1.00  0.00    -0.048 C  
HETATM   22  O   UNL     1      -7.390   7.252  69.672  1.00  0.00    -0.083 OA 
BRANCH  21  23
HETATM   23  N   UNL     1      -7.937   8.242  71.666  1.00  0.00    -0.117 N  
HETATM   24  H   UNL     1      -7.434   8.111  72.544  1.00  0.00     0.000 HD 
BRANCH  23  25
HETATM   25  C   UNL     1      -9.341   8.504  71.720  1.00  0.00    -0.253 A  
HETATM   26  C   UNL     1      -9.946   9.547  71.008  1.00  0.00    -0.269 A  
HETATM   27  C   UNL     1     -11.308   9.871  71.144  1.00  0.00    -0.443 A  
HETATM   28  C   UNL     1     -11.856  11.069  70.417  1.00  0.00    -0.367 C  
HETATM   29  C   UNL     1     -12.090   9.072  71.972  1.00  0.00    -0.370 A  
HETATM   30  F   UNL     1     -12.397  11.999  71.254  1.00  0.00    -0.415 F  
HETATM   31  F   UNL     1     -12.829  10.748  69.520  1.00  0.00    -0.296 F  
HETATM   32  F   UNL     1     -10.917  11.747  69.695  1.00  0.00    -0.257 F  
HETATM   33 CL   UNL     1     -13.776   9.363  72.192  1.00  0.00    -0.491 Cl 
HETATM   34  C   UNL     1     -11.516   7.988  72.651  1.00  0.00    -0.465 A  
HETATM   35  C   UNL     1     -10.148   7.706  72.532  1.00  0.00    -0.284 A  
ENDBRANCH  23  25
ENDBRANCH  21  23
ENDBRANCH  19  21
ENDBRANCH  16  19
ENDBRANCH  12  13
ENDBRANCH  10  12
ENDBRANCH   3   6
TORSDOF 7
ENDMDL
MODEL       83
REMARK 921   NORMALIZED FREE ENERGY PREDICTED BY IDOCK:   -6.07 KCAL/MOL
REMARK 922        TOTAL FREE ENERGY PREDICTED BY IDOCK:  -10.40 KCAL/MOL
REMARK 923 INTER-LIGAND FREE ENERGY PREDICTED BY IDOCK:   -9.10 KCAL/MOL
REMARK 924 INTRA-LIGAND FREE ENERGY PREDICTED BY IDOCK:   -1.30 KCAL/MOL
REMARK 927      BINDING AFFINITY PREDICTED BY RF-SCORE:    0.00 PKD
ROOT
HETATM    1  C   UNL     1      -5.928  21.198  66.716  1.00  0.00    -0.286 C  
HETATM    2  N   UNL     1      -6.283  19.882  67.169  1.00  0.00    -0.183 N  
HETATM    3  C   UNL     1      -6.526  19.621  68.500  1.00  0.00    -0.269 C  
HETATM    4  H   UNL     1      -6.358  19.124  66.491  1.00  0.00     0.000 HD 
HETATM    5  O   UNL     1      -6.444  20.470  69.383  1.00  0.00    -0.247 OA 
ENDROOT
BRANCH   3   6
HETATM    6  C   UNL     1      -6.929  18.210  68.810  1.00  0.00    -0.270 A  
HETATM    7  N   UNL     1      -6.084  17.477  69.588  1.00  0.00    -0.253 NA 
HETATM    8  C   UNL     1      -6.436  16.188  69.797  1.00  0.00    -0.159 A  
HETATM    9  C   UNL     1      -7.558  15.587  69.241  1.00  0.00    -0.221 A  
HETATM   10  C   UNL     1      -8.385  16.359  68.433  1.00  0.00    -0.191 A  
HETATM   11  C   UNL     1      -8.098  17.712  68.258  1.00  0.00    -0.278 A  
BRANCH  10  12
HETATM   12  O   UNL     1      -9.470  15.727  67.851  1.00  0.00    -0.210 OA 
BRANCH  12  13
HETATM   13  C   UNL     1     -10.553  15.431  68.654  1.00  0.00    -0.239 A  
HETATM   14  C   UNL     1     -10.940  16.243  69.714  1.00  0.00    -0.354 A  
HETATM   15  C   UNL     1     -11.941  15.820  70.582  1.00  0.00    -0.426 A  
HETATM   16  C   UNL     1     -12.666  14.645  70.353  1.00  0.00    -0.316 A  
HETATM   17  C   UNL     1     -12.336  13.877  69.233  1.00  0.00    -0.201 A  
HETATM   18  C   UNL     1     -11.283  14.271  68.385  1.00  0.00    -0.291 A  
BRANCH  16  19
HETATM   19  N   UNL     1     -13.709  14.220  71.219  1.00  0.00    -0.308 N  
HETATM   20  H   UNL     1     -14.665  14.512  71.011  1.00  0.00     0.000 HD 
BRANCH  19  21
HETATM   21  C   UNL     1     -13.488  13.424  72.337  1.00  0.00    -0.584 C  
HETATM   22  O   UNL     1     -12.875  13.817  73.321  1.00  0.00    -0.266 OA 
BRANCH  21  23
HETATM   23  N   UNL     1     -14.009  12.147  72.234  1.00  0.00    -0.192 N  
HETATM   24  H   UNL     1     -15.005  12.015  72.409  1.00  0.00     0.000 HD 
BRANCH  23  25
HETATM   25  C   UNL     1     -13.220  11.004  71.897  1.00  0.00    -0.398 A  
HETATM   26  C   UNL     1     -12.094  11.076  71.067  1.00  0.00    -0.406 A  
HETATM   27  C   UNL     1     -11.383   9.937  70.649  1.00  0.00    -0.413 A  
HETATM   28  C   UNL     1     -10.244  10.095  69.678  1.00  0.00    -0.242 C  
HETATM   29  C   UNL     1     -11.783   8.699  71.142  1.00  0.00    -0.288 A  
HETATM   30  F   UNL     1     -10.426   9.393  68.524  1.00  0.00    -0.202 F  
HETATM   31  F   UNL     1      -9.049   9.690  70.189  1.00  0.00    -0.198 F  
HETATM   32  F   UNL     1     -10.041  11.385  69.280  1.00  0.00    -0.194 F  
HETATM   33 CL   UNL     1     -10.967   7.241  70.715  1.00  0.00    -0.263 Cl 
HETATM   34  C   UNL     1     -12.874   8.610  72.018  1.00  0.00    -0.425 A  
HETATM   35  C   UNL     1     -13.594   9.754  72.392  1.00  0.00    -0.328 A  
ENDBRANCH  23  25
ENDBRANCH  21  23
ENDBRANCH  19  21
ENDBRANCH  16  19
ENDBRANCH  12  13
ENDBRANCH  10  12
ENDBRANCH   3   6
TORSDOF 7
ENDMDL
MODEL       84
REMARK 921   NORMALIZED FREE ENERGY PREDICTED BY IDOCK:   -6.05 KCAL/MOL
REMARK 922        TOTAL FREE ENERGY PREDICTED BY IDOCK:  -10.37 KCAL/MOL
REMARK 923 INTER-LIGAND FREE ENERGY PREDICTED BY IDOCK:   -9.53 KCAL/MOL
REMARK 924 INTRA-LIGAND FREE ENERGY PREDICTED BY IDOCK:   -0.83 KCAL/MOL
REMARK 927      BINDING AFFINITY PREDICTED BY RF-SCORE:    0.00 PKD
ROOT
HETATM    1  C   UNL     1      -7.401  18.665  66.591  1.00  0.00    -0.229 C  
HETATM    2  N   UNL     1      -8.440  17.896  65.966  1.00  0.00    -0.097 N  
HETATM    3  C   UNL     1      -8.802  16.655  66.442  1.00  0.00    -0.302 C  
HETATM    4  H   UNL     1      -8.922  18.278  65.152  1.00  0.00     0.000 HD 
HETATM    5  O   UNL     1      -8.266  16.116  67.405  1.00  0.00    -0.150 OA 
ENDROOT
BRANCH   3   6
HETATM    6  C   UNL     1      -9.933  15.996  65.710  1.00  0.00    -0.351 A  
HETATM    7  N   UNL     1     -10.768  16.804  64.997  1.00  0.00    -0.697 NA 
HETATM    8  C   UNL     1     -11.819  16.195  64.402  1.00  0.00     0.051 A  
HETATM    9  C   UNL     1     -12.100  14.840  64.514  1.00  0.00    -0.460 A  
HETATM   10  C   UNL     1     -11.240  14.050  65.269  1.00  0.00    -0.319 A  
HETATM   11  C   UNL     1     -10.103  14.627  65.833  1.00  0.00    -0.341 A  
BRANCH  10  12
HETATM   12  O   UNL     1     -11.567  12.713  65.407  1.00  0.00    -0.329 OA 
BRANCH  12  13
HETATM   13  C   UNL     1     -11.571  12.176  66.680  1.00  0.00    -0.350 A  
HETATM   14  C   UNL     1     -11.989  12.897  67.792  1.00  0.00    -0.336 A  
HETATM   15  C   UNL     1     -11.829  12.362  69.065  1.00  0.00    -0.349 A  
HETATM   16  C   UNL     1     -11.369  11.055  69.262  1.00  0.00    -0.282 A  
HETATM   17  C   UNL     1     -11.036  10.299  68.135  1.00  0.00    -0.324 A  
HETATM   18  C   UNL     1     -11.140  10.858  66.847  1.00  0.00    -0.236 A  
BRANCH  16  19
HETATM   19  N   UNL     1     -11.229  10.491  70.559  1.00  0.00    -0.402 N  
HETATM   20  H   UNL     1     -10.320  10.545  71.019  1.00  0.00     0.000 HD 
BRANCH  19  21
HETATM   21  C   UNL     1     -12.275   9.867  71.229  1.00  0.00    -0.387 C  
HETATM   22  O   UNL     1     -13.074  10.477  71.929  1.00  0.00    -0.457 OA 
BRANCH  21  23
HETATM   23  N   UNL     1     -12.327   8.497  71.048  1.00  0.00    -0.467 N  
HETATM   24  H   UNL     1     -13.030   8.119  70.412  1.00  0.00     0.000 HD 
BRANCH  23  25
HETATM   25  C   UNL     1     -11.446   7.585  71.707  1.00  0.00    -0.260 A  
HETATM   26  C   UNL     1     -10.907   6.458  71.075  1.00  0.00    -0.314 A  
HETATM   27  C   UNL     1     -10.127   5.505  71.753  1.00  0.00    -0.247 A  
HETATM   28  C   UNL     1      -9.670   4.272  71.022  1.00  0.00    -0.190 C  
HETATM   29  C   UNL     1      -9.829   5.738  73.092  1.00  0.00    -0.168 A  
HETATM   30  F   UNL     1     -10.106   3.117  71.598  1.00  0.00    -0.244 F  
HETATM   31  F   UNL     1      -8.313   4.173  70.942  1.00  0.00    -0.072 F  
HETATM   32  F   UNL     1     -10.106   4.210  69.730  1.00  0.00    -0.288 F  
HETATM   33 CL   UNL     1      -8.860   4.648  74.013  1.00  0.00    -0.107 Cl 
HETATM   34  C   UNL     1     -10.313   6.889  73.730  1.00  0.00    -0.409 A  
HETATM   35  C   UNL     1     -11.121   7.808  73.046  1.00  0.00    -0.419 A  
ENDBRANCH  23  25
ENDBRANCH  21  23
ENDBRANCH  19  21
ENDBRANCH  16  19
ENDBRANCH  12  13
ENDBRANCH  10  12
ENDBRANCH   3   6
TORSDOF 7
ENDMDL
MODEL       85
REMARK 921   NORMALIZED FREE ENERGY PREDICTED BY IDOCK:   -6.04 KCAL/MOL
REMARK 922        TOTAL FREE ENERGY PREDICTED BY IDOCK:  -10.37 KCAL/MOL
REMARK 923 INTER-LIGAND FREE ENERGY PREDICTED BY IDOCK:   -9.11 KCAL/MOL
REMARK 924 INTRA-LIGAND FREE ENERGY PREDICTED BY IDOCK:   -1.26 KCAL/MOL
REMARK 927      BINDING AFFINITY PREDICTED BY RF-SCORE:    0.00 PKD
ROOT
HETATM    1  C   UNL     1      -9.562   7.475  68.779  1.00  0.00    -0.149 C  
HETATM    2  N   UNL     1     -10.392   8.223  69.681  1.00  0.00    -0.214 N  
HETATM    3  C   UNL     1     -10.992   9.402  69.296  1.00  0.00    -0.117 C  
HETATM    4  H   UNL     1     -10.541   7.874  70.627  1.00  0.00     0.000 HD 
HETATM    5  O   UNL     1     -10.855   9.900  68.183  1.00  0.00    -0.241 OA 
ENDROOT
BRANCH   3   6
HETATM    6  C   UNL     1     -11.864  10.043  70.334  1.00  0.00    -0.262 A  
HETATM    7  N   UNL     1     -12.596   9.214  71.131  1.00  0.00    -0.274 NA 
HETATM    8  C   UNL     1     -13.425   9.817  72.013  1.00  0.00    -0.407 A  
HETATM    9  C   UNL     1     -13.590  11.192  72.112  1.00  0.00    -0.074 A  
HETATM   10  C   UNL     1     -12.845  12.006  71.267  1.00  0.00    -0.265 A  
HETATM   11  C   UNL     1     -11.923  11.425  70.398  1.00  0.00    -0.465 A  
BRANCH  10  12
HETATM   12  O   UNL     1     -13.062  13.370  71.350  1.00  0.00    -0.340 OA 
BRANCH  12  13
HETATM   13  C   UNL     1     -12.303  14.196  70.545  1.00  0.00    -0.364 A  
HETATM   14  C   UNL     1     -12.471  14.254  69.166  1.00  0.00    -0.011 A  
HETATM   15  C   UNL     1     -11.579  14.986  68.389  1.00  0.00    -0.352 A  
HETATM   16  C   UNL     1     -10.577  15.776  68.965  1.00  0.00    -0.232 A  
HETATM   17  C   UNL     1     -10.470  15.788  70.358  1.00  0.00    -0.169 A  
HETATM   18  C   UNL     1     -11.332  15.001  71.145  1.00  0.00    -0.315 A  
BRANCH  16  19
HETATM   19  N   UNL     1      -9.680  16.549  68.179  1.00  0.00    -0.230 N  
HETATM   20  H   UNL     1      -8.775  16.798  68.578  1.00  0.00     0.000 HD 
BRANCH  19  21
HETATM   21  C   UNL     1      -9.980  16.980  66.893  1.00  0.00    -0.289 C  
HETATM   22  O   UNL     1     -10.627  17.995  66.665  1.00  0.00    -0.337 OA 
BRANCH  21  23
HETATM   23  N   UNL     1      -9.494  16.158  65.893  1.00  0.00    -0.328 N  
HETATM   24  H   UNL     1      -8.550  16.323  65.545  1.00  0.00     0.000 HD 
BRANCH  23  25
HETATM   25  C   UNL     1     -10.251  15.088  65.322  1.00  0.00    -0.377 A  
HETATM   26  C   UNL     1      -9.789  13.767  65.283  1.00  0.00    -0.155 A  
HETATM   27  C   UNL     1     -10.485  12.736  64.627  1.00  0.00    -0.373 A  
HETATM   28  C   UNL     1      -9.870  11.365  64.549  1.00  0.00    -0.260 C  
HETATM   29  C   UNL     1     -11.717  13.040  64.055  1.00  0.00    -0.436 A  
HETATM   30  F   UNL     1      -9.684  10.936  63.269  1.00  0.00    -0.249 F  
HETATM   31  F   UNL     1     -10.617  10.410  65.169  1.00  0.00    -0.351 F  
HETATM   32  F   UNL     1      -8.638  11.285  65.132  1.00  0.00    -0.133 F  
HETATM   33 CL   UNL     1     -12.666  11.848  63.248  1.00  0.00    -0.609 Cl 
HETATM   34  C   UNL     1     -12.224  14.345  64.130  1.00  0.00    -0.393 A  
HETATM   35  C   UNL     1     -11.496  15.367  64.755  1.00  0.00    -0.337 A  
ENDBRANCH  23  25
ENDBRANCH  21  23
ENDBRANCH  19  21
ENDBRANCH  16  19
ENDBRANCH  12  13
ENDBRANCH  10  12
ENDBRANCH   3   6
TORSDOF 7
ENDMDL
MODEL       86
REMARK 921   NORMALIZED FREE ENERGY PREDICTED BY IDOCK:   -6.03 KCAL/MOL
REMARK 922        TOTAL FREE ENERGY PREDICTED BY IDOCK:  -10.35 KCAL/MOL
REMARK 923 INTER-LIGAND FREE ENERGY PREDICTED BY IDOCK:   -9.03 KCAL/MOL
REMARK 924 INTRA-LIGAND FREE ENERGY PREDICTED BY IDOCK:   -1.32 KCAL/MOL
REMARK 927      BINDING AFFINITY PREDICTED BY RF-SCORE:    0.00 PKD
ROOT
HETATM    1  C   UNL     1     -13.679   7.352  71.394  1.00  0.00    -0.323 C  
HETATM    2  N   UNL     1     -12.431   7.942  70.997  1.00  0.00    -0.496 N  
HETATM    3  C   UNL     1     -11.431   7.189  70.421  1.00  0.00    -0.278 C  
HETATM    4  H   UNL     1     -12.282   8.940  71.144  1.00  0.00     0.000 HD 
HETATM    5  O   UNL     1     -11.522   5.982  70.221  1.00  0.00    -0.339 OA 
ENDROOT
BRANCH   3   6
HETATM    6  C   UNL     1     -10.206   7.956  70.020  1.00  0.00    -0.208 A  
HETATM    7  N   UNL     1      -9.454   8.495  71.021  1.00  0.00    -0.172 NA 
HETATM    8  C   UNL     1      -8.393   9.238  70.632  1.00  0.00    -0.207 A  
HETATM    9  C   UNL     1      -8.071   9.503  69.307  1.00  0.00    -0.103 A  
HETATM   10  C   UNL     1      -8.875   8.957  68.313  1.00  0.00    -0.134 A  
HETATM   11  C   UNL     1      -9.931   8.121  68.673  1.00  0.00    -0.201 A  
BRANCH  10  12
HETATM   12  O   UNL     1      -8.563   9.273  67.003  1.00  0.00    -0.122 OA 
BRANCH  12  13
HETATM   13  C   UNL     1      -9.465  10.038  66.290  1.00  0.00    -0.191 A  
HETATM   14  C   UNL     1      -9.672   9.870  64.926  1.00  0.00    -0.332 A  
HETATM   15  C   UNL     1     -10.476  10.766  64.231  1.00  0.00    -0.330 A  
HETATM   16  C   UNL     1     -11.193  11.774  64.887  1.00  0.00    -0.266 A  
HETATM   17  C   UNL     1     -11.055  11.882  66.274  1.00  0.00    -0.364 A  
HETATM   18  C   UNL     1     -10.194  11.015  66.973  1.00  0.00    -0.250 A  
BRANCH  16  19
HETATM   19  N   UNL     1     -12.039  12.676  64.188  1.00  0.00    -0.406 N  
HETATM   20  H   UNL     1     -12.477  12.362  63.321  1.00  0.00     0.000 HD 
BRANCH  19  21
HETATM   21  C   UNL     1     -12.299  13.968  64.631  1.00  0.00    -0.397 C  
HETATM   22  O   UNL     1     -13.305  14.265  65.261  1.00  0.00    -0.660 OA 
BRANCH  21  23
HETATM   23  N   UNL     1     -11.327  14.890  64.287  1.00  0.00    -0.646 N  
HETATM   24  H   UNL     1     -11.021  14.931  63.314  1.00  0.00     0.000 HD 
BRANCH  23  25
HETATM   25  C   UNL     1     -10.730  15.787  65.226  1.00  0.00    -0.428 A  
HETATM   26  C   UNL     1     -10.024  15.348  66.352  1.00  0.00    -0.295 A  
HETATM   27  C   UNL     1      -9.530  16.228  67.332  1.00  0.00    -0.227 A  
HETATM   28  C   UNL     1      -8.868  15.666  68.561  1.00  0.00    -0.187 C  
HETATM   29  C   UNL     1      -9.697  17.594  67.127  1.00  0.00    -0.291 A  
HETATM   30  F   UNL     1      -9.487  16.036  69.717  1.00  0.00    -0.249 F  
HETATM   31  F   UNL     1      -7.566  16.046  68.684  1.00  0.00    -0.141 F  
HETATM   32  F   UNL     1      -8.844  14.301  68.593  1.00  0.00    -0.174 F  
HETATM   33 CL   UNL     1      -9.110  18.763  68.251  1.00  0.00    -0.339 Cl 
HETATM   34  C   UNL     1     -10.354  18.058  65.978  1.00  0.00    -0.333 A  
HETATM   35  C   UNL     1     -10.873  17.162  65.033  1.00  0.00     0.063 A  
ENDBRANCH  23  25
ENDBRANCH  21  23
ENDBRANCH  19  21
ENDBRANCH  16  19
ENDBRANCH  12  13
ENDBRANCH  10  12
ENDBRANCH   3   6
TORSDOF 7
ENDMDL
MODEL       87
REMARK 921   NORMALIZED FREE ENERGY PREDICTED BY IDOCK:   -6.02 KCAL/MOL
REMARK 922        TOTAL FREE ENERGY PREDICTED BY IDOCK:  -10.34 KCAL/MOL
REMARK 923 INTER-LIGAND FREE ENERGY PREDICTED BY IDOCK:   -9.21 KCAL/MOL
REMARK 924 INTRA-LIGAND FREE ENERGY PREDICTED BY IDOCK:   -1.13 KCAL/MOL
REMARK 927      BINDING AFFINITY PREDICTED BY RF-SCORE:    0.00 PKD
ROOT
HETATM    1  C   UNL     1     -10.737   3.386  63.493  1.00  0.00    -0.250 C  
HETATM    2  N   UNL     1     -10.423   4.299  64.557  1.00  0.00    -0.451 N  
HETATM    3  C   UNL     1      -9.692   3.900  65.655  1.00  0.00    -0.170 C  
HETATM    4  H   UNL     1     -10.747   5.264  64.498  1.00  0.00     0.000 HD 
HETATM    5  O   UNL     1      -9.276   2.757  65.812  1.00  0.00    -0.149 OA 
ENDROOT
BRANCH   3   6
HETATM    6  C   UNL     1      -9.408   4.978  66.658  1.00  0.00    -0.138 A  
HETATM    7  N   UNL     1      -9.854   4.779  67.930  1.00  0.00    -0.153 NA 
HETATM    8  C   UNL     1      -9.646   5.794  68.798  1.00  0.00    -0.127 A  
HETATM    9  C   UNL     1      -9.056   7.004  68.456  1.00  0.00    -0.131 A  
HETATM   10  C   UNL     1      -8.635   7.181  67.143  1.00  0.00    -0.121 A  
HETATM   11  C   UNL     1      -8.761   6.128  66.238  1.00  0.00    -0.144 A  
BRANCH  10  12
HETATM   12  O   UNL     1      -8.095   8.412  66.813  1.00  0.00    -0.097 OA 
BRANCH  12  13
HETATM   13  C   UNL     1      -8.846   9.256  66.020  1.00  0.00    -0.160 A  
HETATM   14  C   UNL     1     -10.075   9.763  66.425  1.00  0.00    -0.313 A  
HETATM   15  C   UNL     1     -10.857  10.483  65.529  1.00  0.00     0.077 A  
HETATM   16  C   UNL     1     -10.392  10.824  64.254  1.00  0.00    -0.331 A  
HETATM   17  C   UNL     1      -9.116  10.391  63.882  1.00  0.00    -0.272 A  
HETATM   18  C   UNL     1      -8.345   9.610  64.765  1.00  0.00    -0.156 A  
BRANCH  16  19
HETATM   19  N   UNL     1     -11.174  11.584  63.343  1.00  0.00    -0.758 N  
HETATM   20  H   UNL     1     -11.333  11.209  62.407  1.00  0.00     0.000 HD 
BRANCH  19  21
HETATM   21  C   UNL     1     -11.733  12.814  63.667  1.00  0.00    -0.519 C  
HETATM   22  O   UNL     1     -12.907  13.088  63.455  1.00  0.00    -0.640 OA 
BRANCH  21  23
HETATM   23  N   UNL     1     -10.844  13.706  64.240  1.00  0.00    -0.568 N  
HETATM   24  H   UNL     1      -9.993  13.939  63.727  1.00  0.00     0.000 HD 
BRANCH  23  25
HETATM   25  C   UNL     1     -11.058  14.316  65.515  1.00  0.00    -0.323 A  
HETATM   26  C   UNL     1     -10.549  15.577  65.849  1.00  0.00    -0.350 A  
HETATM   27  C   UNL     1     -10.668  16.129  67.136  1.00  0.00    -0.262 A  
HETATM   28  C   UNL     1     -10.006  17.447  67.437  1.00  0.00    -0.305 C  
HETATM   29  C   UNL     1     -11.384  15.413  68.090  1.00  0.00    -0.348 A  
HETATM   30  F   UNL     1      -9.097  17.368  68.450  1.00  0.00    -0.241 F  
HETATM   31  F   UNL     1     -10.892  18.419  67.790  1.00  0.00    -0.421 F  
HETATM   32  F   UNL     1      -9.314  17.964  66.380  1.00  0.00    -0.267 F  
HETATM   33 CL   UNL     1     -11.614  16.008  69.693  1.00  0.00    -0.320 Cl 
HETATM   34  C   UNL     1     -11.950  14.173  67.761  1.00  0.00    -0.389 A  
HETATM   35  C   UNL     1     -11.786  13.622  66.483  1.00  0.00    -0.414 A  
ENDBRANCH  23  25
ENDBRANCH  21  23
ENDBRANCH  19  21
ENDBRANCH  16  19
ENDBRANCH  12  13
ENDBRANCH  10  12
ENDBRANCH   3   6
TORSDOF 7
ENDMDL
MODEL       88
REMARK 921   NORMALIZED FREE ENERGY PREDICTED BY IDOCK:   -6.01 KCAL/MOL
REMARK 922        TOTAL FREE ENERGY PREDICTED BY IDOCK:  -10.32 KCAL/MOL
REMARK 923 INTER-LIGAND FREE ENERGY PREDICTED BY IDOCK:   -9.08 KCAL/MOL
REMARK 924 INTRA-LIGAND FREE ENERGY PREDICTED BY IDOCK:   -1.24 KCAL/MOL
REMARK 927      BINDING AFFINITY PREDICTED BY RF-SCORE:    0.00 PKD
ROOT
HETATM    1  C   UNL     1      -9.127   3.034  65.860  1.00  0.00    -0.141 C  
HETATM    2  N   UNL     1      -8.888   4.343  66.402  1.00  0.00    -0.112 N  
HETATM    3  C   UNL     1      -9.145   4.631  67.725  1.00  0.00    -0.119 C  
HETATM    4  H   UNL     1      -8.519   5.074  65.795  1.00  0.00     0.000 HD 
HETATM    5  O   UNL     1      -9.602   3.815  68.519  1.00  0.00    -0.162 OA 
ENDROOT
BRANCH   3   6
HETATM    6  C   UNL     1      -8.803   6.027  68.152  1.00  0.00    -0.111 A  
HETATM    7  N   UNL     1      -9.124   6.385  69.427  1.00  0.00    -0.140 NA 
HETATM    8  C   UNL     1      -8.866   7.669  69.766  1.00  0.00    -0.140 A  
HETATM    9  C   UNL     1      -8.348   8.617  68.893  1.00  0.00    -0.124 A  
HETATM   10  C   UNL     1      -8.055   8.222  67.592  1.00  0.00    -0.126 A  
HETATM   11  C   UNL     1      -8.233   6.887  67.228  1.00  0.00    -0.118 A  
BRANCH  10  12
HETATM   12  O   UNL     1      -7.585   9.193  66.727  1.00  0.00    -0.086 OA 
BRANCH  12  13
HETATM   13  C   UNL     1      -8.461   9.705  65.791  1.00  0.00    -0.133 A  
HETATM   14  C   UNL     1      -8.110   9.881  64.458  1.00  0.00    -0.149 A  
HETATM   15  C   UNL     1      -8.977  10.540  63.593  1.00  0.00    -0.230 A  
HETATM   16  C   UNL     1     -10.260  10.930  63.993  1.00  0.00    -0.357 A  
HETATM   17  C   UNL     1     -10.645  10.668  65.311  1.00  0.00    -0.191 A  
HETATM   18  C   UNL     1      -9.748  10.055  66.206  1.00  0.00    -0.272 A  
BRANCH  16  19
HETATM   19  N   UNL     1     -11.162  11.579  63.108  1.00  0.00    -0.833 N  
HETATM   20  H   UNL     1     -11.071  11.407  62.106  1.00  0.00     0.000 HD 
BRANCH  19  21
HETATM   21  C   UNL     1     -12.165  12.437  63.544  1.00  0.00    -0.563 C  
HETATM   22  O   UNL     1     -13.288  12.051  63.842  1.00  0.00    -0.669 OA 
BRANCH  21  23
HETATM   23  N   UNL     1     -11.786  13.766  63.602  1.00  0.00    -0.698 N  
HETATM   24  H   UNL     1     -11.787  14.309  62.738  1.00  0.00     0.000 HD 
BRANCH  23  25
HETATM   25  C   UNL     1     -11.393  14.417  64.812  1.00  0.00    -0.388 A  
HETATM   26  C   UNL     1     -11.594  13.854  66.078  1.00  0.00    -0.359 A  
HETATM   27  C   UNL     1     -11.306  14.539  67.271  1.00  0.00    -0.363 A  
HETATM   28  C   UNL     1     -11.645  13.898  68.590  1.00  0.00    -0.328 C  
HETATM   29  C   UNL     1     -10.732  15.804  67.176  1.00  0.00    -0.312 A  
HETATM   30  F   UNL     1     -12.508  14.641  69.338  1.00  0.00    -0.319 F  
HETATM   31  F   UNL     1     -10.551  13.679  69.371  1.00  0.00    -0.181 F  
HETATM   32  F   UNL     1     -12.243  12.677  68.466  1.00  0.00    -0.333 F  
HETATM   33 CL   UNL     1     -10.315  16.723  68.575  1.00  0.00    -0.295 Cl 
HETATM   34  C   UNL     1     -10.471  16.365  65.918  1.00  0.00    -0.350 A  
HETATM   35  C   UNL     1     -10.802  15.680  64.740  1.00  0.00    -0.377 A  
ENDBRANCH  23  25
ENDBRANCH  21  23
ENDBRANCH  19  21
ENDBRANCH  16  19
ENDBRANCH  12  13
ENDBRANCH  10  12
ENDBRANCH   3   6
TORSDOF 7
ENDMDL
MODEL       89
REMARK 921   NORMALIZED FREE ENERGY PREDICTED BY IDOCK:   -6.00 KCAL/MOL
REMARK 922        TOTAL FREE ENERGY PREDICTED BY IDOCK:  -10.30 KCAL/MOL
REMARK 923 INTER-LIGAND FREE ENERGY PREDICTED BY IDOCK:   -9.34 KCAL/MOL
REMARK 924 INTRA-LIGAND FREE ENERGY PREDICTED BY IDOCK:   -0.97 KCAL/MOL
REMARK 927      BINDING AFFINITY PREDICTED BY RF-SCORE:    0.00 PKD
ROOT
HETATM    1  C   UNL     1      -5.687  20.993  64.419  1.00  0.00    -0.243 C  
HETATM    2  N   UNL     1      -6.942  20.523  64.938  1.00  0.00    -0.455 N  
HETATM    3  C   UNL     1      -6.996  19.606  65.966  1.00  0.00    -0.267 C  
HETATM    4  H   UNL     1      -7.811  20.875  64.538  1.00  0.00     0.000 HD 
HETATM    5  O   UNL     1      -6.001  19.121  66.494  1.00  0.00    -0.165 OA 
ENDROOT
BRANCH   3   6
HETATM    6  C   UNL     1      -8.377  19.247  66.427  1.00  0.00    -0.321 A  
HETATM    7  N   UNL     1      -9.420  19.674  65.661  1.00  0.00    -0.273 NA 
HETATM    8  C   UNL     1     -10.657  19.395  66.133  1.00  0.00    -0.477 A  
HETATM    9  C   UNL     1     -10.904  18.756  67.341  1.00  0.00    -0.414 A  
HETATM   10  C   UNL     1      -9.816  18.356  68.108  1.00  0.00    -0.342 A  
HETATM   11  C   UNL     1      -8.526  18.555  67.617  1.00  0.00    -0.276 A  
BRANCH  10  12
HETATM   12  O   UNL     1     -10.086  17.764  69.329  1.00  0.00    -0.281 OA 
BRANCH  12  13
HETATM   13  C   UNL     1     -10.485  16.442  69.333  1.00  0.00    -0.309 A  
HETATM   14  C   UNL     1      -9.837  15.465  68.587  1.00  0.00    -0.208 A  
HETATM   15  C   UNL     1     -10.373  14.184  68.507  1.00  0.00    -0.249 A  
HETATM   16  C   UNL     1     -11.490  13.805  69.260  1.00  0.00    -0.293 A  
HETATM   17  C   UNL     1     -12.086  14.767  70.082  1.00  0.00    -0.382 A  
HETATM   18  C   UNL     1     -11.582  16.081  70.118  1.00  0.00    -0.324 A  
BRANCH  16  19
HETATM   19  N   UNL     1     -12.027  12.491  69.207  1.00  0.00    -0.281 N  
HETATM   20  H   UNL     1     -12.497  12.191  68.352  1.00  0.00     0.000 HD 
BRANCH  19  21
HETATM   21  C   UNL     1     -11.941  11.595  70.265  1.00  0.00    -0.358 C  
HETATM   22  O   UNL     1     -12.871  11.382  71.034  1.00  0.00    -0.347 OA 
BRANCH  21  23
HETATM   23  N   UNL     1     -10.711  10.974  70.383  1.00  0.00    -0.227 N  
HETATM   24  H   UNL     1      -9.908  11.537  70.664  1.00  0.00     0.000 HD 
BRANCH  23  25
HETATM   25  C   UNL     1     -10.509   9.581  70.129  1.00  0.00    -0.255 A  
HETATM   26  C   UNL     1     -10.411   9.051  68.837  1.00  0.00    -0.231 A  
HETATM   27  C   UNL     1     -10.320   7.671  68.585  1.00  0.00    -0.220 A  
HETATM   28  C   UNL     1     -10.318   7.180  67.163  1.00  0.00    -0.289 C  
HETATM   29  C   UNL     1     -10.257   6.811  69.677  1.00  0.00    -0.187 A  
HETATM   30  F   UNL     1     -11.345   6.326  66.891  1.00  0.00    -0.400 F  
HETATM   31  F   UNL     1      -9.173   6.520  66.829  1.00  0.00    -0.128 F  
HETATM   32  F   UNL     1     -10.433   8.179  66.239  1.00  0.00    -0.312 F  
HETATM   33 CL   UNL     1     -10.119   5.102  69.484  1.00  0.00    -0.301 Cl 
HETATM   34  C   UNL     1     -10.298   7.325  70.981  1.00  0.00    -0.208 A  
HETATM   35  C   UNL     1     -10.428   8.701  71.209  1.00  0.00    -0.311 A  
ENDBRANCH  23  25
ENDBRANCH  21  23
ENDBRANCH  19  21
ENDBRANCH  16  19
ENDBRANCH  12  13
ENDBRANCH  10  12
ENDBRANCH   3   6
TORSDOF 7
ENDMDL
MODEL       90
REMARK 921   NORMALIZED FREE ENERGY PREDICTED BY IDOCK:   -5.97 KCAL/MOL
REMARK 922        TOTAL FREE ENERGY PREDICTED BY IDOCK:  -10.26 KCAL/MOL
REMARK 923 INTER-LIGAND FREE ENERGY PREDICTED BY IDOCK:   -9.21 KCAL/MOL
REMARK 924 INTRA-LIGAND FREE ENERGY PREDICTED BY IDOCK:   -1.06 KCAL/MOL
REMARK 927      BINDING AFFINITY PREDICTED BY RF-SCORE:    0.00 PKD
ROOT
HETATM    1  C   UNL     1      -9.297   7.903  68.229  1.00  0.00    -0.143 C  
HETATM    2  N   UNL     1     -10.109   8.430  69.290  1.00  0.00    -0.197 N  
HETATM    3  C   UNL     1     -10.952   9.501  69.086  1.00  0.00    -0.125 C  
HETATM    4  H   UNL     1     -10.060   8.004  70.215  1.00  0.00     0.000 HD 
HETATM    5  O   UNL     1     -11.061  10.081  68.011  1.00  0.00    -0.266 OA 
ENDROOT
BRANCH   3   6
HETATM    6  C   UNL     1     -11.766   9.907  70.278  1.00  0.00    -0.216 A  
HETATM    7  N   UNL     1     -12.217   8.913  71.094  1.00  0.00    -0.282 NA 
HETATM    8  C   UNL     1     -13.004   9.299  72.123  1.00  0.00    -0.424 A  
HETATM    9  C   UNL     1     -13.397  10.612  72.354  1.00  0.00     0.032 A  
HETATM   10  C   UNL     1     -12.938  11.597  71.487  1.00  0.00    -0.358 A  
HETATM   11  C   UNL     1     -12.060  11.248  70.461  1.00  0.00    -0.481 A  
BRANCH  10  12
HETATM   12  O   UNL     1     -13.380  12.889  71.708  1.00  0.00    -0.420 OA 
BRANCH  12  13
HETATM   13  C   UNL     1     -12.650  13.925  71.160  1.00  0.00    -0.370 A  
HETATM   14  C   UNL     1     -12.618  14.174  69.793  1.00  0.00    -0.151 A  
HETATM   15  C   UNL     1     -11.749  15.132  69.283  1.00  0.00    -0.352 A  
HETATM   16  C   UNL     1     -10.981  15.950  70.119  1.00  0.00    -0.364 A  
HETATM   17  C   UNL     1     -11.085  15.760  71.500  1.00  0.00    -0.184 A  
HETATM   18  C   UNL     1     -11.919  14.750  72.018  1.00  0.00    -0.372 A  
BRANCH  16  19
HETATM   19  N   UNL     1     -10.111  16.950  69.607  1.00  0.00    -0.068 N  
HETATM   20  H   UNL     1      -9.471  17.416  70.251  1.00  0.00     0.000 HD 
BRANCH  19  21
HETATM   21  C   UNL     1     -10.092  17.323  68.268  1.00  0.00    -0.321 C  
HETATM   22  O   UNL     1     -10.869  18.143  67.795  1.00  0.00    -0.385 OA 
BRANCH  21  23
HETATM   23  N   UNL     1      -9.128  16.678  67.515  1.00  0.00    -0.201 N  
HETATM   24  H   UNL     1      -8.255  17.169  67.322  1.00  0.00     0.000 HD 
BRANCH  23  25
HETATM   25  C   UNL     1      -9.294  15.357  66.994  1.00  0.00    -0.224 A  
HETATM   26  C   UNL     1     -10.225  15.047  65.995  1.00  0.00    -0.318 A  
HETATM   27  C   UNL     1     -10.463  13.731  65.559  1.00  0.00    -0.327 A  
HETATM   28  C   UNL     1     -11.551  13.474  64.552  1.00  0.00    -0.381 C  
HETATM   29  C   UNL     1      -9.686  12.712  66.102  1.00  0.00    -0.251 A  
HETATM   30  F   UNL     1     -12.510  12.621  65.009  1.00  0.00    -0.471 F  
HETATM   31  F   UNL     1     -11.084  12.940  63.389  1.00  0.00    -0.450 F  
HETATM   32  F   UNL     1     -12.227  14.600  64.179  1.00  0.00    -0.478 F  
HETATM   33 CL   UNL     1      -9.877  11.067  65.622  1.00  0.00    -0.270 Cl 
HETATM   34  C   UNL     1      -8.710  13.009  67.065  1.00  0.00    -0.195 A  
HETATM   35  C   UNL     1      -8.516  14.322  67.514  1.00  0.00    -0.195 A  
ENDBRANCH  23  25
ENDBRANCH  21  23
ENDBRANCH  19  21
ENDBRANCH  16  19
ENDBRANCH  12  13
ENDBRANCH  10  12
ENDBRANCH   3   6
TORSDOF 7
ENDMDL
MODEL       91
REMARK 921   NORMALIZED FREE ENERGY PREDICTED BY IDOCK:   -5.97 KCAL/MOL
REMARK 922        TOTAL FREE ENERGY PREDICTED BY IDOCK:  -10.26 KCAL/MOL
REMARK 923 INTER-LIGAND FREE ENERGY PREDICTED BY IDOCK:   -9.30 KCAL/MOL
REMARK 924 INTRA-LIGAND FREE ENERGY PREDICTED BY IDOCK:   -0.96 KCAL/MOL
REMARK 927      BINDING AFFINITY PREDICTED BY RF-SCORE:    0.00 PKD
ROOT
HETATM    1  C   UNL     1      -6.538   7.469  68.901  1.00  0.00    -0.048 C  
HETATM    2  N   UNL     1      -7.703   7.773  69.685  1.00  0.00    -0.099 N  
HETATM    3  C   UNL     1      -8.125   6.940  70.699  1.00  0.00    -0.118 C  
HETATM    4  H   UNL     1      -8.230   8.623  69.487  1.00  0.00     0.000 HD 
HETATM    5  O   UNL     1      -7.559   5.893  70.994  1.00  0.00    -0.091 OA 
ENDROOT
BRANCH   3   6
HETATM    6  C   UNL     1      -9.330   7.416  71.455  1.00  0.00    -0.142 A  
HETATM    7  N   UNL     1      -9.443   7.025  72.755  1.00  0.00    -0.144 NA 
HETATM    8  C   UNL     1     -10.571   7.410  73.395  1.00  0.00    -0.377 A  
HETATM    9  C   UNL     1     -11.602   8.123  72.796  1.00  0.00    -0.371 A  
HETATM   10  C   UNL     1     -11.462   8.484  71.461  1.00  0.00    -0.287 A  
HETATM   11  C   UNL     1     -10.279   8.174  70.791  1.00  0.00    -0.215 A  
BRANCH  10  12
HETATM   12  O   UNL     1     -12.521   9.152  70.872  1.00  0.00    -0.230 OA 
BRANCH  12  13
HETATM   13  C   UNL     1     -12.551  10.529  70.968  1.00  0.00    -0.400 A  
HETATM   14  C   UNL     1     -13.169  11.190  72.024  1.00  0.00    -0.428 A  
HETATM   15  C   UNL     1     -13.303  12.573  71.992  1.00  0.00    -0.528 A  
HETATM   16  C   UNL     1     -12.723  13.346  70.980  1.00  0.00    -0.307 A  
HETATM   17  C   UNL     1     -12.022  12.684  69.968  1.00  0.00    -0.377 A  
HETATM   18  C   UNL     1     -11.936  11.279  69.964  1.00  0.00    -0.447 A  
BRANCH  16  19
HETATM   19  N   UNL     1     -12.831  14.763  70.955  1.00  0.00    -0.332 N  
HETATM   20  H   UNL     1     -13.538  15.187  70.354  1.00  0.00     0.000 HD 
BRANCH  19  21
HETATM   21  C   UNL     1     -12.018  15.597  71.713  1.00  0.00    -0.440 C  
HETATM   22  O   UNL     1     -11.734  15.367  72.881  1.00  0.00    -0.445 OA 
BRANCH  21  23
HETATM   23  N   UNL     1     -11.568  16.716  71.036  1.00  0.00    -0.487 N  
HETATM   24  H   UNL     1     -11.812  17.636  71.403  1.00  0.00     0.000 HD 
BRANCH  23  25
HETATM   25  C   UNL     1     -10.779  16.647  69.846  1.00  0.00    -0.202 A  
HETATM   26  C   UNL     1     -10.846  17.610  68.832  1.00  0.00     0.172 A  
HETATM   27  C   UNL     1     -10.150  17.487  67.617  1.00  0.00    -0.328 A  
HETATM   28  C   UNL     1     -10.356  18.519  66.542  1.00  0.00    -0.414 C  
HETATM   29  C   UNL     1      -9.310  16.390  67.454  1.00  0.00    -0.221 A  
HETATM   30  F   UNL     1     -10.828  17.991  65.377  1.00  0.00    -0.436 F  
HETATM   31  F   UNL     1      -9.214  19.190  66.223  1.00  0.00    -0.319 F  
HETATM   32  F   UNL     1     -11.254  19.490  66.881  1.00  0.00    -0.530 F  
HETATM   33 CL   UNL     1      -8.391  16.152  66.014  1.00  0.00    -0.221 Cl 
HETATM   34  C   UNL     1      -9.185  15.440  68.478  1.00  0.00    -0.198 A  
HETATM   35  C   UNL     1      -9.918  15.562  69.667  1.00  0.00    -0.287 A  
ENDBRANCH  23  25
ENDBRANCH  21  23
ENDBRANCH  19  21
ENDBRANCH  16  19
ENDBRANCH  12  13
ENDBRANCH  10  12
ENDBRANCH   3   6
TORSDOF 7
ENDMDL
MODEL       92
REMARK 921   NORMALIZED FREE ENERGY PREDICTED BY IDOCK:   -5.96 KCAL/MOL
REMARK 922        TOTAL FREE ENERGY PREDICTED BY IDOCK:  -10.24 KCAL/MOL
REMARK 923 INTER-LIGAND FREE ENERGY PREDICTED BY IDOCK:   -9.45 KCAL/MOL
REMARK 924 INTRA-LIGAND FREE ENERGY PREDICTED BY IDOCK:   -0.79 KCAL/MOL
REMARK 927      BINDING AFFINITY PREDICTED BY RF-SCORE:    0.00 PKD
ROOT
HETATM    1  C   UNL     1     -10.012   4.030  71.937  1.00  0.00    -0.176 C  
HETATM    2  N   UNL     1     -10.950   5.117  72.000  1.00  0.00    -0.133 N  
HETATM    3  C   UNL     1     -10.609   6.386  71.585  1.00  0.00    -0.222 C  
HETATM    4  H   UNL     1     -11.889   4.945  72.359  1.00  0.00     0.000 HD 
HETATM    5  O   UNL     1      -9.499   6.682  71.154  1.00  0.00    -0.163 OA 
ENDROOT
BRANCH   3   6
HETATM    6  C   UNL     1     -11.709   7.402  71.670  1.00  0.00    -0.279 A  
HETATM    7  N   UNL     1     -12.981   6.961  71.459  1.00  0.00    -0.347 NA 
HETATM    8  C   UNL     1     -13.947   7.907  71.475  1.00  0.00    -0.367 A  
HETATM    9  C   UNL     1     -13.706   9.264  71.646  1.00  0.00    -0.421 A  
HETATM   10  C   UNL     1     -12.393   9.680  71.834  1.00  0.00    -0.357 A  
HETATM   11  C   UNL     1     -11.379   8.726  71.903  1.00  0.00    -0.431 A  
BRANCH  10  12
HETATM   12  O   UNL     1     -12.172  11.041  71.955  1.00  0.00     0.013 OA 
BRANCH  12  13
HETATM   13  C   UNL     1     -12.191  11.804  70.804  1.00  0.00    -0.326 A  
HETATM   14  C   UNL     1     -11.857  11.284  69.559  1.00  0.00    -0.427 A  
HETATM   15  C   UNL     1     -11.744  12.130  68.462  1.00  0.00    -0.382 A  
HETATM   16  C   UNL     1     -12.077  13.487  68.541  1.00  0.00    -0.268 A  
HETATM   17  C   UNL     1     -12.502  13.988  69.775  1.00  0.00    -0.255 A  
HETATM   18  C   UNL     1     -12.559  13.147  70.903  1.00  0.00    -0.377 A  
BRANCH  16  19
HETATM   19  N   UNL     1     -11.992  14.353  67.418  1.00  0.00    -0.514 N  
HETATM   20  H   UNL     1     -12.560  15.201  67.412  1.00  0.00     0.000 HD 
BRANCH  19  21
HETATM   21  C   UNL     1     -11.169  14.099  66.327  1.00  0.00    -0.329 C  
HETATM   22  O   UNL     1     -11.509  13.389  65.389  1.00  0.00    -0.298 OA 
BRANCH  21  23
HETATM   23  N   UNL     1      -9.929  14.707  66.399  1.00  0.00    -0.271 N  
HETATM   24  H   UNL     1      -9.097  14.117  66.371  1.00  0.00     0.000 HD 
BRANCH  23  25
HETATM   25  C   UNL     1      -9.755  16.121  66.512  1.00  0.00    -0.263 A  
HETATM   26  C   UNL     1      -8.800  16.705  67.352  1.00  0.00    -0.198 A  
HETATM   27  C   UNL     1      -8.701  18.094  67.543  1.00  0.00    -0.249 A  
HETATM   28  C   UNL     1      -7.710  18.632  68.540  1.00  0.00    -0.316 C  
HETATM   29  C   UNL     1      -9.550  18.917  66.809  1.00  0.00    -0.324 A  
HETATM   30  F   UNL     1      -8.293  19.367  69.528  1.00  0.00    -0.253 F  
HETATM   31  F   UNL     1      -6.767  19.434  67.971  1.00  0.00    -0.240 F  
HETATM   32  F   UNL     1      -7.005  17.660  69.189  1.00  0.00    -0.239 F  
HETATM   33 CL   UNL     1      -9.498  20.635  66.946  1.00  0.00    -0.460 Cl 
HETATM   34  C   UNL     1     -10.478  18.355  65.920  1.00  0.00    -0.346 A  
HETATM   35  C   UNL     1     -10.586  16.965  65.773  1.00  0.00    -0.238 A  
ENDBRANCH  23  25
ENDBRANCH  21  23
ENDBRANCH  19  21
ENDBRANCH  16  19
ENDBRANCH  12  13
ENDBRANCH  10  12
ENDBRANCH   3   6
TORSDOF 7
ENDMDL
MODEL       93
REMARK 921   NORMALIZED FREE ENERGY PREDICTED BY IDOCK:   -5.96 KCAL/MOL
REMARK 922        TOTAL FREE ENERGY PREDICTED BY IDOCK:  -10.24 KCAL/MOL
REMARK 923 INTER-LIGAND FREE ENERGY PREDICTED BY IDOCK:   -9.23 KCAL/MOL
REMARK 924 INTRA-LIGAND FREE ENERGY PREDICTED BY IDOCK:   -1.01 KCAL/MOL
REMARK 927      BINDING AFFINITY PREDICTED BY RF-SCORE:    0.00 PKD
ROOT
HETATM    1  C   UNL     1      -5.156  20.914  68.437  1.00  0.00    -0.277 C  
HETATM    2  N   UNL     1      -6.293  20.290  67.820  1.00  0.00    -0.225 N  
HETATM    3  C   UNL     1      -7.333  19.787  68.572  1.00  0.00    -0.316 C  
HETATM    4  H   UNL     1      -6.332  20.217  66.804  1.00  0.00     0.000 HD 
HETATM    5  O   UNL     1      -7.360  19.819  69.798  1.00  0.00    -0.194 OA 
ENDROOT
BRANCH   3   6
HETATM    6  C   UNL     1      -8.467  19.205  67.782  1.00  0.00    -0.300 A  
HETATM    7  N   UNL     1      -8.853  19.875  66.660  1.00  0.00    -0.344 NA 
HETATM    8  C   UNL     1      -9.921  19.368  66.002  1.00  0.00    -0.367 A  
HETATM    9  C   UNL     1     -10.644  18.261  66.428  1.00  0.00    -0.318 A  
HETATM   10  C   UNL     1     -10.237  17.617  67.591  1.00  0.00    -0.351 A  
HETATM   11  C   UNL     1      -9.093  18.063  68.252  1.00  0.00    -0.284 A  
BRANCH  10  12
HETATM   12  O   UNL     1     -11.000  16.547  68.021  1.00  0.00    -0.352 OA 
BRANCH  12  13
HETATM   13  C   UNL     1     -10.867  15.347  67.351  1.00  0.00    -0.309 A  
HETATM   14  C   UNL     1      -9.703  14.992  66.680  1.00  0.00    -0.273 A  
HETATM   15  C   UNL     1      -9.677  13.844  65.896  1.00  0.00    -0.237 A  
HETATM   16  C   UNL     1     -10.758  12.955  65.855  1.00  0.00    -0.271 A  
HETATM   17  C   UNL     1     -11.895  13.269  66.605  1.00  0.00    -0.447 A  
HETATM   18  C   UNL     1     -11.947  14.461  67.353  1.00  0.00    -0.407 A  
BRANCH  16  19
HETATM   19  N   UNL     1     -10.729  11.766  65.078  1.00  0.00    -0.283 N  
HETATM   20  H   UNL     1     -11.475  11.608  64.400  1.00  0.00     0.000 HD 
BRANCH  19  21
HETATM   21  C   UNL     1      -9.731  10.807  65.201  1.00  0.00    -0.265 C  
HETATM   22  O   UNL     1      -9.305  10.165  64.248  1.00  0.00    -0.254 OA 
BRANCH  21  23
HETATM   23  N   UNL     1      -9.270  10.631  66.492  1.00  0.00    -0.163 N  
HETATM   24  H   UNL     1      -8.470  11.184  66.801  1.00  0.00     0.000 HD 
BRANCH  23  25
HETATM   25  C   UNL     1      -9.858   9.712  67.416  1.00  0.00    -0.171 A  
HETATM   26  C   UNL     1     -10.513  10.123  68.584  1.00  0.00    -0.225 A  
HETATM   27  C   UNL     1     -10.996   9.218  69.544  1.00  0.00    -0.169 A  
HETATM   28  C   UNL     1     -11.599   9.746  70.818  1.00  0.00    -0.339 C  
HETATM   29  C   UNL     1     -10.875   7.857  69.279  1.00  0.00    -0.064 A  
HETATM   30  F   UNL     1     -10.951   9.312  71.935  1.00  0.00    -0.411 F  
HETATM   31  F   UNL     1     -12.907   9.396  70.972  1.00  0.00    -0.340 F  
HETATM   32  F   UNL     1     -11.584  11.108  70.905  1.00  0.00    -0.383 F  
HETATM   33 CL   UNL     1     -11.455   6.659  70.376  1.00  0.00    -0.416 Cl 
HETATM   34  C   UNL     1     -10.271   7.423  68.090  1.00  0.00    -0.223 A  
HETATM   35  C   UNL     1      -9.761   8.343  67.163  1.00  0.00    -0.250 A  
ENDBRANCH  23  25
ENDBRANCH  21  23
ENDBRANCH  19  21
ENDBRANCH  16  19
ENDBRANCH  12  13
ENDBRANCH  10  12
ENDBRANCH   3   6
TORSDOF 7
ENDMDL
MODEL       94
REMARK 921   NORMALIZED FREE ENERGY PREDICTED BY IDOCK:   -5.95 KCAL/MOL
REMARK 922        TOTAL FREE ENERGY PREDICTED BY IDOCK:  -10.24 KCAL/MOL
REMARK 923 INTER-LIGAND FREE ENERGY PREDICTED BY IDOCK:   -8.77 KCAL/MOL
REMARK 924 INTRA-LIGAND FREE ENERGY PREDICTED BY IDOCK:   -1.47 KCAL/MOL
REMARK 927      BINDING AFFINITY PREDICTED BY RF-SCORE:    0.00 PKD
ROOT
HETATM    1  C   UNL     1     -13.817  14.372  72.328  1.00  0.00    -0.491 C  
HETATM    2  N   UNL     1     -13.710  12.940  72.280  1.00  0.00    -0.526 N  
HETATM    3  C   UNL     1     -12.857  12.312  71.399  1.00  0.00    -0.271 C  
HETATM    4  H   UNL     1     -14.278  12.376  72.912  1.00  0.00     0.000 HD 
HETATM    5  O   UNL     1     -12.151  12.912  70.596  1.00  0.00    -0.349 OA 
ENDROOT
BRANCH   3   6
HETATM    6  C   UNL     1     -12.825  10.816  71.499  1.00  0.00    -0.462 A  
HETATM    7  N   UNL     1     -13.751  10.226  72.306  1.00  0.00    -0.131 NA 
HETATM    8  C   UNL     1     -13.659   8.883  72.433  1.00  0.00    -0.447 A  
HETATM    9  C   UNL     1     -12.673   8.109  71.834  1.00  0.00    -0.361 A  
HETATM   10  C   UNL     1     -11.731   8.748  71.037  1.00  0.00    -0.282 A  
HETATM   11  C   UNL     1     -11.840  10.121  70.819  1.00  0.00    -0.443 A  
BRANCH  10  12
HETATM   12  O   UNL     1     -10.730   7.965  70.489  1.00  0.00    -0.224 OA 
BRANCH  12  13
HETATM   13  C   UNL     1      -9.617   8.601  69.977  1.00  0.00    -0.170 A  
HETATM   14  C   UNL     1      -8.560   9.015  70.779  1.00  0.00    -0.259 A  
HETATM   15  C   UNL     1      -7.537   9.785  70.235  1.00  0.00    -0.184 A  
HETATM   16  C   UNL     1      -7.471  10.060  68.865  1.00  0.00    -0.083 A  
HETATM   17  C   UNL     1      -8.490   9.563  68.046  1.00  0.00    -0.119 A  
HETATM   18  C   UNL     1      -9.558   8.834  68.602  1.00  0.00    -0.159 A  
BRANCH  16  19
HETATM   19  N   UNL     1      -6.416  10.822  68.297  1.00  0.00    -0.057 N  
HETATM   20  H   UNL     1      -5.466  10.669  68.638  1.00  0.00     0.000 HD 
BRANCH  19  21
HETATM   21  C   UNL     1      -6.617  11.767  67.298  1.00  0.00    -0.132 C  
HETATM   22  O   UNL     1      -6.208  11.622  66.153  1.00  0.00    -0.027 OA 
BRANCH  21  23
HETATM   23  N   UNL     1      -7.308  12.891  67.713  1.00  0.00    -0.119 N  
HETATM   24  H   UNL     1      -7.042  13.325  68.596  1.00  0.00     0.000 HD 
BRANCH  23  25
HETATM   25  C   UNL     1      -8.378  13.473  66.965  1.00  0.00    -0.080 A  
HETATM   26  C   UNL     1      -9.357  12.709  66.318  1.00  0.00    -0.162 A  
HETATM   27  C   UNL     1     -10.346  13.276  65.495  1.00  0.00    -0.298 A  
HETATM   28  C   UNL     1     -11.299  12.374  64.759  1.00  0.00    -0.315 C  
HETATM   29  C   UNL     1     -10.384  14.662  65.381  1.00  0.00    -0.383 A  
HETATM   30  F   UNL     1     -11.248  12.533  63.407  1.00  0.00    -0.454 F  
HETATM   31  F   UNL     1     -12.599  12.567  65.119  1.00  0.00    -0.514 F  
HETATM   32  F   UNL     1     -11.066  11.045  64.970  1.00  0.00    -0.291 F  
HETATM   33 CL   UNL     1     -11.569  15.466  64.418  1.00  0.00    -0.335 Cl 
HETATM   34  C   UNL     1      -9.446  15.451  66.064  1.00  0.00    -0.381 A  
HETATM   35  C   UNL     1      -8.445  14.862  66.848  1.00  0.00    -0.255 A  
ENDBRANCH  23  25
ENDBRANCH  21  23
ENDBRANCH  19  21
ENDBRANCH  16  19
ENDBRANCH  12  13
ENDBRANCH  10  12
ENDBRANCH   3   6
TORSDOF 7
ENDMDL
MODEL       95
REMARK 921   NORMALIZED FREE ENERGY PREDICTED BY IDOCK:   -5.94 KCAL/MOL
REMARK 922        TOTAL FREE ENERGY PREDICTED BY IDOCK:  -10.22 KCAL/MOL
REMARK 923 INTER-LIGAND FREE ENERGY PREDICTED BY IDOCK:   -8.07 KCAL/MOL
REMARK 924 INTRA-LIGAND FREE ENERGY PREDICTED BY IDOCK:   -2.15 KCAL/MOL
REMARK 927      BINDING AFFINITY PREDICTED BY RF-SCORE:    0.00 PKD
ROOT
HETATM    1  C   UNL     1     -10.318  18.284  66.145  1.00  0.00    -0.398 C  
HETATM    2  N   UNL     1      -9.164  17.578  66.627  1.00  0.00    -0.255 N  
HETATM    3  C   UNL     1      -8.991  17.313  67.968  1.00  0.00    -0.242 C  
HETATM    4  H   UNL     1      -8.457  17.265  65.962  1.00  0.00     0.000 HD 
HETATM    5  O   UNL     1      -9.784  17.665  68.835  1.00  0.00    -0.300 OA 
ENDROOT
BRANCH   3   6
HETATM    6  C   UNL     1      -7.759  16.528  68.309  1.00  0.00    -0.176 A  
HETATM    7  N   UNL     1      -6.871  17.105  69.166  1.00  0.00    -0.237 NA 
HETATM    8  C   UNL     1      -5.737  16.408  69.405  1.00  0.00    -0.149 A  
HETATM    9  C   UNL     1      -5.428  15.194  68.805  1.00  0.00    -0.091 A  
HETATM   10  C   UNL     1      -6.347  14.646  67.918  1.00  0.00    -0.159 A  
HETATM   11  C   UNL     1      -7.562  15.297  67.706  1.00  0.00    -0.171 A  
BRANCH  10  12
HETATM   12  O   UNL     1      -5.998  13.461  67.296  1.00  0.00    -0.341 OA 
BRANCH  12  13
HETATM   13  C   UNL     1      -6.769  12.344  67.552  1.00  0.00    -0.146 A  
HETATM   14  C   UNL     1      -7.088  11.938  68.842  1.00  0.00    -0.110 A  
HETATM   15  C   UNL     1      -7.736  10.724  69.046  1.00  0.00    -0.133 A  
HETATM   16  C   UNL     1      -8.193   9.945  67.977  1.00  0.00    -0.113 A  
HETATM   17  C   UNL     1      -7.951  10.403  66.679  1.00  0.00    -0.120 A  
HETATM   18  C   UNL     1      -7.242  11.601  66.468  1.00  0.00     0.048 A  
BRANCH  16  19
HETATM   19  N   UNL     1      -8.881   8.718  68.177  1.00  0.00    -0.141 N  
HETATM   20  H   UNL     1      -8.384   7.948  68.627  1.00  0.00     0.000 HD 
BRANCH  19  21
HETATM   21  C   UNL     1     -10.200   8.517  67.788  1.00  0.00    -0.225 C  
HETATM   22  O   UNL     1     -10.513   7.815  66.836  1.00  0.00    -0.319 OA 
BRANCH  21  23
HETATM   23  N   UNL     1     -11.127   9.191  68.563  1.00  0.00    -0.458 N  
HETATM   24  H   UNL     1     -11.674   8.657  69.239  1.00  0.00     0.000 HD 
BRANCH  23  25
HETATM   25  C   UNL     1     -11.356  10.598  68.464  1.00  0.00    -0.284 A  
HETATM   26  C   UNL     1     -11.382  11.279  67.241  1.00  0.00    -0.329 A  
HETATM   27  C   UNL     1     -11.501  12.677  67.150  1.00  0.00    -0.406 A  
HETATM   28  C   UNL     1     -11.421  13.338  65.801  1.00  0.00    -0.323 C  
HETATM   29  C   UNL     1     -11.668  13.396  68.330  1.00  0.00    -0.355 A  
HETATM   30  F   UNL     1     -10.406  14.243  65.709  1.00  0.00    -0.279 F  
HETATM   31  F   UNL     1     -12.561  14.005  65.467  1.00  0.00    -0.432 F  
HETATM   32  F   UNL     1     -11.210  12.462  64.775  1.00  0.00    -0.315 F  
HETATM   33 CL   UNL     1     -11.848  15.112  68.334  1.00  0.00    -0.330 Cl 
HETATM   34  C   UNL     1     -11.700  12.728  69.563  1.00  0.00    -0.383 A  
HETATM   35  C   UNL     1     -11.541  11.338  69.633  1.00  0.00    -0.401 A  
ENDBRANCH  23  25
ENDBRANCH  21  23
ENDBRANCH  19  21
ENDBRANCH  16  19
ENDBRANCH  12  13
ENDBRANCH  10  12
ENDBRANCH   3   6
TORSDOF 7
ENDMDL
MODEL       96
REMARK 921   NORMALIZED FREE ENERGY PREDICTED BY IDOCK:   -5.93 KCAL/MOL
REMARK 922        TOTAL FREE ENERGY PREDICTED BY IDOCK:  -10.20 KCAL/MOL
REMARK 923 INTER-LIGAND FREE ENERGY PREDICTED BY IDOCK:   -8.84 KCAL/MOL
REMARK 924 INTRA-LIGAND FREE ENERGY PREDICTED BY IDOCK:   -1.36 KCAL/MOL
REMARK 927      BINDING AFFINITY PREDICTED BY RF-SCORE:    0.00 PKD
ROOT
HETATM    1  C   UNL     1      -7.973   7.389  70.681  1.00  0.00    -0.098 C  
HETATM    2  N   UNL     1      -9.296   7.897  70.917  1.00  0.00    -0.152 N  
HETATM    3  C   UNL     1     -10.348   7.055  71.210  1.00  0.00    -0.202 C  
HETATM    4  H   UNL     1      -9.461   8.902  70.867  1.00  0.00     0.000 HD 
HETATM    5  O   UNL     1     -10.240   5.835  71.275  1.00  0.00    -0.200 OA 
ENDROOT
BRANCH   3   6
HETATM    6  C   UNL     1     -11.656   7.738  71.475  1.00  0.00    -0.270 A  
HETATM    7  N   UNL     1     -12.789   6.999  71.311  1.00  0.00    -0.367 NA 
HETATM    8  C   UNL     1     -13.958   7.656  71.489  1.00  0.00    -0.397 A  
HETATM    9  C   UNL     1     -14.054   9.010  71.780  1.00  0.00    -0.377 A  
HETATM   10  C   UNL     1     -12.878   9.739  71.916  1.00  0.00    -0.427 A  
HETATM   11  C   UNL     1     -11.653   9.080  71.817  1.00  0.00    -0.444 A  
BRANCH  10  12
HETATM   12  O   UNL     1     -12.999  11.095  72.158  1.00  0.00    -0.399 OA 
BRANCH  12  13
HETATM   13  C   UNL     1     -12.654  11.967  71.144  1.00  0.00    -0.288 A  
HETATM   14  C   UNL     1     -12.745  13.347  71.283  1.00  0.00    -0.424 A  
HETATM   15  C   UNL     1     -12.533  14.170  70.182  1.00  0.00    -0.391 A  
HETATM   16  C   UNL     1     -12.106  13.659  68.952  1.00  0.00    -0.300 A  
HETATM   17  C   UNL     1     -11.926  12.276  68.841  1.00  0.00    -0.300 A  
HETATM   18  C   UNL     1     -12.198  11.434  69.936  1.00  0.00    -0.346 A  
BRANCH  16  19
HETATM   19  N   UNL     1     -11.860  14.495  67.830  1.00  0.00    -0.459 N  
HETATM   20  H   UNL     1     -11.727  15.495  67.988  1.00  0.00     0.000 HD 
BRANCH  19  21
HETATM   21  C   UNL     1     -11.790  14.015  66.528  1.00  0.00    -0.417 C  
HETATM   22  O   UNL     1     -12.783  13.716  65.876  1.00  0.00    -0.450 OA 
BRANCH  21  23
HETATM   23  N   UNL     1     -10.503  13.891  66.038  1.00  0.00    -0.291 N  
HETATM   24  H   UNL     1     -10.188  14.554  65.330  1.00  0.00     0.000 HD 
BRANCH  23  25
HETATM   25  C   UNL     1      -9.592  12.880  66.476  1.00  0.00    -0.259 A  
HETATM   26  C   UNL     1      -9.801  11.516  66.243  1.00  0.00    -0.245 A  
HETATM   27  C   UNL     1      -8.962  10.516  66.765  1.00  0.00    -0.149 A  
HETATM   28  C   UNL     1      -9.315   9.070  66.549  1.00  0.00    -0.191 C  
HETATM   29  C   UNL     1      -7.840  10.916  67.485  1.00  0.00    -0.114 A  
HETATM   30  F   UNL     1      -9.486   8.382  67.713  1.00  0.00    -0.147 F  
HETATM   31  F   UNL     1      -8.371   8.392  65.838  1.00  0.00    -0.106 F  
HETATM   32  F   UNL     1     -10.478   8.889  65.857  1.00  0.00    -0.241 F  
HETATM   33 CL   UNL     1      -6.730   9.775  68.150  1.00  0.00    -0.061 Cl 
HETATM   34  C   UNL     1      -7.581  12.280  67.685  1.00  0.00    -0.144 A  
HETATM   35  C   UNL     1      -8.452  13.259  67.188  1.00  0.00    -0.182 A  
ENDBRANCH  23  25
ENDBRANCH  21  23
ENDBRANCH  19  21
ENDBRANCH  16  19
ENDBRANCH  12  13
ENDBRANCH  10  12
ENDBRANCH   3   6
TORSDOF 7
ENDMDL
MODEL       97
REMARK 921   NORMALIZED FREE ENERGY PREDICTED BY IDOCK:   -5.90 KCAL/MOL
REMARK 922        TOTAL FREE ENERGY PREDICTED BY IDOCK:  -10.16 KCAL/MOL
REMARK 923 INTER-LIGAND FREE ENERGY PREDICTED BY IDOCK:   -9.30 KCAL/MOL
REMARK 924 INTRA-LIGAND FREE ENERGY PREDICTED BY IDOCK:   -0.86 KCAL/MOL
REMARK 927      BINDING AFFINITY PREDICTED BY RF-SCORE:    0.00 PKD
ROOT
HETATM    1  C   UNL     1      -8.215  18.214  66.302  1.00  0.00    -0.212 C  
HETATM    2  N   UNL     1      -9.085  17.393  67.098  1.00  0.00    -0.232 N  
HETATM    3  C   UNL     1     -10.049  16.596  66.520  1.00  0.00    -0.305 C  
HETATM    4  H   UNL     1      -8.987  17.401  68.113  1.00  0.00     0.000 HD 
HETATM    5  O   UNL     1     -10.245  16.538  65.311  1.00  0.00    -0.588 OA 
ENDROOT
BRANCH   3   6
HETATM    6  C   UNL     1     -10.848  15.765  67.480  1.00  0.00    -0.315 A  
HETATM    7  N   UNL     1     -11.154  16.325  68.684  1.00  0.00    -0.342 NA 
HETATM    8  C   UNL     1     -11.816  15.532  69.557  1.00  0.00    -0.372 A  
HETATM    9  C   UNL     1     -12.149  14.207  69.308  1.00  0.00    -0.364 A  
HETATM   10  C   UNL     1     -11.799  13.661  68.078  1.00  0.00    -0.362 A  
HETATM   11  C   UNL     1     -11.186  14.470  67.122  1.00  0.00    -0.341 A  
BRANCH  10  12
HETATM   12  O   UNL     1     -12.097  12.326  67.871  1.00  0.00    -0.466 OA 
BRANCH  12  13
HETATM   13  C   UNL     1     -11.729  11.422  68.847  1.00  0.00    -0.343 A  
HETATM   14  C   UNL     1     -12.528  11.149  69.951  1.00  0.00    -0.257 A  
HETATM   15  C   UNL     1     -12.042  10.348  70.978  1.00  0.00    -0.488 A  
HETATM   16  C   UNL     1     -10.806   9.698  70.884  1.00  0.00    -0.339 A  
HETATM   17  C   UNL     1     -10.044   9.901  69.729  1.00  0.00    -0.274 A  
HETATM   18  C   UNL     1     -10.506  10.760  68.714  1.00  0.00    -0.221 A  
BRANCH  16  19
HETATM   19  N   UNL     1     -10.314   8.855  71.916  1.00  0.00    -0.342 N  
HETATM   20  H   UNL     1      -9.464   9.132  72.408  1.00  0.00     0.000 HD 
BRANCH  19  21
HETATM   21  C   UNL     1     -10.939   7.670  72.288  1.00  0.00    -0.279 C  
HETATM   22  O   UNL     1     -10.837   7.188  73.409  1.00  0.00    -0.351 OA 
BRANCH  21  23
HETATM   23  N   UNL     1     -11.674   7.078  71.278  1.00  0.00    -0.298 N  
HETATM   24  H   UNL     1     -12.680   7.247  71.246  1.00  0.00     0.000 HD 
BRANCH  23  25
HETATM   25  C   UNL     1     -11.095   6.239  70.275  1.00  0.00    -0.364 A  
HETATM   26  C   UNL     1     -10.336   5.103  70.581  1.00  0.00    -0.305 A  
HETATM   27  C   UNL     1      -9.678   4.340  69.600  1.00  0.00    -0.284 A  
HETATM   28  C   UNL     1      -8.802   3.192  70.024  1.00  0.00    -0.088 C  
HETATM   29  C   UNL     1      -9.853   4.700  68.267  1.00  0.00    -0.103 A  
HETATM   30  F   UNL     1      -7.510   3.327  69.611  1.00  0.00    -0.044 F  
HETATM   31  F   UNL     1      -9.234   1.991  69.549  1.00  0.00    -0.132 F  
HETATM   32  F   UNL     1      -8.727   3.033  71.378  1.00  0.00    -0.083 F  
HETATM   33 CL   UNL     1      -9.113   3.820  66.981  1.00  0.00    -0.162 Cl 
HETATM   34  C   UNL     1     -10.654   5.802  67.935  1.00  0.00    -0.304 A  
HETATM   35  C   UNL     1     -11.269   6.572  68.931  1.00  0.00    -0.341 A  
ENDBRANCH  23  25
ENDBRANCH  21  23
ENDBRANCH  19  21
ENDBRANCH  16  19
ENDBRANCH  12  13
ENDBRANCH  10  12
ENDBRANCH   3   6
TORSDOF 7
ENDMDL
MODEL       98
REMARK 921   NORMALIZED FREE ENERGY PREDICTED BY IDOCK:   -5.89 KCAL/MOL
REMARK 922        TOTAL FREE ENERGY PREDICTED BY IDOCK:  -10.15 KCAL/MOL
REMARK 923 INTER-LIGAND FREE ENERGY PREDICTED BY IDOCK:   -8.37 KCAL/MOL
REMARK 924 INTRA-LIGAND FREE ENERGY PREDICTED BY IDOCK:   -1.78 KCAL/MOL
REMARK 927      BINDING AFFINITY PREDICTED BY RF-SCORE:    0.00 PKD
ROOT
HETATM    1  C   UNL     1     -12.969  16.019  73.823  1.00  0.00    -0.505 C  
HETATM    2  N   UNL     1     -12.731  14.819  73.071  1.00  0.00    -0.439 N  
HETATM    3  C   UNL     1     -13.098  14.716  71.746  1.00  0.00    -0.341 C  
HETATM    4  H   UNL     1     -12.280  14.026  73.526  1.00  0.00     0.000 HD 
HETATM    5  O   UNL     1     -13.657  15.615  71.127  1.00  0.00    -0.582 OA 
ENDROOT
BRANCH   3   6
HETATM    6  C   UNL     1     -12.743  13.417  71.086  1.00  0.00    -0.328 A  
HETATM    7  N   UNL     1     -12.129  13.484  69.871  1.00  0.00    -0.344 NA 
HETATM    8  C   UNL     1     -11.880  12.301  69.265  1.00  0.00    -0.306 A  
HETATM    9  C   UNL     1     -12.247  11.067  69.786  1.00  0.00    -0.388 A  
HETATM   10  C   UNL     1     -12.893  11.038  71.016  1.00  0.00    -0.346 A  
HETATM   11  C   UNL     1     -13.096  12.232  71.708  1.00  0.00    -0.449 A  
BRANCH  10  12
HETATM   12  O   UNL     1     -13.291   9.802  71.493  1.00  0.00    -0.378 OA 
BRANCH  12  13
HETATM   13  C   UNL     1     -12.337   8.809  71.593  1.00  0.00    -0.337 A  
HETATM   14  C   UNL     1     -11.051   9.054  72.061  1.00  0.00    -0.371 A  
HETATM   15  C   UNL     1     -10.087   8.054  71.996  1.00  0.00    -0.280 A  
HETATM   16  C   UNL     1     -10.401   6.754  71.585  1.00  0.00    -0.196 A  
HETATM   17  C   UNL     1     -11.719   6.486  71.203  1.00  0.00    -0.392 A  
HETATM   18  C   UNL     1     -12.684   7.512  71.209  1.00  0.00    -0.339 A  
BRANCH  16  19
HETATM   19  N   UNL     1      -9.429   5.719  71.544  1.00  0.00    -0.150 N  
HETATM   20  H   UNL     1      -9.426   5.022  72.289  1.00  0.00     0.000 HD 
BRANCH  19  21
HETATM   21  C   UNL     1      -8.480   5.612  70.533  1.00  0.00    -0.121 C  
HETATM   22  O   UNL     1      -7.277   5.704  70.739  1.00  0.00    -0.073 OA 
BRANCH  21  23
HETATM   23  N   UNL     1      -9.015   5.405  69.275  1.00  0.00    -0.103 N  
HETATM   24  H   UNL     1      -9.506   4.530  69.094  1.00  0.00     0.000 HD 
BRANCH  23  25
HETATM   25  C   UNL     1      -8.914   6.359  68.214  1.00  0.00    -0.116 A  
HETATM   26  C   UNL     1      -8.896   7.741  68.435  1.00  0.00    -0.130 A  
HETATM   27  C   UNL     1      -8.904   8.679  67.387  1.00  0.00    -0.140 A  
HETATM   28  C   UNL     1      -8.984  10.146  67.713  1.00  0.00    -0.128 C  
HETATM   29  C   UNL     1      -8.859   8.201  66.081  1.00  0.00    -0.162 A  
HETATM   30  F   UNL     1     -10.074  10.755  67.166  1.00  0.00    -0.205 F  
HETATM   31  F   UNL     1      -7.897  10.846  67.282  1.00  0.00    -0.105 F  
HETATM   32  F   UNL     1      -9.066  10.406  69.050  1.00  0.00    -0.148 F  
HETATM   33 CL   UNL     1      -8.840   9.262  64.722  1.00  0.00    -0.230 Cl 
HETATM   34  C   UNL     1      -8.821   6.820  65.839  1.00  0.00    -0.127 A  
HETATM   35  C   UNL     1      -8.853   5.901  66.897  1.00  0.00    -0.115 A  
ENDBRANCH  23  25
ENDBRANCH  21  23
ENDBRANCH  19  21
ENDBRANCH  16  19
ENDBRANCH  12  13
ENDBRANCH  10  12
ENDBRANCH   3   6
TORSDOF 7
ENDMDL
MODEL       99
REMARK 921   NORMALIZED FREE ENERGY PREDICTED BY IDOCK:   -5.88 KCAL/MOL
REMARK 922        TOTAL FREE ENERGY PREDICTED BY IDOCK:  -10.13 KCAL/MOL
REMARK 923 INTER-LIGAND FREE ENERGY PREDICTED BY IDOCK:   -9.46 KCAL/MOL
REMARK 924 INTRA-LIGAND FREE ENERGY PREDICTED BY IDOCK:   -0.67 KCAL/MOL
REMARK 927      BINDING AFFINITY PREDICTED BY RF-SCORE:    0.00 PKD
ROOT
HETATM    1  C   UNL     1      -9.955  19.770  69.280  1.00  0.00    -0.235 C  
HETATM    2  N   UNL     1     -10.003  18.450  68.715  1.00  0.00    -0.381 N  
HETATM    3  C   UNL     1     -10.294  18.249  67.383  1.00  0.00    -0.392 C  
HETATM    4  H   UNL     1      -9.816  17.645  69.312  1.00  0.00     0.000 HD 
HETATM    5  O   UNL     1     -10.545  19.159  66.600  1.00  0.00    -0.408 OA 
ENDROOT
BRANCH   3   6
HETATM    6  C   UNL     1     -10.262  16.819  66.933  1.00  0.00    -0.290 A  
HETATM    7  N   UNL     1      -9.293  16.468  66.041  1.00  0.00    -0.434 NA 
HETATM    8  C   UNL     1      -9.326  15.191  65.599  1.00  0.00    -0.061 A  
HETATM    9  C   UNL     1     -10.294  14.264  65.967  1.00  0.00    -0.318 A  
HETATM   10  C   UNL     1     -11.281  14.664  66.860  1.00  0.00    -0.343 A  
HETATM   11  C   UNL     1     -11.234  15.949  67.398  1.00  0.00    -0.134 A  
BRANCH  10  12
HETATM   12  O   UNL     1     -12.261  13.739  67.174  1.00  0.00    -0.391 OA 
BRANCH  12  13
HETATM   13  C   UNL     1     -11.993  12.827  68.176  1.00  0.00    -0.246 A  
HETATM   14  C   UNL     1     -11.622  11.515  67.910  1.00  0.00    -0.352 A  
HETATM   15  C   UNL     1     -11.513  10.600  68.951  1.00  0.00    -0.334 A  
HETATM   16  C   UNL     1     -11.648  10.988  70.289  1.00  0.00    -0.322 A  
HETATM   17  C   UNL     1     -11.931  12.330  70.559  1.00  0.00    -0.296 A  
HETATM   18  C   UNL     1     -12.101  13.247  69.504  1.00  0.00    -0.315 A  
BRANCH  16  19
HETATM   19  N   UNL     1     -11.511  10.065  71.361  1.00  0.00    -0.328 N  
HETATM   20  H   UNL     1     -10.597   9.964  71.803  1.00  0.00     0.000 HD 
BRANCH  19  21
HETATM   21  C   UNL     1     -12.565   9.293  71.834  1.00  0.00    -0.390 C  
HETATM   22  O   UNL     1     -13.739   9.575  71.631  1.00  0.00    -0.357 OA 
BRANCH  21  23
HETATM   23  N   UNL     1     -12.173   8.186  72.565  1.00  0.00    -0.550 N  
HETATM   24  H   UNL     1     -12.342   8.184  73.571  1.00  0.00     0.000 HD 
BRANCH  23  25
HETATM   25  C   UNL     1     -11.541   7.045  71.979  1.00  0.00    -0.285 A  
HETATM   26  C   UNL     1     -11.223   5.894  72.711  1.00  0.00    -0.317 A  
HETATM   27  C   UNL     1     -10.507   4.816  72.162  1.00  0.00    -0.243 A  
HETATM   28  C   UNL     1     -10.121   3.661  73.045  1.00  0.00    -0.152 C  
HETATM   29  C   UNL     1     -10.165   4.879  70.814  1.00  0.00    -0.206 A  
HETATM   30  F   UNL     1      -8.775   3.458  73.100  1.00  0.00    -0.079 F  
HETATM   31  F   UNL     1     -10.671   2.480  72.646  1.00  0.00    -0.231 F  
HETATM   32  F   UNL     1     -10.511   3.813  74.344  1.00  0.00    -0.197 F  
HETATM   33 CL   UNL     1      -9.309   3.602  70.031  1.00  0.00    -0.232 Cl 
HETATM   34  C   UNL     1     -10.522   5.998  70.049  1.00  0.00    -0.313 A  
HETATM   35  C   UNL     1     -11.202   7.079  70.626  1.00  0.00    -0.327 A  
ENDBRANCH  23  25
ENDBRANCH  21  23
ENDBRANCH  19  21
ENDBRANCH  16  19
ENDBRANCH  12  13
ENDBRANCH  10  12
ENDBRANCH   3   6
TORSDOF 7
ENDMDL
MODEL      100
REMARK 921   NORMALIZED FREE ENERGY PREDICTED BY IDOCK:   -5.85 KCAL/MOL
REMARK 922        TOTAL FREE ENERGY PREDICTED BY IDOCK:  -10.09 KCAL/MOL
REMARK 923 INTER-LIGAND FREE ENERGY PREDICTED BY IDOCK:   -8.77 KCAL/MOL
REMARK 924 INTRA-LIGAND FREE ENERGY PREDICTED BY IDOCK:   -1.32 KCAL/MOL
REMARK 927      BINDING AFFINITY PREDICTED BY RF-SCORE:    0.00 PKD
ROOT
HETATM    1  C   UNL     1     -13.301   9.055  72.284  1.00  0.00    -0.467 C  
HETATM    2  N   UNL     1     -13.285  10.486  72.161  1.00  0.00    -0.573 N  
HETATM    3  C   UNL     1     -12.646  11.111  71.112  1.00  0.00    -0.409 C  
HETATM    4  H   UNL     1     -13.757  11.052  72.866  1.00  0.00     0.000 HD 
HETATM    5  O   UNL     1     -12.043  10.508  70.231  1.00  0.00    -0.282 OA 
ENDROOT
BRANCH   3   6
HETATM    6  C   UNL     1     -12.756  12.607  71.099  1.00  0.00    -0.254 A  
HETATM    7  N   UNL     1     -13.570  13.180  72.029  1.00  0.00    -0.487 NA 
HETATM    8  C   UNL     1     -13.705  14.523  71.954  1.00  0.00    -0.428 A  
HETATM    9  C   UNL     1     -13.107  15.313  70.980  1.00  0.00    -0.544 A  
HETATM   10  C   UNL     1     -12.302  14.691  70.033  1.00  0.00    -0.315 A  
HETATM   11  C   UNL     1     -12.076  13.319  70.125  1.00  0.00    -0.403 A  
BRANCH  10  12
HETATM   12  O   UNL     1     -11.756  15.491  69.044  1.00  0.00    -0.346 OA 
BRANCH  12  13
HETATM   13  C   UNL     1     -11.362  14.886  67.867  1.00  0.00    -0.327 A  
HETATM   14  C   UNL     1     -12.270  14.328  66.974  1.00  0.00    -0.338 A  
HETATM   15  C   UNL     1     -11.810  13.599  65.883  1.00  0.00    -0.406 A  
HETATM   16  C   UNL     1     -10.447  13.508  65.579  1.00  0.00    -0.299 A  
HETATM   17  C   UNL     1      -9.541  14.149  66.429  1.00  0.00    -0.310 A  
HETATM   18  C   UNL     1      -9.999  14.837  67.569  1.00  0.00    -0.219 A  
BRANCH  16  19
HETATM   19  N   UNL     1      -9.971  12.789  64.451  1.00  0.00    -0.593 N  
HETATM   20  H   UNL     1      -9.778  13.303  63.591  1.00  0.00     0.000 HD 
BRANCH  19  21
HETATM   21  C   UNL     1      -9.757  11.416  64.464  1.00  0.00    -0.233 C  
HETATM   22  O   UNL     1     -10.670  10.600  64.459  1.00  0.00    -0.236 OA 
BRANCH  21  23
HETATM   23  N   UNL     1      -8.423  11.051  64.495  1.00  0.00    -0.372 N  
HETATM   24  H   UNL     1      -7.857  11.211  63.662  1.00  0.00     0.000 HD 
BRANCH  23  25
HETATM   25  C   UNL     1      -7.799  10.462  65.638  1.00  0.00    -0.154 A  
HETATM   26  C   UNL     1      -7.721   9.077  65.832  1.00  0.00    -0.094 A  
HETATM   27  C   UNL     1      -7.203   8.500  67.005  1.00  0.00    -0.079 A  
HETATM   28  C   UNL     1      -7.247   7.006  67.172  1.00  0.00    -0.089 C  
HETATM   29  C   UNL     1      -6.687   9.350  67.978  1.00  0.00    -0.063 A  
HETATM   30  F   UNL     1      -7.950   6.612  68.272  1.00  0.00    -0.104 F  
HETATM   31  F   UNL     1      -6.011   6.447  67.288  1.00  0.00    -0.017 F  
HETATM   32  F   UNL     1      -7.834   6.355  66.125  1.00  0.00    -0.092 F  
HETATM   33 CL   UNL     1      -6.005   8.750  69.444  1.00  0.00    -0.037 Cl 
HETATM   34  C   UNL     1      -6.705  10.739  67.780  1.00  0.00    -0.068 A  
HETATM   35  C   UNL     1      -7.261  11.295  66.620  1.00  0.00    -0.126 A  
ENDBRANCH  23  25
ENDBRANCH  21  23
ENDBRANCH  19  21
ENDBRANCH  16  19
ENDBRANCH  12  13
ENDBRANCH  10  12
ENDBRANCH   3   6
TORSDOF 7
ENDMDL
MODEL      101
REMARK 921   NORMALIZED FREE ENERGY PREDICTED BY IDOCK:   -5.83 KCAL/MOL
REMARK 922        TOTAL FREE ENERGY PREDICTED BY IDOCK:  -10.07 KCAL/MOL
REMARK 923 INTER-LIGAND FREE ENERGY PREDICTED BY IDOCK:   -8.74 KCAL/MOL
REMARK 924 INTRA-LIGAND FREE ENERGY PREDICTED BY IDOCK:   -1.33 KCAL/MOL
REMARK 927      BINDING AFFINITY PREDICTED BY RF-SCORE:    0.00 PKD
ROOT
HETATM    1  C   UNL     1      -9.752  19.893  66.702  1.00  0.00    -0.424 C  
HETATM    2  N   UNL     1     -10.274  18.706  67.320  1.00  0.00    -0.355 N  
HETATM    3  C   UNL     1     -10.062  17.458  66.775  1.00  0.00    -0.313 C  
HETATM    4  H   UNL     1     -10.814  18.788  68.181  1.00  0.00     0.000 HD 
HETATM    5  O   UNL     1      -9.438  17.271  65.736  1.00  0.00    -0.527 OA 
ENDROOT
BRANCH   3   6
HETATM    6  C   UNL     1     -10.632  16.315  67.559  1.00  0.00    -0.310 A  
HETATM    7  N   UNL     1     -10.327  16.256  68.886  1.00  0.00    -0.246 NA 
HETATM    8  C   UNL     1     -10.797  15.179  69.557  1.00  0.00    -0.263 A  
HETATM    9  C   UNL     1     -11.514  14.146  68.967  1.00  0.00    -0.322 A  
HETATM   10  C   UNL     1     -11.786  14.228  67.606  1.00  0.00    -0.385 A  
HETATM   11  C   UNL     1     -11.387  15.360  66.898  1.00  0.00    -0.147 A  
BRANCH  10  12
HETATM   12  O   UNL     1     -12.460  13.165  67.031  1.00  0.00    -0.253 OA 
BRANCH  12  13
HETATM   13  C   UNL     1     -11.840  12.488  66.000  1.00  0.00    -0.418 A  
HETATM   14  C   UNL     1     -10.649  11.792  66.174  1.00  0.00    -0.301 A  
HETATM   15  C   UNL     1      -9.991  11.258  65.071  1.00  0.00    -0.323 A  
HETATM   16  C   UNL     1     -10.553  11.292  63.790  1.00  0.00    -0.392 A  
HETATM   17  C   UNL     1     -11.796  11.912  63.635  1.00  0.00    -0.573 A  
HETATM   18  C   UNL     1     -12.438  12.506  64.738  1.00  0.00    -0.532 A  
BRANCH  16  19
HETATM   19  N   UNL     1      -9.900  10.724  62.664  1.00  0.00    -0.653 N  
HETATM   20  H   UNL     1     -10.373  10.754  61.760  1.00  0.00     0.000 HD 
BRANCH  19  21
HETATM   21  C   UNL     1      -8.646  10.130  62.736  1.00  0.00    -0.190 C  
HETATM   22  O   UNL     1      -7.606  10.744  62.530  1.00  0.00    -0.137 OA 
BRANCH  21  23
HETATM   23  N   UNL     1      -8.674   8.783  63.047  1.00  0.00    -0.423 N  
HETATM   24  H   UNL     1      -9.045   8.133  62.354  1.00  0.00     0.000 HD 
BRANCH  23  25
HETATM   25  C   UNL     1      -8.211   8.257  64.293  1.00  0.00    -0.113 A  
HETATM   26  C   UNL     1      -8.964   8.321  65.472  1.00  0.00    -0.114 A  
HETATM   27  C   UNL     1      -8.465   7.901  66.717  1.00  0.00    -0.129 A  
HETATM   28  C   UNL     1      -9.304   8.097  67.951  1.00  0.00    -0.134 C  
HETATM   29  C   UNL     1      -7.194   7.335  66.755  1.00  0.00    -0.083 A  
HETATM   30  F   UNL     1      -8.694   8.870  68.893  1.00  0.00    -0.129 F  
HETATM   31  F   UNL     1      -9.626   6.925  68.566  1.00  0.00    -0.134 F  
HETATM   32  F   UNL     1     -10.499   8.711  67.708  1.00  0.00    -0.256 F  
HETATM   33 CL   UNL     1      -6.494   6.763  68.224  1.00  0.00    -0.050 Cl 
HETATM   34  C   UNL     1      -6.445   7.210  65.576  1.00  0.00    -0.047 A  
HETATM   35  C   UNL     1      -6.945   7.672  64.351  1.00  0.00    -0.060 A  
ENDBRANCH  23  25
ENDBRANCH  21  23
ENDBRANCH  19  21
ENDBRANCH  16  19
ENDBRANCH  12  13
ENDBRANCH  10  12
ENDBRANCH   3   6
TORSDOF 7
ENDMDL
MODEL      102
REMARK 921   NORMALIZED FREE ENERGY PREDICTED BY IDOCK:   -5.83 KCAL/MOL
REMARK 922        TOTAL FREE ENERGY PREDICTED BY IDOCK:  -10.07 KCAL/MOL
REMARK 923 INTER-LIGAND FREE ENERGY PREDICTED BY IDOCK:   -9.13 KCAL/MOL
REMARK 924 INTRA-LIGAND FREE ENERGY PREDICTED BY IDOCK:   -0.93 KCAL/MOL
REMARK 927      BINDING AFFINITY PREDICTED BY RF-SCORE:    0.00 PKD
ROOT
HETATM    1  C   UNL     1     -10.532  19.848  65.590  1.00  0.00    -0.341 C  
HETATM    2  N   UNL     1     -10.325  18.650  66.356  1.00  0.00    -0.413 N  
HETATM    3  C   UNL     1     -10.375  18.659  67.733  1.00  0.00    -0.410 C  
HETATM    4  H   UNL     1     -10.137  17.774  65.870  1.00  0.00     0.000 HD 
HETATM    5  O   UNL     1     -10.581  19.670  68.396  1.00  0.00    -0.361 OA 
ENDROOT
BRANCH   3   6
HETATM    6  C   UNL     1     -10.183  17.323  68.387  1.00  0.00    -0.358 A  
HETATM    7  N   UNL     1      -8.929  17.020  68.827  1.00  0.00    -0.267 NA 
HETATM    8  C   UNL     1      -8.767  15.784  69.352  1.00  0.00    -0.230 A  
HETATM    9  C   UNL     1      -9.772  14.829  69.420  1.00  0.00    -0.047 A  
HETATM   10  C   UNL     1     -11.032  15.165  68.940  1.00  0.00    -0.254 A  
HETATM   11  C   UNL     1     -11.259  16.455  68.464  1.00  0.00    -0.334 A  
BRANCH  10  12
HETATM   12  O   UNL     1     -12.005  14.181  68.974  1.00  0.00    -0.325 OA 
BRANCH  12  13
HETATM   13  C   UNL     1     -11.675  12.927  68.499  1.00  0.00    -0.339 A  
HETATM   14  C   UNL     1     -11.322  12.701  67.174  1.00  0.00    -0.373 A  
HETATM   15  C   UNL     1     -11.148  11.400  66.715  1.00  0.00    -0.343 A  
HETATM   16  C   UNL     1     -11.198  10.301  67.581  1.00  0.00    -0.158 A  
HETATM   17  C   UNL     1     -11.463  10.541  68.932  1.00  0.00    -0.292 A  
HETATM   18  C   UNL     1     -11.699  11.852  69.389  1.00  0.00    -0.401 A  
BRANCH  16  19
HETATM   19  N   UNL     1     -10.995   8.971  67.125  1.00  0.00    -0.309 N  
HETATM   20  H   UNL     1     -11.329   8.718  66.195  1.00  0.00     0.000 HD 
BRANCH  19  21
HETATM   21  C   UNL     1     -10.361   7.998  67.889  1.00  0.00    -0.222 C  
HETATM   22  O   UNL     1      -9.164   8.032  68.148  1.00  0.00    -0.134 OA 
BRANCH  21  23
HETATM   23  N   UNL     1     -11.196   6.984  68.320  1.00  0.00    -0.509 N  
HETATM   24  H   UNL     1     -11.882   6.610  67.665  1.00  0.00     0.000 HD 
BRANCH  23  25
HETATM   25  C   UNL     1     -11.144   6.434  69.639  1.00  0.00    -0.401 A  
HETATM   26  C   UNL     1     -10.350   5.329  69.971  1.00  0.00    -0.365 A  
HETATM   27  C   UNL     1     -10.381   4.723  71.239  1.00  0.00    -0.184 A  
HETATM   28  C   UNL     1      -9.569   3.480  71.481  1.00  0.00    -0.162 C  
HETATM   29  C   UNL     1     -11.188   5.296  72.217  1.00  0.00    -0.114 A  
HETATM   30  F   UNL     1     -10.327   2.413  71.862  1.00  0.00    -0.235 F  
HETATM   31  F   UNL     1      -8.623   3.643  72.448  1.00  0.00    -0.081 F  
HETATM   32  F   UNL     1      -8.882   3.053  70.382  1.00  0.00    -0.099 F  
HETATM   33 CL   UNL     1     -11.283   4.650  73.814  1.00  0.00    -0.332 Cl 
HETATM   34  C   UNL     1     -11.950   6.435  71.922  1.00  0.00    -0.381 A  
HETATM   35  C   UNL     1     -11.935   7.001  70.640  1.00  0.00    -0.361 A  
ENDBRANCH  23  25
ENDBRANCH  21  23
ENDBRANCH  19  21
ENDBRANCH  16  19
ENDBRANCH  12  13
ENDBRANCH  10  12
ENDBRANCH   3   6
TORSDOF 7
ENDMDL
MODEL      103
REMARK 921   NORMALIZED FREE ENERGY PREDICTED BY IDOCK:   -5.82 KCAL/MOL
REMARK 922        TOTAL FREE ENERGY PREDICTED BY IDOCK:  -10.04 KCAL/MOL
REMARK 923 INTER-LIGAND FREE ENERGY PREDICTED BY IDOCK:   -8.90 KCAL/MOL
REMARK 924 INTRA-LIGAND FREE ENERGY PREDICTED BY IDOCK:   -1.15 KCAL/MOL
REMARK 927      BINDING AFFINITY PREDICTED BY RF-SCORE:    0.00 PKD
ROOT
HETATM    1  C   UNL     1     -12.944  11.094  71.304  1.00  0.00    -0.357 C  
HETATM    2  N   UNL     1     -12.127   9.949  71.596  1.00  0.00    -0.398 N  
HETATM    3  C   UNL     1     -12.684   8.745  71.971  1.00  0.00    -0.387 C  
HETATM    4  H   UNL     1     -11.113  10.028  71.524  1.00  0.00     0.000 HD 
HETATM    5  O   UNL     1     -13.891   8.567  72.095  1.00  0.00    -0.384 OA 
ENDROOT
BRANCH   3   6
HETATM    6  C   UNL     1     -11.703   7.633  72.198  1.00  0.00    -0.311 A  
HETATM    7  N   UNL     1     -11.089   7.584  73.414  1.00  0.00    -0.289 NA 
HETATM    8  C   UNL     1     -10.161   6.613  73.571  1.00  0.00    -0.249 A  
HETATM    9  C   UNL     1      -9.787   5.723  72.572  1.00  0.00    -0.182 A  
HETATM   10  C   UNL     1     -10.418   5.819  71.337  1.00  0.00    -0.238 A  
HETATM   11  C   UNL     1     -11.436   6.755  71.162  1.00  0.00    -0.361 A  
BRANCH  10  12
HETATM   12  O   UNL     1      -9.995   4.954  70.343  1.00  0.00    -0.210 OA 
BRANCH  12  13
HETATM   13  C   UNL     1      -9.688   5.489  69.108  1.00  0.00    -0.155 A  
HETATM   14  C   UNL     1      -9.068   6.724  68.963  1.00  0.00    -0.137 A  
HETATM   15  C   UNL     1      -8.921   7.282  67.698  1.00  0.00    -0.126 A  
HETATM   16  C   UNL     1      -9.270   6.581  66.538  1.00  0.00    -0.157 A  
HETATM   17  C   UNL     1      -9.810   5.299  66.683  1.00  0.00    -0.198 A  
HETATM   18  C   UNL     1     -10.016   4.755  67.965  1.00  0.00    -0.154 A  
BRANCH  16  19
HETATM   19  N   UNL     1      -9.097   7.133  65.241  1.00  0.00    -0.289 N  
HETATM   20  H   UNL     1      -9.558   6.677  64.452  1.00  0.00     0.000 HD 
BRANCH  19  21
HETATM   21  C   UNL     1      -8.330   8.265  64.996  1.00  0.00    -0.148 C  
HETATM   22  O   UNL     1      -7.229   8.445  65.502  1.00  0.00    -0.076 OA 
BRANCH  21  23
HETATM   23  N   UNL     1      -8.922   9.177  64.141  1.00  0.00    -0.426 N  
HETATM   24  H   UNL     1      -8.781   9.063  63.137  1.00  0.00     0.000 HD 
BRANCH  23  25
HETATM   25  C   UNL     1      -9.723  10.271  64.595  1.00  0.00    -0.333 A  
HETATM   26  C   UNL     1      -9.937  10.544  65.952  1.00  0.00    -0.313 A  
HETATM   27  C   UNL     1     -10.809  11.553  66.397  1.00  0.00    -0.334 A  
HETATM   28  C   UNL     1     -11.056  11.715  67.872  1.00  0.00    -0.247 C  
HETATM   29  C   UNL     1     -11.427  12.352  65.439  1.00  0.00    -0.358 A  
HETATM   30  F   UNL     1     -12.369  11.573  68.212  1.00  0.00    -0.280 F  
HETATM   31  F   UNL     1     -10.667  12.931  68.346  1.00  0.00    -0.227 F  
HETATM   32  F   UNL     1     -10.391  10.805  68.641  1.00  0.00    -0.163 F  
HETATM   33 CL   UNL     1     -12.496  13.634  65.874  1.00  0.00    -0.503 Cl 
HETATM   34  C   UNL     1     -11.184  12.130  64.076  1.00  0.00    -0.458 A  
HETATM   35  C   UNL     1     -10.341  11.094  63.652  1.00  0.00    -0.449 A  
ENDBRANCH  23  25
ENDBRANCH  21  23
ENDBRANCH  19  21
ENDBRANCH  16  19
ENDBRANCH  12  13
ENDBRANCH  10  12
ENDBRANCH   3   6
TORSDOF 7
ENDMDL
MODEL      104
REMARK 921   NORMALIZED FREE ENERGY PREDICTED BY IDOCK:   -5.81 KCAL/MOL
REMARK 922        TOTAL FREE ENERGY PREDICTED BY IDOCK:  -10.03 KCAL/MOL
REMARK 923 INTER-LIGAND FREE ENERGY PREDICTED BY IDOCK:   -8.75 KCAL/MOL
REMARK 924 INTRA-LIGAND FREE ENERGY PREDICTED BY IDOCK:   -1.28 KCAL/MOL
REMARK 927      BINDING AFFINITY PREDICTED BY RF-SCORE:    0.00 PKD
ROOT
HETATM    1  C   UNL     1     -12.629  11.941  63.276  1.00  0.00    -0.344 C  
HETATM    2  N   UNL     1     -11.939  12.209  64.507  1.00  0.00    -0.358 N  
HETATM    3  C   UNL     1     -12.183  13.354  65.233  1.00  0.00    -0.440 C  
HETATM    4  H   UNL     1     -11.254  11.537  64.851  1.00  0.00     0.000 HD 
HETATM    5  O   UNL     1     -12.979  14.220  64.885  1.00  0.00    -0.682 OA 
ENDROOT
BRANCH   3   6
HETATM    6  C   UNL     1     -11.418  13.470  66.517  1.00  0.00    -0.339 A  
HETATM    7  N   UNL     1     -10.058  13.470  66.434  1.00  0.00    -0.287 NA 
HETATM    8  C   UNL     1      -9.391  13.507  67.610  1.00  0.00    -0.216 A  
HETATM    9  C   UNL     1     -10.005  13.502  68.855  1.00  0.00     0.009 A  
HETATM   10  C   UNL     1     -11.395  13.477  68.902  1.00  0.00    -0.289 A  
HETATM   11  C   UNL     1     -12.118  13.518  67.711  1.00  0.00    -0.316 A  
BRANCH  10  12
HETATM   12  O   UNL     1     -11.984  13.423  70.153  1.00  0.00    -0.327 OA 
BRANCH  12  13
HETATM   13  C   UNL     1     -12.277  12.180  70.677  1.00  0.00    -0.300 A  
HETATM   14  C   UNL     1     -13.263  11.990  71.639  1.00  0.00    -0.361 A  
HETATM   15  C   UNL     1     -13.412  10.746  72.242  1.00  0.00    -0.076 A  
HETATM   16  C   UNL     1     -12.676   9.631  71.824  1.00  0.00    -0.420 A  
HETATM   17  C   UNL     1     -11.749   9.806  70.791  1.00  0.00    -0.407 A  
HETATM   18  C   UNL     1     -11.553  11.077  70.219  1.00  0.00    -0.414 A  
BRANCH  16  19
HETATM   19  N   UNL     1     -12.842   8.351  72.416  1.00  0.00    -0.548 N  
HETATM   20  H   UNL     1     -12.631   8.242  73.408  1.00  0.00     0.000 HD 
BRANCH  19  21
HETATM   21  C   UNL     1     -13.278   7.239  71.705  1.00  0.00    -0.366 C  
HETATM   22  O   UNL     1     -14.403   7.154  71.229  1.00  0.00    -0.361 OA 
BRANCH  21  23
HETATM   23  N   UNL     1     -12.336   6.233  71.592  1.00  0.00    -0.147 N  
HETATM   24  H   UNL     1     -12.494   5.361  72.097  1.00  0.00     0.000 HD 
BRANCH  23  25
HETATM   25  C   UNL     1     -11.150   6.356  70.803  1.00  0.00    -0.307 A  
HETATM   26  C   UNL     1      -9.903   6.680  71.350  1.00  0.00    -0.191 A  
HETATM   27  C   UNL     1      -8.761   6.906  70.562  1.00  0.00    -0.150 A  
HETATM   28  C   UNL     1      -7.484   7.347  71.224  1.00  0.00    -0.081 C  
HETATM   29  C   UNL     1      -8.871   6.729  69.186  1.00  0.00    -0.134 A  
HETATM   30  F   UNL     1      -7.030   8.546  70.763  1.00  0.00    -0.039 F  
HETATM   31  F   UNL     1      -6.463   6.460  71.056  1.00  0.00    -0.043 F  
HETATM   32  F   UNL     1      -7.596   7.507  72.576  1.00  0.00    -0.075 F  
HETATM   33 CL   UNL     1      -7.528   6.954  68.128  1.00  0.00    -0.097 Cl 
HETATM   34  C   UNL     1     -10.098   6.350  68.622  1.00  0.00    -0.179 A  
HETATM   35  C   UNL     1     -11.234   6.168  69.422  1.00  0.00    -0.466 A  
ENDBRANCH  23  25
ENDBRANCH  21  23
ENDBRANCH  19  21
ENDBRANCH  16  19
ENDBRANCH  12  13
ENDBRANCH  10  12
ENDBRANCH   3   6
TORSDOF 7
ENDMDL
MODEL      105
REMARK 921   NORMALIZED FREE ENERGY PREDICTED BY IDOCK:   -5.79 KCAL/MOL
REMARK 922        TOTAL FREE ENERGY PREDICTED BY IDOCK:  -10.01 KCAL/MOL
REMARK 923 INTER-LIGAND FREE ENERGY PREDICTED BY IDOCK:   -8.40 KCAL/MOL
REMARK 924 INTRA-LIGAND FREE ENERGY PREDICTED BY IDOCK:   -1.61 KCAL/MOL
REMARK 927      BINDING AFFINITY PREDICTED BY RF-SCORE:    0.00 PKD
ROOT
HETATM    1  C   UNL     1     -11.005  13.842  64.655  1.00  0.00    -0.398 C  
HETATM    2  N   UNL     1     -10.541  15.065  65.248  1.00  0.00    -0.365 N  
HETATM    3  C   UNL     1     -11.080  16.284  64.898  1.00  0.00    -0.290 C  
HETATM    4  H   UNL     1      -9.797  15.031  65.944  1.00  0.00     0.000 HD 
HETATM    5  O   UNL     1     -11.967  16.417  64.061  1.00  0.00    -0.979 OA 
ENDROOT
BRANCH   3   6
HETATM    6  C   UNL     1     -10.522  17.464  65.636  1.00  0.00    -0.165 A  
HETATM    7  N   UNL     1     -10.868  18.702  65.184  1.00  0.00    -0.424 NA 
HETATM    8  C   UNL     1     -10.298  19.749  65.823  1.00  0.00    -0.423 A  
HETATM    9  C   UNL     1      -9.377  19.624  66.855  1.00  0.00    -0.445 A  
HETATM   10  C   UNL     1      -9.029  18.345  67.274  1.00  0.00    -0.263 A  
HETATM   11  C   UNL     1      -9.654  17.243  66.692  1.00  0.00    -0.286 A  
BRANCH  10  12
HETATM   12  O   UNL     1      -8.073  18.244  68.269  1.00  0.00    -0.279 OA 
BRANCH  12  13
HETATM   13  C   UNL     1      -7.382  17.054  68.384  1.00  0.00    -0.213 A  
HETATM   14  C   UNL     1      -6.288  16.746  67.585  1.00  0.00    -0.172 A  
HETATM   15  C   UNL     1      -5.726  15.476  67.637  1.00  0.00    -0.116 A  
HETATM   16  C   UNL     1      -6.151  14.520  68.567  1.00  0.00    -0.091 A  
HETATM   17  C   UNL     1      -7.192  14.865  69.433  1.00  0.00    -0.182 A  
HETATM   18  C   UNL     1      -7.804  16.129  69.343  1.00  0.00    -0.126 A  
BRANCH  16  19
HETATM   19  N   UNL     1      -5.563  13.229  68.646  1.00  0.00    -0.072 N  
HETATM   20  H   UNL     1      -4.894  13.043  69.393  1.00  0.00     0.000 HD 
BRANCH  19  21
HETATM   21  C   UNL     1      -5.859  12.207  67.752  1.00  0.00    -0.089 C  
HETATM   22  O   UNL     1      -5.125  11.241  67.580  1.00  0.00    -0.038 OA 
BRANCH  21  23
HETATM   23  N   UNL     1      -7.046  12.382  67.065  1.00  0.00    -0.362 N  
HETATM   24  H   UNL     1      -7.008  12.764  66.120  1.00  0.00     0.000 HD 
BRANCH  23  25
HETATM   25  C   UNL     1      -8.325  12.053  67.613  1.00  0.00    -0.160 A  
HETATM   26  C   UNL     1      -9.294  13.018  67.913  1.00  0.00    -0.212 A  
HETATM   27  C   UNL     1     -10.507  12.706  68.551  1.00  0.00    -0.249 A  
HETATM   28  C   UNL     1     -11.450  13.817  68.925  1.00  0.00    -0.304 C  
HETATM   29  C   UNL     1     -10.774  11.369  68.829  1.00  0.00    -0.203 A  
HETATM   30  F   UNL     1     -11.710  13.869  70.262  1.00  0.00    -0.325 F  
HETATM   31  F   UNL     1     -12.658  13.722  68.302  1.00  0.00    -0.251 F  
HETATM   32  F   UNL     1     -10.984  15.060  68.606  1.00  0.00    -0.229 F  
HETATM   33 CL   UNL     1     -12.241  10.870  69.587  1.00  0.00    -0.386 Cl 
HETATM   34  C   UNL     1      -9.840  10.379  68.488  1.00  0.00    -0.176 A  
HETATM   35  C   UNL     1      -8.619  10.716  67.888  1.00  0.00    -0.124 A  
ENDBRANCH  23  25
ENDBRANCH  21  23
ENDBRANCH  19  21
ENDBRANCH  16  19
ENDBRANCH  12  13
ENDBRANCH  10  12
ENDBRANCH   3   6
TORSDOF 7
ENDMDL
MODEL      106
REMARK 921   NORMALIZED FREE ENERGY PREDICTED BY IDOCK:   -5.77 KCAL/MOL
REMARK 922        TOTAL FREE ENERGY PREDICTED BY IDOCK:   -9.98 KCAL/MOL
REMARK 923 INTER-LIGAND FREE ENERGY PREDICTED BY IDOCK:   -8.58 KCAL/MOL
REMARK 924 INTRA-LIGAND FREE ENERGY PREDICTED BY IDOCK:   -1.40 KCAL/MOL
REMARK 927      BINDING AFFINITY PREDICTED BY RF-SCORE:    0.00 PKD
ROOT
HETATM    1  C   UNL     1     -10.169  19.762  66.486  1.00  0.00    -0.492 C  
HETATM    2  N   UNL     1     -10.687  18.569  67.096  1.00  0.00    -0.393 N  
HETATM    3  C   UNL     1     -10.396  17.320  66.592  1.00  0.00    -0.305 C  
HETATM    4  H   UNL     1     -11.283  18.647  67.919  1.00  0.00     0.000 HD 
HETATM    5  O   UNL     1      -9.701  17.135  65.598  1.00  0.00    -0.545 OA 
ENDROOT
BRANCH   3   6
HETATM    6  C   UNL     1     -10.974  16.171  67.363  1.00  0.00    -0.210 A  
HETATM    7  N   UNL     1     -10.957  16.261  68.722  1.00  0.00    -0.323 NA 
HETATM    8  C   UNL     1     -11.421  15.184  69.396  1.00  0.00    -0.306 A  
HETATM    9  C   UNL     1     -11.860  14.015  68.788  1.00  0.00    -0.396 A  
HETATM   10  C   UNL     1     -11.841  13.949  67.400  1.00  0.00    -0.402 A  
HETATM   11  C   UNL     1     -11.443  15.068  66.669  1.00  0.00    -0.251 A  
BRANCH  10  12
HETATM   12  O   UNL     1     -12.237  12.758  66.818  1.00  0.00    -0.470 OA 
BRANCH  12  13
HETATM   13  C   UNL     1     -11.292  11.761  66.676  1.00  0.00    -0.316 A  
HETATM   14  C   UNL     1     -11.151  10.730  67.597  1.00  0.00    -0.384 A  
HETATM   15  C   UNL     1     -10.087   9.842  67.488  1.00  0.00    -0.244 A  
HETATM   16  C   UNL     1      -9.209   9.876  66.399  1.00  0.00    -0.158 A  
HETATM   17  C   UNL     1      -9.408  10.859  65.424  1.00  0.00    -0.240 A  
HETATM   18  C   UNL     1     -10.449  11.797  65.563  1.00  0.00    -0.311 A  
BRANCH  16  19
HETATM   19  N   UNL     1      -8.135   8.956  66.264  1.00  0.00    -0.109 N  
HETATM   20  H   UNL     1      -7.232   9.304  65.941  1.00  0.00     0.000 HD 
BRANCH  19  21
HETATM   21  C   UNL     1      -8.258   7.602  66.554  1.00  0.00    -0.125 C  
HETATM   22  O   UNL     1      -8.960   6.843  65.898  1.00  0.00    -0.145 OA 
BRANCH  21  23
HETATM   23  N   UNL     1      -7.530   7.190  67.655  1.00  0.00    -0.099 N  
HETATM   24  H   UNL     1      -6.620   6.756  67.499  1.00  0.00     0.000 HD 
BRANCH  23  25
HETATM   25  C   UNL     1      -7.988   7.343  69.000  1.00  0.00    -0.122 A  
HETATM   26  C   UNL     1      -9.282   6.994  69.406  1.00  0.00    -0.147 A  
HETATM   27  C   UNL     1      -9.767   7.243  70.702  1.00  0.00    -0.175 A  
HETATM   28  C   UNL     1     -11.201   6.926  71.026  1.00  0.00    -0.282 C  
HETATM   29  C   UNL     1      -8.892   7.800  71.631  1.00  0.00    -0.118 A  
HETATM   30  F   UNL     1     -11.908   8.015  71.441  1.00  0.00    -0.273 F  
HETATM   31  F   UNL     1     -11.330   5.988  72.006  1.00  0.00    -0.289 F  
HETATM   32  F   UNL     1     -11.904   6.430  69.966  1.00  0.00    -0.467 F  
HETATM   33 CL   UNL     1      -9.373   8.125  73.255  1.00  0.00    -0.336 Cl 
HETATM   34  C   UNL     1      -7.575   8.107  71.261  1.00  0.00    -0.084 A  
HETATM   35  C   UNL     1      -7.123   7.886  69.952  1.00  0.00    -0.061 A  
ENDBRANCH  23  25
ENDBRANCH  21  23
ENDBRANCH  19  21
ENDBRANCH  16  19
ENDBRANCH  12  13
ENDBRANCH  10  12
ENDBRANCH   3   6
TORSDOF 7
ENDMDL
MODEL      107
REMARK 921   NORMALIZED FREE ENERGY PREDICTED BY IDOCK:   -5.77 KCAL/MOL
REMARK 922        TOTAL FREE ENERGY PREDICTED BY IDOCK:   -9.97 KCAL/MOL
REMARK 923 INTER-LIGAND FREE ENERGY PREDICTED BY IDOCK:   -8.73 KCAL/MOL
REMARK 924 INTRA-LIGAND FREE ENERGY PREDICTED BY IDOCK:   -1.24 KCAL/MOL
REMARK 927      BINDING AFFINITY PREDICTED BY RF-SCORE:    0.00 PKD
ROOT
HETATM    1  C   UNL     1      -6.977  21.026  67.213  1.00  0.00    -0.364 C  
HETATM    2  N   UNL     1      -7.476  19.745  67.631  1.00  0.00    -0.270 N  
HETATM    3  C   UNL     1      -8.824  19.461  67.624  1.00  0.00    -0.308 C  
HETATM    4  H   UNL     1      -6.817  19.030  67.939  1.00  0.00     0.000 HD 
HETATM    5  O   UNL     1      -9.684  20.267  67.283  1.00  0.00    -0.399 OA 
ENDROOT
BRANCH   3   6
HETATM    6  C   UNL     1      -9.185  18.068  68.045  1.00  0.00    -0.272 A  
HETATM    7  N   UNL     1      -8.325  17.430  68.887  1.00  0.00    -0.214 NA 
HETATM    8  C   UNL     1      -8.637  16.151  69.198  1.00  0.00    -0.235 A  
HETATM    9  C   UNL     1      -9.731  15.469  68.683  1.00  0.00    -0.208 A  
HETATM   10  C   UNL     1     -10.574  16.144  67.807  1.00  0.00    -0.309 A  
HETATM   11  C   UNL     1     -10.329  17.487  67.524  1.00  0.00    -0.356 A  
BRANCH  10  12
HETATM   12  O   UNL     1     -11.629  15.430  67.268  1.00  0.00    -0.243 OA 
BRANCH  12  13
HETATM   13  C   UNL     1     -11.335  14.344  66.468  1.00  0.00    -0.350 A  
HETATM   14  C   UNL     1     -10.560  14.452  65.319  1.00  0.00    -0.398 A  
HETATM   15  C   UNL     1     -10.422  13.360  64.470  1.00  0.00    -0.431 A  
HETATM   16  C   UNL     1     -10.944  12.103  64.796  1.00  0.00    -0.310 A  
HETATM   17  C   UNL     1     -11.645  11.975  65.999  1.00  0.00    -0.371 A  
HETATM   18  C   UNL     1     -11.838  13.093  66.833  1.00  0.00    -0.444 A  
BRANCH  16  19
HETATM   19  N   UNL     1     -10.784  10.975  63.948  1.00  0.00    -0.510 N  
HETATM   20  H   UNL     1     -11.604  10.610  63.462  1.00  0.00     0.000 HD 
BRANCH  19  21
HETATM   21  C   UNL     1      -9.561  10.345  63.748  1.00  0.00    -0.310 C  
HETATM   22  O   UNL     1      -9.310   9.682  62.750  1.00  0.00    -0.247 OA 
BRANCH  21  23
HETATM   23  N   UNL     1      -8.658  10.523  64.780  1.00  0.00    -0.195 N  
HETATM   24  H   UNL     1      -7.895  11.187  64.648  1.00  0.00     0.000 HD 
BRANCH  23  25
HETATM   25  C   UNL     1      -8.741   9.822  66.024  1.00  0.00    -0.141 A  
HETATM   26  C   UNL     1      -9.366   8.577  66.153  1.00  0.00    -0.279 A  
HETATM   27  C   UNL     1      -9.541   7.938  67.393  1.00  0.00    -0.195 A  
HETATM   28  C   UNL     1     -10.311   6.647  67.455  1.00  0.00    -0.220 C  
HETATM   29  C   UNL     1      -9.006   8.548  68.524  1.00  0.00    -0.139 A  
HETATM   30  F   UNL     1     -11.405   6.716  68.265  1.00  0.00    -0.294 F  
HETATM   31  F   UNL     1      -9.563   5.602  67.909  1.00  0.00    -0.112 F  
HETATM   32  F   UNL     1     -10.792   6.239  66.244  1.00  0.00    -0.223 F  
HETATM   33 CL   UNL     1      -9.141   7.841  70.091  1.00  0.00    -0.152 Cl 
HETATM   34  C   UNL     1      -8.328   9.770  68.409  1.00  0.00    -0.110 A  
HETATM   35  C   UNL     1      -8.198  10.409  67.168  1.00  0.00    -0.122 A  
ENDBRANCH  23  25
ENDBRANCH  21  23
ENDBRANCH  19  21
ENDBRANCH  16  19
ENDBRANCH  12  13
ENDBRANCH  10  12
ENDBRANCH   3   6
TORSDOF 7
ENDMDL
MODEL      108
REMARK 921   NORMALIZED FREE ENERGY PREDICTED BY IDOCK:   -5.76 KCAL/MOL
REMARK 922        TOTAL FREE ENERGY PREDICTED BY IDOCK:   -9.97 KCAL/MOL
REMARK 923 INTER-LIGAND FREE ENERGY PREDICTED BY IDOCK:   -8.57 KCAL/MOL
REMARK 924 INTRA-LIGAND FREE ENERGY PREDICTED BY IDOCK:   -1.40 KCAL/MOL
REMARK 927      BINDING AFFINITY PREDICTED BY RF-SCORE:    0.00 PKD
ROOT
HETATM    1  C   UNL     1     -11.920  13.885  64.972  1.00  0.00    -0.390 C  
HETATM    2  N   UNL     1     -11.274  15.019  65.573  1.00  0.00    -0.350 N  
HETATM    3  C   UNL     1     -11.253  16.248  64.950  1.00  0.00    -0.236 C  
HETATM    4  H   UNL     1     -10.822  14.913  66.480  1.00  0.00     0.000 HD 
HETATM    5  O   UNL     1     -11.759  16.459  63.852  1.00  0.00    -1.085 OA 
ENDROOT
BRANCH   3   6
HETATM    6  C   UNL     1     -10.580  17.343  65.722  1.00  0.00    -0.182 A  
HETATM    7  N   UNL     1     -10.885  18.626  65.379  1.00  0.00    -0.488 NA 
HETATM    8  C   UNL     1     -10.215  19.594  66.043  1.00  0.00    -0.493 A  
HETATM    9  C   UNL     1      -9.234  19.350  66.995  1.00  0.00    -0.378 A  
HETATM   10  C   UNL     1      -8.931  18.028  67.303  1.00  0.00    -0.251 A  
HETATM   11  C   UNL     1      -9.656  17.004  66.696  1.00  0.00    -0.279 A  
BRANCH  10  12
HETATM   12  O   UNL     1      -7.917  17.808  68.219  1.00  0.00    -0.261 OA 
BRANCH  12  13
HETATM   13  C   UNL     1      -7.463  16.515  68.383  1.00  0.00    -0.186 A  
HETATM   14  C   UNL     1      -6.497  15.953  67.557  1.00  0.00    -0.205 A  
HETATM   15  C   UNL     1      -6.189  14.602  67.670  1.00  0.00    -0.106 A  
HETATM   16  C   UNL     1      -6.735  13.804  68.682  1.00  0.00    -0.099 A  
HETATM   17  C   UNL     1      -7.638  14.396  69.570  1.00  0.00     0.083 A  
HETATM   18  C   UNL     1      -7.998  15.749  69.421  1.00  0.00    -0.211 A  
BRANCH  16  19
HETATM   19  N   UNL     1      -6.404  12.429  68.822  1.00  0.00    -0.073 N  
HETATM   20  H   UNL     1      -5.835  12.144  69.620  1.00  0.00     0.000 HD 
BRANCH  19  21
HETATM   21  C   UNL     1      -6.820  11.455  67.922  1.00  0.00    -0.072 C  
HETATM   22  O   UNL     1      -6.076  10.578  67.501  1.00  0.00    -0.052 OA 
BRANCH  21  23
HETATM   23  N   UNL     1      -8.142  11.570  67.535  1.00  0.00    -0.131 N  
HETATM   24  H   UNL     1      -8.344  11.858  66.577  1.00  0.00     0.000 HD 
BRANCH  23  25
HETATM   25  C   UNL     1      -9.241  11.305  68.410  1.00  0.00    -0.178 A  
HETATM   26  C   UNL     1      -9.264  10.219  69.292  1.00  0.00    -0.215 A  
HETATM   27  C   UNL     1     -10.388   9.897  70.074  1.00  0.00    -0.320 A  
HETATM   28  C   UNL     1     -10.364   8.655  70.923  1.00  0.00    -0.211 C  
HETATM   29  C   UNL     1     -11.491  10.743  70.011  1.00  0.00    -0.331 A  
HETATM   30  F   UNL     1     -11.357   7.775  70.609  1.00  0.00    -0.264 F  
HETATM   31  F   UNL     1     -10.490   8.917  72.254  1.00  0.00    -0.391 F  
HETATM   32  F   UNL     1      -9.207   7.938  70.810  1.00  0.00    -0.150 F  
HETATM   33 CL   UNL     1     -12.913  10.458  70.946  1.00  0.00    -0.475 Cl 
HETATM   34  C   UNL     1     -11.468  11.868  69.174  1.00  0.00    -0.356 A  
HETATM   35  C   UNL     1     -10.353  12.148  68.373  1.00  0.00    -0.236 A  
ENDBRANCH  23  25
ENDBRANCH  21  23
ENDBRANCH  19  21
ENDBRANCH  16  19
ENDBRANCH  12  13
ENDBRANCH  10  12
ENDBRANCH   3   6
TORSDOF 7
ENDMDL
MODEL      109
REMARK 921   NORMALIZED FREE ENERGY PREDICTED BY IDOCK:   -5.76 KCAL/MOL
REMARK 922        TOTAL FREE ENERGY PREDICTED BY IDOCK:   -9.96 KCAL/MOL
REMARK 923 INTER-LIGAND FREE ENERGY PREDICTED BY IDOCK:   -8.56 KCAL/MOL
REMARK 924 INTRA-LIGAND FREE ENERGY PREDICTED BY IDOCK:   -1.40 KCAL/MOL
REMARK 927      BINDING AFFINITY PREDICTED BY RF-SCORE:    0.00 PKD
ROOT
HETATM    1  C   UNL     1      -6.273   8.314  63.762  1.00  0.00    -0.072 C  
HETATM    2  N   UNL     1      -7.131   7.743  64.763  1.00  0.00    -0.059 N  
HETATM    3  C   UNL     1      -7.477   6.409  64.737  1.00  0.00    -0.087 C  
HETATM    4  H   UNL     1      -7.493   8.338  65.508  1.00  0.00     0.000 HD 
HETATM    5  O   UNL     1      -7.098   5.628  63.871  1.00  0.00    -0.048 OA 
ENDROOT
BRANCH   3   6
HETATM    6  C   UNL     1      -8.343   5.954  65.874  1.00  0.00    -0.136 A  
HETATM    7  N   UNL     1      -9.603   5.535  65.567  1.00  0.00     0.037 NA 
HETATM    8  C   UNL     1     -10.387   5.194  66.615  1.00  0.00    -0.281 A  
HETATM    9  C   UNL     1      -9.995   5.287  67.944  1.00  0.00    -0.206 A  
HETATM   10  C   UNL     1      -8.710   5.740  68.221  1.00  0.00    -0.111 A  
HETATM   11  C   UNL     1      -7.846   6.027  67.164  1.00  0.00    -0.102 A  
BRANCH  10  12
HETATM   12  O   UNL     1      -8.358   5.871  69.552  1.00  0.00    -0.111 OA 
BRANCH  12  13
HETATM   13  C   UNL     1      -9.289   6.410  70.418  1.00  0.00    -0.162 A  
HETATM   14  C   UNL     1     -10.067   5.625  71.260  1.00  0.00    -0.261 A  
HETATM   15  C   UNL     1     -11.093   6.206  71.998  1.00  0.00    -0.322 A  
HETATM   16  C   UNL     1     -11.294   7.591  72.016  1.00  0.00    -0.273 A  
HETATM   17  C   UNL     1     -10.449   8.388  71.237  1.00  0.00    -0.273 A  
HETATM   18  C   UNL     1      -9.448   7.798  70.443  1.00  0.00    -0.164 A  
BRANCH  16  19
HETATM   19  N   UNL     1     -12.322   8.195  72.788  1.00  0.00    -0.613 N  
HETATM   20  H   UNL     1     -12.245   8.172  73.805  1.00  0.00     0.000 HD 
BRANCH  19  21
HETATM   21  C   UNL     1     -13.429   8.816  72.222  1.00  0.00    -0.420 C  
HETATM   22  O   UNL     1     -14.232   8.225  71.511  1.00  0.00    -0.412 OA 
BRANCH  21  23
HETATM   23  N   UNL     1     -13.536  10.162  72.520  1.00  0.00    -0.554 N  
HETATM   24  H   UNL     1     -13.956  10.430  73.410  1.00  0.00     0.000 HD 
BRANCH  23  25
HETATM   25  C   UNL     1     -13.088  11.198  71.642  1.00  0.00    -0.424 A  
HETATM   26  C   UNL     1     -12.526  10.938  70.386  1.00  0.00    -0.411 A  
HETATM   27  C   UNL     1     -11.988  11.948  69.569  1.00  0.00    -0.355 A  
HETATM   28  C   UNL     1     -11.315  11.571  68.278  1.00  0.00    -0.286 C  
HETATM   29  C   UNL     1     -12.086  13.265  70.009  1.00  0.00    -0.315 A  
HETATM   30  F   UNL     1     -10.013  11.971  68.218  1.00  0.00    -0.180 F  
HETATM   31  F   UNL     1     -11.929  12.101  67.183  1.00  0.00    -0.403 F  
HETATM   32  F   UNL     1     -11.284  10.226  68.050  1.00  0.00    -0.304 F  
HETATM   33 CL   UNL     1     -11.482  14.585  69.077  1.00  0.00    -0.297 Cl 
HETATM   34  C   UNL     1     -12.694  13.553  71.240  1.00  0.00    -0.432 A  
HETATM   35  C   UNL     1     -13.189  12.527  72.057  1.00  0.00    -0.524 A  
ENDBRANCH  23  25
ENDBRANCH  21  23
ENDBRANCH  19  21
ENDBRANCH  16  19
ENDBRANCH  12  13
ENDBRANCH  10  12
ENDBRANCH   3   6
TORSDOF 7
ENDMDL
MODEL      110
REMARK 921   NORMALIZED FREE ENERGY PREDICTED BY IDOCK:   -5.75 KCAL/MOL
REMARK 922        TOTAL FREE ENERGY PREDICTED BY IDOCK:   -9.95 KCAL/MOL
REMARK 923 INTER-LIGAND FREE ENERGY PREDICTED BY IDOCK:   -8.80 KCAL/MOL
REMARK 924 INTRA-LIGAND FREE ENERGY PREDICTED BY IDOCK:   -1.15 KCAL/MOL
REMARK 927      BINDING AFFINITY PREDICTED BY RF-SCORE:    0.00 PKD
ROOT
HETATM    1  C   UNL     1     -12.264  13.389  63.217  1.00  0.00    -0.243 C  
HETATM    2  N   UNL     1     -11.434  13.983  64.228  1.00  0.00    -0.580 N  
HETATM    3  C   UNL     1     -11.446  15.341  64.463  1.00  0.00    -0.315 C  
HETATM    4  H   UNL     1     -10.822  13.386  64.784  1.00  0.00     0.000 HD 
HETATM    5  O   UNL     1     -12.140  16.130  63.831  1.00  0.00    -0.956 OA 
ENDROOT
BRANCH   3   6
HETATM    6  C   UNL     1     -10.559  15.803  65.579  1.00  0.00    -0.406 A  
HETATM    7  N   UNL     1     -10.104  17.086  65.523  1.00  0.00    -0.594 NA 
HETATM    8  C   UNL     1      -9.251  17.458  66.505  1.00  0.00    -0.266 A  
HETATM    9  C   UNL     1      -8.801  16.610  67.508  1.00  0.00    -0.202 A  
HETATM   10  C   UNL     1      -9.267  15.300  67.520  1.00  0.00    -0.199 A  
HETATM   11  C   UNL     1     -10.208  14.902  66.571  1.00  0.00    -0.281 A  
BRANCH  10  12
HETATM   12  O   UNL     1      -8.768  14.460  68.500  1.00  0.00    -0.174 OA 
BRANCH  12  13
HETATM   13  C   UNL     1      -8.663  13.115  68.207  1.00  0.00    -0.165 A  
HETATM   14  C   UNL     1      -9.640  12.195  68.568  1.00  0.00    -0.137 A  
HETATM   15  C   UNL     1      -9.414  10.835  68.385  1.00  0.00    -0.174 A  
HETATM   16  C   UNL     1      -8.273  10.360  67.729  1.00  0.00    -0.110 A  
HETATM   17  C   UNL     1      -7.334  11.296  67.284  1.00  0.00    -0.122 A  
HETATM   18  C   UNL     1      -7.531  12.670  67.521  1.00  0.00    -0.155 A  
BRANCH  16  19
HETATM   19  N   UNL     1      -8.047   8.974  67.513  1.00  0.00    -0.108 N  
HETATM   20  H   UNL     1      -7.122   8.594  67.715  1.00  0.00     0.000 HD 
BRANCH  19  21
HETATM   21  C   UNL     1      -9.029   8.113  67.040  1.00  0.00    -0.141 C  
HETATM   22  O   UNL     1      -9.857   8.445  66.201  1.00  0.00    -0.221 OA 
BRANCH  21  23
HETATM   23  N   UNL     1      -8.998   6.852  67.608  1.00  0.00    -0.117 N  
HETATM   24  H   UNL     1      -8.447   6.127  67.148  1.00  0.00     0.000 HD 
BRANCH  23  25
HETATM   25  C   UNL     1      -9.699   6.515  68.807  1.00  0.00    -0.129 A  
HETATM   26  C   UNL     1     -10.572   7.401  69.450  1.00  0.00    -0.231 A  
HETATM   27  C   UNL     1     -11.178   7.110  70.685  1.00  0.00    -0.311 A  
HETATM   28  C   UNL     1     -12.026   8.157  71.355  1.00  0.00    -0.298 C  
HETATM   29  C   UNL     1     -10.946   5.858  71.248  1.00  0.00    -0.259 A  
HETATM   30  F   UNL     1     -11.570   8.500  72.593  1.00  0.00    -0.434 F  
HETATM   31  F   UNL     1     -13.322   7.769  71.517  1.00  0.00    -0.338 F  
HETATM   32  F   UNL     1     -12.092   9.332  70.663  1.00  0.00    -0.295 F  
HETATM   33 CL   UNL     1     -11.658   5.386  72.747  1.00  0.00    -0.345 Cl 
HETATM   34  C   UNL     1     -10.118   4.935  70.593  1.00  0.00    -0.306 A  
HETATM   35  C   UNL     1      -9.492   5.260  69.382  1.00  0.00    -0.190 A  
ENDBRANCH  23  25
ENDBRANCH  21  23
ENDBRANCH  19  21
ENDBRANCH  16  19
ENDBRANCH  12  13
ENDBRANCH  10  12
ENDBRANCH   3   6
TORSDOF 7
ENDMDL
MODEL      111
REMARK 921   NORMALIZED FREE ENERGY PREDICTED BY IDOCK:   -5.75 KCAL/MOL
REMARK 922        TOTAL FREE ENERGY PREDICTED BY IDOCK:   -9.95 KCAL/MOL
REMARK 923 INTER-LIGAND FREE ENERGY PREDICTED BY IDOCK:   -8.34 KCAL/MOL
REMARK 924 INTRA-LIGAND FREE ENERGY PREDICTED BY IDOCK:   -1.61 KCAL/MOL
REMARK 927      BINDING AFFINITY PREDICTED BY RF-SCORE:    0.00 PKD
ROOT
HETATM    1  C   UNL     1     -14.061   8.436  71.764  1.00  0.00    -0.438 C  
HETATM    2  N   UNL     1     -13.081   7.756  70.963  1.00  0.00    -0.553 N  
HETATM    3  C   UNL     1     -11.774   8.188  70.907  1.00  0.00    -0.244 C  
HETATM    4  H   UNL     1     -13.359   6.936  70.425  1.00  0.00     0.000 HD 
HETATM    5  O   UNL     1     -11.359   9.172  71.511  1.00  0.00    -0.314 OA 
ENDROOT
BRANCH   3   6
HETATM    6  C   UNL     1     -10.861   7.349  70.063  1.00  0.00    -0.252 A  
HETATM    7  N   UNL     1     -11.114   6.011  70.012  1.00  0.00    -0.377 NA 
HETATM    8  C   UNL     1     -10.238   5.267  69.300  1.00  0.00    -0.231 A  
HETATM    9  C   UNL     1      -9.108   5.780  68.676  1.00  0.00    -0.116 A  
HETATM   10  C   UNL     1      -8.868   7.146  68.769  1.00  0.00    -0.130 A  
HETATM   11  C   UNL     1      -9.791   7.957  69.428  1.00  0.00    -0.180 A  
BRANCH  10  12
HETATM   12  O   UNL     1      -7.712   7.626  68.180  1.00  0.00    -0.114 OA 
BRANCH  12  13
HETATM   13  C   UNL     1      -7.841   8.493  67.113  1.00  0.00    -0.097 A  
HETATM   14  C   UNL     1      -7.278   9.764  67.112  1.00  0.00    -0.087 A  
HETATM   15  C   UNL     1      -7.567  10.649  66.079  1.00  0.00    -0.142 A  
HETATM   16  C   UNL     1      -8.317  10.260  64.964  1.00  0.00    -0.168 A  
HETATM   17  C   UNL     1      -8.806   8.951  64.925  1.00  0.00    -0.161 A  
HETATM   18  C   UNL     1      -8.566   8.070  65.997  1.00  0.00    -0.162 A  
BRANCH  16  19
HETATM   19  N   UNL     1      -8.594  11.150  63.891  1.00  0.00    -0.370 N  
HETATM   20  H   UNL     1      -7.809  11.559  63.383  1.00  0.00     0.000 HD 
BRANCH  19  21
HETATM   21  C   UNL     1      -9.884  11.489  63.503  1.00  0.00    -0.383 C  
HETATM   22  O   UNL     1     -10.601  10.740  62.851  1.00  0.00     0.057 OA 
BRANCH  21  23
HETATM   23  N   UNL     1     -10.283  12.750  63.906  1.00  0.00    -0.542 N  
HETATM   24  H   UNL     1     -10.306  13.497  63.212  1.00  0.00     0.000 HD 
BRANCH  23  25
HETATM   25  C   UNL     1     -10.666  13.059  65.249  1.00  0.00    -0.299 A  
HETATM   26  C   UNL     1     -10.681  12.105  66.273  1.00  0.00    -0.296 A  
HETATM   27  C   UNL     1     -11.159  12.383  67.566  1.00  0.00    -0.313 A  
HETATM   28  C   UNL     1     -11.232  11.273  68.579  1.00  0.00    -0.252 C  
HETATM   29  C   UNL     1     -11.567  13.684  67.845  1.00  0.00    -0.341 A  
HETATM   30  F   UNL     1     -12.494  11.062  69.050  1.00  0.00    -0.383 F  
HETATM   31  F   UNL     1     -10.448  11.497  69.670  1.00  0.00    -0.141 F  
HETATM   32  F   UNL     1     -10.828  10.063  68.094  1.00  0.00    -0.240 F  
HETATM   33 CL   UNL     1     -12.147  14.142  69.404  1.00  0.00    -0.371 Cl 
HETATM   34  C   UNL     1     -11.509  14.669  66.849  1.00  0.00    -0.372 A  
HETATM   35  C   UNL     1     -11.065  14.361  65.556  1.00  0.00    -0.326 A  
ENDBRANCH  23  25
ENDBRANCH  21  23
ENDBRANCH  19  21
ENDBRANCH  16  19
ENDBRANCH  12  13
ENDBRANCH  10  12
ENDBRANCH   3   6
TORSDOF 7
ENDMDL
MODEL      112
REMARK 921   NORMALIZED FREE ENERGY PREDICTED BY IDOCK:   -5.74 KCAL/MOL
REMARK 922        TOTAL FREE ENERGY PREDICTED BY IDOCK:   -9.94 KCAL/MOL
REMARK 923 INTER-LIGAND FREE ENERGY PREDICTED BY IDOCK:   -9.21 KCAL/MOL
REMARK 924 INTRA-LIGAND FREE ENERGY PREDICTED BY IDOCK:   -0.73 KCAL/MOL
REMARK 927      BINDING AFFINITY PREDICTED BY RF-SCORE:    0.00 PKD
ROOT
HETATM    1  C   UNL     1      -8.709   6.656  66.514  1.00  0.00    -0.135 C  
HETATM    2  N   UNL     1      -9.213   7.174  67.756  1.00  0.00    -0.126 N  
HETATM    3  C   UNL     1      -9.252   6.400  68.895  1.00  0.00    -0.128 C  
HETATM    4  H   UNL     1      -9.549   8.136  67.795  1.00  0.00     0.000 HD 
HETATM    5  O   UNL     1      -8.881   5.231  68.932  1.00  0.00    -0.093 OA 
ENDROOT
BRANCH   3   6
HETATM    6  C   UNL     1      -9.763   7.095  70.122  1.00  0.00    -0.171 A  
HETATM    7  N   UNL     1      -9.107   6.857  71.292  1.00  0.00    -0.149 NA 
HETATM    8  C   UNL     1      -9.627   7.441  72.395  1.00  0.00    -0.153 A  
HETATM    9  C   UNL     1     -10.783   8.211  72.396  1.00  0.00    -0.404 A  
HETATM   10  C   UNL     1     -11.440   8.414  71.188  1.00  0.00    -0.274 A  
HETATM   11  C   UNL     1     -10.890   7.893  70.017  1.00  0.00    -0.238 A  
BRANCH  10  12
HETATM   12  O   UNL     1     -12.615   9.143  71.221  1.00  0.00    -0.312 OA 
BRANCH  12  13
HETATM   13  C   UNL     1     -12.537  10.506  71.012  1.00  0.00    -0.400 A  
HETATM   14  C   UNL     1     -13.044  11.430  71.919  1.00  0.00    -0.505 A  
HETATM   15  C   UNL     1     -13.075  12.780  71.588  1.00  0.00    -0.428 A  
HETATM   16  C   UNL     1     -12.495  13.264  70.410  1.00  0.00    -0.225 A  
HETATM   17  C   UNL     1     -11.904  12.341  69.542  1.00  0.00    -0.380 A  
HETATM   18  C   UNL     1     -11.923  10.966  69.845  1.00  0.00    -0.430 A  
BRANCH  16  19
HETATM   19  N   UNL     1     -12.498  14.645  70.078  1.00  0.00    -0.478 N  
HETATM   20  H   UNL     1     -13.238  14.999  69.471  1.00  0.00     0.000 HD 
BRANCH  19  21
HETATM   21  C   UNL     1     -11.539  15.537  70.543  1.00  0.00    -0.346 C  
HETATM   22  O   UNL     1     -11.720  16.261  71.514  1.00  0.00    -0.469 OA 
BRANCH  21  23
HETATM   23  N   UNL     1     -10.369  15.544  69.806  1.00  0.00    -0.294 N  
HETATM   24  H   UNL     1      -9.759  14.727  69.857  1.00  0.00     0.000 HD 
BRANCH  23  25
HETATM   25  C   UNL     1      -9.970  16.639  68.979  1.00  0.00    -0.280 A  
HETATM   26  C   UNL     1      -8.683  17.188  69.013  1.00  0.00    -0.103 A  
HETATM   27  C   UNL     1      -8.322  18.331  68.278  1.00  0.00    -0.316 A  
HETATM   28  C   UNL     1      -6.945  18.913  68.448  1.00  0.00    -0.254 C  
HETATM   29  C   UNL     1      -9.276  18.892  67.433  1.00  0.00    -0.286 A  
HETATM   30  F   UNL     1      -6.962  20.205  68.882  1.00  0.00    -0.338 F  
HETATM   31  F   UNL     1      -6.218  18.905  67.296  1.00  0.00    -0.170 F  
HETATM   32  F   UNL     1      -6.178  18.243  69.357  1.00  0.00    -0.222 F  
HETATM   33 CL   UNL     1      -8.934  20.280  66.467  1.00  0.00    -0.361 Cl 
HETATM   34  C   UNL     1     -10.555  18.325  67.342  1.00  0.00    -0.425 A  
HETATM   35  C   UNL     1     -10.906  17.208  68.113  1.00  0.00    -0.316 A  
ENDBRANCH  23  25
ENDBRANCH  21  23
ENDBRANCH  19  21
ENDBRANCH  16  19
ENDBRANCH  12  13
ENDBRANCH  10  12
ENDBRANCH   3   6
TORSDOF 7
ENDMDL
MODEL      113
REMARK 921   NORMALIZED FREE ENERGY PREDICTED BY IDOCK:   -5.74 KCAL/MOL
REMARK 922        TOTAL FREE ENERGY PREDICTED BY IDOCK:   -9.94 KCAL/MOL
REMARK 923 INTER-LIGAND FREE ENERGY PREDICTED BY IDOCK:   -9.04 KCAL/MOL
REMARK 924 INTRA-LIGAND FREE ENERGY PREDICTED BY IDOCK:   -0.90 KCAL/MOL
REMARK 927      BINDING AFFINITY PREDICTED BY RF-SCORE:    0.00 PKD
ROOT
HETATM    1  C   UNL     1     -10.483  18.033  67.711  1.00  0.00    -0.408 C  
HETATM    2  N   UNL     1     -11.033  17.313  68.826  1.00  0.00    -0.263 N  
HETATM    3  C   UNL     1     -11.395  15.988  68.718  1.00  0.00    -0.380 C  
HETATM    4  H   UNL     1     -11.158  17.793  69.716  1.00  0.00     0.000 HD 
HETATM    5  O   UNL     1     -11.292  15.340  67.682  1.00  0.00    -0.328 OA 
ENDROOT
BRANCH   3   6
HETATM    6  C   UNL     1     -11.912  15.364  69.980  1.00  0.00    -0.356 A  
HETATM    7  N   UNL     1     -11.853  16.115  71.116  1.00  0.00    -0.413 NA 
HETATM    8  C   UNL     1     -12.262  15.506  72.252  1.00  0.00    -0.415 A  
HETATM    9  C   UNL     1     -12.684  14.185  72.320  1.00  0.00    -0.362 A  
HETATM   10  C   UNL     1     -12.709  13.442  71.146  1.00  0.00    -0.328 A  
HETATM   11  C   UNL     1     -12.370  14.057  69.942  1.00  0.00    -0.367 A  
BRANCH  10  12
HETATM   12  O   UNL     1     -13.087  12.115  71.245  1.00  0.00    -0.280 OA 
BRANCH  12  13
HETATM   13  C   UNL     1     -12.275  11.165  70.658  1.00  0.00    -0.397 A  
HETATM   14  C   UNL     1     -11.594  10.205  71.397  1.00  0.00    -0.315 A  
HETATM   15  C   UNL     1     -10.673   9.372  70.772  1.00  0.00    -0.373 A  
HETATM   16  C   UNL     1     -10.493   9.384  69.384  1.00  0.00    -0.220 A  
HETATM   17  C   UNL     1     -11.248  10.289  68.631  1.00  0.00    -0.263 A  
HETATM   18  C   UNL     1     -12.138  11.175  69.268  1.00  0.00    -0.377 A  
BRANCH  16  19
HETATM   19  N   UNL     1      -9.574   8.517  68.734  1.00  0.00    -0.148 N  
HETATM   20  H   UNL     1      -9.942   7.733  68.194  1.00  0.00     0.000 HD 
BRANCH  19  21
HETATM   21  C   UNL     1      -8.197   8.688  68.799  1.00  0.00    -0.121 C  
HETATM   22  O   UNL     1      -7.525   8.319  69.755  1.00  0.00    -0.073 OA 
BRANCH  21  23
HETATM   23  N   UNL     1      -7.652   9.322  67.697  1.00  0.00    -0.088 N  
HETATM   24  H   UNL     1      -6.733   9.023  67.371  1.00  0.00     0.000 HD 
BRANCH  23  25
HETATM   25  C   UNL     1      -8.314  10.376  66.993  1.00  0.00    -0.127 A  
HETATM   26  C   UNL     1      -8.848  10.213  65.709  1.00  0.00    -0.177 A  
HETATM   27  C   UNL     1      -9.402  11.276  64.975  1.00  0.00    -0.200 A  
HETATM   28  C   UNL     1      -9.864  11.036  63.564  1.00  0.00    -0.359 C  
HETATM   29  C   UNL     1      -9.479  12.523  65.589  1.00  0.00    -0.004 A  
HETATM   30  F   UNL     1      -9.227  11.822  62.652  1.00  0.00    -0.366 F  
HETATM   31  F   UNL     1     -11.198  11.257  63.396  1.00  0.00    -0.453 F  
HETATM   32  F   UNL     1      -9.660   9.756  63.133  1.00  0.00    -0.310 F  
HETATM   33 CL   UNL     1     -10.163  13.891  64.790  1.00  0.00    -0.416 Cl 
HETATM   34  C   UNL     1      -9.000  12.696  66.895  1.00  0.00    -0.213 A  
HETATM   35  C   UNL     1      -8.415  11.631  67.595  1.00  0.00    -0.142 A  
ENDBRANCH  23  25
ENDBRANCH  21  23
ENDBRANCH  19  21
ENDBRANCH  16  19
ENDBRANCH  12  13
ENDBRANCH  10  12
ENDBRANCH   3   6
TORSDOF 7
ENDMDL
MODEL      114
REMARK 921   NORMALIZED FREE ENERGY PREDICTED BY IDOCK:   -5.69 KCAL/MOL
REMARK 922        TOTAL FREE ENERGY PREDICTED BY IDOCK:   -9.86 KCAL/MOL
REMARK 923 INTER-LIGAND FREE ENERGY PREDICTED BY IDOCK:   -8.25 KCAL/MOL
REMARK 924 INTRA-LIGAND FREE ENERGY PREDICTED BY IDOCK:   -1.61 KCAL/MOL
REMARK 927      BINDING AFFINITY PREDICTED BY RF-SCORE:    0.00 PKD
ROOT
HETATM    1  C   UNL     1     -13.626  14.188  72.151  1.00  0.00    -0.475 C  
HETATM    2  N   UNL     1     -13.535  12.756  72.100  1.00  0.00    -0.542 N  
HETATM    3  C   UNL     1     -12.749  12.118  71.164  1.00  0.00    -0.253 C  
HETATM    4  H   UNL     1     -14.063  12.198  72.771  1.00  0.00     0.000 HD 
HETATM    5  O   UNL     1     -12.095  12.711  70.313  1.00  0.00    -0.349 OA 
ENDROOT
BRANCH   3   6
HETATM    6  C   UNL     1     -12.723  10.622  71.267  1.00  0.00    -0.433 A  
HETATM    7  N   UNL     1     -13.629  10.039  72.101  1.00  0.00    -0.341 NA 
HETATM    8  C   UNL     1     -13.540   8.696  72.228  1.00  0.00    -0.383 A  
HETATM    9  C   UNL     1     -12.576   7.916  71.602  1.00  0.00    -0.344 A  
HETATM   10  C   UNL     1     -11.653   8.548  70.777  1.00  0.00    -0.231 A  
HETATM   11  C   UNL     1     -11.761   9.921  70.560  1.00  0.00    -0.373 A  
BRANCH  10  12
HETATM   12  O   UNL     1     -10.673   7.758  70.203  1.00  0.00    -0.234 OA 
BRANCH  12  13
HETATM   13  C   UNL     1      -9.524   8.377  69.753  1.00  0.00    -0.162 A  
HETATM   14  C   UNL     1      -8.573   8.905  70.618  1.00  0.00    -0.224 A  
HETATM   15  C   UNL     1      -7.514   9.651  70.113  1.00  0.00    -0.157 A  
HETATM   16  C   UNL     1      -7.301   9.789  68.737  1.00  0.00    -0.074 A  
HETATM   17  C   UNL     1      -8.209   9.178  67.867  1.00  0.00    -0.112 A  
HETATM   18  C   UNL     1      -9.316   8.473  68.375  1.00  0.00    -0.137 A  
BRANCH  16  19
HETATM   19  N   UNL     1      -6.206  10.526  68.212  1.00  0.00    -0.054 N  
HETATM   20  H   UNL     1      -5.260  10.189  68.394  1.00  0.00     0.000 HD 
BRANCH  19  21
HETATM   21  C   UNL     1      -6.364  11.685  67.461  1.00  0.00    -0.087 C  
HETATM   22  O   UNL     1      -5.886  11.823  66.342  1.00  0.00    -0.212 OA 
BRANCH  21  23
HETATM   23  N   UNL     1      -7.097  12.673  68.093  1.00  0.00    -0.091 N  
HETATM   24  H   UNL     1      -6.710  13.100  68.934  1.00  0.00     0.000 HD 
BRANCH  23  25
HETATM   25  C   UNL     1      -8.370  13.124  67.625  1.00  0.00    -0.174 A  
HETATM   26  C   UNL     1      -9.017  14.249  68.150  1.00  0.00    -0.189 A  
HETATM   27  C   UNL     1     -10.315  14.630  67.765  1.00  0.00    -0.237 A  
HETATM   28  C   UNL     1     -10.975  15.795  68.451  1.00  0.00    -0.323 C  
HETATM   29  C   UNL     1     -10.944  13.889  66.770  1.00  0.00    -0.299 A  
HETATM   30  F   UNL     1     -12.144  15.460  69.067  1.00  0.00    -0.345 F  
HETATM   31  F   UNL     1     -11.269  16.817  67.600  1.00  0.00    -0.274 F  
HETATM   32  F   UNL     1     -10.208  16.359  69.430  1.00  0.00    -0.235 F  
HETATM   33 CL   UNL     1     -12.526  14.282  66.204  1.00  0.00    -0.434 Cl 
HETATM   34  C   UNL     1     -10.292  12.791  66.191  1.00  0.00    -0.283 A  
HETATM   35  C   UNL     1      -9.014  12.405  66.617  1.00  0.00    -0.184 A  
ENDBRANCH  23  25
ENDBRANCH  21  23
ENDBRANCH  19  21
ENDBRANCH  16  19
ENDBRANCH  12  13
ENDBRANCH  10  12
ENDBRANCH   3   6
TORSDOF 7
ENDMDL
MODEL      115
REMARK 921   NORMALIZED FREE ENERGY PREDICTED BY IDOCK:   -5.68 KCAL/MOL
REMARK 922        TOTAL FREE ENERGY PREDICTED BY IDOCK:   -9.85 KCAL/MOL
REMARK 923 INTER-LIGAND FREE ENERGY PREDICTED BY IDOCK:   -9.03 KCAL/MOL
REMARK 924 INTRA-LIGAND FREE ENERGY PREDICTED BY IDOCK:   -0.82 KCAL/MOL
REMARK 927      BINDING AFFINITY PREDICTED BY RF-SCORE:    0.00 PKD
ROOT
HETATM    1  C   UNL     1      -9.221   2.817  64.293  1.00  0.00    -0.123 C  
HETATM    2  N   UNL     1      -9.396   4.110  64.894  1.00  0.00    -0.155 N  
HETATM    3  C   UNL     1      -9.677   4.247  66.236  1.00  0.00    -0.213 C  
HETATM    4  H   UNL     1      -9.311   4.944  64.315  1.00  0.00     0.000 HD 
HETATM    5  O   UNL     1      -9.810   3.297  67.001  1.00  0.00    -0.013 OA 
ENDROOT
BRANCH   3   6
HETATM    6  C   UNL     1      -9.788   5.661  66.723  1.00  0.00    -0.164 A  
HETATM    7  N   UNL     1     -10.651   5.900  67.750  1.00  0.00    -0.246 NA 
HETATM    8  C   UNL     1     -10.784   7.193  68.125  1.00  0.00    -0.160 A  
HETATM    9  C   UNL     1     -10.136   8.254  67.507  1.00  0.00    -0.287 A  
HETATM   10  C   UNL     1      -9.281   7.975  66.447  1.00  0.00    -0.194 A  
HETATM   11  C   UNL     1      -9.058   6.648  66.082  1.00  0.00    -0.143 A  
BRANCH  10  12
HETATM   12  O   UNL     1      -8.684   9.052  65.816  1.00  0.00    -0.148 OA 
BRANCH  12  13
HETATM   13  C   UNL     1      -9.506   9.997  65.234  1.00  0.00    -0.263 A  
HETATM   14  C   UNL     1      -9.573  10.181  63.858  1.00  0.00    -0.302 A  
HETATM   15  C   UNL     1     -10.298  11.246  63.336  1.00  0.00    -0.449 A  
HETATM   16  C   UNL     1     -11.073  12.080  64.150  1.00  0.00    -0.368 A  
HETATM   17  C   UNL     1     -11.076  11.834  65.526  1.00  0.00    -0.336 A  
HETATM   18  C   UNL     1     -10.295  10.794  66.065  1.00  0.00    -0.300 A  
BRANCH  16  19
HETATM   19  N   UNL     1     -11.839  13.153  63.622  1.00  0.00    -0.610 N  
HETATM   20  H   UNL     1     -12.097  13.128  62.635  1.00  0.00     0.000 HD 
BRANCH  19  21
HETATM   21  C   UNL     1     -12.254  14.236  64.388  1.00  0.00    -0.447 C  
HETATM   22  O   UNL     1     -13.222  14.188  65.137  1.00  0.00    -0.743 OA 
BRANCH  21  23
HETATM   23  N   UNL     1     -11.487  15.374  64.221  1.00  0.00    -0.721 N  
HETATM   24  H   UNL     1     -11.592  15.907  63.357  1.00  0.00     0.000 HD 
BRANCH  23  25
HETATM   25  C   UNL     1     -10.556  15.842  65.199  1.00  0.00    -0.411 A  
HETATM   26  C   UNL     1      -9.598  15.011  65.793  1.00  0.00    -0.327 A  
HETATM   27  C   UNL     1      -8.754  15.444  66.831  1.00  0.00    -0.285 A  
HETATM   28  C   UNL     1      -7.821  14.459  67.482  1.00  0.00    -0.190 C  
HETATM   29  C   UNL     1      -8.837  16.775  67.228  1.00  0.00    -0.204 A  
HETATM   30  F   UNL     1      -8.034  14.326  68.821  1.00  0.00    -0.129 F  
HETATM   31  F   UNL     1      -6.508  14.792  67.334  1.00  0.00    -0.183 F  
HETATM   32  F   UNL     1      -7.925  13.194  66.979  1.00  0.00    -0.165 F  
HETATM   33 CL   UNL     1      -7.832  17.419  68.474  1.00  0.00    -0.260 Cl 
HETATM   34  C   UNL     1      -9.751  17.639  66.608  1.00  0.00    -0.304 A  
HETATM   35  C   UNL     1     -10.611  17.177  65.602  1.00  0.00    -0.187 A  
ENDBRANCH  23  25
ENDBRANCH  21  23
ENDBRANCH  19  21
ENDBRANCH  16  19
ENDBRANCH  12  13
ENDBRANCH  10  12
ENDBRANCH   3   6
TORSDOF 7
ENDMDL
MODEL      116
REMARK 921   NORMALIZED FREE ENERGY PREDICTED BY IDOCK:   -5.67 KCAL/MOL
REMARK 922        TOTAL FREE ENERGY PREDICTED BY IDOCK:   -9.84 KCAL/MOL
REMARK 923 INTER-LIGAND FREE ENERGY PREDICTED BY IDOCK:   -8.99 KCAL/MOL
REMARK 924 INTRA-LIGAND FREE ENERGY PREDICTED BY IDOCK:   -0.85 KCAL/MOL
REMARK 927      BINDING AFFINITY PREDICTED BY RF-SCORE:    0.00 PKD
ROOT
HETATM    1  C   UNL     1     -11.035   2.202  62.848  1.00  0.00    -0.234 C  
HETATM    2  N   UNL     1     -10.647   2.692  64.141  1.00  0.00    -0.418 N  
HETATM    3  C   UNL     1      -9.348   3.069  64.407  1.00  0.00    -0.142 C  
HETATM    4  H   UNL     1     -11.347   2.762  64.879  1.00  0.00     0.000 HD 
HETATM    5  O   UNL     1      -8.442   3.003  63.584  1.00  0.00    -0.086 OA 
ENDROOT
BRANCH   3   6
HETATM    6  C   UNL     1      -9.109   3.601  65.789  1.00  0.00    -0.152 A  
HETATM    7  N   UNL     1      -8.892   2.689  66.778  1.00  0.00    -0.124 NA 
HETATM    8  C   UNL     1      -8.746   3.190  68.026  1.00  0.00    -0.108 A  
HETATM    9  C   UNL     1      -8.847   4.539  68.341  1.00  0.00    -0.126 A  
HETATM   10  C   UNL     1      -9.093   5.438  67.309  1.00  0.00    -0.111 A  
HETATM   11  C   UNL     1      -9.170   4.968  65.999  1.00  0.00    -0.154 A  
BRANCH  10  12
HETATM   12  O   UNL     1      -9.236   6.771  67.653  1.00  0.00    -0.120 OA 
BRANCH  12  13
HETATM   13  C   UNL     1      -9.956   7.071  68.792  1.00  0.00    -0.160 A  
HETATM   14  C   UNL     1     -11.081   6.350  69.176  1.00  0.00    -0.428 A  
HETATM   15  C   UNL     1     -11.855   6.789  70.244  1.00  0.00    -0.359 A  
HETATM   16  C   UNL     1     -11.470   7.878  71.034  1.00  0.00    -0.280 A  
HETATM   17  C   UNL     1     -10.288   8.546  70.701  1.00  0.00    -0.232 A  
HETATM   18  C   UNL     1      -9.533   8.141  69.583  1.00  0.00    -0.159 A  
BRANCH  16  19
HETATM   19  N   UNL     1     -12.240   8.316  72.144  1.00  0.00    -0.344 N  
HETATM   20  H   UNL     1     -11.918   8.082  73.084  1.00  0.00     0.000 HD 
BRANCH  19  21
HETATM   21  C   UNL     1     -13.414   9.048  72.009  1.00  0.00    -0.442 C  
HETATM   22  O   UNL     1     -14.406   8.615  71.438  1.00  0.00    -0.386 OA 
BRANCH  21  23
HETATM   23  N   UNL     1     -13.358  10.313  72.566  1.00  0.00    -0.504 N  
HETATM   24  H   UNL     1     -13.552  10.413  73.563  1.00  0.00     0.000 HD 
BRANCH  23  25
HETATM   25  C   UNL     1     -13.043  11.487  71.814  1.00  0.00    -0.398 A  
HETATM   26  C   UNL     1     -12.330  11.449  70.610  1.00  0.00    -0.466 A  
HETATM   27  C   UNL     1     -11.928  12.610  69.926  1.00  0.00    -0.365 A  
HETATM   28  C   UNL     1     -11.079  12.481  68.690  1.00  0.00    -0.265 C  
HETATM   29  C   UNL     1     -12.321  13.841  70.443  1.00  0.00    -0.353 A  
HETATM   30  F   UNL     1      -9.881  13.121  68.797  1.00  0.00    -0.202 F  
HETATM   31  F   UNL     1     -11.683  12.980  67.576  1.00  0.00    -0.324 F  
HETATM   32  F   UNL     1     -10.765  11.190  68.376  1.00  0.00    -0.175 F  
HETATM   33 CL   UNL     1     -11.904  15.328  69.672  1.00  0.00    -0.339 Cl 
HETATM   34  C   UNL     1     -13.082  13.900  71.618  1.00  0.00    -0.446 A  
HETATM   35  C   UNL     1     -13.440  12.732  72.306  1.00  0.00    -0.591 A  
ENDBRANCH  23  25
ENDBRANCH  21  23
ENDBRANCH  19  21
ENDBRANCH  16  19
ENDBRANCH  12  13
ENDBRANCH  10  12
ENDBRANCH   3   6
TORSDOF 7
ENDMDL
MODEL      117
REMARK 921   NORMALIZED FREE ENERGY PREDICTED BY IDOCK:   -5.67 KCAL/MOL
REMARK 922        TOTAL FREE ENERGY PREDICTED BY IDOCK:   -9.83 KCAL/MOL
REMARK 923 INTER-LIGAND FREE ENERGY PREDICTED BY IDOCK:   -8.88 KCAL/MOL
REMARK 924 INTRA-LIGAND FREE ENERGY PREDICTED BY IDOCK:   -0.95 KCAL/MOL
REMARK 927      BINDING AFFINITY PREDICTED BY RF-SCORE:    0.00 PKD
ROOT
HETATM    1  C   UNL     1      -6.690   8.441  67.388  1.00  0.00    -0.063 C  
HETATM    2  N   UNL     1      -7.361   9.281  66.435  1.00  0.00    -0.091 N  
HETATM    3  C   UNL     1      -8.598   8.947  65.928  1.00  0.00    -0.158 C  
HETATM    4  H   UNL     1      -6.912  10.143  66.126  1.00  0.00     0.000 HD 
HETATM    5  O   UNL     1      -9.202   7.924  66.234  1.00  0.00    -0.181 OA 
ENDROOT
BRANCH   3   6
HETATM    6  C   UNL     1      -9.188   9.946  64.978  1.00  0.00    -0.240 A  
HETATM    7  N   UNL     1      -9.223   9.606  63.659  1.00  0.00    -0.198 NA 
HETATM    8  C   UNL     1      -9.697  10.549  62.814  1.00  0.00    -0.226 A  
HETATM    9  C   UNL     1     -10.096  11.819  63.209  1.00  0.00    -0.448 A  
HETATM   10  C   UNL     1     -10.024  12.140  64.560  1.00  0.00    -0.205 A  
HETATM   11  C   UNL     1      -9.616  11.167  65.471  1.00  0.00    -0.263 A  
BRANCH  10  12
HETATM   12  O   UNL     1     -10.382  13.426  64.924  1.00  0.00    -0.354 OA 
BRANCH  12  13
HETATM   13  C   UNL     1     -10.590  13.685  66.265  1.00  0.00    -0.289 A  
HETATM   14  C   UNL     1     -11.860  13.857  66.802  1.00  0.00    -0.452 A  
HETATM   15  C   UNL     1     -12.004  14.266  68.124  1.00  0.00    -0.343 A  
HETATM   16  C   UNL     1     -10.904  14.394  68.979  1.00  0.00    -0.252 A  
HETATM   17  C   UNL     1      -9.633  14.131  68.459  1.00  0.00    -0.214 A  
HETATM   18  C   UNL     1      -9.478  13.775  67.105  1.00  0.00    -0.244 A  
BRANCH  16  19
HETATM   19  N   UNL     1     -11.045  14.784  70.338  1.00  0.00    -0.456 N  
HETATM   20  H   UNL     1     -10.403  15.484  70.713  1.00  0.00     0.000 HD 
BRANCH  19  21
HETATM   21  C   UNL     1     -12.017  14.257  71.179  1.00  0.00    -0.282 C  
HETATM   22  O   UNL     1     -12.202  14.665  72.319  1.00  0.00    -0.321 OA 
BRANCH  21  23
HETATM   23  N   UNL     1     -12.747  13.223  70.622  1.00  0.00    -0.210 N  
HETATM   24  H   UNL     1     -13.470  13.453  69.939  1.00  0.00     0.000 HD 
BRANCH  23  25
HETATM   25  C   UNL     1     -12.541  11.849  70.957  1.00  0.00    -0.283 A  
HETATM   26  C   UNL     1     -11.543  11.065  70.366  1.00  0.00    -0.389 A  
HETATM   27  C   UNL     1     -11.409   9.688  70.616  1.00  0.00    -0.379 A  
HETATM   28  C   UNL     1     -10.371   8.900  69.864  1.00  0.00    -0.206 C  
HETATM   29  C   UNL     1     -12.268   9.106  71.543  1.00  0.00    -0.349 A  
HETATM   30  F   UNL     1     -10.902   7.879  69.133  1.00  0.00    -0.223 F  
HETATM   31  F   UNL     1      -9.434   8.341  70.679  1.00  0.00    -0.155 F  
HETATM   32  F   UNL     1      -9.662   9.647  68.967  1.00  0.00    -0.153 F  
HETATM   33 CL   UNL     1     -12.177   7.430  71.944  1.00  0.00    -0.332 Cl 
HETATM   34  C   UNL     1     -13.240   9.884  72.187  1.00  0.00    -0.511 A  
HETATM   35  C   UNL     1     -13.382  11.248  71.895  1.00  0.00    -0.413 A  
ENDBRANCH  23  25
ENDBRANCH  21  23
ENDBRANCH  19  21
ENDBRANCH  16  19
ENDBRANCH  12  13
ENDBRANCH  10  12
ENDBRANCH   3   6
TORSDOF 7
ENDMDL
MODEL      118
REMARK 921   NORMALIZED FREE ENERGY PREDICTED BY IDOCK:   -5.66 KCAL/MOL
REMARK 922        TOTAL FREE ENERGY PREDICTED BY IDOCK:   -9.82 KCAL/MOL
REMARK 923 INTER-LIGAND FREE ENERGY PREDICTED BY IDOCK:   -9.32 KCAL/MOL
REMARK 924 INTRA-LIGAND FREE ENERGY PREDICTED BY IDOCK:   -0.50 KCAL/MOL
REMARK 927      BINDING AFFINITY PREDICTED BY RF-SCORE:    0.00 PKD
ROOT
HETATM    1  C   UNL     1     -10.035   4.705  65.421  1.00  0.00    -0.148 C  
HETATM    2  N   UNL     1      -9.923   4.772  66.852  1.00  0.00    -0.207 N  
HETATM    3  C   UNL     1     -10.557   5.757  67.577  1.00  0.00    -0.253 C  
HETATM    4  H   UNL     1      -9.362   4.075  67.341  1.00  0.00     0.000 HD 
HETATM    5  O   UNL     1     -11.238   6.641  67.068  1.00  0.00    -0.404 OA 
ENDROOT
BRANCH   3   6
HETATM    6  C   UNL     1     -10.380   5.668  69.064  1.00  0.00    -0.243 A  
HETATM    7  N   UNL     1      -9.613   4.647  69.540  1.00  0.00    -0.170 NA 
HETATM    8  C   UNL     1      -9.524   4.548  70.885  1.00  0.00    -0.166 A  
HETATM    9  C   UNL     1     -10.190   5.382  71.774  1.00  0.00    -0.263 A  
HETATM   10  C   UNL     1     -10.984   6.397  71.253  1.00  0.00    -0.271 A  
HETATM   11  C   UNL     1     -11.038   6.581  69.872  1.00  0.00    -0.430 A  
BRANCH  10  12
HETATM   12  O   UNL     1     -11.676   7.185  72.155  1.00  0.00    -0.277 OA 
BRANCH  12  13
HETATM   13  C   UNL     1     -11.951   8.490  71.797  1.00  0.00    -0.332 A  
HETATM   14  C   UNL     1     -13.061   9.177  72.274  1.00  0.00    -0.509 A  
HETATM   15  C   UNL     1     -13.373  10.432  71.763  1.00  0.00    -0.456 A  
HETATM   16  C   UNL     1     -12.529  11.090  70.862  1.00  0.00    -0.410 A  
HETATM   17  C   UNL     1     -11.364  10.434  70.454  1.00  0.00    -0.417 A  
HETATM   18  C   UNL     1     -11.075   9.139  70.923  1.00  0.00    -0.356 A  
BRANCH  16  19
HETATM   19  N   UNL     1     -12.825  12.385  70.356  1.00  0.00     0.144 N  
HETATM   20  H   UNL     1     -13.575  12.480  69.670  1.00  0.00     0.000 HD 
BRANCH  19  21
HETATM   21  C   UNL     1     -12.142  13.527  70.754  1.00  0.00    -0.271 C  
HETATM   22  O   UNL     1     -12.306  14.054  71.847  1.00  0.00    -0.266 OA 
BRANCH  21  23
HETATM   23  N   UNL     1     -11.269  14.024  69.803  1.00  0.00    -0.436 N  
HETATM   24  H   UNL     1     -10.524  14.650  70.109  1.00  0.00     0.000 HD 
BRANCH  23  25
HETATM   25  C   UNL     1     -11.359  13.704  68.413  1.00  0.00    -0.295 A  
HETATM   26  C   UNL     1     -10.791  12.550  67.861  1.00  0.00    -0.251 A  
HETATM   27  C   UNL     1     -10.787  12.289  66.479  1.00  0.00    -0.297 A  
HETATM   28  C   UNL     1     -10.067  11.074  65.961  1.00  0.00    -0.247 C  
HETATM   29  C   UNL     1     -11.440  13.190  65.643  1.00  0.00    -0.323 A  
HETATM   30  F   UNL     1      -9.080  11.377  65.072  1.00  0.00    -0.205 F  
HETATM   31  F   UNL     1     -10.895  10.195  65.329  1.00  0.00    -0.139 F  
HETATM   32  F   UNL     1      -9.453  10.344  66.937  1.00  0.00    -0.172 F  
HETATM   33 CL   UNL     1     -11.518  12.956  63.936  1.00  0.00    -0.469 Cl 
HETATM   34  C   UNL     1     -12.063  14.325  66.181  1.00  0.00    -0.424 A  
HETATM   35  C   UNL     1     -12.022  14.586  67.558  1.00  0.00    -0.358 A  
ENDBRANCH  23  25
ENDBRANCH  21  23
ENDBRANCH  19  21
ENDBRANCH  16  19
ENDBRANCH  12  13
ENDBRANCH  10  12
ENDBRANCH   3   6
TORSDOF 7
ENDMDL
MODEL      119
REMARK 921   NORMALIZED FREE ENERGY PREDICTED BY IDOCK:   -5.65 KCAL/MOL
REMARK 922        TOTAL FREE ENERGY PREDICTED BY IDOCK:   -9.80 KCAL/MOL
REMARK 923 INTER-LIGAND FREE ENERGY PREDICTED BY IDOCK:   -8.62 KCAL/MOL
REMARK 924 INTRA-LIGAND FREE ENERGY PREDICTED BY IDOCK:   -1.18 KCAL/MOL
REMARK 927      BINDING AFFINITY PREDICTED BY RF-SCORE:    0.00 PKD
ROOT
HETATM    1  C   UNL     1     -11.042   4.542  73.518  1.00  0.00    -0.314 C  
HETATM    2  N   UNL     1     -10.456   5.397  72.523  1.00  0.00    -0.205 N  
HETATM    3  C   UNL     1      -9.957   4.890  71.342  1.00  0.00    -0.197 C  
HETATM    4  H   UNL     1     -10.409   6.401  72.694  1.00  0.00     0.000 HD 
HETATM    5  O   UNL     1      -9.961   3.696  71.063  1.00  0.00    -0.159 OA 
ENDROOT
BRANCH   3   6
HETATM    6  C   UNL     1      -9.419   5.913  70.387  1.00  0.00    -0.163 A  
HETATM    7  N   UNL     1      -8.773   5.451  69.279  1.00  0.00    -0.101 NA 
HETATM    8  C   UNL     1      -8.238   6.392  68.468  1.00  0.00    -0.113 A  
HETATM    9  C   UNL     1      -8.279   7.756  68.724  1.00  0.00    -0.128 A  
HETATM   10  C   UNL     1      -8.926   8.190  69.876  1.00  0.00    -0.143 A  
HETATM   11  C   UNL     1      -9.558   7.255  70.696  1.00  0.00    -0.172 A  
BRANCH  10  12
HETATM   12  O   UNL     1      -8.913   9.548  70.136  1.00  0.00    -0.203 OA 
BRANCH  12  13
HETATM   13  C   UNL     1      -9.706  10.364  69.354  1.00  0.00    -0.200 A  
HETATM   14  C   UNL     1     -11.060  10.551  69.606  1.00  0.00    -0.338 A  
HETATM   15  C   UNL     1     -11.843  11.259  68.701  1.00  0.00    -0.369 A  
HETATM   16  C   UNL     1     -11.285  11.903  67.591  1.00  0.00    -0.276 A  
HETATM   17  C   UNL     1      -9.906  11.790  67.390  1.00  0.00    -0.189 A  
HETATM   18  C   UNL     1      -9.119  11.024  68.272  1.00  0.00    -0.158 A  
BRANCH  16  19
HETATM   19  N   UNL     1     -12.073  12.652  66.676  1.00  0.00    -0.301 N  
HETATM   20  H   UNL     1     -12.745  12.155  66.092  1.00  0.00     0.000 HD 
BRANCH  19  21
HETATM   21  C   UNL     1     -11.971  14.031  66.542  1.00  0.00    -0.444 C  
HETATM   22  O   UNL     1     -11.916  14.591  65.455  1.00  0.00    -0.362 OA 
BRANCH  21  23
HETATM   23  N   UNL     1     -11.924  14.715  67.743  1.00  0.00    -0.545 N  
HETATM   24  H   UNL     1     -12.631  14.506  68.448  1.00  0.00     0.000 HD 
BRANCH  23  25
HETATM   25  C   UNL     1     -10.934  15.701  68.046  1.00  0.00    -0.318 A  
HETATM   26  C   UNL     1     -11.125  17.067  67.808  1.00  0.00    -0.090 A  
HETATM   27  C   UNL     1     -10.113  18.023  68.005  1.00  0.00    -0.370 A  
HETATM   28  C   UNL     1     -10.371  19.457  67.631  1.00  0.00    -0.437 C  
HETATM   29  C   UNL     1      -8.897  17.589  68.524  1.00  0.00    -0.282 A  
HETATM   30  F   UNL     1      -9.497  19.931  66.698  1.00  0.00    -0.378 F  
HETATM   31  F   UNL     1     -10.294  20.306  68.694  1.00  0.00    -0.537 F  
HETATM   32  F   UNL     1     -11.609  19.668  67.097  1.00  0.00    -0.338 F  
HETATM   33 CL   UNL     1      -7.595  18.679  68.829  1.00  0.00    -0.335 Cl 
HETATM   34  C   UNL     1      -8.703  16.232  68.821  1.00  0.00    -0.244 A  
HETATM   35  C   UNL     1      -9.712  15.290  68.581  1.00  0.00    -0.212 A  
ENDBRANCH  23  25
ENDBRANCH  21  23
ENDBRANCH  19  21
ENDBRANCH  16  19
ENDBRANCH  12  13
ENDBRANCH  10  12
ENDBRANCH   3   6
TORSDOF 7
ENDMDL
MODEL      120
REMARK 921   NORMALIZED FREE ENERGY PREDICTED BY IDOCK:   -5.64 KCAL/MOL
REMARK 922        TOTAL FREE ENERGY PREDICTED BY IDOCK:   -9.79 KCAL/MOL
REMARK 923 INTER-LIGAND FREE ENERGY PREDICTED BY IDOCK:   -8.13 KCAL/MOL
REMARK 924 INTRA-LIGAND FREE ENERGY PREDICTED BY IDOCK:   -1.66 KCAL/MOL
REMARK 927      BINDING AFFINITY PREDICTED BY RF-SCORE:    0.00 PKD
ROOT
HETATM    1  C   UNL     1     -10.585  20.158  65.469  1.00  0.00    -0.127 C  
HETATM    2  N   UNL     1      -9.838  19.195  66.229  1.00  0.00    -0.370 N  
HETATM    3  C   UNL     1      -9.906  19.155  67.605  1.00  0.00    -0.335 C  
HETATM    4  H   UNL     1      -9.244  18.525  65.740  1.00  0.00     0.000 HD 
HETATM    5  O   UNL     1     -10.583  19.931  68.272  1.00  0.00    -0.376 OA 
ENDROOT
BRANCH   3   6
HETATM    6  C   UNL     1      -9.105  18.065  68.252  1.00  0.00    -0.278 A  
HETATM    7  N   UNL     1      -7.775  18.296  68.437  1.00  0.00    -0.290 NA 
HETATM    8  C   UNL     1      -7.061  17.273  68.960  1.00  0.00    -0.233 A  
HETATM    9  C   UNL     1      -7.595  16.028  69.267  1.00  0.00    -0.230 A  
HETATM   10  C   UNL     1      -8.951  15.820  69.043  1.00  0.00    -0.246 A  
HETATM   11  C   UNL     1      -9.735  16.876  68.579  1.00  0.00    -0.264 A  
BRANCH  10  12
HETATM   12  O   UNL     1      -9.450  14.558  69.310  1.00  0.00    -0.073 OA 
BRANCH  12  13
HETATM   13  C   UNL     1      -9.247  13.569  68.369  1.00  0.00    -0.159 A  
HETATM   14  C   UNL     1      -8.189  12.670  68.447  1.00  0.00    -0.129 A  
HETATM   15  C   UNL     1      -7.943  11.795  67.395  1.00  0.00    -0.155 A  
HETATM   16  C   UNL     1      -8.807  11.701  66.298  1.00  0.00    -0.164 A  
HETATM   17  C   UNL     1      -9.923  12.543  66.266  1.00  0.00    -0.263 A  
HETATM   18  C   UNL     1     -10.142  13.473  67.301  1.00  0.00    -0.235 A  
BRANCH  16  19
HETATM   19  N   UNL     1      -8.578  10.790  65.232  1.00  0.00    -0.255 N  
HETATM   20  H   UNL     1      -8.380  11.166  64.304  1.00  0.00     0.000 HD 
BRANCH  19  21
HETATM   21  C   UNL     1      -8.612   9.410  65.395  1.00  0.00    -0.156 C  
HETATM   22  O   UNL     1      -7.616   8.705  65.299  1.00  0.00    -0.084 OA 
BRANCH  21  23
HETATM   23  N   UNL     1      -9.870   8.903  65.663  1.00  0.00    -0.453 N  
HETATM   24  H   UNL     1     -10.563   8.902  64.914  1.00  0.00     0.000 HD 
BRANCH  23  25
HETATM   25  C   UNL     1     -10.249   8.380  66.939  1.00  0.00    -0.313 A  
HETATM   26  C   UNL     1     -10.463   9.192  68.059  1.00  0.00    -0.276 A  
HETATM   27  C   UNL     1     -10.730   8.670  69.338  1.00  0.00    -0.169 A  
HETATM   28  C   UNL     1     -10.850   9.609  70.507  1.00  0.00    -0.309 C  
HETATM   29  C   UNL     1     -10.852   7.290  69.467  1.00  0.00    -0.209 A  
HETATM   30  F   UNL     1      -9.945   9.353  71.493  1.00  0.00    -0.365 F  
HETATM   31  F   UNL     1     -12.078   9.573  71.095  1.00  0.00    -0.326 F  
HETATM   32  F   UNL     1     -10.653  10.920  70.177  1.00  0.00    -0.246 F  
HETATM   33 CL   UNL     1     -11.202   6.544  70.983  1.00  0.00    -0.342 Cl 
HETATM   34  C   UNL     1     -10.695   6.461  68.347  1.00  0.00    -0.349 A  
HETATM   35  C   UNL     1     -10.390   7.000  67.089  1.00  0.00    -0.351 A  
ENDBRANCH  23  25
ENDBRANCH  21  23
ENDBRANCH  19  21
ENDBRANCH  16  19
ENDBRANCH  12  13
ENDBRANCH  10  12
ENDBRANCH   3   6
TORSDOF 7
ENDMDL
MODEL      121
REMARK 921   NORMALIZED FREE ENERGY PREDICTED BY IDOCK:   -5.63 KCAL/MOL
REMARK 922        TOTAL FREE ENERGY PREDICTED BY IDOCK:   -9.79 KCAL/MOL
REMARK 923 INTER-LIGAND FREE ENERGY PREDICTED BY IDOCK:   -8.95 KCAL/MOL
REMARK 924 INTRA-LIGAND FREE ENERGY PREDICTED BY IDOCK:   -0.84 KCAL/MOL
REMARK 927      BINDING AFFINITY PREDICTED BY RF-SCORE:    0.00 PKD
ROOT
HETATM    1  C   UNL     1      -8.343  19.380  68.230  1.00  0.00    -0.344 C  
HETATM    2  N   UNL     1      -9.303  18.319  68.109  1.00  0.00    -0.287 N  
HETATM    3  C   UNL     1      -9.358  17.524  66.984  1.00  0.00    -0.259 C  
HETATM    4  H   UNL     1      -9.958  18.149  68.871  1.00  0.00     0.000 HD 
HETATM    5  O   UNL     1      -8.619  17.669  66.016  1.00  0.00    -0.503 OA 
ENDROOT
BRANCH   3   6
HETATM    6  C   UNL     1     -10.384  16.431  67.025  1.00  0.00    -0.293 A  
HETATM    7  N   UNL     1     -10.910  16.116  68.242  1.00  0.00    -0.312 NA 
HETATM    8  C   UNL     1     -11.782  15.082  68.262  1.00  0.00    -0.314 A  
HETATM    9  C   UNL     1     -12.121  14.327  67.147  1.00  0.00    -0.412 A  
HETATM   10  C   UNL     1     -11.547  14.663  65.926  1.00  0.00    -0.327 A  
HETATM   11  C   UNL     1     -10.704  15.771  65.851  1.00  0.00    -0.320 A  
BRANCH  10  12
HETATM   12  O   UNL     1     -11.863  13.867  64.839  1.00  0.00    -0.352 OA 
BRANCH  12  13
HETATM   13  C   UNL     1     -11.220  12.651  64.718  1.00  0.00    -0.302 A  
HETATM   14  C   UNL     1     -11.142  11.741  65.766  1.00  0.00    -0.351 A  
HETATM   15  C   UNL     1     -10.354  10.603  65.638  1.00  0.00    -0.285 A  
HETATM   16  C   UNL     1      -9.723  10.275  64.433  1.00  0.00    -0.315 A  
HETATM   17  C   UNL     1      -9.879  11.147  63.352  1.00  0.00    -0.397 A  
HETATM   18  C   UNL     1     -10.627  12.331  63.495  1.00  0.00    -0.488 A  
BRANCH  16  19
HETATM   19  N   UNL     1      -8.939   9.099  64.286  1.00  0.00    -0.418 N  
HETATM   20  H   UNL     1      -9.176   8.446  63.539  1.00  0.00     0.000 HD 
BRANCH  19  21
HETATM   21  C   UNL     1      -7.863   8.800  65.113  1.00  0.00    -0.108 C  
HETATM   22  O   UNL     1      -6.797   9.401  65.061  1.00  0.00    -0.083 OA 
BRANCH  21  23
HETATM   23  N   UNL     1      -8.096   7.755  65.989  1.00  0.00    -0.111 N  
HETATM   24  H   UNL     1      -7.928   6.803  65.664  1.00  0.00     0.000 HD 
BRANCH  23  25
HETATM   25  C   UNL     1      -8.562   7.945  67.327  1.00  0.00    -0.128 A  
HETATM   26  C   UNL     1      -9.222   6.945  68.051  1.00  0.00    -0.121 A  
HETATM   27  C   UNL     1      -9.774   7.165  69.325  1.00  0.00    -0.159 A  
HETATM   28  C   UNL     1     -10.553   6.064  69.991  1.00  0.00    -0.274 C  
HETATM   29  C   UNL     1      -9.589   8.414  69.910  1.00  0.00    -0.171 A  
HETATM   30  F   UNL     1     -11.837   6.417  70.279  1.00  0.00    -0.439 F  
HETATM   31  F   UNL     1      -9.996   5.653  71.165  1.00  0.00    -0.198 F  
HETATM   32  F   UNL     1     -10.657   4.933  69.234  1.00  0.00    -0.270 F  
HETATM   33 CL   UNL     1     -10.201   8.786  71.479  1.00  0.00    -0.341 Cl 
HETATM   34  C   UNL     1      -8.883   9.414  69.225  1.00  0.00    -0.150 A  
HETATM   35  C   UNL     1      -8.375   9.186  67.939  1.00  0.00    -0.117 A  
ENDBRANCH  23  25
ENDBRANCH  21  23
ENDBRANCH  19  21
ENDBRANCH  16  19
ENDBRANCH  12  13
ENDBRANCH  10  12
ENDBRANCH   3   6
TORSDOF 7
ENDMDL
MODEL      122
REMARK 921   NORMALIZED FREE ENERGY PREDICTED BY IDOCK:   -5.63 KCAL/MOL
REMARK 922        TOTAL FREE ENERGY PREDICTED BY IDOCK:   -9.79 KCAL/MOL
REMARK 923 INTER-LIGAND FREE ENERGY PREDICTED BY IDOCK:   -8.93 KCAL/MOL
REMARK 924 INTRA-LIGAND FREE ENERGY PREDICTED BY IDOCK:   -0.85 KCAL/MOL
REMARK 927      BINDING AFFINITY PREDICTED BY RF-SCORE:    0.00 PKD
ROOT
HETATM    1  C   UNL     1     -12.106  15.673  68.712  1.00  0.00    -0.109 C  
HETATM    2  N   UNL     1     -11.973  14.951  67.477  1.00  0.00    -0.465 N  
HETATM    3  C   UNL     1     -11.885  13.576  67.454  1.00  0.00    -0.384 C  
HETATM    4  H   UNL     1     -11.942  15.467  66.598  1.00  0.00     0.000 HD 
HETATM    5  O   UNL     1     -11.899  12.880  68.464  1.00  0.00    -0.308 OA 
ENDROOT
BRANCH   3   6
HETATM    6  C   UNL     1     -11.794  12.966  66.087  1.00  0.00    -0.429 A  
HETATM    7  N   UNL     1     -12.903  13.037  65.298  1.00  0.00    -0.713 NA 
HETATM    8  C   UNL     1     -12.818  12.421  64.097  1.00  0.00    -0.263 A  
HETATM    9  C   UNL     1     -11.708  11.708  63.664  1.00  0.00    -0.406 A  
HETATM   10  C   UNL     1     -10.604  11.636  64.505  1.00  0.00    -0.318 A  
HETATM   11  C   UNL     1     -10.624  12.324  65.718  1.00  0.00    -0.289 A  
BRANCH  10  12
HETATM   12  O   UNL     1      -9.528  10.880  64.074  1.00  0.00    -0.226 OA 
BRANCH  12  13
HETATM   13  C   UNL     1      -9.253   9.704  64.743  1.00  0.00    -0.238 A  
HETATM   14  C   UNL     1      -8.256   8.827  64.332  1.00  0.00    -0.169 A  
HETATM   15  C   UNL     1      -8.124   7.589  64.950  1.00  0.00    -0.121 A  
HETATM   16  C   UNL     1      -8.890   7.238  66.068  1.00  0.00    -0.136 A  
HETATM   17  C   UNL     1      -9.829   8.161  66.537  1.00  0.00    -0.309 A  
HETATM   18  C   UNL     1     -10.007   9.392  65.876  1.00  0.00    -0.327 A  
BRANCH  16  19
HETATM   19  N   UNL     1      -8.742   5.986  66.722  1.00  0.00    -0.117 N  
HETATM   20  H   UNL     1      -7.809   5.699  67.020  1.00  0.00     0.000 HD 
BRANCH  19  21
HETATM   21  C   UNL     1      -9.810   5.134  66.976  1.00  0.00    -0.177 C  
HETATM   22  O   UNL     1     -10.711   4.939  66.170  1.00  0.00    -0.317 OA 
BRANCH  21  23
HETATM   23  N   UNL     1      -9.772   4.535  68.222  1.00  0.00    -0.145 N  
HETATM   24  H   UNL     1      -9.465   3.564  68.284  1.00  0.00     0.000 HD 
BRANCH  23  25
HETATM   25  C   UNL     1     -10.142   5.209  69.427  1.00  0.00    -0.234 A  
HETATM   26  C   UNL     1     -10.544   6.550  69.455  1.00  0.00    -0.291 A  
HETATM   27  C   UNL     1     -10.804   7.242  70.650  1.00  0.00    -0.261 A  
HETATM   28  C   UNL     1     -11.135   8.709  70.595  1.00  0.00    -0.249 C  
HETATM   29  C   UNL     1     -10.721   6.535  71.846  1.00  0.00    -0.219 A  
HETATM   30  F   UNL     1     -10.262   9.481  71.302  1.00  0.00    -0.359 F  
HETATM   31  F   UNL     1     -12.376   8.992  71.080  1.00  0.00    -0.311 F  
HETATM   32  F   UNL     1     -11.121   9.225  69.332  1.00  0.00    -0.235 F  
HETATM   33 CL   UNL     1     -11.043   7.279  73.369  1.00  0.00    -0.302 Cl 
HETATM   34  C   UNL     1     -10.373   5.177  71.837  1.00  0.00    -0.275 A  
HETATM   35  C   UNL     1     -10.079   4.515  70.637  1.00  0.00    -0.232 A  
ENDBRANCH  23  25
ENDBRANCH  21  23
ENDBRANCH  19  21
ENDBRANCH  16  19
ENDBRANCH  12  13
ENDBRANCH  10  12
ENDBRANCH   3   6
TORSDOF 7
ENDMDL
MODEL      123
REMARK 921   NORMALIZED FREE ENERGY PREDICTED BY IDOCK:   -5.62 KCAL/MOL
REMARK 922        TOTAL FREE ENERGY PREDICTED BY IDOCK:   -9.77 KCAL/MOL
REMARK 923 INTER-LIGAND FREE ENERGY PREDICTED BY IDOCK:   -8.98 KCAL/MOL
REMARK 924 INTRA-LIGAND FREE ENERGY PREDICTED BY IDOCK:   -0.79 KCAL/MOL
REMARK 927      BINDING AFFINITY PREDICTED BY RF-SCORE:    0.00 PKD
ROOT
HETATM    1  C   UNL     1      -7.337   9.691  64.427  1.00  0.00    -0.125 C  
HETATM    2  N   UNL     1      -8.270  10.774  64.568  1.00  0.00    -0.362 N  
HETATM    3  C   UNL     1      -9.395  10.862  63.777  1.00  0.00    -0.248 C  
HETATM    4  H   UNL     1      -8.097  11.494  65.270  1.00  0.00     0.000 HD 
HETATM    5  O   UNL     1      -9.671  10.050  62.900  1.00  0.00    -0.194 OA 
ENDROOT
BRANCH   3   6
HETATM    6  C   UNL     1     -10.294  12.025  64.074  1.00  0.00    -0.373 A  
HETATM    7  N   UNL     1     -11.329  12.247  63.215  1.00  0.00    -0.396 NA 
HETATM    8  C   UNL     1     -12.085  13.340  63.466  1.00  0.00    -0.482 A  
HETATM    9  C   UNL     1     -11.838  14.238  64.497  1.00  0.00    -0.456 A  
HETATM   10  C   UNL     1     -10.759  13.993  65.338  1.00  0.00    -0.337 A  
HETATM   11  C   UNL     1     -10.004  12.834  65.159  1.00  0.00    -0.185 A  
BRANCH  10  12
HETATM   12  O   UNL     1     -10.503  14.926  66.327  1.00  0.00    -0.284 OA 
BRANCH  12  13
HETATM   13  C   UNL     1     -11.101  14.744  67.559  1.00  0.00    -0.319 A  
HETATM   14  C   UNL     1     -11.525  13.498  68.005  1.00  0.00    -0.342 A  
HETATM   15  C   UNL     1     -12.257  13.395  69.183  1.00  0.00    -0.207 A  
HETATM   16  C   UNL     1     -12.479  14.502  70.010  1.00  0.00    -0.298 A  
HETATM   17  C   UNL     1     -11.970  15.739  69.604  1.00  0.00    -0.332 A  
HETATM   18  C   UNL     1     -11.281  15.858  68.382  1.00  0.00    -0.368 A  
BRANCH  16  19
HETATM   19  N   UNL     1     -13.201  14.400  71.230  1.00  0.00    -0.342 N  
HETATM   20  H   UNL     1     -13.809  15.173  71.501  1.00  0.00     0.000 HD 
BRANCH  19  21
HETATM   21  C   UNL     1     -13.116  13.296  72.070  1.00  0.00    -0.377 C  
HETATM   22  O   UNL     1     -12.614  13.346  73.185  1.00  0.00     0.145 OA 
BRANCH  21  23
HETATM   23  N   UNL     1     -13.638  12.134  71.531  1.00  0.00     0.164 N  
HETATM   24  H   UNL     1     -14.497  12.197  70.983  1.00  0.00     0.000 HD 
BRANCH  23  25
HETATM   25  C   UNL     1     -13.035  10.850  71.705  1.00  0.00    -0.464 A  
HETATM   26  C   UNL     1     -11.737  10.556  71.271  1.00  0.00    -0.241 A  
HETATM   27  C   UNL     1     -11.183   9.266  71.345  1.00  0.00    -0.433 A  
HETATM   28  C   UNL     1      -9.817   9.016  70.767  1.00  0.00    -0.243 C  
HETATM   29  C   UNL     1     -11.943   8.262  71.939  1.00  0.00    -0.330 A  
HETATM   30  F   UNL     1      -9.817   8.066  69.789  1.00  0.00    -0.176 F  
HETATM   31  F   UNL     1      -8.911   8.606  71.698  1.00  0.00    -0.203 F  
HETATM   32  F   UNL     1      -9.258  10.119  70.189  1.00  0.00    -0.230 F  
HETATM   33 CL   UNL     1     -11.353   6.650  72.105  1.00  0.00    -0.296 Cl 
HETATM   34  C   UNL     1     -13.225   8.548  72.430  1.00  0.00    -0.319 A  
HETATM   35  C   UNL     1     -13.773   9.832  72.311  1.00  0.00    -0.324 A  
ENDBRANCH  23  25
ENDBRANCH  21  23
ENDBRANCH  19  21
ENDBRANCH  16  19
ENDBRANCH  12  13
ENDBRANCH  10  12
ENDBRANCH   3   6
TORSDOF 7
ENDMDL
MODEL      124
REMARK 921   NORMALIZED FREE ENERGY PREDICTED BY IDOCK:   -5.62 KCAL/MOL
REMARK 922        TOTAL FREE ENERGY PREDICTED BY IDOCK:   -9.77 KCAL/MOL
REMARK 923 INTER-LIGAND FREE ENERGY PREDICTED BY IDOCK:   -8.57 KCAL/MOL
REMARK 924 INTRA-LIGAND FREE ENERGY PREDICTED BY IDOCK:   -1.20 KCAL/MOL
REMARK 927      BINDING AFFINITY PREDICTED BY RF-SCORE:    0.00 PKD
ROOT
HETATM    1  C   UNL     1      -7.973   7.389  70.681  1.00  0.00    -0.098 C  
HETATM    2  N   UNL     1      -9.296   7.897  70.917  1.00  0.00    -0.152 N  
HETATM    3  C   UNL     1     -10.348   7.055  71.210  1.00  0.00    -0.202 C  
HETATM    4  H   UNL     1      -9.461   8.902  70.867  1.00  0.00     0.000 HD 
HETATM    5  O   UNL     1     -10.240   5.835  71.275  1.00  0.00    -0.200 OA 
ENDROOT
BRANCH   3   6
HETATM    6  C   UNL     1     -11.656   7.738  71.475  1.00  0.00    -0.270 A  
HETATM    7  N   UNL     1     -12.789   6.999  71.311  1.00  0.00    -0.367 NA 
HETATM    8  C   UNL     1     -13.958   7.656  71.489  1.00  0.00    -0.397 A  
HETATM    9  C   UNL     1     -14.054   9.010  71.780  1.00  0.00    -0.377 A  
HETATM   10  C   UNL     1     -12.878   9.739  71.916  1.00  0.00    -0.427 A  
HETATM   11  C   UNL     1     -11.653   9.080  71.817  1.00  0.00    -0.444 A  
BRANCH  10  12
HETATM   12  O   UNL     1     -12.999  11.095  72.158  1.00  0.00    -0.399 OA 
BRANCH  12  13
HETATM   13  C   UNL     1     -12.654  11.967  71.144  1.00  0.00    -0.288 A  
HETATM   14  C   UNL     1     -12.745  13.347  71.283  1.00  0.00    -0.424 A  
HETATM   15  C   UNL     1     -12.533  14.170  70.182  1.00  0.00    -0.391 A  
HETATM   16  C   UNL     1     -12.106  13.659  68.952  1.00  0.00    -0.300 A  
HETATM   17  C   UNL     1     -11.926  12.276  68.841  1.00  0.00    -0.300 A  
HETATM   18  C   UNL     1     -12.198  11.434  69.936  1.00  0.00    -0.346 A  
BRANCH  16  19
HETATM   19  N   UNL     1     -11.860  14.495  67.830  1.00  0.00    -0.459 N  
HETATM   20  H   UNL     1     -11.727  15.495  67.988  1.00  0.00     0.000 HD 
BRANCH  19  21
HETATM   21  C   UNL     1     -11.790  14.015  66.528  1.00  0.00    -0.417 C  
HETATM   22  O   UNL     1     -12.783  13.716  65.876  1.00  0.00    -0.450 OA 
BRANCH  21  23
HETATM   23  N   UNL     1     -10.503  13.891  66.038  1.00  0.00    -0.291 N  
HETATM   24  H   UNL     1     -10.188  14.554  65.330  1.00  0.00     0.000 HD 
BRANCH  23  25
HETATM   25  C   UNL     1      -9.592  12.880  66.476  1.00  0.00    -0.259 A  
HETATM   26  C   UNL     1      -8.631  13.102  67.470  1.00  0.00    -0.196 A  
HETATM   27  C   UNL     1      -7.666  12.143  67.825  1.00  0.00    -0.139 A  
HETATM   28  C   UNL     1      -6.609  12.499  68.834  1.00  0.00    -0.095 C  
HETATM   29  C   UNL     1      -7.722  10.900  67.202  1.00  0.00    -0.123 A  
HETATM   30  F   UNL     1      -5.343  12.389  68.342  1.00  0.00    -0.050 F  
HETATM   31  F   UNL     1      -6.655  11.720  69.950  1.00  0.00    -0.127 F  
HETATM   32  F   UNL     1      -6.701  13.782  69.292  1.00  0.00    -0.101 F  
HETATM   33 CL   UNL     1      -6.604   9.641  67.578  1.00  0.00    -0.069 Cl 
HETATM   34  C   UNL     1      -8.710  10.637  66.242  1.00  0.00    -0.163 A  
HETATM   35  C   UNL     1      -9.639  11.621  65.875  1.00  0.00    -0.250 A  
ENDBRANCH  23  25
ENDBRANCH  21  23
ENDBRANCH  19  21
ENDBRANCH  16  19
ENDBRANCH  12  13
ENDBRANCH  10  12
ENDBRANCH   3   6
TORSDOF 7
ENDMDL
MODEL      125
REMARK 921   NORMALIZED FREE ENERGY PREDICTED BY IDOCK:   -5.62 KCAL/MOL
REMARK 922        TOTAL FREE ENERGY PREDICTED BY IDOCK:   -9.77 KCAL/MOL
REMARK 923 INTER-LIGAND FREE ENERGY PREDICTED BY IDOCK:   -8.32 KCAL/MOL
REMARK 924 INTRA-LIGAND FREE ENERGY PREDICTED BY IDOCK:   -1.44 KCAL/MOL
REMARK 927      BINDING AFFINITY PREDICTED BY RF-SCORE:    0.00 PKD
ROOT
HETATM    1  C   UNL     1     -10.562   8.749  67.470  1.00  0.00    -0.228 C  
HETATM    2  N   UNL     1      -9.379   9.314  68.057  1.00  0.00    -0.134 N  
HETATM    3  C   UNL     1      -9.163   9.275  69.418  1.00  0.00    -0.159 C  
HETATM    4  H   UNL     1      -8.684   9.753  67.454  1.00  0.00     0.000 HD 
HETATM    5  O   UNL     1      -9.952   8.780  70.215  1.00  0.00    -0.177 OA 
ENDROOT
BRANCH   3   6
HETATM    6  C   UNL     1      -7.862   9.866  69.874  1.00  0.00    -0.173 A  
HETATM    7  N   UNL     1      -7.317   9.365  71.017  1.00  0.00    -0.291 NA 
HETATM    8  C   UNL     1      -6.180   9.960  71.444  1.00  0.00     0.147 A  
HETATM    9  C   UNL     1      -5.587  11.047  70.816  1.00  0.00    -0.115 A  
HETATM   10  C   UNL     1      -6.184  11.548  69.665  1.00  0.00    -0.124 A  
HETATM   11  C   UNL     1      -7.313  10.911  69.150  1.00  0.00    -0.126 A  
BRANCH  10  12
HETATM   12  O   UNL     1      -5.603  12.661  69.083  1.00  0.00    -0.068 OA 
BRANCH  12  13
HETATM   13  C   UNL     1      -6.417  13.735  68.787  1.00  0.00    -0.096 A  
HETATM   14  C   UNL     1      -6.888  13.982  67.502  1.00  0.00    -0.150 A  
HETATM   15  C   UNL     1      -7.576  15.160  67.231  1.00  0.00    -0.236 A  
HETATM   16  C   UNL     1      -7.923  16.061  68.244  1.00  0.00    -0.145 A  
HETATM   17  C   UNL     1      -7.528  15.763  69.551  1.00  0.00    -0.181 A  
HETATM   18  C   UNL     1      -6.778  14.602  69.821  1.00  0.00    -0.165 A  
BRANCH  16  19
HETATM   19  N   UNL     1      -8.650  17.252  67.979  1.00  0.00    -0.227 N  
HETATM   20  H   UNL     1      -8.210  17.975  67.410  1.00  0.00     0.000 HD 
BRANCH  19  21
HETATM   21  C   UNL     1      -9.935  17.477  68.459  1.00  0.00    -0.344 C  
HETATM   22  O   UNL     1     -10.236  18.466  69.115  1.00  0.00    -0.326 OA 
BRANCH  21  23
HETATM   23  N   UNL     1     -10.840  16.480  68.144  1.00  0.00    -0.340 N  
HETATM   24  H   UNL     1     -11.064  16.322  67.161  1.00  0.00     0.000 HD 
BRANCH  23  25
HETATM   25  C   UNL     1     -11.477  15.659  69.126  1.00  0.00    -0.359 A  
HETATM   26  C   UNL     1     -11.694  16.082  70.443  1.00  0.00    -0.326 A  
HETATM   27  C   UNL     1     -12.222  15.238  71.436  1.00  0.00    -0.414 A  
HETATM   28  C   UNL     1     -12.331  15.741  72.850  1.00  0.00    -0.465 C  
HETATM   29  C   UNL     1     -12.605  13.952  71.065  1.00  0.00    -0.371 A  
HETATM   30  F   UNL     1     -11.630  14.985  73.741  1.00  0.00    -0.472 F  
HETATM   31  F   UNL     1     -13.615  15.778  73.304  1.00  0.00    -0.578 F  
HETATM   32  F   UNL     1     -11.860  17.012  73.015  1.00  0.00    -0.535 F  
HETATM   33 CL   UNL     1     -13.287  12.842  72.195  1.00  0.00    -0.627 Cl 
HETATM   34  C   UNL     1     -12.447  13.527  69.738  1.00  0.00    -0.155 A  
HETATM   35  C   UNL     1     -11.882  14.371  68.772  1.00  0.00    -0.360 A  
ENDBRANCH  23  25
ENDBRANCH  21  23
ENDBRANCH  19  21
ENDBRANCH  16  19
ENDBRANCH  12  13
ENDBRANCH  10  12
ENDBRANCH   3   6
TORSDOF 7
ENDMDL
MODEL      126
REMARK 921   NORMALIZED FREE ENERGY PREDICTED BY IDOCK:   -5.61 KCAL/MOL
REMARK 922        TOTAL FREE ENERGY PREDICTED BY IDOCK:   -9.75 KCAL/MOL
REMARK 923 INTER-LIGAND FREE ENERGY PREDICTED BY IDOCK:   -8.72 KCAL/MOL
REMARK 924 INTRA-LIGAND FREE ENERGY PREDICTED BY IDOCK:   -1.04 KCAL/MOL
REMARK 927      BINDING AFFINITY PREDICTED BY RF-SCORE:    0.00 PKD
ROOT
HETATM    1  C   UNL     1      -6.335   6.662  73.424  1.00  0.00    -0.064 C  
HETATM    2  N   UNL     1      -7.674   6.558  72.914  1.00  0.00    -0.100 N  
HETATM    3  C   UNL     1      -8.536   7.632  72.935  1.00  0.00    -0.143 C  
HETATM    4  H   UNL     1      -7.993   5.669  72.529  1.00  0.00     0.000 HD 
HETATM    5  O   UNL     1      -8.239   8.730  73.393  1.00  0.00    -0.389 OA 
ENDROOT
BRANCH   3   6
HETATM    6  C   UNL     1      -9.884   7.379  72.327  1.00  0.00    -0.167 A  
HETATM    7  N   UNL     1     -10.047   6.216  71.636  1.00  0.00    -0.185 NA 
HETATM    8  C   UNL     1     -11.249   6.042  71.041  1.00  0.00    -0.263 A  
HETATM    9  C   UNL     1     -12.273   6.980  71.064  1.00  0.00    -0.419 A  
HETATM   10  C   UNL     1     -12.062   8.167  71.758  1.00  0.00    -0.315 A  
HETATM   11  C   UNL     1     -10.866   8.348  72.450  1.00  0.00    -0.416 A  
BRANCH  10  12
HETATM   12  O   UNL     1     -13.077   9.106  71.727  1.00  0.00    -0.342 OA 
BRANCH  12  13
HETATM   13  C   UNL     1     -12.789  10.353  71.209  1.00  0.00    -0.433 A  
HETATM   14  C   UNL     1     -12.917  11.519  71.955  1.00  0.00    -0.453 A  
HETATM   15  C   UNL     1     -12.761  12.756  71.340  1.00  0.00    -0.353 A  
HETATM   16  C   UNL     1     -12.355  12.870  70.006  1.00  0.00    -0.129 A  
HETATM   17  C   UNL     1     -12.137  11.693  69.283  1.00  0.00    -0.323 A  
HETATM   18  C   UNL     1     -12.352  10.439  69.885  1.00  0.00    -0.176 A  
BRANCH  16  19
HETATM   19  N   UNL     1     -12.166  14.131  69.378  1.00  0.00    -0.443 N  
HETATM   20  H   UNL     1     -12.951  14.548  68.878  1.00  0.00     0.000 HD 
BRANCH  19  21
HETATM   21  C   UNL     1     -10.961  14.821  69.415  1.00  0.00    -0.265 C  
HETATM   22  O   UNL     1     -10.838  15.917  69.948  1.00  0.00    -0.277 OA 
BRANCH  21  23
HETATM   23  N   UNL     1      -9.916  14.170  68.786  1.00  0.00    -0.321 N  
HETATM   24  H   UNL     1      -9.023  14.101  69.274  1.00  0.00     0.000 HD 
BRANCH  23  25
HETATM   25  C   UNL     1     -10.025  13.587  67.485  1.00  0.00    -0.230 A  
HETATM   26  C   UNL     1      -9.445  12.358  67.152  1.00  0.00    -0.198 A  
HETATM   27  C   UNL     1      -9.461  11.837  65.846  1.00  0.00    -0.239 A  
HETATM   28  C   UNL     1      -8.728  10.555  65.554  1.00  0.00    -0.185 C  
HETATM   29  C   UNL     1     -10.145  12.551  64.866  1.00  0.00    -0.226 A  
HETATM   30  F   UNL     1      -7.762  10.697  64.603  1.00  0.00    -0.126 F  
HETATM   31  F   UNL     1      -9.550   9.559  65.121  1.00  0.00    -0.313 F  
HETATM   32  F   UNL     1      -8.083  10.036  66.640  1.00  0.00    -0.113 F  
HETATM   33 CL   UNL     1     -10.249  11.992  63.238  1.00  0.00    -0.446 Cl 
HETATM   34  C   UNL     1     -10.780  13.758  65.190  1.00  0.00    -0.365 A  
HETATM   35  C   UNL     1     -10.718  14.279  66.490  1.00  0.00    -0.297 A  
ENDBRANCH  23  25
ENDBRANCH  21  23
ENDBRANCH  19  21
ENDBRANCH  16  19
ENDBRANCH  12  13
ENDBRANCH  10  12
ENDBRANCH   3   6
TORSDOF 7
ENDMDL
MODEL      127
REMARK 921   NORMALIZED FREE ENERGY PREDICTED BY IDOCK:   -5.61 KCAL/MOL
REMARK 922        TOTAL FREE ENERGY PREDICTED BY IDOCK:   -9.75 KCAL/MOL
REMARK 923 INTER-LIGAND FREE ENERGY PREDICTED BY IDOCK:   -8.74 KCAL/MOL
REMARK 924 INTRA-LIGAND FREE ENERGY PREDICTED BY IDOCK:   -1.01 KCAL/MOL
REMARK 927      BINDING AFFINITY PREDICTED BY RF-SCORE:    0.00 PKD
ROOT
HETATM    1  C   UNL     1      -5.350   7.607  62.849  1.00  0.00    -0.046 C  
HETATM    2  N   UNL     1      -6.309   7.992  63.847  1.00  0.00    -0.065 N  
HETATM    3  C   UNL     1      -7.599   8.339  63.508  1.00  0.00    -0.134 C  
HETATM    4  H   UNL     1      -6.029   8.010  64.827  1.00  0.00     0.000 HD 
HETATM    5  O   UNL     1      -8.013   8.359  62.354  1.00  0.00    -0.137 OA 
ENDROOT
BRANCH   3   6
HETATM    6  C   UNL     1      -8.494   8.673  64.664  1.00  0.00    -0.132 A  
HETATM    7  N   UNL     1      -8.636   7.729  65.636  1.00  0.00    -0.144 NA 
HETATM    8  C   UNL     1      -9.500   8.027  66.632  1.00  0.00    -0.212 A  
HETATM    9  C   UNL     1     -10.254   9.192  66.687  1.00  0.00    -0.328 A  
HETATM   10  C   UNL     1     -10.101  10.123  65.666  1.00  0.00    -0.254 A  
HETATM   11  C   UNL     1      -9.162   9.886  64.663  1.00  0.00    -0.313 A  
BRANCH  10  12
HETATM   12  O   UNL     1     -10.897  11.253  65.716  1.00  0.00    -0.261 OA 
BRANCH  12  13
HETATM   13  C   UNL     1     -10.745  12.105  66.792  1.00  0.00    -0.234 A  
HETATM   14  C   UNL     1     -11.726  12.260  67.765  1.00  0.00    -0.403 A  
HETATM   15  C   UNL     1     -11.586  13.241  68.740  1.00  0.00    -0.350 A  
HETATM   16  C   UNL     1     -10.420  14.007  68.853  1.00  0.00    -0.200 A  
HETATM   17  C   UNL     1      -9.396  13.783  67.928  1.00  0.00    -0.211 A  
HETATM   18  C   UNL     1      -9.559  12.833  66.902  1.00  0.00    -0.235 A  
BRANCH  16  19
HETATM   19  N   UNL     1     -10.258  14.991  69.864  1.00  0.00    -0.461 N  
HETATM   20  H   UNL     1      -9.503  14.875  70.540  1.00  0.00     0.000 HD 
BRANCH  19  21
HETATM   21  C   UNL     1     -11.080  16.107  69.973  1.00  0.00    -0.363 C  
HETATM   22  O   UNL     1     -11.651  16.413  71.012  1.00  0.00    -0.380 OA 
BRANCH  21  23
HETATM   23  N   UNL     1     -11.206  16.833  68.803  1.00  0.00    -0.222 N  
HETATM   24  H   UNL     1     -12.028  16.674  68.220  1.00  0.00     0.000 HD 
BRANCH  23  25
HETATM   25  C   UNL     1     -10.242  17.796  68.371  1.00  0.00    -0.384 A  
HETATM   26  C   UNL     1      -8.894  17.742  68.745  1.00  0.00    -0.205 A  
HETATM   27  C   UNL     1      -7.969  18.746  68.408  1.00  0.00    -0.365 A  
HETATM   28  C   UNL     1      -6.563  18.660  68.935  1.00  0.00    -0.265 C  
HETATM   29  C   UNL     1      -8.409  19.798  67.611  1.00  0.00    -0.317 A  
HETATM   30  F   UNL     1      -6.209  19.736  69.693  1.00  0.00    -0.292 F  
HETATM   31  F   UNL     1      -5.630  18.563  67.947  1.00  0.00    -0.162 F  
HETATM   32  F   UNL     1      -6.345  17.576  69.736  1.00  0.00    -0.243 F  
HETATM   33 CL   UNL     1      -7.355  21.071  67.117  1.00  0.00    -0.374 Cl 
HETATM   34  C   UNL     1      -9.743  19.843  67.178  1.00  0.00    -0.523 A  
HETATM   35  C   UNL     1     -10.658  18.852  67.558  1.00  0.00    -0.524 A  
ENDBRANCH  23  25
ENDBRANCH  21  23
ENDBRANCH  19  21
ENDBRANCH  16  19
ENDBRANCH  12  13
ENDBRANCH  10  12
ENDBRANCH   3   6
TORSDOF 7
ENDMDL
MODEL      128
REMARK 921   NORMALIZED FREE ENERGY PREDICTED BY IDOCK:   -5.60 KCAL/MOL
REMARK 922        TOTAL FREE ENERGY PREDICTED BY IDOCK:   -9.74 KCAL/MOL
REMARK 923 INTER-LIGAND FREE ENERGY PREDICTED BY IDOCK:   -8.53 KCAL/MOL
REMARK 924 INTRA-LIGAND FREE ENERGY PREDICTED BY IDOCK:   -1.22 KCAL/MOL
REMARK 927      BINDING AFFINITY PREDICTED BY RF-SCORE:    0.00 PKD
ROOT
HETATM    1  C   UNL     1      -9.436  10.820  62.509  1.00  0.00    -0.244 C  
HETATM    2  N   UNL     1      -9.554  11.799  63.553  1.00  0.00    -0.537 N  
HETATM    3  C   UNL     1     -10.769  12.365  63.874  1.00  0.00    -0.426 C  
HETATM    4  H   UNL     1      -8.721  12.082  64.068  1.00  0.00     0.000 HD 
HETATM    5  O   UNL     1     -11.816  12.093  63.297  1.00  0.00    -0.436 OA 
ENDROOT
BRANCH   3   6
HETATM    6  C   UNL     1     -10.737  13.338  65.015  1.00  0.00    -0.333 A  
HETATM    7  N   UNL     1     -10.894  14.657  64.713  1.00  0.00    -0.401 NA 
HETATM    8  C   UNL     1     -10.795  15.520  65.750  1.00  0.00    -0.331 A  
HETATM    9  C   UNL     1     -10.508  15.140  67.055  1.00  0.00    -0.282 A  
HETATM   10  C   UNL     1     -10.330  13.787  67.321  1.00  0.00    -0.253 A  
HETATM   11  C   UNL     1     -10.502  12.861  66.294  1.00  0.00    -0.282 A  
BRANCH  10  12
HETATM   12  O   UNL     1      -9.997  13.437  68.618  1.00  0.00    -0.216 OA 
BRANCH  12  13
HETATM   13  C   UNL     1     -10.539  12.277  69.134  1.00  0.00     0.018 A  
HETATM   14  C   UNL     1      -9.905  11.045  69.027  1.00  0.00    -0.165 A  
HETATM   15  C   UNL     1     -10.565   9.888  69.428  1.00  0.00    -0.250 A  
HETATM   16  C   UNL     1     -11.814   9.933  70.056  1.00  0.00    -0.067 A  
HETATM   17  C   UNL     1     -12.410  11.184  70.246  1.00  0.00    -0.397 A  
HETATM   18  C   UNL     1     -11.772  12.352  69.787  1.00  0.00    -0.361 A  
BRANCH  16  19
HETATM   19  N   UNL     1     -12.483   8.758  70.494  1.00  0.00    -0.366 N  
HETATM   20  H   UNL     1     -12.523   7.957  69.863  1.00  0.00     0.000 HD 
BRANCH  19  21
HETATM   21  C   UNL     1     -13.083   8.650  71.742  1.00  0.00    -0.361 C  
HETATM   22  O   UNL     1     -14.281   8.833  71.922  1.00  0.00    -0.410 OA 
BRANCH  21  23
HETATM   23  N   UNL     1     -12.209   8.331  72.765  1.00  0.00    -0.580 N  
HETATM   24  H   UNL     1     -12.352   8.764  73.678  1.00  0.00     0.000 HD 
BRANCH  23  25
HETATM   25  C   UNL     1     -11.116   7.423  72.607  1.00  0.00    -0.331 A  
HETATM   26  C   UNL     1      -9.793   7.850  72.441  1.00  0.00    -0.287 A  
HETATM   27  C   UNL     1      -8.734   6.962  72.179  1.00  0.00    -0.131 A  
HETATM   28  C   UNL     1      -7.359   7.513  71.916  1.00  0.00    -0.072 C  
HETATM   29  C   UNL     1      -9.015   5.600  72.153  1.00  0.00    -0.137 A  
HETATM   30  F   UNL     1      -6.868   7.162  70.694  1.00  0.00    -0.049 F  
HETATM   31  F   UNL     1      -6.438   7.103  72.832  1.00  0.00    -0.061 F  
HETATM   32  F   UNL     1      -7.303   8.877  71.942  1.00  0.00    -0.120 F  
HETATM   33 CL   UNL     1      -7.789   4.421  71.865  1.00  0.00    -0.083 Cl 
HETATM   34  C   UNL     1     -10.325   5.147  72.371  1.00  0.00    -0.257 A  
HETATM   35  C   UNL     1     -11.373   6.051  72.592  1.00  0.00    -0.320 A  
ENDBRANCH  23  25
ENDBRANCH  21  23
ENDBRANCH  19  21
ENDBRANCH  16  19
ENDBRANCH  12  13
ENDBRANCH  10  12
ENDBRANCH   3   6
TORSDOF 7
ENDMDL
MODEL      129
REMARK 921   NORMALIZED FREE ENERGY PREDICTED BY IDOCK:   -5.60 KCAL/MOL
REMARK 922        TOTAL FREE ENERGY PREDICTED BY IDOCK:   -9.74 KCAL/MOL
REMARK 923 INTER-LIGAND FREE ENERGY PREDICTED BY IDOCK:   -8.55 KCAL/MOL
REMARK 924 INTRA-LIGAND FREE ENERGY PREDICTED BY IDOCK:   -1.19 KCAL/MOL
REMARK 927      BINDING AFFINITY PREDICTED BY RF-SCORE:    0.00 PKD
ROOT
HETATM    1  C   UNL     1      -7.860  16.256  67.633  1.00  0.00    -0.145 C  
HETATM    2  N   UNL     1      -8.826  15.481  68.361  1.00  0.00    -0.178 N  
HETATM    3  C   UNL     1      -9.919  16.070  68.957  1.00  0.00    -0.242 C  
HETATM    4  H   UNL     1      -8.700  14.472  68.437  1.00  0.00     0.000 HD 
HETATM    5  O   UNL     1     -10.138  17.277  68.927  1.00  0.00    -0.308 OA 
ENDROOT
BRANCH   3   6
HETATM    6  C   UNL     1     -10.859  15.124  69.642  1.00  0.00    -0.286 A  
HETATM    7  N   UNL     1     -11.359  15.508  70.850  1.00  0.00    -0.340 NA 
HETATM    8  C   UNL     1     -12.151  14.609  71.478  1.00  0.00    -0.348 A  
HETATM    9  C   UNL     1     -12.433  13.341  70.986  1.00  0.00    -0.422 A  
HETATM   10  C   UNL     1     -11.886  12.975  69.762  1.00  0.00    -0.311 A  
HETATM   11  C   UNL     1     -11.130  13.903  69.047  1.00  0.00    -0.302 A  
BRANCH  10  12
HETATM   12  O   UNL     1     -12.142  11.691  69.314  1.00  0.00    -0.311 OA 
BRANCH  12  13
HETATM   13  C   UNL     1     -12.012  10.653  70.216  1.00  0.00    -0.339 A  
HETATM   14  C   UNL     1     -13.106  10.061  70.835  1.00  0.00    -0.381 A  
HETATM   15  C   UNL     1     -12.909   9.127  71.846  1.00  0.00    -0.466 A  
HETATM   16  C   UNL     1     -11.632   8.665  72.184  1.00  0.00    -0.370 A  
HETATM   17  C   UNL     1     -10.538   9.196  71.494  1.00  0.00    -0.428 A  
HETATM   18  C   UNL     1     -10.729  10.186  70.511  1.00  0.00    -0.295 A  
BRANCH  16  19
HETATM   19  N   UNL     1     -11.425   7.691  73.196  1.00  0.00    -0.607 N  
HETATM   20  H   UNL     1     -11.719   7.907  74.149  1.00  0.00     0.000 HD 
BRANCH  19  21
HETATM   21  C   UNL     1     -10.838   6.455  72.948  1.00  0.00    -0.256 C  
HETATM   22  O   UNL     1      -9.968   5.976  73.665  1.00  0.00    -0.170 OA 
BRANCH  21  23
HETATM   23  N   UNL     1     -11.314   5.820  71.815  1.00  0.00    -0.221 N  
HETATM   24  H   UNL     1     -12.170   5.270  71.891  1.00  0.00     0.000 HD 
BRANCH  23  25
HETATM   25  C   UNL     1     -10.666   5.896  70.544  1.00  0.00    -0.294 A  
HETATM   26  C   UNL     1      -9.317   5.571  70.358  1.00  0.00    -0.198 A  
HETATM   27  C   UNL     1      -8.652   5.748  69.132  1.00  0.00    -0.110 A  
HETATM   28  C   UNL     1      -7.177   5.467  69.045  1.00  0.00    -0.062 C  
HETATM   29  C   UNL     1      -9.396   6.202  68.046  1.00  0.00    -0.114 A  
HETATM   30  F   UNL     1      -6.448   6.551  68.656  1.00  0.00    -0.040 F  
HETATM   31  F   UNL     1      -6.877   4.468  68.168  1.00  0.00    -0.049 F  
HETATM   32  F   UNL     1      -6.625   5.075  70.231  1.00  0.00    -0.030 F  
HETATM   33 CL   UNL     1      -8.689   6.431  66.489  1.00  0.00    -0.128 Cl 
HETATM   34  C   UNL     1     -10.761   6.481  68.196  1.00  0.00    -0.347 A  
HETATM   35  C   UNL     1     -11.395   6.335  69.438  1.00  0.00    -0.448 A  
ENDBRANCH  23  25
ENDBRANCH  21  23
ENDBRANCH  19  21
ENDBRANCH  16  19
ENDBRANCH  12  13
ENDBRANCH  10  12
ENDBRANCH   3   6
TORSDOF 7
ENDMDL
MODEL      130
REMARK 921   NORMALIZED FREE ENERGY PREDICTED BY IDOCK:   -5.59 KCAL/MOL
REMARK 922        TOTAL FREE ENERGY PREDICTED BY IDOCK:   -9.73 KCAL/MOL
REMARK 923 INTER-LIGAND FREE ENERGY PREDICTED BY IDOCK:   -8.13 KCAL/MOL
REMARK 924 INTRA-LIGAND FREE ENERGY PREDICTED BY IDOCK:   -1.60 KCAL/MOL
REMARK 927      BINDING AFFINITY PREDICTED BY RF-SCORE:    0.00 PKD
ROOT
HETATM    1  C   UNL     1     -14.062   8.722  72.380  1.00  0.00    -0.413 C  
HETATM    2  N   UNL     1     -12.715   8.525  71.919  1.00  0.00    -0.341 N  
HETATM    3  C   UNL     1     -12.411   7.567  70.976  1.00  0.00    -0.235 C  
HETATM    4  H   UNL     1     -11.968   9.106  72.298  1.00  0.00     0.000 HD 
HETATM    5  O   UNL     1     -13.245   6.817  70.480  1.00  0.00     0.243 OA 
ENDROOT
BRANCH   3   6
HETATM    6  C   UNL     1     -10.970   7.513  70.565  1.00  0.00    -0.252 A  
HETATM    7  N   UNL     1     -10.051   7.279  71.544  1.00  0.00    -0.186 NA 
HETATM    8  C   UNL     1      -8.755   7.302  71.160  1.00  0.00    -0.135 A  
HETATM    9  C   UNL     1      -8.330   7.585  69.868  1.00  0.00    -0.133 A  
HETATM   10  C   UNL     1      -9.294   7.842  68.901  1.00  0.00    -0.150 A  
HETATM   11  C   UNL     1     -10.643   7.750  69.241  1.00  0.00    -0.199 A  
BRANCH  10  12
HETATM   12  O   UNL     1      -8.846   8.169  67.633  1.00  0.00    -0.135 OA 
BRANCH  12  13
HETATM   13  C   UNL     1      -8.833   9.502  67.275  1.00  0.00    -0.128 A  
HETATM   14  C   UNL     1      -7.778  10.350  67.590  1.00  0.00    -0.093 A  
HETATM   15  C   UNL     1      -7.885  11.713  67.341  1.00  0.00    -0.147 A  
HETATM   16  C   UNL     1      -8.984  12.254  66.663  1.00  0.00    -0.189 A  
HETATM   17  C   UNL     1     -10.003  11.384  66.264  1.00  0.00    -0.259 A  
HETATM   18  C   UNL     1      -9.925  10.011  66.568  1.00  0.00    -0.286 A  
BRANCH  16  19
HETATM   19  N   UNL     1      -9.088  13.642  66.379  1.00  0.00    -0.467 N  
HETATM   20  H   UNL     1      -8.434  14.054  65.713  1.00  0.00     0.000 HD 
BRANCH  19  21
HETATM   21  C   UNL     1     -10.041  14.465  66.968  1.00  0.00    -0.256 C  
HETATM   22  O   UNL     1     -10.998  14.919  66.354  1.00  0.00    -0.326 OA 
BRANCH  21  23
HETATM   23  N   UNL     1      -9.806  14.737  68.303  1.00  0.00    -0.216 N  
HETATM   24  H   UNL     1      -8.936  15.203  68.558  1.00  0.00     0.000 HD 
BRANCH  23  25
HETATM   25  C   UNL     1     -10.724  14.396  69.345  1.00  0.00    -0.162 A  
HETATM   26  C   UNL     1     -10.970  15.228  70.443  1.00  0.00    -0.317 A  
HETATM   27  C   UNL     1     -11.790  14.846  71.520  1.00  0.00    -0.419 A  
HETATM   28  C   UNL     1     -11.922  15.761  72.707  1.00  0.00    -0.492 C  
HETATM   29  C   UNL     1     -12.432  13.614  71.446  1.00  0.00    -0.285 A  
HETATM   30  F   UNL     1     -11.525  15.182  73.875  1.00  0.00    -0.395 F  
HETATM   31  F   UNL     1     -13.199  16.191  72.907  1.00  0.00    -0.516 F  
HETATM   32  F   UNL     1     -11.176  16.900  72.604  1.00  0.00    -0.057 F  
HETATM   33 CL   UNL     1     -13.480  13.056  72.698  1.00  0.00    -0.521 Cl 
HETATM   34  C   UNL     1     -12.243  12.787  70.330  1.00  0.00    -0.351 A  
HETATM   35  C   UNL     1     -11.391  13.171  69.285  1.00  0.00    -0.312 A  
ENDBRANCH  23  25
ENDBRANCH  21  23
ENDBRANCH  19  21
ENDBRANCH  16  19
ENDBRANCH  12  13
ENDBRANCH  10  12
ENDBRANCH   3   6
TORSDOF 7
ENDMDL
MODEL      131
REMARK 921   NORMALIZED FREE ENERGY PREDICTED BY IDOCK:   -5.59 KCAL/MOL
REMARK 922        TOTAL FREE ENERGY PREDICTED BY IDOCK:   -9.72 KCAL/MOL
REMARK 923 INTER-LIGAND FREE ENERGY PREDICTED BY IDOCK:   -8.77 KCAL/MOL
REMARK 924 INTRA-LIGAND FREE ENERGY PREDICTED BY IDOCK:   -0.95 KCAL/MOL
REMARK 927      BINDING AFFINITY PREDICTED BY RF-SCORE:    0.00 PKD
ROOT
HETATM    1  C   UNL     1      -5.575   5.898  64.482  1.00  0.00    -0.017 C  
HETATM    2  N   UNL     1      -6.134   6.894  65.353  1.00  0.00    -0.035 N  
HETATM    3  C   UNL     1      -6.973   7.877  64.876  1.00  0.00    -0.059 C  
HETATM    4  H   UNL     1      -5.905   6.873  66.346  1.00  0.00     0.000 HD 
HETATM    5  O   UNL     1      -7.289   7.984  63.695  1.00  0.00    -0.094 OA 
ENDROOT
BRANCH   3   6
HETATM    6  C   UNL     1      -7.511   8.815  65.915  1.00  0.00    -0.089 A  
HETATM    7  N   UNL     1      -6.607   9.414  66.740  1.00  0.00    -0.067 NA 
HETATM    8  C   UNL     1      -7.121  10.203  67.711  1.00  0.00    -0.086 A  
HETATM    9  C   UNL     1      -8.481  10.390  67.925  1.00  0.00    -0.114 A  
HETATM   10  C   UNL     1      -9.374   9.744  67.078  1.00  0.00    -0.147 A  
HETATM   11  C   UNL     1      -8.882   8.985  66.017  1.00  0.00    -0.208 A  
BRANCH  10  12
HETATM   12  O   UNL     1     -10.723   9.906  67.339  1.00  0.00    -0.266 OA 
BRANCH  12  13
HETATM   13  C   UNL     1     -11.168  11.167  67.686  1.00  0.00    -0.297 A  
HETATM   14  C   UNL     1     -11.377  12.168  66.746  1.00  0.00    -0.398 A  
HETATM   15  C   UNL     1     -11.677  13.460  67.164  1.00  0.00    -0.424 A  
HETATM   16  C   UNL     1     -11.899  13.765  68.512  1.00  0.00    -0.370 A  
HETATM   17  C   UNL     1     -11.779  12.733  69.447  1.00  0.00    -0.380 A  
HETATM   18  C   UNL     1     -11.416  11.437  69.034  1.00  0.00    -0.366 A  
BRANCH  16  19
HETATM   19  N   UNL     1     -12.234  15.076  68.945  1.00  0.00    -0.587 N  
HETATM   20  H   UNL     1     -12.854  15.639  68.361  1.00  0.00     0.000 HD 
BRANCH  19  21
HETATM   21  C   UNL     1     -11.755  15.628  70.127  1.00  0.00    -0.360 C  
HETATM   22  O   UNL     1     -12.484  15.933  71.062  1.00  0.00    -0.440 OA 
BRANCH  21  23
HETATM   23  N   UNL     1     -10.384  15.814  70.150  1.00  0.00    -0.278 N  
HETATM   24  H   UNL     1      -9.849  15.378  70.901  1.00  0.00     0.000 HD 
BRANCH  23  25
HETATM   25  C   UNL     1      -9.682  16.587  69.174  1.00  0.00    -0.241 A  
HETATM   26  C   UNL     1     -10.222  17.734  68.581  1.00  0.00    -0.377 A  
HETATM   27  C   UNL     1      -9.576  18.432  67.545  1.00  0.00    -0.293 A  
HETATM   28  C   UNL     1     -10.272  19.598  66.897  1.00  0.00    -0.442 C  
HETATM   29  C   UNL     1      -8.317  17.993  67.148  1.00  0.00    -0.233 A  
HETATM   30  F   UNL     1     -10.457  19.431  65.557  1.00  0.00    -0.471 F  
HETATM   31  F   UNL     1      -9.596  20.771  67.048  1.00  0.00    -0.549 F  
HETATM   32  F   UNL     1     -11.518  19.839  67.399  1.00  0.00    -0.399 F  
HETATM   33 CL   UNL     1      -7.424  18.789  65.905  1.00  0.00    -0.271 Cl 
HETATM   34  C   UNL     1      -7.733  16.878  67.767  1.00  0.00    -0.184 A  
HETATM   35  C   UNL     1      -8.411  16.173  68.771  1.00  0.00    -0.231 A  
ENDBRANCH  23  25
ENDBRANCH  21  23
ENDBRANCH  19  21
ENDBRANCH  16  19
ENDBRANCH  12  13
ENDBRANCH  10  12
ENDBRANCH   3   6
TORSDOF 7
ENDMDL
MODEL      132
REMARK 921   NORMALIZED FREE ENERGY PREDICTED BY IDOCK:   -5.57 KCAL/MOL
REMARK 922        TOTAL FREE ENERGY PREDICTED BY IDOCK:   -9.70 KCAL/MOL
REMARK 923 INTER-LIGAND FREE ENERGY PREDICTED BY IDOCK:   -9.59 KCAL/MOL
REMARK 924 INTRA-LIGAND FREE ENERGY PREDICTED BY IDOCK:   -0.11 KCAL/MOL
REMARK 927      BINDING AFFINITY PREDICTED BY RF-SCORE:    0.00 PKD
ROOT
HETATM    1  C   UNL     1     -10.601   4.117  65.164  1.00  0.00    -0.117 C  
HETATM    2  N   UNL     1     -10.251   4.365  66.535  1.00  0.00    -0.336 N  
HETATM    3  C   UNL     1     -10.617   5.532  67.171  1.00  0.00    -0.240 C  
HETATM    4  H   UNL     1      -9.721   3.662  67.049  1.00  0.00     0.000 HD 
HETATM    5  O   UNL     1     -11.241   6.434  66.623  1.00  0.00    -0.245 OA 
ENDROOT
BRANCH   3   6
HETATM    6  C   UNL     1     -10.217   5.623  68.613  1.00  0.00    -0.200 A  
HETATM    7  N   UNL     1      -9.079   4.973  68.987  1.00  0.00    -0.101 NA 
HETATM    8  C   UNL     1      -8.777   5.015  70.305  1.00  0.00    -0.107 A  
HETATM    9  C   UNL     1      -9.567   5.631  71.267  1.00  0.00    -0.198 A  
HETATM   10  C   UNL     1     -10.734   6.264  70.852  1.00  0.00    -0.259 A  
HETATM   11  C   UNL     1     -11.038   6.310  69.492  1.00  0.00    -0.476 A  
BRANCH  10  12
HETATM   12  O   UNL     1     -11.529   6.829  71.833  1.00  0.00    -0.256 OA 
BRANCH  12  13
HETATM   13  C   UNL     1     -11.954   8.130  71.651  1.00  0.00    -0.300 A  
HETATM   14  C   UNL     1     -13.238   8.549  71.981  1.00  0.00    -0.399 A  
HETATM   15  C   UNL     1     -13.661   9.827  71.635  1.00  0.00    -0.371 A  
HETATM   16  C   UNL     1     -12.789  10.763  71.068  1.00  0.00    -0.385 A  
HETATM   17  C   UNL     1     -11.471  10.368  70.822  1.00  0.00    -0.422 A  
HETATM   18  C   UNL     1     -11.055   9.055  71.115  1.00  0.00    -0.371 A  
BRANCH  16  19
HETATM   19  N   UNL     1     -13.205  12.081  70.738  1.00  0.00     0.277 N  
HETATM   20  H   UNL     1     -13.652  12.239  69.834  1.00  0.00     0.000 HD 
BRANCH  19  21
HETATM   21  C   UNL     1     -13.032  13.165  71.591  1.00  0.00    -0.335 C  
HETATM   22  O   UNL     1     -13.803  13.420  72.507  1.00  0.00    -0.668 OA 
BRANCH  21  23
HETATM   23  N   UNL     1     -11.921  13.937  71.306  1.00  0.00    -0.430 N  
HETATM   24  H   UNL     1     -11.296  14.189  72.072  1.00  0.00     0.000 HD 
BRANCH  23  25
HETATM   25  C   UNL     1     -11.605  14.400  69.991  1.00  0.00    -0.275 A  
HETATM   26  C   UNL     1     -11.081  15.674  69.739  1.00  0.00    -0.315 A  
HETATM   27  C   UNL     1     -10.871  16.168  68.440  1.00  0.00    -0.318 A  
HETATM   28  C   UNL     1     -10.398  17.585  68.257  1.00  0.00    -0.379 C  
HETATM   29  C   UNL     1     -11.134  15.320  67.368  1.00  0.00    -0.326 A  
HETATM   30  F   UNL     1     -11.257  18.343  67.520  1.00  0.00    -0.368 F  
HETATM   31  F   UNL     1      -9.187  17.665  67.639  1.00  0.00    -0.237 F  
HETATM   32  F   UNL     1     -10.243  18.264  69.431  1.00  0.00    -0.350 F  
HETATM   33 CL   UNL     1     -10.888  15.813  65.734  1.00  0.00    -0.311 Cl 
HETATM   34  C   UNL     1     -11.607  14.020  67.599  1.00  0.00    -0.385 A  
HETATM   35  C   UNL     1     -11.847  13.561  68.902  1.00  0.00    -0.384 A  
ENDBRANCH  23  25
ENDBRANCH  21  23
ENDBRANCH  19  21
ENDBRANCH  16  19
ENDBRANCH  12  13
ENDBRANCH  10  12
ENDBRANCH   3   6
TORSDOF 7
ENDMDL
MODEL      133
REMARK 921   NORMALIZED FREE ENERGY PREDICTED BY IDOCK:   -5.57 KCAL/MOL
REMARK 922        TOTAL FREE ENERGY PREDICTED BY IDOCK:   -9.70 KCAL/MOL
REMARK 923 INTER-LIGAND FREE ENERGY PREDICTED BY IDOCK:   -8.27 KCAL/MOL
REMARK 924 INTRA-LIGAND FREE ENERGY PREDICTED BY IDOCK:   -1.43 KCAL/MOL
REMARK 927      BINDING AFFINITY PREDICTED BY RF-SCORE:    0.00 PKD
ROOT
HETATM    1  C   UNL     1     -12.411  16.208  73.331  1.00  0.00    -0.548 C  
HETATM    2  N   UNL     1     -12.377  14.905  72.727  1.00  0.00    -0.334 N  
HETATM    3  C   UNL     1     -12.381  14.746  71.358  1.00  0.00    -0.337 C  
HETATM    4  H   UNL     1     -12.349  14.079  73.325  1.00  0.00     0.000 HD 
HETATM    5  O   UNL     1     -12.428  15.683  70.568  1.00  0.00    -0.415 OA 
ENDROOT
BRANCH   3   6
HETATM    6  C   UNL     1     -12.298  13.327  70.881  1.00  0.00    -0.329 A  
HETATM    7  N   UNL     1     -11.868  13.124  69.604  1.00  0.00    -0.320 NA 
HETATM    8  C   UNL     1     -11.866  11.841  69.175  1.00  0.00    -0.326 A  
HETATM    9  C   UNL     1     -12.307  10.765  69.934  1.00  0.00    -0.340 A  
HETATM   10  C   UNL     1     -12.763  11.013  71.224  1.00  0.00    -0.432 A  
HETATM   11  C   UNL     1     -12.706  12.311  71.729  1.00  0.00    -0.257 A  
BRANCH  10  12
HETATM   12  O   UNL     1     -13.242   9.933  71.944  1.00  0.00    -0.408 OA 
BRANCH  12  13
HETATM   13  C   UNL     1     -12.480   8.783  71.970  1.00  0.00    -0.386 A  
HETATM   14  C   UNL     1     -11.109   8.801  72.201  1.00  0.00    -0.406 A  
HETATM   15  C   UNL     1     -10.367   7.633  72.064  1.00  0.00    -0.252 A  
HETATM   16  C   UNL     1     -10.977   6.398  71.818  1.00  0.00    -0.255 A  
HETATM   17  C   UNL     1     -12.368   6.368  71.677  1.00  0.00    -0.216 A  
HETATM   18  C   UNL     1     -13.116   7.558  71.755  1.00  0.00    -0.362 A  
BRANCH  16  19
HETATM   19  N   UNL     1     -10.229   5.195  71.704  1.00  0.00    -0.206 N  
HETATM   20  H   UNL     1     -10.369   4.467  72.405  1.00  0.00     0.000 HD 
BRANCH  19  21
HETATM   21  C   UNL     1      -9.317   4.965  70.682  1.00  0.00    -0.162 C  
HETATM   22  O   UNL     1      -8.109   4.890  70.873  1.00  0.00    -0.090 OA 
BRANCH  21  23
HETATM   23  N   UNL     1      -9.889   4.840  69.430  1.00  0.00    -0.203 N  
HETATM   24  H   UNL     1     -10.448   4.009  69.233  1.00  0.00     0.000 HD 
BRANCH  23  25
HETATM   25  C   UNL     1      -9.737   5.817  68.397  1.00  0.00    -0.133 A  
HETATM   26  C   UNL     1      -8.785   5.702  67.377  1.00  0.00    -0.107 A  
HETATM   27  C   UNL     1      -8.563   6.712  66.425  1.00  0.00    -0.130 A  
HETATM   28  C   UNL     1      -7.453   6.550  65.423  1.00  0.00    -0.080 C  
HETATM   29  C   UNL     1      -9.377   7.840  66.468  1.00  0.00    -0.189 A  
HETATM   30  F   UNL     1      -6.526   7.547  65.487  1.00  0.00    -0.040 F  
HETATM   31  F   UNL     1      -7.898   6.522  64.136  1.00  0.00    -0.093 F  
HETATM   32  F   UNL     1      -6.742   5.394  65.577  1.00  0.00    -0.038 F  
HETATM   33 CL   UNL     1      -9.209   9.129  65.334  1.00  0.00    -0.278 Cl 
HETATM   34  C   UNL     1     -10.374   7.952  67.448  1.00  0.00    -0.349 A  
HETATM   35  C   UNL     1     -10.552   6.950  68.412  1.00  0.00    -0.249 A  
ENDBRANCH  23  25
ENDBRANCH  21  23
ENDBRANCH  19  21
ENDBRANCH  16  19
ENDBRANCH  12  13
ENDBRANCH  10  12
ENDBRANCH   3   6
TORSDOF 7
ENDMDL
MODEL      134
REMARK 921   NORMALIZED FREE ENERGY PREDICTED BY IDOCK:   -5.57 KCAL/MOL
REMARK 922        TOTAL FREE ENERGY PREDICTED BY IDOCK:   -9.70 KCAL/MOL
REMARK 923 INTER-LIGAND FREE ENERGY PREDICTED BY IDOCK:   -7.88 KCAL/MOL
REMARK 924 INTRA-LIGAND FREE ENERGY PREDICTED BY IDOCK:   -1.82 KCAL/MOL
REMARK 927      BINDING AFFINITY PREDICTED BY RF-SCORE:    0.00 PKD
ROOT
HETATM    1  C   UNL     1     -14.239  15.393  71.579  1.00  0.00    -0.477 C  
HETATM    2  N   UNL     1     -13.090  15.891  70.876  1.00  0.00    -0.615 N  
HETATM    3  C   UNL     1     -12.253  15.047  70.179  1.00  0.00    -0.343 C  
HETATM    4  H   UNL     1     -12.889  16.890  70.892  1.00  0.00     0.000 HD 
HETATM    5  O   UNL     1     -12.412  13.832  70.119  1.00  0.00    -0.323 OA 
ENDROOT
BRANCH   3   6
HETATM    6  C   UNL     1     -11.122  15.721  69.460  1.00  0.00    -0.306 A  
HETATM    7  N   UNL     1     -11.439  16.760  68.637  1.00  0.00    -0.081 NA 
HETATM    8  C   UNL     1     -10.411  17.307  67.949  1.00  0.00    -0.382 A  
HETATM    9  C   UNL     1      -9.102  16.848  68.008  1.00  0.00    -0.234 A  
HETATM   10  C   UNL     1      -8.820  15.771  68.841  1.00  0.00    -0.220 A  
HETATM   11  C   UNL     1      -9.838  15.231  69.625  1.00  0.00    -0.224 A  
BRANCH  10  12
HETATM   12  O   UNL     1      -7.519  15.301  68.847  1.00  0.00    -0.125 OA 
BRANCH  12  13
HETATM   13  C   UNL     1      -7.308  13.976  68.520  1.00  0.00    -0.114 A  
HETATM   14  C   UNL     1      -7.572  13.470  67.253  1.00  0.00    -0.074 A  
HETATM   15  C   UNL     1      -7.488  12.101  67.021  1.00  0.00    -0.086 A  
HETATM   16  C   UNL     1      -7.022  11.216  67.999  1.00  0.00    -0.068 A  
HETATM   17  C   UNL     1      -6.668  11.742  69.246  1.00  0.00    -0.110 A  
HETATM   18  C   UNL     1      -6.809  13.119  69.503  1.00  0.00     0.092 A  
BRANCH  16  19
HETATM   19  N   UNL     1      -6.906   9.820  67.762  1.00  0.00    -0.080 N  
HETATM   20  H   UNL     1      -6.089   9.479  67.254  1.00  0.00     0.000 HD 
BRANCH  19  21
HETATM   21  C   UNL     1      -7.853   8.899  68.191  1.00  0.00    -0.101 C  
HETATM   22  O   UNL     1      -7.747   8.274  69.239  1.00  0.00    -0.098 OA 
BRANCH  21  23
HETATM   23  N   UNL     1      -8.920   8.739  67.325  1.00  0.00    -0.131 N  
HETATM   24  H   UNL     1      -9.062   7.826  66.894  1.00  0.00     0.000 HD 
BRANCH  23  25
HETATM   25  C   UNL     1      -9.832   9.792  67.004  1.00  0.00    -0.193 A  
HETATM   26  C   UNL     1     -10.089  10.200  65.690  1.00  0.00    -0.324 A  
HETATM   27  C   UNL     1     -10.903  11.304  65.380  1.00  0.00    -0.255 A  
HETATM   28  C   UNL     1     -11.047  11.735  63.946  1.00  0.00    -0.408 C  
HETATM   29  C   UNL     1     -11.529  11.968  66.431  1.00  0.00    -0.353 A  
HETATM   30  F   UNL     1     -10.641  13.018  63.731  1.00  0.00    -0.397 F  
HETATM   31  F   UNL     1     -12.330  11.657  63.494  1.00  0.00    -0.568 F  
HETATM   32  F   UNL     1     -10.317  10.981  63.073  1.00  0.00    -0.357 F  
HETATM   33 CL   UNL     1     -12.569  13.319  66.165  1.00  0.00    -0.327 Cl 
HETATM   34  C   UNL     1     -11.329  11.542  67.752  1.00  0.00    -0.364 A  
HETATM   35  C   UNL     1     -10.483  10.463  68.041  1.00  0.00    -0.232 A  
ENDBRANCH  23  25
ENDBRANCH  21  23
ENDBRANCH  19  21
ENDBRANCH  16  19
ENDBRANCH  12  13
ENDBRANCH  10  12
ENDBRANCH   3   6
TORSDOF 7
ENDMDL
MODEL      135
REMARK 921   NORMALIZED FREE ENERGY PREDICTED BY IDOCK:   -5.53 KCAL/MOL
REMARK 922        TOTAL FREE ENERGY PREDICTED BY IDOCK:   -9.65 KCAL/MOL
REMARK 923 INTER-LIGAND FREE ENERGY PREDICTED BY IDOCK:   -9.12 KCAL/MOL
REMARK 924 INTRA-LIGAND FREE ENERGY PREDICTED BY IDOCK:   -0.53 KCAL/MOL
REMARK 927      BINDING AFFINITY PREDICTED BY RF-SCORE:    0.00 PKD
ROOT
HETATM    1  C   UNL     1     -10.341  18.250  65.843  1.00  0.00    -0.284 C  
HETATM    2  N   UNL     1     -10.565  16.831  65.859  1.00  0.00    -0.296 N  
HETATM    3  C   UNL     1     -11.216  16.195  64.824  1.00  0.00    -0.304 C  
HETATM    4  H   UNL     1     -10.235  16.283  66.652  1.00  0.00     0.000 HD 
HETATM    5  O   UNL     1     -11.658  16.780  63.841  1.00  0.00    -1.122 OA 
ENDROOT
BRANCH   3   6
HETATM    6  C   UNL     1     -11.334  14.707  64.964  1.00  0.00    -0.390 A  
HETATM    7  N   UNL     1     -12.414  14.110  64.386  1.00  0.00    -0.672 NA 
HETATM    8  C   UNL     1     -12.533  12.777  64.583  1.00  0.00    -0.456 A  
HETATM    9  C   UNL     1     -11.660  12.023  65.357  1.00  0.00    -0.343 A  
HETATM   10  C   UNL     1     -10.583  12.670  65.952  1.00  0.00    -0.273 A  
HETATM   11  C   UNL     1     -10.383  14.028  65.707  1.00  0.00    -0.330 A  
BRANCH  10  12
HETATM   12  O   UNL     1      -9.755  11.909  66.758  1.00  0.00    -0.197 OA 
BRANCH  12  13
HETATM   13  C   UNL     1      -9.808  10.535  66.624  1.00  0.00    -0.199 A  
HETATM   14  C   UNL     1     -10.651   9.743  67.394  1.00  0.00    -0.330 A  
HETATM   15  C   UNL     1     -10.553   8.357  67.327  1.00  0.00    -0.328 A  
HETATM   16  C   UNL     1      -9.708   7.722  66.410  1.00  0.00    -0.149 A  
HETATM   17  C   UNL     1      -8.927   8.524  65.572  1.00  0.00    -0.182 A  
HETATM   18  C   UNL     1      -8.979   9.927  65.679  1.00  0.00    -0.205 A  
BRANCH  16  19
HETATM   19  N   UNL     1      -9.623   6.307  66.316  1.00  0.00    -0.316 N  
HETATM   20  H   UNL     1     -10.014   5.849  65.492  1.00  0.00     0.000 HD 
BRANCH  19  21
HETATM   21  C   UNL     1      -9.031   5.518  67.295  1.00  0.00    -0.111 C  
HETATM   22  O   UNL     1      -7.826   5.302  67.336  1.00  0.00    -0.098 OA 
BRANCH  21  23
HETATM   23  N   UNL     1      -9.922   4.988  68.210  1.00  0.00    -0.148 N  
HETATM   24  H   UNL     1     -10.589   4.287  67.887  1.00  0.00     0.000 HD 
BRANCH  23  25
HETATM   25  C   UNL     1      -9.954   5.374  69.586  1.00  0.00    -0.227 A  
HETATM   26  C   UNL     1     -10.084   4.451  70.631  1.00  0.00    -0.191 A  
HETATM   27  C   UNL     1     -10.223   4.837  71.975  1.00  0.00    -0.261 A  
HETATM   28  C   UNL     1     -10.456   3.785  73.025  1.00  0.00    -0.174 C  
HETATM   29  C   UNL     1     -10.159   6.195  72.274  1.00  0.00    -0.179 A  
HETATM   30  F   UNL     1     -11.621   3.963  73.710  1.00  0.00    -0.281 F  
HETATM   31  F   UNL     1      -9.466   3.736  73.958  1.00  0.00    -0.097 F  
HETATM   32  F   UNL     1     -10.532   2.518  72.521  1.00  0.00    -0.223 F  
HETATM   33 CL   UNL     1     -10.293   6.779  73.892  1.00  0.00    -0.383 Cl 
HETATM   34  C   UNL     1      -9.975   7.133  71.249  1.00  0.00    -0.192 A  
HETATM   35  C   UNL     1      -9.877   6.729  69.910  1.00  0.00    -0.174 A  
ENDBRANCH  23  25
ENDBRANCH  21  23
ENDBRANCH  19  21
ENDBRANCH  16  19
ENDBRANCH  12  13
ENDBRANCH  10  12
ENDBRANCH   3   6
TORSDOF 7
ENDMDL
MODEL      136
REMARK 921   NORMALIZED FREE ENERGY PREDICTED BY IDOCK:   -5.53 KCAL/MOL
REMARK 922        TOTAL FREE ENERGY PREDICTED BY IDOCK:   -9.64 KCAL/MOL
REMARK 923 INTER-LIGAND FREE ENERGY PREDICTED BY IDOCK:   -8.86 KCAL/MOL
REMARK 924 INTRA-LIGAND FREE ENERGY PREDICTED BY IDOCK:   -0.77 KCAL/MOL
REMARK 927      BINDING AFFINITY PREDICTED BY RF-SCORE:    0.00 PKD
ROOT
HETATM    1  C   UNL     1      -7.648  18.195  68.423  1.00  0.00    -0.283 C  
HETATM    2  N   UNL     1      -8.681  17.291  67.999  1.00  0.00    -0.225 N  
HETATM    3  C   UNL     1      -8.940  17.071  66.664  1.00  0.00    -0.254 C  
HETATM    4  H   UNL     1      -9.235  16.802  68.702  1.00  0.00     0.000 HD 
HETATM    5  O   UNL     1      -8.332  17.627  65.755  1.00  0.00    -0.537 OA 
ENDROOT
BRANCH   3   6
HETATM    6  C   UNL     1     -10.017  16.067  66.381  1.00  0.00    -0.295 A  
HETATM    7  N   UNL     1     -10.458  15.972  65.095  1.00  0.00    -0.574 NA 
HETATM    8  C   UNL     1     -11.476  15.109  64.878  1.00  0.00    -0.374 A  
HETATM    9  C   UNL     1     -12.099  14.372  65.877  1.00  0.00    -0.358 A  
HETATM   10  C   UNL     1     -11.639  14.512  67.181  1.00  0.00    -0.388 A  
HETATM   11  C   UNL     1     -10.540  15.332  67.432  1.00  0.00    -0.282 A  
BRANCH  10  12
HETATM   12  O   UNL     1     -12.305  13.805  68.166  1.00  0.00    -0.245 OA 
BRANCH  12  13
HETATM   13  C   UNL     1     -11.811  12.565  68.520  1.00  0.00    -0.295 A  
HETATM   14  C   UNL     1     -11.289  11.676  67.588  1.00  0.00    -0.362 A  
HETATM   15  C   UNL     1     -10.947  10.386  67.976  1.00  0.00    -0.347 A  
HETATM   16  C   UNL     1     -10.996   9.982  69.315  1.00  0.00    -0.228 A  
HETATM   17  C   UNL     1     -11.435  10.909  70.265  1.00  0.00    -0.391 A  
HETATM   18  C   UNL     1     -11.839  12.198  69.867  1.00  0.00    -0.392 A  
BRANCH  16  19
HETATM   19  N   UNL     1     -10.622   8.674  69.724  1.00  0.00    -0.224 N  
HETATM   20  H   UNL     1     -10.755   7.902  69.070  1.00  0.00     0.000 HD 
BRANCH  19  21
HETATM   21  C   UNL     1     -10.081   8.397  70.974  1.00  0.00    -0.196 C  
HETATM   22  O   UNL     1      -8.956   8.751  71.305  1.00  0.00    -0.191 OA 
BRANCH  21  23
HETATM   23  N   UNL     1     -10.919   7.678  71.806  1.00  0.00    -0.235 N  
HETATM   24  H   UNL     1     -11.852   8.048  71.993  1.00  0.00     0.000 HD 
BRANCH  23  25
HETATM   25  C   UNL     1     -10.543   6.443  72.419  1.00  0.00    -0.213 A  
HETATM   26  C   UNL     1     -10.225   5.295  71.682  1.00  0.00    -0.274 A  
HETATM   27  C   UNL     1      -9.960   4.053  72.285  1.00  0.00    -0.236 A  
HETATM   28  C   UNL     1      -9.723   2.848  71.415  1.00  0.00    -0.151 C  
HETATM   29  C   UNL     1      -9.950   3.990  73.675  1.00  0.00    -0.126 A  
HETATM   30  F   UNL     1     -10.614   1.841  71.644  1.00  0.00    -0.169 F  
HETATM   31  F   UNL     1      -8.484   2.308  71.580  1.00  0.00    -0.056 F  
HETATM   32  F   UNL     1      -9.821   3.110  70.079  1.00  0.00    -0.226 F  
HETATM   33 CL   UNL     1      -9.612   2.524  74.519  1.00  0.00    -0.117 Cl 
HETATM   34  C   UNL     1     -10.212   5.140  74.433  1.00  0.00    -0.301 A  
HETATM   35  C   UNL     1     -10.512   6.360  73.812  1.00  0.00    -0.319 A  
ENDBRANCH  23  25
ENDBRANCH  21  23
ENDBRANCH  19  21
ENDBRANCH  16  19
ENDBRANCH  12  13
ENDBRANCH  10  12
ENDBRANCH   3   6
TORSDOF 7
ENDMDL
MODEL      137
REMARK 921   NORMALIZED FREE ENERGY PREDICTED BY IDOCK:   -5.52 KCAL/MOL
REMARK 922        TOTAL FREE ENERGY PREDICTED BY IDOCK:   -9.63 KCAL/MOL
REMARK 923 INTER-LIGAND FREE ENERGY PREDICTED BY IDOCK:   -8.31 KCAL/MOL
REMARK 924 INTRA-LIGAND FREE ENERGY PREDICTED BY IDOCK:   -1.32 KCAL/MOL
REMARK 927      BINDING AFFINITY PREDICTED BY RF-SCORE:    0.00 PKD
ROOT
HETATM    1  C   UNL     1     -10.036  18.259  66.330  1.00  0.00    -0.396 C  
HETATM    2  N   UNL     1     -10.426  16.879  66.255  1.00  0.00    -0.296 N  
HETATM    3  C   UNL     1     -11.088  16.377  65.155  1.00  0.00    -0.170 C  
HETATM    4  H   UNL     1     -10.209  16.256  67.033  1.00  0.00     0.000 HD 
HETATM    5  O   UNL     1     -11.401  17.058  64.185  1.00  0.00    -1.164 OA 
ENDROOT
BRANCH   3   6
HETATM    6  C   UNL     1     -11.388  14.909  65.207  1.00  0.00    -0.358 A  
HETATM    7  N   UNL     1     -12.313  14.431  64.328  1.00  0.00    -0.660 NA 
HETATM    8  C   UNL     1     -12.616  13.118  64.439  1.00  0.00    -0.245 A  
HETATM    9  C   UNL     1     -12.078  12.273  65.402  1.00  0.00    -0.343 A  
HETATM   10  C   UNL     1     -11.156  12.801  66.298  1.00  0.00    -0.288 A  
HETATM   11  C   UNL     1     -10.760  14.131  66.165  1.00  0.00    -0.297 A  
BRANCH  10  12
HETATM   12  O   UNL     1     -10.670  11.953  67.278  1.00  0.00    -0.220 OA 
BRANCH  12  13
HETATM   13  C   UNL     1     -10.070  10.776  66.876  1.00  0.00    -0.212 A  
HETATM   14  C   UNL     1     -10.689   9.539  67.011  1.00  0.00    -0.220 A  
HETATM   15  C   UNL     1      -9.981   8.375  66.733  1.00  0.00    -0.354 A  
HETATM   16  C   UNL     1      -8.689   8.410  66.198  1.00  0.00    -0.151 A  
HETATM   17  C   UNL     1      -8.102   9.659  65.976  1.00  0.00    -0.112 A  
HETATM   18  C   UNL     1      -8.793  10.839  66.313  1.00  0.00    -0.182 A  
BRANCH  16  19
HETATM   19  N   UNL     1      -7.969   7.226  65.884  1.00  0.00    -0.109 N  
HETATM   20  H   UNL     1      -8.301   6.642  65.116  1.00  0.00     0.000 HD 
BRANCH  19  21
HETATM   21  C   UNL     1      -6.831   6.826  66.576  1.00  0.00    -0.061 C  
HETATM   22  O   UNL     1      -5.701   7.166  66.250  1.00  0.00    -0.029 OA 
BRANCH  21  23
HETATM   23  N   UNL     1      -7.087   6.001  67.656  1.00  0.00    -0.072 N  
HETATM   24  H   UNL     1      -6.845   5.013  67.580  1.00  0.00     0.000 HD 
BRANCH  23  25
HETATM   25  C   UNL     1      -7.673   6.465  68.875  1.00  0.00    -0.108 A  
HETATM   26  C   UNL     1      -9.035   6.321  69.165  1.00  0.00    -0.127 A  
HETATM   27  C   UNL     1      -9.632   6.871  70.313  1.00  0.00    -0.170 A  
HETATM   28  C   UNL     1     -11.120   6.754  70.499  1.00  0.00    -0.298 C  
HETATM   29  C   UNL     1      -8.810   7.525  71.226  1.00  0.00    -0.133 A  
HETATM   30  F   UNL     1     -11.742   7.963  70.601  1.00  0.00    -0.283 F  
HETATM   31  F   UNL     1     -11.464   6.051  71.614  1.00  0.00    -0.319 F  
HETATM   32  F   UNL     1     -11.751   6.118  69.469  1.00  0.00    -0.494 F  
HETATM   33 CL   UNL     1      -9.430   8.215  72.680  1.00  0.00    -0.317 Cl 
HETATM   34  C   UNL     1      -7.433   7.632  70.982  1.00  0.00    -0.075 A  
HETATM   35  C   UNL     1      -6.865   7.111  69.812  1.00  0.00    -0.050 A  
ENDBRANCH  23  25
ENDBRANCH  21  23
ENDBRANCH  19  21
ENDBRANCH  16  19
ENDBRANCH  12  13
ENDBRANCH  10  12
ENDBRANCH   3   6
TORSDOF 7
ENDMDL
MODEL      138
REMARK 921   NORMALIZED FREE ENERGY PREDICTED BY IDOCK:   -5.51 KCAL/MOL
REMARK 922        TOTAL FREE ENERGY PREDICTED BY IDOCK:   -9.61 KCAL/MOL
REMARK 923 INTER-LIGAND FREE ENERGY PREDICTED BY IDOCK:   -8.97 KCAL/MOL
REMARK 924 INTRA-LIGAND FREE ENERGY PREDICTED BY IDOCK:   -0.64 KCAL/MOL
REMARK 927      BINDING AFFINITY PREDICTED BY RF-SCORE:    0.00 PKD
ROOT
HETATM    1  C   UNL     1      -6.002   5.580  63.709  1.00  0.00    -0.021 C  
HETATM    2  N   UNL     1      -6.183   5.434  65.126  1.00  0.00    -0.033 N  
HETATM    3  C   UNL     1      -6.521   6.507  65.922  1.00  0.00    -0.043 C  
HETATM    4  H   UNL     1      -6.060   4.516  65.553  1.00  0.00     0.000 HD 
HETATM    5  O   UNL     1      -6.675   7.646  65.493  1.00  0.00    -0.045 OA 
ENDROOT
BRANCH   3   6
HETATM    6  C   UNL     1      -6.719   6.187  67.374  1.00  0.00    -0.061 A  
HETATM    7  N   UNL     1      -5.659   6.391  68.206  1.00  0.00    -0.008 NA 
HETATM    8  C   UNL     1      -5.841   6.031  69.497  1.00  0.00    -0.020 A  
HETATM    9  C   UNL     1      -7.000   5.445  69.987  1.00  0.00    -0.060 A  
HETATM   10  C   UNL     1      -8.052   5.230  69.104  1.00  0.00    -0.089 A  
HETATM   11  C   UNL     1      -7.932   5.659  67.783  1.00  0.00    -0.098 A  
BRANCH  10  12
HETATM   12  O   UNL     1      -9.179   4.601  69.604  1.00  0.00    -0.105 OA 
BRANCH  12  13
HETATM   13  C   UNL     1     -10.076   5.361  70.328  1.00  0.00    -0.248 A  
HETATM   14  C   UNL     1     -11.064   6.127  69.722  1.00  0.00    -0.486 A  
HETATM   15  C   UNL     1     -11.840   6.990  70.489  1.00  0.00    -0.337 A  
HETATM   16  C   UNL     1     -11.743   7.024  71.884  1.00  0.00    -0.296 A  
HETATM   17  C   UNL     1     -10.810   6.183  72.499  1.00  0.00    -0.275 A  
HETATM   18  C   UNL     1      -9.981   5.352  71.721  1.00  0.00    -0.235 A  
BRANCH  16  19
HETATM   19  N   UNL     1     -12.551   7.882  72.677  1.00  0.00    -0.569 N  
HETATM   20  H   UNL     1     -12.370   7.933  73.680  1.00  0.00     0.000 HD 
BRANCH  19  21
HETATM   21  C   UNL     1     -13.578   8.656  72.149  1.00  0.00    -0.406 C  
HETATM   22  O   UNL     1     -14.395   8.220  71.348  1.00  0.00    -0.412 OA 
BRANCH  21  23
HETATM   23  N   UNL     1     -13.588   9.965  72.596  1.00  0.00    -0.592 N  
HETATM   24  H   UNL     1     -13.983  10.160  73.516  1.00  0.00     0.000 HD 
BRANCH  23  25
HETATM   25  C   UNL     1     -13.072  11.058  71.832  1.00  0.00    -0.419 A  
HETATM   26  C   UNL     1     -13.320  12.396  72.159  1.00  0.00    -0.508 A  
HETATM   27  C   UNL     1     -12.903  13.468  71.348  1.00  0.00    -0.440 A  
HETATM   28  C   UNL     1     -13.297  14.871  71.722  1.00  0.00    -0.361 C  
HETATM   29  C   UNL     1     -12.154  13.174  70.213  1.00  0.00    -0.328 A  
HETATM   30  F   UNL     1     -14.023  15.497  70.753  1.00  0.00    -0.453 F  
HETATM   31  F   UNL     1     -12.227  15.673  71.978  1.00  0.00    -0.352 F  
HETATM   32  F   UNL     1     -14.070  14.941  72.845  1.00  0.00    -0.470 F  
HETATM   33 CL   UNL     1     -11.570  14.411  69.162  1.00  0.00    -0.317 Cl 
HETATM   34  C   UNL     1     -11.847  11.843  69.897  1.00  0.00    -0.418 A  
HETATM   35  C   UNL     1     -12.306  10.788  70.697  1.00  0.00    -0.465 A  
ENDBRANCH  23  25
ENDBRANCH  21  23
ENDBRANCH  19  21
ENDBRANCH  16  19
ENDBRANCH  12  13
ENDBRANCH  10  12
ENDBRANCH   3   6
TORSDOF 7
ENDMDL
MODEL      139
REMARK 921   NORMALIZED FREE ENERGY PREDICTED BY IDOCK:   -5.50 KCAL/MOL
REMARK 922        TOTAL FREE ENERGY PREDICTED BY IDOCK:   -9.59 KCAL/MOL
REMARK 923 INTER-LIGAND FREE ENERGY PREDICTED BY IDOCK:   -7.98 KCAL/MOL
REMARK 924 INTRA-LIGAND FREE ENERGY PREDICTED BY IDOCK:   -1.62 KCAL/MOL
REMARK 927      BINDING AFFINITY PREDICTED BY RF-SCORE:    0.00 PKD
ROOT
HETATM    1  C   UNL     1     -10.832   3.435  63.392  1.00  0.00    -0.197 C  
HETATM    2  N   UNL     1     -10.149   4.276  64.336  1.00  0.00    -0.366 N  
HETATM    3  C   UNL     1      -9.006   3.853  64.978  1.00  0.00    -0.131 C  
HETATM    4  H   UNL     1     -10.518   5.205  64.534  1.00  0.00     0.000 HD 
HETATM    5  O   UNL     1      -8.503   2.747  64.809  1.00  0.00    -0.087 OA 
ENDROOT
BRANCH   3   6
HETATM    6  C   UNL     1      -8.384   4.860  65.900  1.00  0.00    -0.114 A  
HETATM    7  N   UNL     1      -7.083   4.661  66.252  1.00  0.00    -0.073 NA 
HETATM    8  C   UNL     1      -6.566   5.544  67.137  1.00  0.00    -0.057 A  
HETATM    9  C   UNL     1      -7.286   6.581  67.715  1.00  0.00    -0.096 A  
HETATM   10  C   UNL     1      -8.619   6.738  67.350  1.00  0.00    -0.120 A  
HETATM   11  C   UNL     1      -9.165   5.897  66.382  1.00  0.00    -0.160 A  
BRANCH  10  12
HETATM   12  O   UNL     1      -9.330   7.748  67.975  1.00  0.00    -0.141 OA 
BRANCH  12  13
HETATM   13  C   UNL     1      -9.247   9.020  67.445  1.00  0.00    -0.138 A  
HETATM   14  C   UNL     1      -8.314   9.952  67.885  1.00  0.00    -0.114 A  
HETATM   15  C   UNL     1      -8.375  11.263  67.427  1.00  0.00    -0.137 A  
HETATM   16  C   UNL     1      -9.279  11.655  66.433  1.00  0.00    -0.212 A  
HETATM   17  C   UNL     1     -10.156  10.692  65.925  1.00  0.00    -0.321 A  
HETATM   18  C   UNL     1     -10.138   9.377  66.430  1.00  0.00    -0.332 A  
BRANCH  16  19
HETATM   19  N   UNL     1      -9.329  12.986  65.939  1.00  0.00    -0.465 N  
HETATM   20  H   UNL     1      -9.236  13.137  64.934  1.00  0.00     0.000 HD 
BRANCH  19  21
HETATM   21  C   UNL     1      -9.498  14.093  66.762  1.00  0.00    -0.279 C  
HETATM   22  O   UNL     1      -8.564  14.788  67.142  1.00  0.00    -0.200 OA 
BRANCH  21  23
HETATM   23  N   UNL     1     -10.811  14.333  67.125  1.00  0.00    -0.292 N  
HETATM   24  H   UNL     1     -11.425  14.787  66.449  1.00  0.00     0.000 HD 
BRANCH  23  25
HETATM   25  C   UNL     1     -11.349  13.977  68.400  1.00  0.00    -0.291 A  
HETATM   26  C   UNL     1     -11.404  12.656  68.860  1.00  0.00    -0.345 A  
HETATM   27  C   UNL     1     -12.029  12.294  70.066  1.00  0.00    -0.379 A  
HETATM   28  C   UNL     1     -12.129  10.839  70.437  1.00  0.00    -0.354 C  
HETATM   29  C   UNL     1     -12.552  13.310  70.861  1.00  0.00    -0.306 A  
HETATM   30  F   UNL     1     -13.415  10.417  70.599  1.00  0.00    -0.407 F  
HETATM   31  F   UNL     1     -11.478  10.540  71.596  1.00  0.00    -0.242 F  
HETATM   32  F   UNL     1     -11.596   9.999  69.503  1.00  0.00    -0.249 F  
HETATM   33 CL   UNL     1     -13.318  12.983  72.371  1.00  0.00    -0.618 Cl 
HETATM   34  C   UNL     1     -12.460  14.646  70.445  1.00  0.00    -0.410 A  
HETATM   35  C   UNL     1     -11.866  14.981  69.220  1.00  0.00    -0.344 A  
ENDBRANCH  23  25
ENDBRANCH  21  23
ENDBRANCH  19  21
ENDBRANCH  16  19
ENDBRANCH  12  13
ENDBRANCH  10  12
ENDBRANCH   3   6
TORSDOF 7
ENDMDL
MODEL      140
REMARK 921   NORMALIZED FREE ENERGY PREDICTED BY IDOCK:   -5.49 KCAL/MOL
REMARK 922        TOTAL FREE ENERGY PREDICTED BY IDOCK:   -9.58 KCAL/MOL
REMARK 923 INTER-LIGAND FREE ENERGY PREDICTED BY IDOCK:   -8.54 KCAL/MOL
REMARK 924 INTRA-LIGAND FREE ENERGY PREDICTED BY IDOCK:   -1.04 KCAL/MOL
REMARK 927      BINDING AFFINITY PREDICTED BY RF-SCORE:    0.00 PKD
ROOT
HETATM    1  C   UNL     1      -8.206   7.212  72.934  1.00  0.00    -0.106 C  
HETATM    2  N   UNL     1      -8.599   7.280  71.554  1.00  0.00    -0.118 N  
HETATM    3  C   UNL     1      -9.210   6.216  70.927  1.00  0.00    -0.154 C  
HETATM    4  H   UNL     1      -8.424   8.135  71.027  1.00  0.00     0.000 HD 
HETATM    5  O   UNL     1      -9.444   5.147  71.482  1.00  0.00    -0.144 OA 
ENDROOT
BRANCH   3   6
HETATM    6  C   UNL     1      -9.601   6.456  69.500  1.00  0.00    -0.144 A  
HETATM    7  N   UNL     1     -10.617   5.700  68.997  1.00  0.00    -0.254 NA 
HETATM    8  C   UNL     1     -10.906   5.888  67.689  1.00  0.00    -0.239 A  
HETATM    9  C   UNL     1     -10.211   6.752  66.854  1.00  0.00    -0.300 A  
HETATM   10  C   UNL     1      -9.164   7.489  67.395  1.00  0.00    -0.132 A  
HETATM   11  C   UNL     1      -8.887   7.382  68.757  1.00  0.00    -0.130 A  
BRANCH  10  12
HETATM   12  O   UNL     1      -8.455   8.308  66.534  1.00  0.00    -0.111 OA 
BRANCH  12  13
HETATM   13  C   UNL     1      -8.857   9.623  66.414  1.00  0.00    -0.150 A  
HETATM   14  C   UNL     1      -9.791  10.034  65.470  1.00  0.00    -0.373 A  
HETATM   15  C   UNL     1     -10.045  11.390  65.290  1.00  0.00    -0.315 A  
HETATM   16  C   UNL     1      -9.476  12.362  66.121  1.00  0.00    -0.199 A  
HETATM   17  C   UNL     1      -8.608  11.936  67.131  1.00  0.00    -0.172 A  
HETATM   18  C   UNL     1      -8.302  10.570  67.277  1.00  0.00    -0.122 A  
BRANCH  16  19
HETATM   19  N   UNL     1      -9.752  13.746  65.963  1.00  0.00    -0.429 N  
HETATM   20  H   UNL     1      -8.985  14.371  65.714  1.00  0.00     0.000 HD 
BRANCH  19  21
HETATM   21  C   UNL     1     -11.021  14.289  66.131  1.00  0.00    -0.313 C  
HETATM   22  O   UNL     1     -11.467  15.172  65.409  1.00  0.00    -0.324 OA 
BRANCH  21  23
HETATM   23  N   UNL     1     -11.729  13.754  67.191  1.00  0.00    -0.362 N  
HETATM   24  H   UNL     1     -12.267  12.902  67.034  1.00  0.00     0.000 HD 
BRANCH  23  25
HETATM   25  C   UNL     1     -11.746  14.337  68.496  1.00  0.00    -0.341 A  
HETATM   26  C   UNL     1     -12.403  13.749  69.583  1.00  0.00    -0.284 A  
HETATM   27  C   UNL     1     -12.510  14.374  70.838  1.00  0.00    -0.424 A  
HETATM   28  C   UNL     1     -13.319  13.716  71.922  1.00  0.00    -0.425 C  
HETATM   29  C   UNL     1     -11.872  15.598  71.014  1.00  0.00    -0.400 A  
HETATM   30  F   UNL     1     -14.347  14.492  72.367  1.00  0.00    -0.516 F  
HETATM   31  F   UNL     1     -12.578  13.396  73.019  1.00  0.00    -0.139 F  
HETATM   32  F   UNL     1     -13.902  12.544  71.535  1.00  0.00    -0.145 F  
HETATM   33 CL   UNL     1     -11.916  16.440  72.518  1.00  0.00    -0.623 Cl 
HETATM   34  C   UNL     1     -11.161  16.179  69.955  1.00  0.00    -0.357 A  
HETATM   35  C   UNL     1     -11.100  15.558  68.700  1.00  0.00    -0.297 A  
ENDBRANCH  23  25
ENDBRANCH  21  23
ENDBRANCH  19  21
ENDBRANCH  16  19
ENDBRANCH  12  13
ENDBRANCH  10  12
ENDBRANCH   3   6
TORSDOF 7
ENDMDL
MODEL      141
REMARK 921   NORMALIZED FREE ENERGY PREDICTED BY IDOCK:   -5.48 KCAL/MOL
REMARK 922        TOTAL FREE ENERGY PREDICTED BY IDOCK:   -9.57 KCAL/MOL
REMARK 923 INTER-LIGAND FREE ENERGY PREDICTED BY IDOCK:   -8.35 KCAL/MOL
REMARK 924 INTRA-LIGAND FREE ENERGY PREDICTED BY IDOCK:   -1.22 KCAL/MOL
REMARK 927      BINDING AFFINITY PREDICTED BY RF-SCORE:    0.00 PKD
ROOT
HETATM    1  C   UNL     1     -13.095  12.107  63.095  1.00  0.00     0.329 C  
HETATM    2  N   UNL     1     -12.053  12.494  64.005  1.00  0.00    -0.434 N  
HETATM    3  C   UNL     1     -11.824  13.817  64.316  1.00  0.00    -0.417 C  
HETATM    4  H   UNL     1     -11.470  11.774  64.431  1.00  0.00     0.000 HD 
HETATM    5  O   UNL     1     -12.468  14.745  63.839  1.00  0.00    -0.811 OA 
ENDROOT
BRANCH   3   6
HETATM    6  C   UNL     1     -10.732  14.057  65.315  1.00  0.00    -0.358 A  
HETATM    7  N   UNL     1     -10.189  15.306  65.356  1.00  0.00    -0.373 NA 
HETATM    8  C   UNL     1      -9.160  15.479  66.217  1.00  0.00    -0.334 A  
HETATM    9  C   UNL     1      -8.623  14.467  67.003  1.00  0.00    -0.241 A  
HETATM   10  C   UNL     1      -9.187  13.199  66.917  1.00  0.00    -0.236 A  
HETATM   11  C   UNL     1     -10.299  13.001  66.099  1.00  0.00    -0.285 A  
BRANCH  10  12
HETATM   12  O   UNL     1      -8.605  12.196  67.672  1.00  0.00    -0.149 OA 
BRANCH  12  13
HETATM   13  C   UNL     1      -8.980  10.892  67.415  1.00  0.00    -0.136 A  
HETATM   14  C   UNL     1      -8.200  10.029  66.655  1.00  0.00    -0.122 A  
HETATM   15  C   UNL     1      -8.695   8.779  66.299  1.00  0.00    -0.169 A  
HETATM   16  C   UNL     1      -9.917   8.305  66.787  1.00  0.00    -0.285 A  
HETATM   17  C   UNL     1     -10.658   9.142  67.627  1.00  0.00    -0.307 A  
HETATM   18  C   UNL     1     -10.188  10.431  67.941  1.00  0.00    -0.211 A  
BRANCH  16  19
HETATM   19  N   UNL     1     -10.418   7.018  66.451  1.00  0.00    -0.468 N  
HETATM   20  H   UNL     1     -11.242   6.957  65.853  1.00  0.00     0.000 HD 
BRANCH  19  21
HETATM   21  C   UNL     1      -9.835   5.839  66.900  1.00  0.00    -0.157 C  
HETATM   22  O   UNL     1      -8.987   5.230  66.259  1.00  0.00    -0.126 OA 
BRANCH  21  23
HETATM   23  N   UNL     1     -10.304   5.407  68.127  1.00  0.00    -0.168 N  
HETATM   24  H   UNL     1     -10.896   4.576  68.155  1.00  0.00     0.000 HD 
BRANCH  23  25
HETATM   25  C   UNL     1     -10.001   6.067  69.358  1.00  0.00    -0.174 A  
HETATM   26  C   UNL     1     -10.949   6.802  70.079  1.00  0.00    -0.344 A  
HETATM   27  C   UNL     1     -10.625   7.539  71.232  1.00  0.00    -0.230 A  
HETATM   28  C   UNL     1     -11.684   8.381  71.891  1.00  0.00    -0.334 C  
HETATM   29  C   UNL     1      -9.318   7.471  71.705  1.00  0.00    -0.144 A  
HETATM   30  F   UNL     1     -11.353   9.702  71.953  1.00  0.00    -0.430 F  
HETATM   31  F   UNL     1     -11.955   7.992  73.168  1.00  0.00    -0.357 F  
HETATM   32  F   UNL     1     -12.888   8.347  71.247  1.00  0.00    -0.311 F  
HETATM   33 CL   UNL     1      -8.817   8.314  73.124  1.00  0.00    -0.311 Cl 
HETATM   34  C   UNL     1      -8.365   6.696  71.029  1.00  0.00    -0.125 A  
HETATM   35  C   UNL     1      -8.699   6.001  69.859  1.00  0.00    -0.131 A  
ENDBRANCH  23  25
ENDBRANCH  21  23
ENDBRANCH  19  21
ENDBRANCH  16  19
ENDBRANCH  12  13
ENDBRANCH  10  12
ENDBRANCH   3   6
TORSDOF 7
ENDMDL
MODEL      142
REMARK 921   NORMALIZED FREE ENERGY PREDICTED BY IDOCK:   -5.48 KCAL/MOL
REMARK 922        TOTAL FREE ENERGY PREDICTED BY IDOCK:   -9.57 KCAL/MOL
REMARK 923 INTER-LIGAND FREE ENERGY PREDICTED BY IDOCK:   -8.54 KCAL/MOL
REMARK 924 INTRA-LIGAND FREE ENERGY PREDICTED BY IDOCK:   -1.04 KCAL/MOL
REMARK 927      BINDING AFFINITY PREDICTED BY RF-SCORE:    0.00 PKD
ROOT
HETATM    1  C   UNL     1     -10.611  19.626  66.037  1.00  0.00    -0.483 C  
HETATM    2  N   UNL     1      -9.409  19.428  66.798  1.00  0.00    -0.316 N  
HETATM    3  C   UNL     1      -9.414  18.717  67.978  1.00  0.00    -0.315 C  
HETATM    4  H   UNL     1      -8.532  19.821  66.457  1.00  0.00     0.000 HD 
HETATM    5  O   UNL     1     -10.425  18.223  68.466  1.00  0.00    -0.336 OA 
ENDROOT
BRANCH   3   6
HETATM    6  C   UNL     1      -8.075  18.558  68.633  1.00  0.00    -0.310 A  
HETATM    7  N   UNL     1      -7.555  19.650  69.261  1.00  0.00    -0.273 NA 
HETATM    8  C   UNL     1      -6.318  19.502  69.786  1.00  0.00    -0.310 A  
HETATM    9  C   UNL     1      -5.561  18.342  69.680  1.00  0.00    -0.219 A  
HETATM   10  C   UNL     1      -6.113  17.256  69.011  1.00  0.00    -0.199 A  
HETATM   11  C   UNL     1      -7.417  17.344  68.526  1.00  0.00    -0.251 A  
BRANCH  10  12
HETATM   12  O   UNL     1      -5.323  16.128  68.876  1.00  0.00    -0.109 OA 
BRANCH  12  13
HETATM   13  C   UNL     1      -5.952  14.900  68.819  1.00  0.00    -0.084 A  
HETATM   14  C   UNL     1      -6.045  14.058  69.920  1.00  0.00    -0.140 A  
HETATM   15  C   UNL     1      -6.552  12.772  69.769  1.00  0.00     0.071 A  
HETATM   16  C   UNL     1      -7.092  12.331  68.556  1.00  0.00    -0.099 A  
HETATM   17  C   UNL     1      -7.081  13.215  67.472  1.00  0.00    -0.156 A  
HETATM   18  C   UNL     1      -6.513  14.496  67.605  1.00  0.00    -0.153 A  
BRANCH  16  19
HETATM   19  N   UNL     1      -7.638  11.029  68.400  1.00  0.00    -0.101 N  
HETATM   20  H   UNL     1      -7.045  10.295  68.012  1.00  0.00     0.000 HD 
BRANCH  19  21
HETATM   21  C   UNL     1      -8.943  10.708  68.753  1.00  0.00    -0.172 C  
HETATM   22  O   UNL     1      -9.330   9.555  68.895  1.00  0.00    -0.144 OA 
BRANCH  21  23
HETATM   23  N   UNL     1      -9.770  11.804  68.918  1.00  0.00    -0.410 N  
HETATM   24  H   UNL     1      -9.883  12.190  69.856  1.00  0.00     0.000 HD 
BRANCH  23  25
HETATM   25  C   UNL     1     -10.475  12.423  67.839  1.00  0.00    -0.215 A  
HETATM   26  C   UNL     1     -10.612  11.827  66.580  1.00  0.00    -0.289 A  
HETATM   27  C   UNL     1     -11.212  12.481  65.489  1.00  0.00    -0.349 A  
HETATM   28  C   UNL     1     -11.229  11.806  64.144  1.00  0.00    -0.364 C  
HETATM   29  C   UNL     1     -11.749  13.747  65.701  1.00  0.00    -0.347 A  
HETATM   30  F   UNL     1     -10.600  12.530  63.176  1.00  0.00    -0.428 F  
HETATM   31  F   UNL     1     -12.489  11.566  63.686  1.00  0.00    -0.493 F  
HETATM   32  F   UNL     1     -10.610  10.589  64.135  1.00  0.00    -0.419 F  
HETATM   33 CL   UNL     1     -12.529  14.629  64.441  1.00  0.00    -0.425 Cl 
HETATM   34  C   UNL     1     -11.672  14.340  66.970  1.00  0.00    -0.427 A  
HETATM   35  C   UNL     1     -11.035  13.687  68.034  1.00  0.00    -0.270 A  
ENDBRANCH  23  25
ENDBRANCH  21  23
ENDBRANCH  19  21
ENDBRANCH  16  19
ENDBRANCH  12  13
ENDBRANCH  10  12
ENDBRANCH   3   6
TORSDOF 7
ENDMDL
MODEL      143
REMARK 921   NORMALIZED FREE ENERGY PREDICTED BY IDOCK:   -5.48 KCAL/MOL
REMARK 922        TOTAL FREE ENERGY PREDICTED BY IDOCK:   -9.57 KCAL/MOL
REMARK 923 INTER-LIGAND FREE ENERGY PREDICTED BY IDOCK:   -8.16 KCAL/MOL
REMARK 924 INTRA-LIGAND FREE ENERGY PREDICTED BY IDOCK:   -1.41 KCAL/MOL
REMARK 927      BINDING AFFINITY PREDICTED BY RF-SCORE:    0.00 PKD
ROOT
HETATM    1  C   UNL     1      -9.607  20.274  66.968  1.00  0.00    -0.435 C  
HETATM    2  N   UNL     1     -10.145  19.159  67.697  1.00  0.00    -0.354 N  
HETATM    3  C   UNL     1     -10.260  17.912  67.122  1.00  0.00    -0.353 C  
HETATM    4  H   UNL     1     -10.448  19.293  68.661  1.00  0.00     0.000 HD 
HETATM    5  O   UNL     1      -9.933  17.667  65.965  1.00  0.00    -0.469 OA 
ENDROOT
BRANCH   3   6
HETATM    6  C   UNL     1     -10.798  16.841  68.023  1.00  0.00    -0.341 A  
HETATM    7  N   UNL     1     -10.680  17.040  69.366  1.00  0.00    -0.279 NA 
HETATM    8  C   UNL     1     -11.111  16.031  70.156  1.00  0.00    -0.371 A  
HETATM    9  C   UNL     1     -11.610  14.826  69.679  1.00  0.00    -0.342 A  
HETATM   10  C   UNL     1     -11.694  14.649  68.303  1.00  0.00    -0.328 A  
HETATM   11  C   UNL     1     -11.333  15.696  67.457  1.00  0.00    -0.198 A  
BRANCH  10  12
HETATM   12  O   UNL     1     -12.149  13.423  67.850  1.00  0.00    -0.338 OA 
BRANCH  12  13
HETATM   13  C   UNL     1     -11.308  12.676  67.049  1.00  0.00    -0.323 A  
HETATM   14  C   UNL     1     -10.047  12.268  67.468  1.00  0.00    -0.206 A  
HETATM   15  C   UNL     1      -9.184  11.651  66.569  1.00  0.00    -0.205 A  
HETATM   16  C   UNL     1      -9.589  11.312  65.273  1.00  0.00    -0.232 A  
HETATM   17  C   UNL     1     -10.891  11.642  64.884  1.00  0.00    -0.359 A  
HETATM   18  C   UNL     1     -11.748  12.321  65.772  1.00  0.00    -0.445 A  
BRANCH  16  19
HETATM   19  N   UNL     1      -8.723  10.657  64.357  1.00  0.00    -0.270 N  
HETATM   20  H   UNL     1      -8.632  11.037  63.415  1.00  0.00     0.000 HD 
BRANCH  19  21
HETATM   21  C   UNL     1      -7.993   9.521  64.687  1.00  0.00    -0.128 C  
HETATM   22  O   UNL     1      -6.794   9.550  64.935  1.00  0.00    -0.093 OA 
BRANCH  21  23
HETATM   23  N   UNL     1      -8.736   8.354  64.699  1.00  0.00    -0.406 N  
HETATM   24  H   UNL     1      -9.069   7.982  63.809  1.00  0.00     0.000 HD 
BRANCH  23  25
HETATM   25  C   UNL     1      -9.060   7.644  65.897  1.00  0.00    -0.052 A  
HETATM   26  C   UNL     1      -8.395   6.478  66.292  1.00  0.00    -0.124 A  
HETATM   27  C   UNL     1      -8.784   5.721  67.411  1.00  0.00    -0.107 A  
HETATM   28  C   UNL     1      -8.076   4.427  67.708  1.00  0.00    -0.095 C  
HETATM   29  C   UNL     1      -9.833   6.200  68.190  1.00  0.00    -0.131 A  
HETATM   30  F   UNL     1      -8.912   3.351  67.720  1.00  0.00    -0.115 F  
HETATM   31  F   UNL     1      -7.441   4.433  68.914  1.00  0.00    -0.054 F  
HETATM   32  F   UNL     1      -7.107   4.113  66.799  1.00  0.00    -0.059 F  
HETATM   33 CL   UNL     1     -10.376   5.365  69.599  1.00  0.00    -0.343 Cl 
HETATM   34  C   UNL     1     -10.478   7.395  67.843  1.00  0.00    -0.265 A  
HETATM   35  C   UNL     1     -10.100   8.114  66.701  1.00  0.00    -0.344 A  
ENDBRANCH  23  25
ENDBRANCH  21  23
ENDBRANCH  19  21
ENDBRANCH  16  19
ENDBRANCH  12  13
ENDBRANCH  10  12
ENDBRANCH   3   6
TORSDOF 7
ENDMDL
MODEL      144
REMARK 921   NORMALIZED FREE ENERGY PREDICTED BY IDOCK:   -5.48 KCAL/MOL
REMARK 922        TOTAL FREE ENERGY PREDICTED BY IDOCK:   -9.57 KCAL/MOL
REMARK 923 INTER-LIGAND FREE ENERGY PREDICTED BY IDOCK:   -7.86 KCAL/MOL
REMARK 924 INTRA-LIGAND FREE ENERGY PREDICTED BY IDOCK:   -1.71 KCAL/MOL
REMARK 927      BINDING AFFINITY PREDICTED BY RF-SCORE:    0.00 PKD
ROOT
HETATM    1  C   UNL     1      -8.627   8.866  62.366  1.00  0.00    -0.208 C  
HETATM    2  N   UNL     1      -8.228   8.147  63.544  1.00  0.00    -0.333 N  
HETATM    3  C   UNL     1      -7.773   8.803  64.667  1.00  0.00    -0.119 C  
HETATM    4  H   UNL     1      -8.284   7.129  63.550  1.00  0.00     0.000 HD 
HETATM    5  O   UNL     1      -7.661  10.022  64.741  1.00  0.00    -0.135 OA 
ENDROOT
BRANCH   3   6
HETATM    6  C   UNL     1      -7.437   7.918  65.830  1.00  0.00    -0.078 A  
HETATM    7  N   UNL     1      -6.168   7.989  66.322  1.00  0.00    -0.045 NA 
HETATM    8  C   UNL     1      -5.871   7.133  67.326  1.00  0.00    -0.025 A  
HETATM    9  C   UNL     1      -6.755   6.189  67.832  1.00  0.00    -0.064 A  
HETATM   10  C   UNL     1      -8.033   6.128  67.290  1.00  0.00    -0.102 A  
HETATM   11  C   UNL     1      -8.402   7.046  66.308  1.00  0.00    -0.129 A  
BRANCH  10  12
HETATM   12  O   UNL     1      -8.880   5.148  67.776  1.00  0.00    -0.106 OA 
BRANCH  12  13
HETATM   13  C   UNL     1      -9.768   5.497  68.774  1.00  0.00    -0.143 A  
HETATM   14  C   UNL     1     -10.923   6.229  68.522  1.00  0.00    -0.421 A  
HETATM   15  C   UNL     1     -11.700   6.684  69.582  1.00  0.00    -0.216 A  
HETATM   16  C   UNL     1     -11.425   6.322  70.906  1.00  0.00    -0.312 A  
HETATM   17  C   UNL     1     -10.314   5.508  71.147  1.00  0.00    -0.300 A  
HETATM   18  C   UNL     1      -9.490   5.095  70.082  1.00  0.00    -0.229 A  
BRANCH  16  19
HETATM   19  N   UNL     1     -12.230   6.759  71.991  1.00  0.00    -0.440 N  
HETATM   20  H   UNL     1     -12.227   6.211  72.852  1.00  0.00     0.000 HD 
BRANCH  19  21
HETATM   21  C   UNL     1     -13.023   7.899  71.935  1.00  0.00    -0.298 C  
HETATM   22  O   UNL     1     -14.208   7.871  71.629  1.00  0.00    -0.413 OA 
BRANCH  21  23
HETATM   23  N   UNL     1     -12.353   9.070  72.242  1.00  0.00    -0.356 N  
HETATM   24  H   UNL     1     -11.918   9.153  73.161  1.00  0.00     0.000 HD 
BRANCH  23  25
HETATM   25  C   UNL     1     -12.240  10.169  71.335  1.00  0.00    -0.397 A  
HETATM   26  C   UNL     1     -11.565  10.078  70.112  1.00  0.00    -0.320 A  
HETATM   27  C   UNL     1     -11.362  11.186  69.270  1.00  0.00    -0.349 A  
HETATM   28  C   UNL     1     -10.540  11.021  68.020  1.00  0.00    -0.204 C  
HETATM   29  C   UNL     1     -11.919  12.404  69.648  1.00  0.00    -0.274 A  
HETATM   30  F   UNL     1      -9.449  11.837  67.988  1.00  0.00    -0.163 F  
HETATM   31  F   UNL     1     -11.245  11.278  66.883  1.00  0.00    -0.318 F  
HETATM   32  F   UNL     1     -10.045   9.760  67.854  1.00  0.00    -0.168 F  
HETATM   33 CL   UNL     1     -11.754  13.822  68.679  1.00  0.00    -0.369 Cl 
HETATM   34  C   UNL     1     -12.646  12.505  70.843  1.00  0.00    -0.331 A  
HETATM   35  C   UNL     1     -12.804  11.396  71.687  1.00  0.00    -0.497 A  
ENDBRANCH  23  25
ENDBRANCH  21  23
ENDBRANCH  19  21
ENDBRANCH  16  19
ENDBRANCH  12  13
ENDBRANCH  10  12
ENDBRANCH   3   6
TORSDOF 7
ENDMDL
MODEL      145
REMARK 921   NORMALIZED FREE ENERGY PREDICTED BY IDOCK:   -5.48 KCAL/MOL
REMARK 922        TOTAL FREE ENERGY PREDICTED BY IDOCK:   -9.56 KCAL/MOL
REMARK 923 INTER-LIGAND FREE ENERGY PREDICTED BY IDOCK:   -8.88 KCAL/MOL
REMARK 924 INTRA-LIGAND FREE ENERGY PREDICTED BY IDOCK:   -0.68 KCAL/MOL
REMARK 927      BINDING AFFINITY PREDICTED BY RF-SCORE:    0.00 PKD
ROOT
HETATM    1  C   UNL     1     -14.371   7.346  71.594  1.00  0.00    -0.461 C  
HETATM    2  N   UNL     1     -13.310   6.937  70.717  1.00  0.00    -0.296 N  
HETATM    3  C   UNL     1     -12.025   6.755  71.180  1.00  0.00    -0.370 C  
HETATM    4  H   UNL     1     -13.512   6.777  69.731  1.00  0.00     0.000 HD 
HETATM    5  O   UNL     1     -11.692   6.939  72.346  1.00  0.00    -0.270 OA 
ENDROOT
BRANCH   3   6
HETATM    6  C   UNL     1     -11.038   6.284  70.153  1.00  0.00    -0.377 A  
HETATM    7  N   UNL     1     -10.341   5.148  70.435  1.00  0.00    -0.271 NA 
HETATM    8  C   UNL     1      -9.410   4.782  69.525  1.00  0.00    -0.133 A  
HETATM    9  C   UNL     1      -9.113   5.507  68.378  1.00  0.00    -0.117 A  
HETATM   10  C   UNL     1      -9.828   6.675  68.136  1.00  0.00    -0.132 A  
HETATM   11  C   UNL     1     -10.849   7.043  69.010  1.00  0.00    -0.212 A  
BRANCH  10  12
HETATM   12  O   UNL     1      -9.482   7.406  67.013  1.00  0.00    -0.142 OA 
BRANCH  12  13
HETATM   13  C   UNL     1      -9.561   8.783  67.089  1.00  0.00    -0.175 A  
HETATM   14  C   UNL     1      -8.957   9.510  68.107  1.00  0.00    -0.123 A  
HETATM   15  C   UNL     1      -9.196  10.875  68.220  1.00  0.00    -0.161 A  
HETATM   16  C   UNL     1      -9.936  11.575  67.261  1.00  0.00    -0.191 A  
HETATM   17  C   UNL     1     -10.466  10.855  66.186  1.00  0.00    -0.290 A  
HETATM   18  C   UNL     1     -10.277   9.462  66.100  1.00  0.00    -0.264 A  
BRANCH  16  19
HETATM   19  N   UNL     1     -10.162  12.975  67.353  1.00  0.00    -0.229 N  
HETATM   20  H   UNL     1     -10.406  13.370  68.262  1.00  0.00     0.000 HD 
BRANCH  19  21
HETATM   21  C   UNL     1     -10.065  13.831  66.263  1.00  0.00    -0.300 C  
HETATM   22  O   UNL     1     -10.970  13.978  65.451  1.00  0.00    -0.302 OA 
BRANCH  21  23
HETATM   23  N   UNL     1      -8.854  14.492  66.168  1.00  0.00    -0.447 N  
HETATM   24  H   UNL     1      -8.097  14.045  65.651  1.00  0.00     0.000 HD 
BRANCH  23  25
HETATM   25  C   UNL     1      -8.611  15.771  66.759  1.00  0.00    -0.270 A  
HETATM   26  C   UNL     1      -9.361  16.910  66.440  1.00  0.00    -0.303 A  
HETATM   27  C   UNL     1      -9.054  18.188  66.939  1.00  0.00    -0.276 A  
HETATM   28  C   UNL     1      -9.851  19.374  66.469  1.00  0.00    -0.386 C  
HETATM   29  C   UNL     1      -8.000  18.301  67.841  1.00  0.00    -0.254 A  
HETATM   30  F   UNL     1      -9.085  20.327  65.867  1.00  0.00    -0.354 F  
HETATM   31  F   UNL     1     -10.519  20.000  67.478  1.00  0.00    -0.516 F  
HETATM   32  F   UNL     1     -10.810  19.058  65.550  1.00  0.00    -0.523 F  
HETATM   33 CL   UNL     1      -7.552  19.815  68.535  1.00  0.00    -0.361 Cl 
HETATM   34  C   UNL     1      -7.270  17.164  68.216  1.00  0.00    -0.204 A  
HETATM   35  C   UNL     1      -7.568  15.905  67.677  1.00  0.00    -0.171 A  
ENDBRANCH  23  25
ENDBRANCH  21  23
ENDBRANCH  19  21
ENDBRANCH  16  19
ENDBRANCH  12  13
ENDBRANCH  10  12
ENDBRANCH   3   6
TORSDOF 7
ENDMDL
MODEL      146
REMARK 921   NORMALIZED FREE ENERGY PREDICTED BY IDOCK:   -5.46 KCAL/MOL
REMARK 922        TOTAL FREE ENERGY PREDICTED BY IDOCK:   -9.54 KCAL/MOL
REMARK 923 INTER-LIGAND FREE ENERGY PREDICTED BY IDOCK:   -8.58 KCAL/MOL
REMARK 924 INTRA-LIGAND FREE ENERGY PREDICTED BY IDOCK:   -0.96 KCAL/MOL
REMARK 927      BINDING AFFINITY PREDICTED BY RF-SCORE:    0.00 PKD
ROOT
HETATM    1  C   UNL     1     -10.004   3.400  64.149  1.00  0.00    -0.185 C  
HETATM    2  N   UNL     1      -9.336   4.108  65.206  1.00  0.00    -0.152 N  
HETATM    3  C   UNL     1      -8.294   3.540  65.906  1.00  0.00    -0.106 C  
HETATM    4  H   UNL     1      -9.641   5.052  65.445  1.00  0.00     0.000 HD 
HETATM    5  O   UNL     1      -7.875   2.406  65.694  1.00  0.00    -0.075 OA 
ENDROOT
BRANCH   3   6
HETATM    6  C   UNL     1      -7.671   4.419  66.948  1.00  0.00    -0.093 A  
HETATM    7  N   UNL     1      -6.717   3.861  67.746  1.00  0.00    -0.046 NA 
HETATM    8  C   UNL     1      -6.220   4.654  68.721  1.00  0.00    -0.031 A  
HETATM    9  C   UNL     1      -6.651   5.951  68.967  1.00  0.00    -0.051 A  
HETATM   10  C   UNL     1      -7.643   6.480  68.149  1.00  0.00    -0.103 A  
HETATM   11  C   UNL     1      -8.125   5.721  67.083  1.00  0.00    -0.102 A  
BRANCH  10  12
HETATM   12  O   UNL     1      -8.091   7.756  68.442  1.00  0.00    -0.120 OA 
BRANCH  12  13
HETATM   13  C   UNL     1      -9.056   7.894  69.420  1.00  0.00    -0.145 A  
HETATM   14  C   UNL     1     -10.247   7.177  69.400  1.00  0.00    -0.194 A  
HETATM   15  C   UNL     1     -11.246   7.466  70.322  1.00  0.00    -0.268 A  
HETATM   16  C   UNL     1     -11.046   8.382  71.362  1.00  0.00    -0.255 A  
HETATM   17  C   UNL     1      -9.812   9.034  71.434  1.00  0.00    -0.381 A  
HETATM   18  C   UNL     1      -8.820   8.788  70.466  1.00  0.00    -0.200 A  
BRANCH  16  19
HETATM   19  N   UNL     1     -12.052   8.662  72.325  1.00  0.00    -0.377 N  
HETATM   20  H   UNL     1     -11.839   8.509  73.311  1.00  0.00     0.000 HD 
BRANCH  19  21
HETATM   21  C   UNL     1     -13.314   9.137  71.986  1.00  0.00    -0.445 C  
HETATM   22  O   UNL     1     -14.132   8.467  71.369  1.00  0.00    -0.369 OA 
BRANCH  21  23
HETATM   23  N   UNL     1     -13.559  10.435  72.396  1.00  0.00    -0.517 N  
HETATM   24  H   UNL     1     -14.164  10.582  73.204  1.00  0.00     0.000 HD 
BRANCH  23  25
HETATM   25  C   UNL     1     -13.006  11.580  71.743  1.00  0.00    -0.394 A  
HETATM   26  C   UNL     1     -13.036  12.863  72.304  1.00  0.00    -0.421 A  
HETATM   27  C   UNL     1     -12.589  14.005  71.616  1.00  0.00    -0.403 A  
HETATM   28  C   UNL     1     -12.749  15.358  72.254  1.00  0.00    -0.379 C  
HETATM   29  C   UNL     1     -12.033  13.831  70.353  1.00  0.00    -0.315 A  
HETATM   30  F   UNL     1     -13.504  16.214  71.509  1.00  0.00    -0.390 F  
HETATM   31  F   UNL     1     -11.560  15.986  72.473  1.00  0.00    -0.488 F  
HETATM   32  F   UNL     1     -13.359  15.318  73.475  1.00  0.00    -0.528 F  
HETATM   33 CL   UNL     1     -11.431  15.159  69.431  1.00  0.00    -0.298 Cl 
HETATM   34  C   UNL     1     -11.943  12.548  69.794  1.00  0.00    -0.359 A  
HETATM   35  C   UNL     1     -12.430  11.427  70.481  1.00  0.00    -0.381 A  
ENDBRANCH  23  25
ENDBRANCH  21  23
ENDBRANCH  19  21
ENDBRANCH  16  19
ENDBRANCH  12  13
ENDBRANCH  10  12
ENDBRANCH   3   6
TORSDOF 7
ENDMDL
MODEL      147
REMARK 921   NORMALIZED FREE ENERGY PREDICTED BY IDOCK:   -5.45 KCAL/MOL
REMARK 922        TOTAL FREE ENERGY PREDICTED BY IDOCK:   -9.53 KCAL/MOL
REMARK 923 INTER-LIGAND FREE ENERGY PREDICTED BY IDOCK:   -8.74 KCAL/MOL
REMARK 924 INTRA-LIGAND FREE ENERGY PREDICTED BY IDOCK:   -0.79 KCAL/MOL
REMARK 927      BINDING AFFINITY PREDICTED BY RF-SCORE:    0.00 PKD
ROOT
HETATM    1  C   UNL     1     -11.548  11.810  63.555  1.00  0.00    -0.387 C  
HETATM    2  N   UNL     1     -11.006  12.983  64.183  1.00  0.00    -0.393 N  
HETATM    3  C   UNL     1     -11.668  14.191  64.145  1.00  0.00    -0.282 C  
HETATM    4  H   UNL     1     -10.111  12.921  64.668  1.00  0.00     0.000 HD 
HETATM    5  O   UNL     1     -12.740  14.357  63.572  1.00  0.00    -0.742 OA 
ENDROOT
BRANCH   3   6
HETATM    6  C   UNL     1     -10.997  15.310  64.884  1.00  0.00    -0.430 A  
HETATM    7  N   UNL     1     -11.385  16.580  64.577  1.00  0.00    -0.862 NA 
HETATM    8  C   UNL     1     -10.718  17.573  65.207  1.00  0.00     0.086 A  
HETATM    9  C   UNL     1      -9.665  17.368  66.088  1.00  0.00    -0.235 A  
HETATM   10  C   UNL     1      -9.280  16.060  66.359  1.00  0.00    -0.305 A  
HETATM   11  C   UNL     1      -9.995  15.007  65.790  1.00  0.00    -0.376 A  
BRANCH  10  12
HETATM   12  O   UNL     1      -8.198  15.881  67.202  1.00  0.00    -0.168 OA 
BRANCH  12  13
HETATM   13  C   UNL     1      -7.895  14.594  67.603  1.00  0.00    -0.181 A  
HETATM   14  C   UNL     1      -8.867  13.701  68.037  1.00  0.00    -0.187 A  
HETATM   15  C   UNL     1      -8.491  12.474  68.572  1.00  0.00    -0.061 A  
HETATM   16  C   UNL     1      -7.157  12.050  68.578  1.00  0.00    -0.098 A  
HETATM   17  C   UNL     1      -6.191  12.915  68.055  1.00  0.00    -0.110 A  
HETATM   18  C   UNL     1      -6.561  14.183  67.567  1.00  0.00    -0.098 A  
BRANCH  16  19
HETATM   19  N   UNL     1      -6.768  10.786  69.097  1.00  0.00    -0.066 N  
HETATM   20  H   UNL     1      -5.847  10.699  69.527  1.00  0.00     0.000 HD 
BRANCH  19  21
HETATM   21  C   UNL     1      -7.585   9.663  69.047  1.00  0.00    -0.076 C  
HETATM   22  O   UNL     1      -7.988   9.181  67.997  1.00  0.00    -0.100 OA 
BRANCH  21  23
HETATM   23  N   UNL     1      -7.913   9.146  70.287  1.00  0.00    -0.115 N  
HETATM   24  H   UNL     1      -7.161   8.788  70.877  1.00  0.00     0.000 HD 
BRANCH  23  25
HETATM   25  C   UNL     1      -9.252   9.088  70.783  1.00  0.00    -0.245 A  
HETATM   26  C   UNL     1     -10.234  10.022  70.429  1.00  0.00    -0.218 A  
HETATM   27  C   UNL     1     -11.519  10.028  70.999  1.00  0.00    -0.463 A  
HETATM   28  C   UNL     1     -12.482  11.126  70.635  1.00  0.00    -0.356 C  
HETATM   29  C   UNL     1     -11.839   9.017  71.901  1.00  0.00    -0.376 A  
HETATM   30  F   UNL     1     -12.897  11.850  71.713  1.00  0.00    -0.465 F  
HETATM   31  F   UNL     1     -13.609  10.665  70.025  1.00  0.00    -0.070 F  
HETATM   32  F   UNL     1     -11.961  12.045  69.771  1.00  0.00    -0.328 F  
HETATM   33 CL   UNL     1     -13.394   8.914  72.641  1.00  0.00    -0.447 Cl 
HETATM   34  C   UNL     1     -10.888   8.040  72.228  1.00  0.00    -0.369 A  
HETATM   35  C   UNL     1      -9.599   8.075  71.678  1.00  0.00    -0.218 A  
ENDBRANCH  23  25
ENDBRANCH  21  23
ENDBRANCH  19  21
ENDBRANCH  16  19
ENDBRANCH  12  13
ENDBRANCH  10  12
ENDBRANCH   3   6
TORSDOF 7
ENDMDL
MODEL      148
REMARK 921   NORMALIZED FREE ENERGY PREDICTED BY IDOCK:   -5.45 KCAL/MOL
REMARK 922        TOTAL FREE ENERGY PREDICTED BY IDOCK:   -9.52 KCAL/MOL
REMARK 923 INTER-LIGAND FREE ENERGY PREDICTED BY IDOCK:   -8.46 KCAL/MOL
REMARK 924 INTRA-LIGAND FREE ENERGY PREDICTED BY IDOCK:   -1.06 KCAL/MOL
REMARK 927      BINDING AFFINITY PREDICTED BY RF-SCORE:    0.00 PKD
ROOT
HETATM    1  C   UNL     1      -5.388   5.283  67.475  1.00  0.00    -0.012 C  
HETATM    2  N   UNL     1      -6.522   5.750  68.223  1.00  0.00    -0.044 N  
HETATM    3  C   UNL     1      -7.811   5.472  67.823  1.00  0.00    -0.097 C  
HETATM    4  H   UNL     1      -6.370   6.299  69.068  1.00  0.00     0.000 HD 
HETATM    5  O   UNL     1      -8.083   4.832  66.812  1.00  0.00    -0.106 OA 
ENDROOT
BRANCH   3   6
HETATM    6  C   UNL     1      -8.886   5.989  68.731  1.00  0.00    -0.116 A  
HETATM    7  N   UNL     1     -10.054   5.290  68.776  1.00  0.00    -0.181 NA 
HETATM    8  C   UNL     1     -11.031   5.813  69.550  1.00  0.00    -0.304 A  
HETATM    9  C   UNL     1     -10.918   7.012  70.243  1.00  0.00    -0.304 A  
HETATM   10  C   UNL     1      -9.720   7.711  70.155  1.00  0.00    -0.179 A  
HETATM   11  C   UNL     1      -8.662   7.164  69.430  1.00  0.00    -0.134 A  
BRANCH  10  12
HETATM   12  O   UNL     1      -9.647   8.926  70.814  1.00  0.00    -0.192 OA 
BRANCH  12  13
HETATM   13  C   UNL     1     -10.230  10.024  70.213  1.00  0.00    -0.206 A  
HETATM   14  C   UNL     1     -11.489  10.490  70.571  1.00  0.00    -0.433 A  
HETATM   15  C   UNL     1     -12.090  11.502  69.831  1.00  0.00    -0.389 A  
HETATM   16  C   UNL     1     -11.413  12.162  68.799  1.00  0.00    -0.307 A  
HETATM   17  C   UNL     1     -10.109  11.753  68.502  1.00  0.00    -0.212 A  
HETATM   18  C   UNL     1      -9.520  10.687  69.210  1.00  0.00    -0.152 A  
BRANCH  16  19
HETATM   19  N   UNL     1     -12.009  13.216  68.057  1.00  0.00    -0.342 N  
HETATM   20  H   UNL     1     -12.458  13.978  68.566  1.00  0.00     0.000 HD 
BRANCH  19  21
HETATM   21  C   UNL     1     -12.009  13.258  66.668  1.00  0.00    -0.388 C  
HETATM   22  O   UNL     1     -12.128  12.257  65.972  1.00  0.00    -0.623 OA 
BRANCH  21  23
HETATM   23  N   UNL     1     -11.850  14.526  66.139  1.00  0.00    -0.363 N  
HETATM   24  H   UNL     1     -12.559  14.876  65.495  1.00  0.00     0.000 HD 
BRANCH  23  25
HETATM   25  C   UNL     1     -10.740  15.371  66.452  1.00  0.00    -0.311 A  
HETATM   26  C   UNL     1     -10.889  16.708  66.838  1.00  0.00    -0.060 A  
HETATM   27  C   UNL     1      -9.795  17.569  67.041  1.00  0.00    -0.295 A  
HETATM   28  C   UNL     1     -10.046  19.018  67.360  1.00  0.00    -0.370 C  
HETATM   29  C   UNL     1      -8.515  17.038  66.916  1.00  0.00    -0.216 A  
HETATM   30  F   UNL     1      -9.492  19.868  66.450  1.00  0.00    -0.381 F  
HETATM   31  F   UNL     1      -9.558  19.387  68.577  1.00  0.00    -0.369 F  
HETATM   32  F   UNL     1     -11.370  19.348  67.393  1.00  0.00    -0.531 F  
HETATM   33 CL   UNL     1      -7.102  17.996  67.167  1.00  0.00    -0.206 Cl 
HETATM   34  C   UNL     1      -8.343  15.687  66.583  1.00  0.00    -0.310 A  
HETATM   35  C   UNL     1      -9.447  14.856  66.347  1.00  0.00    -0.327 A  
ENDBRANCH  23  25
ENDBRANCH  21  23
ENDBRANCH  19  21
ENDBRANCH  16  19
ENDBRANCH  12  13
ENDBRANCH  10  12
ENDBRANCH   3   6
TORSDOF 7
ENDMDL
MODEL      149
REMARK 921   NORMALIZED FREE ENERGY PREDICTED BY IDOCK:   -5.40 KCAL/MOL
REMARK 922        TOTAL FREE ENERGY PREDICTED BY IDOCK:   -9.45 KCAL/MOL
REMARK 923 INTER-LIGAND FREE ENERGY PREDICTED BY IDOCK:   -8.46 KCAL/MOL
REMARK 924 INTRA-LIGAND FREE ENERGY PREDICTED BY IDOCK:   -0.99 KCAL/MOL
REMARK 927      BINDING AFFINITY PREDICTED BY RF-SCORE:    0.00 PKD
ROOT
HETATM    1  C   UNL     1      -5.743   9.429  70.147  1.00  0.00    -0.032 C  
HETATM    2  N   UNL     1      -7.058   9.175  70.665  1.00  0.00    -0.087 N  
HETATM    3  C   UNL     1      -7.550   7.893  70.781  1.00  0.00    -0.078 C  
HETATM    4  H   UNL     1      -7.641   9.961  70.954  1.00  0.00     0.000 HD 
HETATM    5  O   UNL     1      -6.923   6.894  70.444  1.00  0.00    -0.060 OA 
ENDROOT
BRANCH   3   6
HETATM    6  C   UNL     1      -8.920   7.788  71.381  1.00  0.00    -0.133 A  
HETATM    7  N   UNL     1      -9.088   6.897  72.399  1.00  0.00    -0.134 NA 
HETATM    8  C   UNL     1     -10.347   6.772  72.877  1.00  0.00    -0.221 A  
HETATM    9  C   UNL     1     -11.445   7.454  72.369  1.00  0.00    -0.343 A  
HETATM   10  C   UNL     1     -11.241   8.336  71.314  1.00  0.00    -0.259 A  
HETATM   11  C   UNL     1      -9.945   8.551  70.846  1.00  0.00    -0.237 A  
BRANCH  10  12
HETATM   12  O   UNL     1     -12.356   8.967  70.793  1.00  0.00    -0.180 OA 
BRANCH  12  13
HETATM   13  C   UNL     1     -12.459  10.335  70.951  1.00  0.00    -0.370 A  
HETATM   14  C   UNL     1     -13.118  10.913  72.029  1.00  0.00    -0.462 A  
HETATM   15  C   UNL     1     -13.324  12.288  72.060  1.00  0.00    -0.491 A  
HETATM   16  C   UNL     1     -12.777  13.137  71.090  1.00  0.00    -0.300 A  
HETATM   17  C   UNL     1     -12.034  12.559  70.056  1.00  0.00    -0.372 A  
HETATM   18  C   UNL     1     -11.875  11.162  69.989  1.00  0.00    -0.441 A  
BRANCH  16  19
HETATM   19  N   UNL     1     -12.959  14.545  71.129  1.00  0.00    -0.331 N  
HETATM   20  H   UNL     1     -13.836  14.933  70.782  1.00  0.00     0.000 HD 
BRANCH  19  21
HETATM   21  C   UNL     1     -11.996  15.419  71.620  1.00  0.00    -0.387 C  
HETATM   22  O   UNL     1     -11.413  15.239  72.681  1.00  0.00    -0.448 OA 
BRANCH  21  23
HETATM   23  N   UNL     1     -11.762  16.516  70.810  1.00  0.00    -0.479 N  
HETATM   24  H   UNL     1     -12.235  17.392  71.032  1.00  0.00     0.000 HD 
BRANCH  23  25
HETATM   25  C   UNL     1     -10.891  16.482  69.677  1.00  0.00    -0.322 A  
HETATM   26  C   UNL     1     -10.620  15.309  68.962  1.00  0.00    -0.245 A  
HETATM   27  C   UNL     1      -9.682  15.255  67.916  1.00  0.00    -0.211 A  
HETATM   28  C   UNL     1      -9.379  13.933  67.266  1.00  0.00    -0.231 C  
HETATM   29  C   UNL     1      -9.053  16.438  67.541  1.00  0.00    -0.193 A  
HETATM   30  F   UNL     1      -8.066  13.580  67.360  1.00  0.00    -0.149 F  
HETATM   31  F   UNL     1      -9.688  13.909  65.939  1.00  0.00    -0.289 F  
HETATM   32  F   UNL     1     -10.067  12.886  67.809  1.00  0.00    -0.210 F  
HETATM   33 CL   UNL     1      -7.904  16.492  66.255  1.00  0.00    -0.329 Cl 
HETATM   34  C   UNL     1      -9.350  17.635  68.208  1.00  0.00    -0.290 A  
HETATM   35  C   UNL     1     -10.260  17.660  69.274  1.00  0.00    -0.147 A  
ENDBRANCH  23  25
ENDBRANCH  21  23
ENDBRANCH  19  21
ENDBRANCH  16  19
ENDBRANCH  12  13
ENDBRANCH  10  12
ENDBRANCH   3   6
TORSDOF 7
ENDMDL
MODEL      150
REMARK 921   NORMALIZED FREE ENERGY PREDICTED BY IDOCK:   -5.39 KCAL/MOL
REMARK 922        TOTAL FREE ENERGY PREDICTED BY IDOCK:   -9.44 KCAL/MOL
REMARK 923 INTER-LIGAND FREE ENERGY PREDICTED BY IDOCK:   -7.53 KCAL/MOL
REMARK 924 INTRA-LIGAND FREE ENERGY PREDICTED BY IDOCK:   -1.91 KCAL/MOL
REMARK 927      BINDING AFFINITY PREDICTED BY RF-SCORE:    0.00 PKD
ROOT
HETATM    1  C   UNL     1     -12.295  13.088  63.206  1.00  0.00    -0.306 C  
HETATM    2  N   UNL     1     -11.735  12.410  64.342  1.00  0.00    -0.346 N  
HETATM    3  C   UNL     1     -12.017  12.810  65.630  1.00  0.00    -0.452 C  
HETATM    4  H   UNL     1     -11.115  11.614  64.192  1.00  0.00     0.000 HD 
HETATM    5  O   UNL     1     -12.740  13.764  65.899  1.00  0.00    -0.467 OA 
ENDROOT
BRANCH   3   6
HETATM    6  C   UNL     1     -11.393  11.975  66.708  1.00  0.00    -0.339 A  
HETATM    7  N   UNL     1     -11.974  12.013  67.940  1.00  0.00    -0.547 NA 
HETATM    8  C   UNL     1     -11.354  11.305  68.911  1.00  0.00    -0.275 A  
HETATM    9  C   UNL     1     -10.170  10.602  68.728  1.00  0.00    -0.204 A  
HETATM   10  C   UNL     1      -9.593  10.606  67.464  1.00  0.00    -0.161 A  
HETATM   11  C   UNL     1     -10.244  11.258  66.418  1.00  0.00    -0.273 A  
BRANCH  10  12
HETATM   12  O   UNL     1      -8.389   9.939  67.317  1.00  0.00    -0.120 OA 
BRANCH  12  13
HETATM   13  C   UNL     1      -8.403   8.559  67.373  1.00  0.00    -0.120 A  
HETATM   14  C   UNL     1      -7.570   7.839  68.221  1.00  0.00    -0.109 A  
HETATM   15  C   UNL     1      -7.517   6.452  68.127  1.00  0.00    -0.094 A  
HETATM   16  C   UNL     1      -8.373   5.738  67.282  1.00  0.00    -0.104 A  
HETATM   17  C   UNL     1      -9.275   6.461  66.497  1.00  0.00    -0.174 A  
HETATM   18  C   UNL     1      -9.291   7.868  66.545  1.00  0.00    -0.255 A  
BRANCH  16  19
HETATM   19  N   UNL     1      -8.344   4.320  67.201  1.00  0.00    -0.100 N  
HETATM   20  H   UNL     1      -8.296   3.885  66.279  1.00  0.00     0.000 HD 
BRANCH  19  21
HETATM   21  C   UNL     1      -8.378   3.497  68.320  1.00  0.00    -0.082 C  
HETATM   22  O   UNL     1      -7.412   2.845  68.696  1.00  0.00    -0.048 OA 
BRANCH  21  23
HETATM   23  N   UNL     1      -9.602   3.469  68.965  1.00  0.00    -0.138 N  
HETATM   24  H   UNL     1     -10.333   2.863  68.592  1.00  0.00     0.000 HD 
BRANCH  23  25
HETATM   25  C   UNL     1      -9.892   4.248  70.128  1.00  0.00    -0.201 A  
HETATM   26  C   UNL     1     -10.485   5.515  70.065  1.00  0.00    -0.373 A  
HETATM   27  C   UNL     1     -10.672   6.325  71.199  1.00  0.00    -0.301 A  
HETATM   28  C   UNL     1     -11.226   7.713  71.030  1.00  0.00    -0.267 C  
HETATM   29  C   UNL     1     -10.312   5.806  72.439  1.00  0.00    -0.200 A  
HETATM   30  F   UNL     1     -10.388   8.683  71.492  1.00  0.00    -0.246 F  
HETATM   31  F   UNL     1     -12.413   7.894  71.673  1.00  0.00    -0.285 F  
HETATM   32  F   UNL     1     -11.473   8.048  69.729  1.00  0.00    -0.133 F  
HETATM   33 CL   UNL     1     -10.521   6.703  73.898  1.00  0.00    -0.370 Cl 
HETATM   34  C   UNL     1      -9.767   4.517  72.531  1.00  0.00    -0.200 A  
HETATM   35  C   UNL     1      -9.552   3.741  71.384  1.00  0.00    -0.236 A  
ENDBRANCH  23  25
ENDBRANCH  21  23
ENDBRANCH  19  21
ENDBRANCH  16  19
ENDBRANCH  12  13
ENDBRANCH  10  12
ENDBRANCH   3   6
TORSDOF 7
ENDMDL
MODEL      151
REMARK 921   NORMALIZED FREE ENERGY PREDICTED BY IDOCK:   -5.38 KCAL/MOL
REMARK 922        TOTAL FREE ENERGY PREDICTED BY IDOCK:   -9.43 KCAL/MOL
REMARK 923 INTER-LIGAND FREE ENERGY PREDICTED BY IDOCK:   -8.47 KCAL/MOL
REMARK 924 INTRA-LIGAND FREE ENERGY PREDICTED BY IDOCK:   -0.96 KCAL/MOL
REMARK 927      BINDING AFFINITY PREDICTED BY RF-SCORE:    0.00 PKD
ROOT
HETATM    1  C   UNL     1     -10.233   7.921  71.843  1.00  0.00    -0.202 C  
HETATM    2  N   UNL     1      -9.810   7.708  70.487  1.00  0.00    -0.183 N  
HETATM    3  C   UNL     1     -10.298   6.659  69.738  1.00  0.00    -0.193 C  
HETATM    4  H   UNL     1      -9.135   8.347  70.068  1.00  0.00     0.000 HD 
HETATM    5  O   UNL     1     -11.100   5.836  70.167  1.00  0.00    -0.334 OA 
ENDROOT
BRANCH   3   6
HETATM    6  C   UNL     1      -9.796   6.596  68.326  1.00  0.00    -0.137 A  
HETATM    7  N   UNL     1      -9.780   5.373  67.725  1.00  0.00    -0.129 NA 
HETATM    8  C   UNL     1      -9.261   5.331  66.477  1.00  0.00    -0.139 A  
HETATM    9  C   UNL     1      -8.722   6.430  65.820  1.00  0.00    -0.135 A  
HETATM   10  C   UNL     1      -8.732   7.657  66.474  1.00  0.00    -0.149 A  
HETATM   11  C   UNL     1      -9.331   7.756  67.729  1.00  0.00    -0.155 A  
BRANCH  10  12
HETATM   12  O   UNL     1      -8.147   8.727  65.820  1.00  0.00    -0.101 OA 
BRANCH  12  13
HETATM   13  C   UNL     1      -8.840   9.920  65.784  1.00  0.00    -0.147 A  
HETATM   14  C   UNL     1      -9.969  10.104  64.995  1.00  0.00    -0.375 A  
HETATM   15  C   UNL     1     -10.536  11.368  64.879  1.00  0.00    -0.368 A  
HETATM   16  C   UNL     1     -10.078  12.453  65.634  1.00  0.00    -0.257 A  
HETATM   17  C   UNL     1      -8.999  12.243  66.498  1.00  0.00    -0.161 A  
HETATM   18  C   UNL     1      -8.384  10.979  66.573  1.00  0.00    -0.163 A  
BRANCH  16  19
HETATM   19  N   UNL     1     -10.670  13.741  65.543  1.00  0.00    -0.293 N  
HETATM   20  H   UNL     1     -10.598  14.249  64.661  1.00  0.00     0.000 HD 
BRANCH  19  21
HETATM   21  C   UNL     1     -11.342  14.342  66.601  1.00  0.00    -0.349 C  
HETATM   22  O   UNL     1     -12.558  14.283  66.735  1.00  0.00    -0.276 OA 
BRANCH  21  23
HETATM   23  N   UNL     1     -10.520  15.021  67.481  1.00  0.00    -0.252 N  
HETATM   24  H   UNL     1     -10.468  14.694  68.446  1.00  0.00     0.000 HD 
BRANCH  23  25
HETATM   25  C   UNL     1      -9.741  16.159  67.106  1.00  0.00    -0.233 A  
HETATM   26  C   UNL     1     -10.251  17.463  67.110  1.00  0.00    -0.323 A  
HETATM   27  C   UNL     1      -9.519  18.568  66.640  1.00  0.00    -0.313 A  
HETATM   28  C   UNL     1     -10.177  19.920  66.588  1.00  0.00    -0.485 C  
HETATM   29  C   UNL     1      -8.210  18.353  66.219  1.00  0.00    -0.219 A  
HETATM   30  F   UNL     1     -10.209  20.450  65.332  1.00  0.00    -0.489 F  
HETATM   31  F   UNL     1      -9.561  20.843  67.378  1.00  0.00    -0.570 F  
HETATM   32  F   UNL     1     -11.478  19.911  67.001  1.00  0.00    -0.353 F  
HETATM   33 CL   UNL     1      -7.214  19.640  65.647  1.00  0.00    -0.316 Cl 
HETATM   34  C   UNL     1      -7.661  17.064  66.258  1.00  0.00    -0.346 A  
HETATM   35  C   UNL     1      -8.421  15.969  66.694  1.00  0.00    -0.323 A  
ENDBRANCH  23  25
ENDBRANCH  21  23
ENDBRANCH  19  21
ENDBRANCH  16  19
ENDBRANCH  12  13
ENDBRANCH  10  12
ENDBRANCH   3   6
TORSDOF 7
ENDMDL
MODEL      152
REMARK 921   NORMALIZED FREE ENERGY PREDICTED BY IDOCK:   -5.35 KCAL/MOL
REMARK 922        TOTAL FREE ENERGY PREDICTED BY IDOCK:   -9.38 KCAL/MOL
REMARK 923 INTER-LIGAND FREE ENERGY PREDICTED BY IDOCK:   -7.53 KCAL/MOL
REMARK 924 INTRA-LIGAND FREE ENERGY PREDICTED BY IDOCK:   -1.85 KCAL/MOL
REMARK 927      BINDING AFFINITY PREDICTED BY RF-SCORE:    0.00 PKD
ROOT
HETATM    1  C   UNL     1     -12.196  14.278  70.394  1.00  0.00    -0.342 C  
HETATM    2  N   UNL     1     -12.238  12.986  71.020  1.00  0.00    -0.421 N  
HETATM    3  C   UNL     1     -12.152  11.826  70.281  1.00  0.00    -0.342 C  
HETATM    4  H   UNL     1     -12.334  12.925  72.033  1.00  0.00     0.000 HD 
HETATM    5  O   UNL     1     -12.049  11.808  69.058  1.00  0.00    -0.305 OA 
ENDROOT
BRANCH   3   6
HETATM    6  C   UNL     1     -12.165  10.558  71.081  1.00  0.00    -0.391 A  
HETATM    7  N   UNL     1     -13.300  10.274  71.779  1.00  0.00    -0.396 NA 
HETATM    8  C   UNL     1     -13.264   9.161  72.546  1.00  0.00    -0.397 A  
HETATM    9  C   UNL     1     -12.148   8.345  72.683  1.00  0.00    -0.324 A  
HETATM   10  C   UNL     1     -10.999   8.678  71.974  1.00  0.00    -0.362 A  
HETATM   11  C   UNL     1     -11.024   9.774  71.112  1.00  0.00    -0.386 A  
BRANCH  10  12
HETATM   12  O   UNL     1      -9.886   7.880  72.163  1.00  0.00    -0.178 OA 
BRANCH  12  13
HETATM   13  C   UNL     1      -9.535   7.009  71.150  1.00  0.00    -0.165 A  
HETATM   14  C   UNL     1      -8.256   6.972  70.608  1.00  0.00    -0.119 A  
HETATM   15  C   UNL     1      -7.999   6.186  69.490  1.00  0.00    -0.107 A  
HETATM   16  C   UNL     1      -8.965   5.324  68.958  1.00  0.00    -0.106 A  
HETATM   17  C   UNL     1     -10.225   5.295  69.564  1.00  0.00    -0.338 A  
HETATM   18  C   UNL     1     -10.507   6.134  70.659  1.00  0.00    -0.292 A  
BRANCH  16  19
HETATM   19  N   UNL     1      -8.702   4.497  67.834  1.00  0.00    -0.103 N  
HETATM   20  H   UNL     1      -8.212   3.614  67.982  1.00  0.00     0.000 HD 
BRANCH  19  21
HETATM   21  C   UNL     1      -9.084   4.834  66.540  1.00  0.00    -0.121 C  
HETATM   22  O   UNL     1     -10.145   4.476  66.045  1.00  0.00    -0.223 OA 
BRANCH  21  23
HETATM   23  N   UNL     1      -8.155   5.598  65.858  1.00  0.00    -0.107 N  
HETATM   24  H   UNL     1      -7.260   5.172  65.615  1.00  0.00     0.000 HD 
BRANCH  23  25
HETATM   25  C   UNL     1      -8.387   6.957  65.477  1.00  0.00    -0.137 A  
HETATM   26  C   UNL     1      -8.928   7.908  66.349  1.00  0.00    -0.200 A  
HETATM   27  C   UNL     1      -9.255   9.214  65.943  1.00  0.00    -0.286 A  
HETATM   28  C   UNL     1      -9.925  10.144  66.919  1.00  0.00    -0.207 C  
HETATM   29  C   UNL     1      -8.960   9.585  64.634  1.00  0.00    -0.221 A  
HETATM   30  F   UNL     1     -11.138  10.588  66.486  1.00  0.00    -0.244 F  
HETATM   31  F   UNL     1      -9.184  11.254  67.189  1.00  0.00    -0.157 F  
HETATM   32  F   UNL     1     -10.169   9.575  68.135  1.00  0.00    -0.180 F  
HETATM   33 CL   UNL     1      -9.295  11.168  64.038  1.00  0.00    -0.213 Cl 
HETATM   34  C   UNL     1      -8.367   8.663  63.759  1.00  0.00    -0.116 A  
HETATM   35  C   UNL     1      -8.084   7.354  64.173  1.00  0.00    -0.046 A  
ENDBRANCH  23  25
ENDBRANCH  21  23
ENDBRANCH  19  21
ENDBRANCH  16  19
ENDBRANCH  12  13
ENDBRANCH  10  12
ENDBRANCH   3   6
TORSDOF 7
ENDMDL
MODEL      153
REMARK 921   NORMALIZED FREE ENERGY PREDICTED BY IDOCK:   -5.32 KCAL/MOL
REMARK 922        TOTAL FREE ENERGY PREDICTED BY IDOCK:   -9.35 KCAL/MOL
REMARK 923 INTER-LIGAND FREE ENERGY PREDICTED BY IDOCK:   -7.86 KCAL/MOL
REMARK 924 INTRA-LIGAND FREE ENERGY PREDICTED BY IDOCK:   -1.49 KCAL/MOL
REMARK 927      BINDING AFFINITY PREDICTED BY RF-SCORE:    0.00 PKD
ROOT
HETATM    1  C   UNL     1      -8.345   8.519  68.103  1.00  0.00    -0.127 C  
HETATM    2  N   UNL     1      -8.848   9.675  67.415  1.00  0.00    -0.128 N  
HETATM    3  C   UNL     1     -10.104   9.684  66.847  1.00  0.00    -0.227 C  
HETATM    4  H   UNL     1      -8.264  10.508  67.346  1.00  0.00     0.000 HD 
HETATM    5  O   UNL     1     -10.864   8.722  66.872  1.00  0.00    -0.171 OA 
ENDROOT
BRANCH   3   6
HETATM    6  C   UNL     1     -10.503  10.978  66.204  1.00  0.00    -0.244 A  
HETATM    7  N   UNL     1     -10.755  10.957  64.865  1.00  0.00    -0.234 NA 
HETATM    8  C   UNL     1     -11.048  12.148  64.296  1.00  0.00    -0.346 A  
HETATM    9  C   UNL     1     -11.060  13.357  64.981  1.00  0.00    -0.332 A  
HETATM   10  C   UNL     1     -10.775  13.344  66.342  1.00  0.00    -0.286 A  
HETATM   11  C   UNL     1     -10.546  12.125  66.979  1.00  0.00    -0.256 A  
BRANCH  10  12
HETATM   12  O   UNL     1     -10.746  14.564  66.993  1.00  0.00    -0.283 OA 
BRANCH  12  13
HETATM   13  C   UNL     1      -9.518  15.060  67.385  1.00  0.00    -0.201 A  
HETATM   14  C   UNL     1      -8.581  15.537  66.475  1.00  0.00    -0.320 A  
HETATM   15  C   UNL     1      -7.306  15.880  66.910  1.00  0.00    -0.207 A  
HETATM   16  C   UNL     1      -6.964  15.879  68.267  1.00  0.00    -0.117 A  
HETATM   17  C   UNL     1      -7.939  15.486  69.189  1.00  0.00    -0.222 A  
HETATM   18  C   UNL     1      -9.213  15.080  68.748  1.00  0.00    -0.200 A  
BRANCH  16  19
HETATM   19  N   UNL     1      -5.672  16.256  68.721  1.00  0.00    -0.109 N  
HETATM   20  H   UNL     1      -4.861  15.767  68.342  1.00  0.00     0.000 HD 
BRANCH  19  21
HETATM   21  C   UNL     1      -5.463  17.260  69.659  1.00  0.00    -0.194 C  
HETATM   22  O   UNL     1      -5.284  17.032  70.849  1.00  0.00    -0.236 OA 
BRANCH  21  23
HETATM   23  N   UNL     1      -5.486  18.539  69.133  1.00  0.00    -0.197 N  
HETATM   24  H   UNL     1      -4.707  19.163  69.342  1.00  0.00     0.000 HD 
BRANCH  23  25
HETATM   25  C   UNL     1      -6.548  19.029  68.311  1.00  0.00    -0.243 A  
HETATM   26  C   UNL     1      -7.900  18.832  68.620  1.00  0.00    -0.361 A  
HETATM   27  C   UNL     1      -8.941  19.220  67.759  1.00  0.00    -0.354 A  
HETATM   28  C   UNL     1     -10.362  18.882  68.121  1.00  0.00    -0.366 C  
HETATM   29  C   UNL     1      -8.604  19.888  66.585  1.00  0.00    -0.337 A  
HETATM   30  F   UNL     1     -10.982  18.110  67.185  1.00  0.00    -0.369 F  
HETATM   31  F   UNL     1     -11.145  19.984  68.289  1.00  0.00    -0.268 F  
HETATM   32  F   UNL     1     -10.476  18.184  69.289  1.00  0.00    -0.328 F  
HETATM   33 CL   UNL     1      -9.802  20.431  65.469  1.00  0.00    -0.085 Cl 
HETATM   34  C   UNL     1      -7.259  20.145  66.284  1.00  0.00    -0.311 A  
HETATM   35  C   UNL     1      -6.234  19.715  67.137  1.00  0.00    -0.196 A  
ENDBRANCH  23  25
ENDBRANCH  21  23
ENDBRANCH  19  21
ENDBRANCH  16  19
ENDBRANCH  12  13
ENDBRANCH  10  12
ENDBRANCH   3   6
TORSDOF 7
ENDMDL
MODEL      154
REMARK 921   NORMALIZED FREE ENERGY PREDICTED BY IDOCK:   -5.31 KCAL/MOL
REMARK 922        TOTAL FREE ENERGY PREDICTED BY IDOCK:   -9.34 KCAL/MOL
REMARK 923 INTER-LIGAND FREE ENERGY PREDICTED BY IDOCK:   -9.05 KCAL/MOL
REMARK 924 INTRA-LIGAND FREE ENERGY PREDICTED BY IDOCK:   -0.29 KCAL/MOL
REMARK 927      BINDING AFFINITY PREDICTED BY RF-SCORE:    0.00 PKD
ROOT
HETATM    1  C   UNL     1     -10.942   7.135  72.930  1.00  0.00    -0.320 C  
HETATM    2  N   UNL     1     -10.286   7.882  71.893  1.00  0.00    -0.193 N  
HETATM    3  C   UNL     1     -10.392   7.519  70.568  1.00  0.00    -0.215 C  
HETATM    4  H   UNL     1      -9.729   8.699  72.143  1.00  0.00     0.000 HD 
HETATM    5  O   UNL     1     -11.028   6.544  70.182  1.00  0.00    -0.261 OA 
ENDROOT
BRANCH   3   6
HETATM    6  C   UNL     1      -9.687   8.423  69.601  1.00  0.00    -0.173 A  
HETATM    7  N   UNL     1      -8.845   9.358  70.123  1.00  0.00    -0.204 NA 
HETATM    8  C   UNL     1      -8.274  10.205  69.237  1.00  0.00    -0.156 A  
HETATM    9  C   UNL     1      -8.529  10.192  67.872  1.00  0.00    -0.118 A  
HETATM   10  C   UNL     1      -9.412   9.239  67.377  1.00  0.00    -0.132 A  
HETATM   11  C   UNL     1      -9.960   8.299  68.249  1.00  0.00    -0.217 A  
BRANCH  10  12
HETATM   12  O   UNL     1      -9.689   9.276  66.022  1.00  0.00    -0.254 OA 
BRANCH  12  13
HETATM   13  C   UNL     1     -10.199  10.447  65.497  1.00  0.00    -0.246 A  
HETATM   14  C   UNL     1      -9.755  10.981  64.294  1.00  0.00    -0.333 A  
HETATM   15  C   UNL     1     -10.192  12.237  63.889  1.00  0.00    -0.421 A  
HETATM   16  C   UNL     1     -11.171  12.940  64.600  1.00  0.00    -0.320 A  
HETATM   17  C   UNL     1     -11.684  12.357  65.763  1.00  0.00    -0.470 A  
HETATM   18  C   UNL     1     -11.200  11.113  66.208  1.00  0.00    -0.087 A  
BRANCH  16  19
HETATM   19  N   UNL     1     -11.644  14.212  64.179  1.00  0.00    -0.625 N  
HETATM   20  H   UNL     1     -12.494  14.254  63.616  1.00  0.00     0.000 HD 
BRANCH  19  21
HETATM   21  C   UNL     1     -11.002  15.402  64.498  1.00  0.00    -0.203 C  
HETATM   22  O   UNL     1     -11.342  16.486  64.040  1.00  0.00    -1.064 OA 
BRANCH  21  23
HETATM   23  N   UNL     1      -9.937  15.255  65.368  1.00  0.00    -0.346 N  
HETATM   24  H   UNL     1      -9.533  14.326  65.487  1.00  0.00     0.000 HD 
BRANCH  23  25
HETATM   25  C   UNL     1      -9.375  16.340  66.110  1.00  0.00    -0.339 A  
HETATM   26  C   UNL     1      -8.027  16.386  66.486  1.00  0.00    -0.342 A  
HETATM   27  C   UNL     1      -7.500  17.399  67.306  1.00  0.00    -0.211 A  
HETATM   28  C   UNL     1      -6.062  17.319  67.744  1.00  0.00    -0.141 C  
HETATM   29  C   UNL     1      -8.348  18.431  67.697  1.00  0.00    -0.251 A  
HETATM   30  F   UNL     1      -5.918  17.285  69.098  1.00  0.00    -0.167 F  
HETATM   31  F   UNL     1      -5.313  18.368  67.304  1.00  0.00    -0.132 F  
HETATM   32  F   UNL     1      -5.414  16.206  67.290  1.00  0.00    -0.149 F  
HETATM   33 CL   UNL     1      -7.800  19.737  68.681  1.00  0.00    -0.329 Cl 
HETATM   34  C   UNL     1      -9.688  18.433  67.286  1.00  0.00    -0.304 A  
HETATM   35  C   UNL     1     -10.204  17.393  66.501  1.00  0.00    -0.329 A  
ENDBRANCH  23  25
ENDBRANCH  21  23
ENDBRANCH  19  21
ENDBRANCH  16  19
ENDBRANCH  12  13
ENDBRANCH  10  12
ENDBRANCH   3   6
TORSDOF 7
ENDMDL
MODEL      155
REMARK 921   NORMALIZED FREE ENERGY PREDICTED BY IDOCK:   -5.31 KCAL/MOL
REMARK 922        TOTAL FREE ENERGY PREDICTED BY IDOCK:   -9.34 KCAL/MOL
REMARK 923 INTER-LIGAND FREE ENERGY PREDICTED BY IDOCK:   -8.84 KCAL/MOL
REMARK 924 INTRA-LIGAND FREE ENERGY PREDICTED BY IDOCK:   -0.50 KCAL/MOL
REMARK 927      BINDING AFFINITY PREDICTED BY RF-SCORE:    0.00 PKD
ROOT
HETATM    1  C   UNL     1     -11.584  15.831  68.826  1.00  0.00    -0.395 C  
HETATM    2  N   UNL     1     -11.514  15.193  67.540  1.00  0.00    -0.328 N  
HETATM    3  C   UNL     1     -11.747  13.843  67.394  1.00  0.00    -0.389 C  
HETATM    4  H   UNL     1     -11.288  15.752  66.718  1.00  0.00     0.000 HD 
HETATM    5  O   UNL     1     -12.011  13.096  68.330  1.00  0.00    -0.343 OA 
ENDROOT
BRANCH   3   6
HETATM    6  C   UNL     1     -11.681  13.334  65.984  1.00  0.00    -0.368 A  
HETATM    7  N   UNL     1     -12.803  13.465  65.222  1.00  0.00    -0.686 NA 
HETATM    8  C   UNL     1     -12.741  12.938  63.978  1.00  0.00    -0.145 A  
HETATM    9  C   UNL     1     -11.640  12.257  63.475  1.00  0.00    -0.570 A  
HETATM   10  C   UNL     1     -10.522  12.122  64.289  1.00  0.00    -0.339 A  
HETATM   11  C   UNL     1     -10.519  12.720  65.549  1.00  0.00    -0.306 A  
BRANCH  10  12
HETATM   12  O   UNL     1      -9.456  11.398  63.785  1.00  0.00    -0.218 OA 
BRANCH  12  13
HETATM   13  C   UNL     1      -9.147  10.195  64.389  1.00  0.00    -0.245 A  
HETATM   14  C   UNL     1      -8.116   9.378  63.939  1.00  0.00    -0.154 A  
HETATM   15  C   UNL     1      -7.948   8.111  64.486  1.00  0.00    -0.142 A  
HETATM   16  C   UNL     1      -8.712   7.669  65.571  1.00  0.00    -0.051 A  
HETATM   17  C   UNL     1      -9.688   8.531  66.082  1.00  0.00    -0.259 A  
HETATM   18  C   UNL     1      -9.902   9.792  65.492  1.00  0.00    -0.378 A  
BRANCH  16  19
HETATM   19  N   UNL     1      -8.528   6.387  66.154  1.00  0.00    -0.134 N  
HETATM   20  H   UNL     1      -7.620   5.932  66.053  1.00  0.00     0.000 HD 
BRANCH  19  21
HETATM   21  C   UNL     1      -9.527   5.723  66.856  1.00  0.00    -0.133 C  
HETATM   22  O   UNL     1     -10.583   5.377  66.342  1.00  0.00    -0.280 OA 
BRANCH  21  23
HETATM   23  N   UNL     1      -9.230   5.500  68.188  1.00  0.00    -0.108 N  
HETATM   24  H   UNL     1      -8.493   4.833  68.416  1.00  0.00     0.000 HD 
BRANCH  23  25
HETATM   25  C   UNL     1      -9.906   6.159  69.262  1.00  0.00    -0.149 A  
HETATM   26  C   UNL     1     -10.168   5.538  70.489  1.00  0.00    -0.311 A  
HETATM   27  C   UNL     1     -10.925   6.148  71.505  1.00  0.00    -0.328 A  
HETATM   28  C   UNL     1     -11.244   5.371  72.754  1.00  0.00    -0.300 C  
HETATM   29  C   UNL     1     -11.368   7.451  71.296  1.00  0.00    -0.265 A  
HETATM   30  F   UNL     1     -12.583   5.237  72.972  1.00  0.00    -0.223 F  
HETATM   31  F   UNL     1     -10.727   5.939  73.879  1.00  0.00    -0.246 F  
HETATM   32  F   UNL     1     -10.757   4.096  72.744  1.00  0.00    -0.230 F  
HETATM   33 CL   UNL     1     -12.283   8.303  72.485  1.00  0.00    -0.413 Cl 
HETATM   34  C   UNL     1     -11.070   8.112  70.097  1.00  0.00    -0.187 A  
HETATM   35  C   UNL     1     -10.346   7.471  69.081  1.00  0.00    -0.215 A  
ENDBRANCH  23  25
ENDBRANCH  21  23
ENDBRANCH  19  21
ENDBRANCH  16  19
ENDBRANCH  12  13
ENDBRANCH  10  12
ENDBRANCH   3   6
TORSDOF 7
ENDMDL
MODEL      156
REMARK 921   NORMALIZED FREE ENERGY PREDICTED BY IDOCK:   -5.30 KCAL/MOL
REMARK 922        TOTAL FREE ENERGY PREDICTED BY IDOCK:   -9.31 KCAL/MOL
REMARK 923 INTER-LIGAND FREE ENERGY PREDICTED BY IDOCK:   -8.06 KCAL/MOL
REMARK 924 INTRA-LIGAND FREE ENERGY PREDICTED BY IDOCK:   -1.25 KCAL/MOL
REMARK 927      BINDING AFFINITY PREDICTED BY RF-SCORE:    0.00 PKD
ROOT
HETATM    1  C   UNL     1     -13.936  14.454  72.282  1.00  0.00    -0.513 C  
HETATM    2  N   UNL     1     -13.768  13.030  72.203  1.00  0.00    -0.501 N  
HETATM    3  C   UNL     1     -12.906  12.456  71.294  1.00  0.00    -0.240 C  
HETATM    4  H   UNL     1     -14.299  12.429  72.833  1.00  0.00     0.000 HD 
HETATM    5  O   UNL     1     -12.242  13.102  70.490  1.00  0.00    -0.357 OA 
ENDROOT
BRANCH   3   6
HETATM    6  C   UNL     1     -12.807  10.962  71.363  1.00  0.00    -0.449 A  
HETATM    7  N   UNL     1     -13.634  10.323  72.238  1.00  0.00    -0.216 NA 
HETATM    8  C   UNL     1     -13.479   8.983  72.332  1.00  0.00    -0.470 A  
HETATM    9  C   UNL     1     -12.522   8.259  71.634  1.00  0.00    -0.351 A  
HETATM   10  C   UNL     1     -11.679   8.946  70.768  1.00  0.00    -0.230 A  
HETATM   11  C   UNL     1     -11.860  10.317  70.585  1.00  0.00    -0.439 A  
BRANCH  10  12
HETATM   12  O   UNL     1     -10.702   8.212  70.120  1.00  0.00    -0.238 OA 
BRANCH  12  13
HETATM   13  C   UNL     1      -9.542   8.863  69.750  1.00  0.00    -0.171 A  
HETATM   14  C   UNL     1      -8.490   9.073  70.634  1.00  0.00    -0.229 A  
HETATM   15  C   UNL     1      -7.413   9.866  70.254  1.00  0.00    -0.173 A  
HETATM   16  C   UNL     1      -7.290  10.368  68.953  1.00  0.00    -0.094 A  
HETATM   17  C   UNL     1      -8.307  10.077  68.038  1.00  0.00    -0.117 A  
HETATM   18  C   UNL     1      -9.428   9.325  68.437  1.00  0.00    -0.145 A  
BRANCH  16  19
HETATM   19  N   UNL     1      -6.179  11.155  68.549  1.00  0.00    -0.043 N  
HETATM   20  H   UNL     1      -5.258  10.718  68.516  1.00  0.00     0.000 HD 
BRANCH  19  21
HETATM   21  C   UNL     1      -6.290  12.495  68.195  1.00  0.00    -0.076 C  
HETATM   22  O   UNL     1      -5.701  12.980  67.237  1.00  0.00    -0.334 OA 
BRANCH  21  23
HETATM   23  N   UNL     1      -7.112  13.233  69.026  1.00  0.00    -0.224 N  
HETATM   24  H   UNL     1      -7.152  12.985  70.015  1.00  0.00     0.000 HD 
BRANCH  23  25
HETATM   25  C   UNL     1      -7.910  14.328  68.568  1.00  0.00    -0.143 A  
HETATM   26  C   UNL     1      -7.398  15.619  68.392  1.00  0.00    -0.116 A  
HETATM   27  C   UNL     1      -8.205  16.717  68.045  1.00  0.00    -0.185 A  
HETATM   28  C   UNL     1      -7.592  18.089  67.973  1.00  0.00    -0.244 C  
HETATM   29  C   UNL     1      -9.556  16.484  67.802  1.00  0.00    -0.232 A  
HETATM   30  F   UNL     1      -8.175  18.979  68.825  1.00  0.00    -0.359 F  
HETATM   31  F   UNL     1      -7.668  18.641  66.730  1.00  0.00    -0.217 F  
HETATM   32  F   UNL     1      -6.264  18.111  68.291  1.00  0.00    -0.173 F  
HETATM   33 CL   UNL     1     -10.632  17.753  67.346  1.00  0.00    -0.363 Cl 
HETATM   34  C   UNL     1     -10.078  15.188  67.919  1.00  0.00    -0.222 A  
HETATM   35  C   UNL     1      -9.264  14.114  68.304  1.00  0.00    -0.198 A  
ENDBRANCH  23  25
ENDBRANCH  21  23
ENDBRANCH  19  21
ENDBRANCH  16  19
ENDBRANCH  12  13
ENDBRANCH  10  12
ENDBRANCH   3   6
TORSDOF 7
ENDMDL
MODEL      157
REMARK 921   NORMALIZED FREE ENERGY PREDICTED BY IDOCK:   -5.29 KCAL/MOL
REMARK 922        TOTAL FREE ENERGY PREDICTED BY IDOCK:   -9.29 KCAL/MOL
REMARK 923 INTER-LIGAND FREE ENERGY PREDICTED BY IDOCK:   -8.66 KCAL/MOL
REMARK 924 INTRA-LIGAND FREE ENERGY PREDICTED BY IDOCK:   -0.64 KCAL/MOL
REMARK 927      BINDING AFFINITY PREDICTED BY RF-SCORE:    0.00 PKD
ROOT
HETATM    1  C   UNL     1     -13.008  10.704  71.225  1.00  0.00    -0.414 C  
HETATM    2  N   UNL     1     -12.154   9.597  70.895  1.00  0.00    -0.327 N  
HETATM    3  C   UNL     1     -12.332   8.357  71.469  1.00  0.00    -0.309 C  
HETATM    4  H   UNL     1     -11.401   9.731  70.222  1.00  0.00     0.000 HD 
HETATM    5  O   UNL     1     -13.203   8.112  72.297  1.00  0.00    -0.259 OA 
ENDROOT
BRANCH   3   6
HETATM    6  C   UNL     1     -11.390   7.292  70.990  1.00  0.00    -0.274 A  
HETATM    7  N   UNL     1     -11.193   6.221  71.809  1.00  0.00    -0.271 NA 
HETATM    8  C   UNL     1     -10.288   5.309  71.387  1.00  0.00    -0.221 A  
HETATM    9  C   UNL     1      -9.547   5.430  70.219  1.00  0.00    -0.236 A  
HETATM   10  C   UNL     1      -9.757   6.548  69.420  1.00  0.00    -0.146 A  
HETATM   11  C   UNL     1     -10.738   7.471  69.782  1.00  0.00    -0.249 A  
BRANCH  10  12
HETATM   12  O   UNL     1      -8.974   6.671  68.286  1.00  0.00    -0.124 OA 
BRANCH  12  13
HETATM   13  C   UNL     1      -8.911   7.908  67.674  1.00  0.00    -0.131 A  
HETATM   14  C   UNL     1      -8.176   8.964  68.198  1.00  0.00    -0.114 A  
HETATM   15  C   UNL     1      -8.271  10.227  67.626  1.00  0.00    -0.114 A  
HETATM   16  C   UNL     1      -8.997  10.450  66.450  1.00  0.00    -0.149 A  
HETATM   17  C   UNL     1      -9.662   9.364  65.873  1.00  0.00    -0.355 A  
HETATM   18  C   UNL     1      -9.616   8.096  66.483  1.00  0.00    -0.303 A  
BRANCH  16  19
HETATM   19  N   UNL     1      -9.076  11.732  65.843  1.00  0.00    -0.367 N  
HETATM   20  H   UNL     1      -8.251  12.098  65.367  1.00  0.00     0.000 HD 
BRANCH  19  21
HETATM   21  C   UNL     1     -10.227  12.511  65.868  1.00  0.00    -0.261 C  
HETATM   22  O   UNL     1     -11.290  12.112  66.328  1.00  0.00    -0.324 OA 
BRANCH  21  23
HETATM   23  N   UNL     1     -10.071  13.769  65.316  1.00  0.00    -0.496 N  
HETATM   24  H   UNL     1      -9.982  13.847  64.303  1.00  0.00     0.000 HD 
BRANCH  23  25
HETATM   25  C   UNL     1     -10.027  14.967  66.096  1.00  0.00    -0.303 A  
HETATM   26  C   UNL     1      -9.015  15.925  65.961  1.00  0.00    -0.337 A  
HETATM   27  C   UNL     1      -8.913  17.048  66.801  1.00  0.00    -0.267 A  
HETATM   28  C   UNL     1      -7.738  17.976  66.650  1.00  0.00    -0.238 C  
HETATM   29  C   UNL     1      -9.904  17.240  67.758  1.00  0.00    -0.281 A  
HETATM   30  F   UNL     1      -6.995  18.084  67.788  1.00  0.00    -0.193 F  
HETATM   31  F   UNL     1      -8.102  19.243  66.308  1.00  0.00    -0.270 F  
HETATM   32  F   UNL     1      -6.855  17.587  65.685  1.00  0.00    -0.275 F  
HETATM   33 CL   UNL     1      -9.892  18.596  68.824  1.00  0.00    -0.418 Cl 
HETATM   34  C   UNL     1     -10.957  16.321  67.874  1.00  0.00    -0.310 A  
HETATM   35  C   UNL     1     -11.019  15.187  67.053  1.00  0.00    -0.322 A  
ENDBRANCH  23  25
ENDBRANCH  21  23
ENDBRANCH  19  21
ENDBRANCH  16  19
ENDBRANCH  12  13
ENDBRANCH  10  12
ENDBRANCH   3   6
TORSDOF 7
ENDMDL
MODEL      158
REMARK 921   NORMALIZED FREE ENERGY PREDICTED BY IDOCK:   -5.28 KCAL/MOL
REMARK 922        TOTAL FREE ENERGY PREDICTED BY IDOCK:   -9.29 KCAL/MOL
REMARK 923 INTER-LIGAND FREE ENERGY PREDICTED BY IDOCK:   -8.48 KCAL/MOL
REMARK 924 INTRA-LIGAND FREE ENERGY PREDICTED BY IDOCK:   -0.81 KCAL/MOL
REMARK 927      BINDING AFFINITY PREDICTED BY RF-SCORE:    0.00 PKD
ROOT
HETATM    1  C   UNL     1      -6.968  18.714  67.793  1.00  0.00    -0.215 C  
HETATM    2  N   UNL     1      -8.137  17.914  68.025  1.00  0.00    -0.245 N  
HETATM    3  C   UNL     1      -8.822  17.322  66.986  1.00  0.00    -0.228 C  
HETATM    4  H   UNL     1      -8.468  17.779  68.980  1.00  0.00     0.000 HD 
HETATM    5  O   UNL     1      -8.502  17.444  65.808  1.00  0.00    -0.532 OA 
ENDROOT
BRANCH   3   6
HETATM    6  C   UNL     1      -9.995  16.481  67.392  1.00  0.00    -0.267 A  
HETATM    7  N   UNL     1     -10.363  16.517  68.704  1.00  0.00    -0.268 NA 
HETATM    8  C   UNL     1     -11.380  15.700  69.058  1.00  0.00    -0.330 A  
HETATM    9  C   UNL     1     -12.017  14.825  68.187  1.00  0.00    -0.265 A  
HETATM   10  C   UNL     1     -11.599  14.797  66.862  1.00  0.00    -0.327 A  
HETATM   11  C   UNL     1     -10.607  15.682  66.441  1.00  0.00    -0.308 A  
BRANCH  10  12
HETATM   12  O   UNL     1     -12.214  13.884  66.024  1.00  0.00    -0.412 OA 
BRANCH  12  13
HETATM   13  C   UNL     1     -11.628  12.642  65.879  1.00  0.00    -0.396 A  
HETATM   14  C   UNL     1     -11.476  11.761  66.943  1.00  0.00    -0.364 A  
HETATM   15  C   UNL     1     -10.744  10.591  66.774  1.00  0.00    -0.252 A  
HETATM   16  C   UNL     1     -10.252  10.204  65.523  1.00  0.00    -0.218 A  
HETATM   17  C   UNL     1     -10.487  11.049  64.435  1.00  0.00    -0.422 A  
HETATM   18  C   UNL     1     -11.175  12.264  64.613  1.00  0.00    -0.363 A  
BRANCH  16  19
HETATM   19  N   UNL     1      -9.527   8.996  65.337  1.00  0.00    -0.450 N  
HETATM   20  H   UNL     1      -9.265   8.726  64.388  1.00  0.00     0.000 HD 
BRANCH  19  21
HETATM   21  C   UNL     1      -9.158   8.165  66.388  1.00  0.00    -0.183 C  
HETATM   22  O   UNL     1      -8.050   8.201  66.906  1.00  0.00    -0.102 OA 
BRANCH  21  23
HETATM   23  N   UNL     1     -10.148   7.286  66.789  1.00  0.00    -0.334 N  
HETATM   24  H   UNL     1     -10.958   7.157  66.181  1.00  0.00     0.000 HD 
BRANCH  23  25
HETATM   25  C   UNL     1     -10.093   6.549  68.012  1.00  0.00    -0.150 A  
HETATM   26  C   UNL     1      -9.464   5.303  68.121  1.00  0.00    -0.151 A  
HETATM   27  C   UNL     1      -9.503   4.531  69.295  1.00  0.00    -0.242 A  
HETATM   28  C   UNL     1      -8.884   3.159  69.296  1.00  0.00    -0.098 C  
HETATM   29  C   UNL     1     -10.138   5.069  70.411  1.00  0.00    -0.260 A  
HETATM   30  F   UNL     1      -9.774   2.173  69.599  1.00  0.00    -0.175 F  
HETATM   31  F   UNL     1      -7.860   3.038  70.186  1.00  0.00    -0.043 F  
HETATM   32  F   UNL     1      -8.353   2.799  68.091  1.00  0.00    -0.073 F  
HETATM   33 CL   UNL     1     -10.223   4.219  71.909  1.00  0.00    -0.235 Cl 
HETATM   34  C   UNL     1     -10.728   6.339  70.340  1.00  0.00    -0.329 A  
HETATM   35  C   UNL     1     -10.711   7.076  69.148  1.00  0.00    -0.240 A  
ENDBRANCH  23  25
ENDBRANCH  21  23
ENDBRANCH  19  21
ENDBRANCH  16  19
ENDBRANCH  12  13
ENDBRANCH  10  12
ENDBRANCH   3   6
TORSDOF 7
ENDMDL
MODEL      159
REMARK 921   NORMALIZED FREE ENERGY PREDICTED BY IDOCK:   -5.28 KCAL/MOL
REMARK 922        TOTAL FREE ENERGY PREDICTED BY IDOCK:   -9.28 KCAL/MOL
REMARK 923 INTER-LIGAND FREE ENERGY PREDICTED BY IDOCK:   -8.57 KCAL/MOL
REMARK 924 INTRA-LIGAND FREE ENERGY PREDICTED BY IDOCK:   -0.72 KCAL/MOL
REMARK 927      BINDING AFFINITY PREDICTED BY RF-SCORE:    0.00 PKD
ROOT
HETATM    1  C   UNL     1      -8.567   2.051  71.784  1.00  0.00    -0.059 C  
HETATM    2  N   UNL     1      -9.136   3.317  72.153  1.00  0.00    -0.098 N  
HETATM    3  C   UNL     1      -9.676   4.165  71.211  1.00  0.00    -0.185 C  
HETATM    4  H   UNL     1      -9.141   3.595  73.134  1.00  0.00     0.000 HD 
HETATM    5  O   UNL     1      -9.698   3.916  70.010  1.00  0.00    -0.201 OA 
ENDROOT
BRANCH   3   6
HETATM    6  C   UNL     1     -10.270   5.429  71.756  1.00  0.00    -0.206 A  
HETATM    7  N   UNL     1     -10.114   5.667  73.089  1.00  0.00    -0.175 NA 
HETATM    8  C   UNL     1     -10.716   6.778  73.569  1.00  0.00    -0.292 A  
HETATM    9  C   UNL     1     -11.495   7.635  72.802  1.00  0.00    -0.384 A  
HETATM   10  C   UNL     1     -11.653   7.348  71.451  1.00  0.00    -0.275 A  
HETATM   11  C   UNL     1     -10.983   6.255  70.903  1.00  0.00    -0.344 A  
BRANCH  10  12
HETATM   12  O   UNL     1     -12.472   8.188  70.718  1.00  0.00    -0.078 OA 
BRANCH  12  13
HETATM   13  C   UNL     1     -11.980   9.431  70.370  1.00  0.00    -0.029 A  
HETATM   14  C   UNL     1     -12.454  10.607  70.938  1.00  0.00    -0.495 A  
HETATM   15  C   UNL     1     -12.033  11.836  70.443  1.00  0.00    -0.422 A  
HETATM   16  C   UNL     1     -11.041  11.932  69.460  1.00  0.00    -0.102 A  
HETATM   17  C   UNL     1     -10.499  10.747  68.955  1.00  0.00    -0.239 A  
HETATM   18  C   UNL     1     -10.966   9.500  69.412  1.00  0.00    -0.192 A  
BRANCH  16  19
HETATM   19  N   UNL     1     -10.585  13.185  68.968  1.00  0.00    -0.424 N  
HETATM   20  H   UNL     1      -9.612  13.447  69.132  1.00  0.00     0.000 HD 
BRANCH  19  21
HETATM   21  C   UNL     1     -11.402  14.068  68.273  1.00  0.00    -0.288 C  
HETATM   22  O   UNL     1     -12.513  14.397  68.668  1.00  0.00    -0.115 OA 
BRANCH  21  23
HETATM   23  N   UNL     1     -10.855  14.535  67.092  1.00  0.00    -0.290 N  
HETATM   24  H   UNL     1     -11.077  14.041  66.227  1.00  0.00     0.000 HD 
BRANCH  23  25
HETATM   25  C   UNL     1      -9.995  15.675  67.022  1.00  0.00    -0.240 A  
HETATM   26  C   UNL     1     -10.455  16.985  67.201  1.00  0.00    -0.291 A  
HETATM   27  C   UNL     1      -9.631  18.111  67.027  1.00  0.00    -0.287 A  
HETATM   28  C   UNL     1     -10.229  19.487  67.141  1.00  0.00    -0.426 C  
HETATM   29  C   UNL     1      -8.287  17.898  66.732  1.00  0.00    -0.252 A  
HETATM   30  F   UNL     1     -10.083  20.228  66.007  1.00  0.00    -0.520 F  
HETATM   31  F   UNL     1      -9.686  20.221  68.152  1.00  0.00    -0.455 F  
HETATM   32  F   UNL     1     -11.571  19.480  67.389  1.00  0.00    -0.345 F  
HETATM   33 CL   UNL     1      -7.182  19.206  66.523  1.00  0.00    -0.227 Cl 
HETATM   34  C   UNL     1      -7.794  16.592  66.603  1.00  0.00    -0.321 A  
HETATM   35  C   UNL     1      -8.641  15.484  66.743  1.00  0.00    -0.307 A  
ENDBRANCH  23  25
ENDBRANCH  21  23
ENDBRANCH  19  21
ENDBRANCH  16  19
ENDBRANCH  12  13
ENDBRANCH  10  12
ENDBRANCH   3   6
TORSDOF 7
ENDMDL
MODEL      160
REMARK 921   NORMALIZED FREE ENERGY PREDICTED BY IDOCK:   -5.28 KCAL/MOL
REMARK 922        TOTAL FREE ENERGY PREDICTED BY IDOCK:   -9.28 KCAL/MOL
REMARK 923 INTER-LIGAND FREE ENERGY PREDICTED BY IDOCK:   -8.00 KCAL/MOL
REMARK 924 INTRA-LIGAND FREE ENERGY PREDICTED BY IDOCK:   -1.28 KCAL/MOL
REMARK 927      BINDING AFFINITY PREDICTED BY RF-SCORE:    0.00 PKD
ROOT
HETATM    1  C   UNL     1     -13.981   7.611  71.585  1.00  0.00    -0.408 C  
HETATM    2  N   UNL     1     -12.705   7.499  70.936  1.00  0.00    -0.565 N  
HETATM    3  C   UNL     1     -11.543   7.898  71.561  1.00  0.00    -0.270 C  
HETATM    4  H   UNL     1     -12.656   7.115  69.993  1.00  0.00     0.000 HD 
HETATM    5  O   UNL     1     -11.512   8.383  72.687  1.00  0.00    -0.380 OA 
ENDROOT
BRANCH   3   6
HETATM    6  C   UNL     1     -10.287   7.676  70.773  1.00  0.00    -0.203 A  
HETATM    7  N   UNL     1      -9.371   6.810  71.291  1.00  0.00    -0.165 NA 
HETATM    8  C   UNL     1      -8.218   6.679  70.597  1.00  0.00    -0.124 A  
HETATM    9  C   UNL     1      -7.917   7.393  69.444  1.00  0.00    -0.124 A  
HETATM   10  C   UNL     1      -8.865   8.285  68.957  1.00  0.00    -0.143 A  
HETATM   11  C   UNL     1     -10.097   8.390  69.601  1.00  0.00    -0.199 A  
BRANCH  10  12
HETATM   12  O   UNL     1      -8.525   9.020  67.835  1.00  0.00    -0.120 OA 
BRANCH  12  13
HETATM   13  C   UNL     1      -9.140  10.242  67.651  1.00  0.00    -0.137 A  
HETATM   14  C   UNL     1      -8.687  11.405  68.263  1.00  0.00    -0.160 A  
HETATM   15  C   UNL     1      -9.432  12.575  68.166  1.00  0.00    -0.214 A  
HETATM   16  C   UNL     1     -10.575  12.657  67.362  1.00  0.00    -0.224 A  
HETATM   17  C   UNL     1     -10.977  11.508  66.674  1.00  0.00    -0.349 A  
HETATM   18  C   UNL     1     -10.259  10.305  66.818  1.00  0.00    -0.286 A  
BRANCH  16  19
HETATM   19  N   UNL     1     -11.326  13.856  67.236  1.00  0.00    -0.309 N  
HETATM   20  H   UNL     1     -11.757  14.252  68.071  1.00  0.00     0.000 HD 
BRANCH  19  21
HETATM   21  C   UNL     1     -11.500  14.515  66.024  1.00  0.00    -0.348 C  
HETATM   22  O   UNL     1     -12.574  14.557  65.439  1.00  0.00    -0.350 OA 
BRANCH  21  23
HETATM   23  N   UNL     1     -10.351  15.108  65.533  1.00  0.00    -0.343 N  
HETATM   24  H   UNL     1     -10.006  14.813  64.619  1.00  0.00     0.000 HD 
BRANCH  23  25
HETATM   25  C   UNL     1      -9.624  16.114  66.241  1.00  0.00    -0.306 A  
HETATM   26  C   UNL     1      -8.348  15.896  66.775  1.00  0.00    -0.306 A  
HETATM   27  C   UNL     1      -7.679  16.848  67.563  1.00  0.00    -0.187 A  
HETATM   28  C   UNL     1      -6.352  16.495  68.179  1.00  0.00    -0.132 C  
HETATM   29  C   UNL     1      -8.291  18.083  67.756  1.00  0.00    -0.249 A  
HETATM   30  F   UNL     1      -6.355  16.582  69.539  1.00  0.00    -0.168 F  
HETATM   31  F   UNL     1      -5.335  17.291  67.745  1.00  0.00    -0.105 F  
HETATM   32  F   UNL     1      -5.946  15.220  67.906  1.00  0.00    -0.112 F  
HETATM   33 CL   UNL     1      -7.549  19.333  68.684  1.00  0.00    -0.373 Cl 
HETATM   34  C   UNL     1      -9.545  18.343  67.185  1.00  0.00    -0.299 A  
HETATM   35  C   UNL     1     -10.213  17.365  66.435  1.00  0.00    -0.339 A  
ENDBRANCH  23  25
ENDBRANCH  21  23
ENDBRANCH  19  21
ENDBRANCH  16  19
ENDBRANCH  12  13
ENDBRANCH  10  12
ENDBRANCH   3   6
TORSDOF 7
ENDMDL
MODEL      161
REMARK 921   NORMALIZED FREE ENERGY PREDICTED BY IDOCK:   -5.27 KCAL/MOL
REMARK 922        TOTAL FREE ENERGY PREDICTED BY IDOCK:   -9.27 KCAL/MOL
REMARK 923 INTER-LIGAND FREE ENERGY PREDICTED BY IDOCK:   -8.47 KCAL/MOL
REMARK 924 INTRA-LIGAND FREE ENERGY PREDICTED BY IDOCK:   -0.80 KCAL/MOL
REMARK 927      BINDING AFFINITY PREDICTED BY RF-SCORE:    0.00 PKD
ROOT
HETATM    1  C   UNL     1      -7.542  18.265  66.723  1.00  0.00    -0.222 C  
HETATM    2  N   UNL     1      -8.481  17.272  66.282  1.00  0.00    -0.261 N  
HETATM    3  C   UNL     1      -9.829  17.546  66.193  1.00  0.00    -0.242 C  
HETATM    4  H   UNL     1      -8.144  16.344  66.029  1.00  0.00     0.000 HD 
HETATM    5  O   UNL     1     -10.320  18.630  66.491  1.00  0.00    -0.378 OA 
ENDROOT
BRANCH   3   6
HETATM    6  C   UNL     1     -10.675  16.422  65.674  1.00  0.00    -0.270 A  
HETATM    7  N   UNL     1     -11.218  16.573  64.434  1.00  0.00    -0.980 NA 
HETATM    8  C   UNL     1     -12.032  15.576  64.016  1.00  0.00     0.054 A  
HETATM    9  C   UNL     1     -12.362  14.467  64.784  1.00  0.00    -0.427 A  
HETATM   10  C   UNL     1     -11.808  14.358  66.055  1.00  0.00    -0.372 A  
HETATM   11  C   UNL     1     -10.903  15.326  66.489  1.00  0.00    -0.311 A  
BRANCH  10  12
HETATM   12  O   UNL     1     -12.189  13.270  66.819  1.00  0.00    -0.363 OA 
BRANCH  12  13
HETATM   13  C   UNL     1     -11.450  12.109  66.705  1.00  0.00    -0.365 A  
HETATM   14  C   UNL     1     -10.652  11.838  65.599  1.00  0.00    -0.314 A  
HETATM   15  C   UNL     1     -10.052  10.591  65.466  1.00  0.00    -0.349 A  
HETATM   16  C   UNL     1     -10.125   9.627  66.477  1.00  0.00    -0.244 A  
HETATM   17  C   UNL     1     -10.852   9.938  67.630  1.00  0.00    -0.318 A  
HETATM   18  C   UNL     1     -11.511  11.177  67.743  1.00  0.00    -0.349 A  
BRANCH  16  19
HETATM   19  N   UNL     1      -9.491   8.361  66.361  1.00  0.00    -0.212 N  
HETATM   20  H   UNL     1      -9.638   7.819  65.509  1.00  0.00     0.000 HD 
BRANCH  19  21
HETATM   21  C   UNL     1      -8.680   7.826  67.355  1.00  0.00    -0.128 C  
HETATM   22  O   UNL     1      -7.749   8.443  67.857  1.00  0.00    -0.100 OA 
BRANCH  21  23
HETATM   23  N   UNL     1      -9.009   6.533  67.719  1.00  0.00    -0.116 N  
HETATM   24  H   UNL     1      -8.846   5.784  67.045  1.00  0.00     0.000 HD 
BRANCH  23  25
HETATM   25  C   UNL     1      -9.564   6.194  68.991  1.00  0.00    -0.127 A  
HETATM   26  C   UNL     1      -9.058   5.162  69.791  1.00  0.00    -0.154 A  
HETATM   27  C   UNL     1      -9.670   4.759  70.991  1.00  0.00    -0.257 A  
HETATM   28  C   UNL     1      -9.116   3.576  71.739  1.00  0.00    -0.111 C  
HETATM   29  C   UNL     1     -10.785   5.468  71.426  1.00  0.00    -0.221 A  
HETATM   30  F   UNL     1     -10.025   2.573  71.899  1.00  0.00    -0.210 F  
HETATM   31  F   UNL     1      -8.674   3.896  72.987  1.00  0.00    -0.094 F  
HETATM   32  F   UNL     1      -8.048   2.991  71.123  1.00  0.00    -0.054 F  
HETATM   33 CL   UNL     1     -11.599   5.075  72.896  1.00  0.00    -0.317 Cl 
HETATM   34  C   UNL     1     -11.277   6.540  70.668  1.00  0.00    -0.386 A  
HETATM   35  C   UNL     1     -10.675   6.901  69.454  1.00  0.00    -0.275 A  
ENDBRANCH  23  25
ENDBRANCH  21  23
ENDBRANCH  19  21
ENDBRANCH  16  19
ENDBRANCH  12  13
ENDBRANCH  10  12
ENDBRANCH   3   6
TORSDOF 7
ENDMDL
MODEL      162
REMARK 921   NORMALIZED FREE ENERGY PREDICTED BY IDOCK:   -5.26 KCAL/MOL
REMARK 922        TOTAL FREE ENERGY PREDICTED BY IDOCK:   -9.26 KCAL/MOL
REMARK 923 INTER-LIGAND FREE ENERGY PREDICTED BY IDOCK:   -7.98 KCAL/MOL
REMARK 924 INTRA-LIGAND FREE ENERGY PREDICTED BY IDOCK:   -1.28 KCAL/MOL
REMARK 927      BINDING AFFINITY PREDICTED BY RF-SCORE:    0.00 PKD
ROOT
HETATM    1  C   UNL     1      -9.260   8.310  67.714  1.00  0.00    -0.134 C  
HETATM    2  N   UNL     1     -10.027   8.732  68.853  1.00  0.00    -0.186 N  
HETATM    3  C   UNL     1     -10.914   9.783  68.773  1.00  0.00    -0.148 C  
HETATM    4  H   UNL     1      -9.913   8.242  69.740  1.00  0.00     0.000 HD 
HETATM    5  O   UNL     1     -11.101  10.435  67.750  1.00  0.00    -0.295 OA 
ENDROOT
BRANCH   3   6
HETATM    6  C   UNL     1     -11.673  10.075  70.033  1.00  0.00    -0.175 A  
HETATM    7  N   UNL     1     -12.014   9.012  70.814  1.00  0.00    -0.225 NA 
HETATM    8  C   UNL     1     -12.756   9.293  71.910  1.00  0.00    -0.394 A  
HETATM    9  C   UNL     1     -13.206  10.565  72.240  1.00  0.00    -0.253 A  
HETATM   10  C   UNL     1     -12.859  11.622  71.406  1.00  0.00    -0.356 A  
HETATM   11  C   UNL     1     -12.030  11.383  70.311  1.00  0.00    -0.460 A  
BRANCH  10  12
HETATM   12  O   UNL     1     -13.359  12.872  71.728  1.00  0.00    -0.420 OA 
BRANCH  12  13
HETATM   13  C   UNL     1     -12.728  13.978  71.194  1.00  0.00    -0.364 A  
HETATM   14  C   UNL     1     -12.646  14.201  69.825  1.00  0.00    -0.151 A  
HETATM   15  C   UNL     1     -11.870  15.247  69.338  1.00  0.00    -0.367 A  
HETATM   16  C   UNL     1     -11.258  16.170  70.193  1.00  0.00    -0.370 A  
HETATM   17  C   UNL     1     -11.419  15.996  71.571  1.00  0.00    -0.459 A  
HETATM   18  C   UNL     1     -12.154  14.903  72.069  1.00  0.00    -0.436 A  
BRANCH  16  19
HETATM   19  N   UNL     1     -10.486  17.258  69.703  1.00  0.00    -0.248 N  
HETATM   20  H   UNL     1      -9.935  17.802  70.368  1.00  0.00     0.000 HD 
BRANCH  19  21
HETATM   21  C   UNL     1     -10.447  17.614  68.361  1.00  0.00    -0.359 C  
HETATM   22  O   UNL     1     -11.280  18.348  67.843  1.00  0.00    -0.041 OA 
BRANCH  21  23
HETATM   23  N   UNL     1      -9.394  17.058  67.658  1.00  0.00    -0.239 N  
HETATM   24  H   UNL     1      -8.564  17.629  67.495  1.00  0.00     0.000 HD 
BRANCH  23  25
HETATM   25  C   UNL     1      -9.411  15.722  67.148  1.00  0.00    -0.213 A  
HETATM   26  C   UNL     1      -8.561  14.717  67.625  1.00  0.00    -0.182 A  
HETATM   27  C   UNL     1      -8.502  13.434  67.052  1.00  0.00    -0.137 A  
HETATM   28  C   UNL     1      -7.491  12.444  67.562  1.00  0.00    -0.150 C  
HETATM   29  C   UNL     1      -9.380  13.143  66.012  1.00  0.00    -0.006 A  
HETATM   30  F   UNL     1      -6.629  12.016  66.597  1.00  0.00    -0.128 F  
HETATM   31  F   UNL     1      -8.061  11.325  68.091  1.00  0.00    -0.111 F  
HETATM   32  F   UNL     1      -6.694  12.939  68.554  1.00  0.00    -0.069 F  
HETATM   33 CL   UNL     1      -9.412  11.595  65.252  1.00  0.00    -0.210 Cl 
HETATM   34  C   UNL     1     -10.278  14.119  65.555  1.00  0.00    -0.371 A  
HETATM   35  C   UNL     1     -10.293  15.404  66.114  1.00  0.00    -0.325 A  
ENDBRANCH  23  25
ENDBRANCH  21  23
ENDBRANCH  19  21
ENDBRANCH  16  19
ENDBRANCH  12  13
ENDBRANCH  10  12
ENDBRANCH   3   6
TORSDOF 7
ENDMDL
MODEL      163
REMARK 921   NORMALIZED FREE ENERGY PREDICTED BY IDOCK:   -5.26 KCAL/MOL
REMARK 922        TOTAL FREE ENERGY PREDICTED BY IDOCK:   -9.26 KCAL/MOL
REMARK 923 INTER-LIGAND FREE ENERGY PREDICTED BY IDOCK:   -8.67 KCAL/MOL
REMARK 924 INTRA-LIGAND FREE ENERGY PREDICTED BY IDOCK:   -0.59 KCAL/MOL
REMARK 927      BINDING AFFINITY PREDICTED BY RF-SCORE:    0.00 PKD
ROOT
HETATM    1  C   UNL     1      -7.767   2.874  72.575  1.00  0.00    -0.054 C  
HETATM    2  N   UNL     1      -8.724   3.753  71.961  1.00  0.00    -0.094 N  
HETATM    3  C   UNL     1      -9.512   4.596  72.713  1.00  0.00    -0.132 C  
HETATM    4  H   UNL     1      -8.821   3.753  70.946  1.00  0.00     0.000 HD 
HETATM    5  O   UNL     1      -9.470   4.649  73.938  1.00  0.00    -0.119 OA 
ENDROOT
BRANCH   3   6
HETATM    6  C   UNL     1     -10.429   5.483  71.926  1.00  0.00    -0.225 A  
HETATM    7  N   UNL     1     -11.554   5.929  72.552  1.00  0.00    -0.303 NA 
HETATM    8  C   UNL     1     -12.398   6.672  71.800  1.00  0.00    -0.337 A  
HETATM    9  C   UNL     1     -12.199   6.955  70.455  1.00  0.00    -0.175 A  
HETATM   10  C   UNL     1     -11.052   6.463  69.842  1.00  0.00    -0.381 A  
HETATM   11  C   UNL     1     -10.120   5.761  70.605  1.00  0.00    -0.263 A  
BRANCH  10  12
HETATM   12  O   UNL     1     -10.899   6.717  68.491  1.00  0.00    -0.239 OA 
BRANCH  12  13
HETATM   13  C   UNL     1     -10.422   7.957  68.115  1.00  0.00    -0.173 A  
HETATM   14  C   UNL     1     -10.120   8.951  69.039  1.00  0.00    -0.205 A  
HETATM   15  C   UNL     1      -9.791  10.229  68.599  1.00  0.00    -0.180 A  
HETATM   16  C   UNL     1      -9.631  10.522  67.240  1.00  0.00    -0.163 A  
HETATM   17  C   UNL     1      -9.845   9.494  66.317  1.00  0.00    -0.334 A  
HETATM   18  C   UNL     1     -10.238   8.215  66.755  1.00  0.00    -0.372 A  
BRANCH  16  19
HETATM   19  N   UNL     1      -9.267  11.817  66.785  1.00  0.00    -0.188 N  
HETATM   20  H   UNL     1      -8.276  12.033  66.672  1.00  0.00     0.000 HD 
BRANCH  19  21
HETATM   21  C   UNL     1     -10.199  12.803  66.485  1.00  0.00    -0.253 C  
HETATM   22  O   UNL     1     -11.394  12.683  66.722  1.00  0.00    -0.285 OA 
BRANCH  21  23
HETATM   23  N   UNL     1      -9.660  13.927  65.885  1.00  0.00    -0.499 N  
HETATM   24  H   UNL     1      -9.443  13.888  64.889  1.00  0.00     0.000 HD 
BRANCH  23  25
HETATM   25  C   UNL     1      -9.393  15.141  66.591  1.00  0.00    -0.267 A  
HETATM   26  C   UNL     1      -9.966  16.368  66.236  1.00  0.00    -0.341 A  
HETATM   27  C   UNL     1      -9.621  17.579  66.862  1.00  0.00    -0.279 A  
HETATM   28  C   UNL     1     -10.211  18.866  66.354  1.00  0.00    -0.426 C  
HETATM   29  C   UNL     1      -8.722  17.532  67.924  1.00  0.00    -0.247 A  
HETATM   30  F   UNL     1      -9.267  19.761  65.945  1.00  0.00    -0.385 F  
HETATM   31  F   UNL     1     -10.970  19.508  67.285  1.00  0.00    -0.561 F  
HETATM   32  F   UNL     1     -11.033  18.702  65.276  1.00  0.00    -0.463 F  
HETATM   33 CL   UNL     1      -8.248  18.953  68.780  1.00  0.00    -0.373 Cl 
HETATM   34  C   UNL     1      -8.178  16.306  68.332  1.00  0.00    -0.185 A  
HETATM   35  C   UNL     1      -8.506  15.115  67.668  1.00  0.00    -0.171 A  
ENDBRANCH  23  25
ENDBRANCH  21  23
ENDBRANCH  19  21
ENDBRANCH  16  19
ENDBRANCH  12  13
ENDBRANCH  10  12
ENDBRANCH   3   6
TORSDOF 7
ENDMDL
MODEL      164
REMARK 921   NORMALIZED FREE ENERGY PREDICTED BY IDOCK:   -5.25 KCAL/MOL
REMARK 922        TOTAL FREE ENERGY PREDICTED BY IDOCK:   -9.24 KCAL/MOL
REMARK 923 INTER-LIGAND FREE ENERGY PREDICTED BY IDOCK:   -7.89 KCAL/MOL
REMARK 924 INTRA-LIGAND FREE ENERGY PREDICTED BY IDOCK:   -1.35 KCAL/MOL
REMARK 927      BINDING AFFINITY PREDICTED BY RF-SCORE:    0.00 PKD
ROOT
HETATM    1  C   UNL     1     -14.366   8.279  71.791  1.00  0.00    -0.483 C  
HETATM    2  N   UNL     1     -12.993   8.067  72.159  1.00  0.00    -0.488 N  
HETATM    3  C   UNL     1     -12.185   7.203  71.452  1.00  0.00    -0.362 C  
HETATM    4  H   UNL     1     -12.608   8.566  72.959  1.00  0.00     0.000 HD 
HETATM    5  O   UNL     1     -12.571   6.552  70.486  1.00  0.00    -0.078 OA 
ENDROOT
BRANCH   3   6
HETATM    6  C   UNL     1     -10.766   7.122  71.929  1.00  0.00    -0.216 A  
HETATM    7  N   UNL     1     -10.542   7.338  73.256  1.00  0.00    -0.351 NA 
HETATM    8  C   UNL     1      -9.249   7.327  73.650  1.00  0.00    -0.219 A  
HETATM    9  C   UNL     1      -8.173   7.154  72.788  1.00  0.00    -0.121 A  
HETATM   10  C   UNL     1      -8.438   6.961  71.437  1.00  0.00    -0.119 A  
HETATM   11  C   UNL     1      -9.762   6.888  71.005  1.00  0.00    -0.178 A  
BRANCH  10  12
HETATM   12  O   UNL     1      -7.351   6.840  70.591  1.00  0.00    -0.072 OA 
BRANCH  12  13
HETATM   13  C   UNL     1      -7.371   7.548  69.406  1.00  0.00    -0.085 A  
HETATM   14  C   UNL     1      -7.138   8.917  69.351  1.00  0.00    -0.057 A  
HETATM   15  C   UNL     1      -7.321   9.604  68.156  1.00  0.00    -0.081 A  
HETATM   16  C   UNL     1      -7.618   8.939  66.961  1.00  0.00    -0.094 A  
HETATM   17  C   UNL     1      -7.761   7.549  67.002  1.00  0.00    -0.111 A  
HETATM   18  C   UNL     1      -7.635   6.856  68.222  1.00  0.00    -0.107 A  
BRANCH  16  19
HETATM   19  N   UNL     1      -7.779   9.630  65.731  1.00  0.00    -0.104 N  
HETATM   20  H   UNL     1      -7.071  10.313  65.459  1.00  0.00     0.000 HD 
BRANCH  19  21
HETATM   21  C   UNL     1      -8.857   9.419  64.880  1.00  0.00    -0.202 C  
HETATM   22  O   UNL     1      -8.733   9.287  63.669  1.00  0.00    -0.210 OA 
BRANCH  21  23
HETATM   23  N   UNL     1     -10.084   9.382  65.518  1.00  0.00    -0.350 N  
HETATM   24  H   UNL     1     -10.603   8.504  65.520  1.00  0.00     0.000 HD 
BRANCH  23  25
HETATM   25  C   UNL     1     -10.659  10.514  66.175  1.00  0.00    -0.112 A  
HETATM   26  C   UNL     1     -11.166  11.619  65.481  1.00  0.00    -0.267 A  
HETATM   27  C   UNL     1     -11.633  12.776  66.128  1.00  0.00    -0.431 A  
HETATM   28  C   UNL     1     -12.070  13.956  65.304  1.00  0.00    -0.410 C  
HETATM   29  C   UNL     1     -11.651  12.784  67.520  1.00  0.00    -0.356 A  
HETATM   30  F   UNL     1     -11.360  15.088  65.574  1.00  0.00    -0.338 F  
HETATM   31  F   UNL     1     -13.382  14.275  65.484  1.00  0.00    -0.520 F  
HETATM   32  F   UNL     1     -11.933  13.764  63.959  1.00  0.00    -0.426 F  
HETATM   33 CL   UNL     1     -12.226  14.140  68.416  1.00  0.00    -0.295 Cl 
HETATM   34  C   UNL     1     -11.198  11.666  68.235  1.00  0.00    -0.320 A  
HETATM   35  C   UNL     1     -10.700  10.537  67.570  1.00  0.00    -0.326 A  
ENDBRANCH  23  25
ENDBRANCH  21  23
ENDBRANCH  19  21
ENDBRANCH  16  19
ENDBRANCH  12  13
ENDBRANCH  10  12
ENDBRANCH   3   6
TORSDOF 7
ENDMDL
MODEL      165
REMARK 921   NORMALIZED FREE ENERGY PREDICTED BY IDOCK:   -5.23 KCAL/MOL
REMARK 922        TOTAL FREE ENERGY PREDICTED BY IDOCK:   -9.22 KCAL/MOL
REMARK 923 INTER-LIGAND FREE ENERGY PREDICTED BY IDOCK:   -8.21 KCAL/MOL
REMARK 924 INTRA-LIGAND FREE ENERGY PREDICTED BY IDOCK:   -1.01 KCAL/MOL
REMARK 927      BINDING AFFINITY PREDICTED BY RF-SCORE:    0.00 PKD
ROOT
HETATM    1  C   UNL     1      -5.593   5.329  69.607  1.00  0.00    -0.012 C  
HETATM    2  N   UNL     1      -6.878   5.963  69.707  1.00  0.00    -0.062 N  
HETATM    3  C   UNL     1      -7.932   5.354  70.353  1.00  0.00    -0.100 C  
HETATM    4  H   UNL     1      -7.014   6.883  69.290  1.00  0.00     0.000 HD 
HETATM    5  O   UNL     1      -7.860   4.243  70.868  1.00  0.00    -0.061 OA 
ENDROOT
BRANCH   3   6
HETATM    6  C   UNL     1      -9.195   6.160  70.412  1.00  0.00    -0.153 A  
HETATM    7  N   UNL     1     -10.363   5.509  70.149  1.00  0.00    -0.260 NA 
HETATM    8  C   UNL     1     -11.480   6.271  70.142  1.00  0.00    -0.382 A  
HETATM    9  C   UNL     1     -11.487   7.645  70.340  1.00  0.00    -0.192 A  
HETATM   10  C   UNL     1     -10.274   8.280  70.581  1.00  0.00    -0.193 A  
HETATM   11  C   UNL     1      -9.111   7.517  70.675  1.00  0.00    -0.155 A  
BRANCH  10  12
HETATM   12  O   UNL     1     -10.299   9.656  70.728  1.00  0.00    -0.291 OA 
BRANCH  12  13
HETATM   13  C   UNL     1     -10.620  10.419  69.623  1.00  0.00    -0.253 A  
HETATM   14  C   UNL     1     -11.673  11.326  69.623  1.00  0.00    -0.420 A  
HETATM   15  C   UNL     1     -12.047  11.954  68.440  1.00  0.00    -0.086 A  
HETATM   16  C   UNL     1     -11.314  11.796  67.259  1.00  0.00    -0.315 A  
HETATM   17  C   UNL     1     -10.199  10.954  67.285  1.00  0.00    -0.242 A  
HETATM   18  C   UNL     1      -9.852  10.269  68.466  1.00  0.00    -0.174 A  
BRANCH  16  19
HETATM   19  N   UNL     1     -11.673  12.456  66.053  1.00  0.00    -0.408 N  
HETATM   20  H   UNL     1     -12.522  12.160  65.569  1.00  0.00     0.000 HD 
BRANCH  19  21
HETATM   21  C   UNL     1     -10.921  13.486  65.501  1.00  0.00    -0.288 C  
HETATM   22  O   UNL     1     -11.085  13.890  64.357  1.00  0.00    -0.376 OA 
BRANCH  21  23
HETATM   23  N   UNL     1      -9.964  14.007  66.353  1.00  0.00    -0.285 N  
HETATM   24  H   UNL     1      -9.183  13.410  66.627  1.00  0.00     0.000 HD 
BRANCH  23  25
HETATM   25  C   UNL     1     -10.014  15.339  66.868  1.00  0.00    -0.239 A  
HETATM   26  C   UNL     1      -9.156  16.355  66.432  1.00  0.00    -0.341 A  
HETATM   27  C   UNL     1      -9.133  17.635  67.013  1.00  0.00    -0.256 A  
HETATM   28  C   UNL     1      -8.111  18.637  66.550  1.00  0.00    -0.284 C  
HETATM   29  C   UNL     1     -10.056  17.912  68.018  1.00  0.00    -0.358 A  
HETATM   30  F   UNL     1      -7.294  19.069  67.552  1.00  0.00    -0.225 F  
HETATM   31  F   UNL     1      -8.670  19.753  66.004  1.00  0.00    -0.360 F  
HETATM   32  F   UNL     1      -7.270  18.155  65.589  1.00  0.00    -0.300 F  
HETATM   33 CL   UNL     1     -10.134  19.456  68.783  1.00  0.00    -0.520 Cl 
HETATM   34  C   UNL     1     -10.962  16.926  68.432  1.00  0.00    -0.296 A  
HETATM   35  C   UNL     1     -10.941  15.644  67.866  1.00  0.00    -0.319 A  
ENDBRANCH  23  25
ENDBRANCH  21  23
ENDBRANCH  19  21
ENDBRANCH  16  19
ENDBRANCH  12  13
ENDBRANCH  10  12
ENDBRANCH   3   6
TORSDOF 7
ENDMDL
MODEL      166
REMARK 921   NORMALIZED FREE ENERGY PREDICTED BY IDOCK:   -5.21 KCAL/MOL
REMARK 922        TOTAL FREE ENERGY PREDICTED BY IDOCK:   -9.19 KCAL/MOL
REMARK 923 INTER-LIGAND FREE ENERGY PREDICTED BY IDOCK:   -7.78 KCAL/MOL
REMARK 924 INTRA-LIGAND FREE ENERGY PREDICTED BY IDOCK:   -1.41 KCAL/MOL
REMARK 927      BINDING AFFINITY PREDICTED BY RF-SCORE:    0.00 PKD
ROOT
HETATM    1  C   UNL     1      -7.858  17.835  68.408  1.00  0.00    -0.284 C  
HETATM    2  N   UNL     1      -8.911  16.999  67.902  1.00  0.00    -0.224 N  
HETATM    3  C   UNL     1      -8.937  16.595  66.585  1.00  0.00    -0.255 C  
HETATM    4  H   UNL     1      -9.655  16.699  68.530  1.00  0.00     0.000 HD 
HETATM    5  O   UNL     1      -8.091  16.922  65.759  1.00  0.00    -0.410 OA 
ENDROOT
BRANCH   3   6
HETATM    6  C   UNL     1     -10.075  15.689  66.218  1.00  0.00    -0.299 A  
HETATM    7  N   UNL     1     -10.572  15.794  64.954  1.00  0.00    -0.534 NA 
HETATM    8  C   UNL     1     -11.641  15.015  64.670  1.00  0.00    -0.386 A  
HETATM    9  C   UNL     1     -12.259  14.175  65.587  1.00  0.00    -0.449 A  
HETATM   10  C   UNL     1     -11.739  14.111  66.874  1.00  0.00    -0.414 A  
HETATM   11  C   UNL     1     -10.590  14.839  67.183  1.00  0.00    -0.285 A  
BRANCH  10  12
HETATM   12  O   UNL     1     -12.399  13.305  67.784  1.00  0.00    -0.191 OA 
BRANCH  12  13
HETATM   13  C   UNL     1     -11.774  12.143  68.192  1.00  0.00    -0.341 A  
HETATM   14  C   UNL     1     -11.101  11.308  67.307  1.00  0.00    -0.367 A  
HETATM   15  C   UNL     1     -10.623  10.077  67.744  1.00  0.00    -0.311 A  
HETATM   16  C   UNL     1     -10.687   9.697  69.089  1.00  0.00    -0.217 A  
HETATM   17  C   UNL     1     -11.283  10.581  69.994  1.00  0.00    -0.386 A  
HETATM   18  C   UNL     1     -11.823  11.801  69.545  1.00  0.00    -0.402 A  
BRANCH  16  19
HETATM   19  N   UNL     1     -10.176   8.453  69.548  1.00  0.00    -0.202 N  
HETATM   20  H   UNL     1     -10.779   7.858  70.116  1.00  0.00     0.000 HD 
BRANCH  19  21
HETATM   21  C   UNL     1      -8.891   8.011  69.258  1.00  0.00    -0.141 C  
HETATM   22  O   UNL     1      -7.884   8.583  69.657  1.00  0.00    -0.091 OA 
BRANCH  21  23
HETATM   23  N   UNL     1      -8.848   6.875  68.470  1.00  0.00    -0.124 N  
HETATM   24  H   UNL     1      -9.037   5.973  68.908  1.00  0.00     0.000 HD 
BRANCH  23  25
HETATM   25  C   UNL     1      -8.551   6.903  67.072  1.00  0.00    -0.121 A  
HETATM   26  C   UNL     1      -8.450   8.092  66.340  1.00  0.00    -0.138 A  
HETATM   27  C   UNL     1      -8.265   8.115  64.946  1.00  0.00    -0.150 A  
HETATM   28  C   UNL     1      -8.266   9.435  64.224  1.00  0.00    -0.153 C  
HETATM   29  C   UNL     1      -8.108   6.899  64.288  1.00  0.00    -0.040 A  
HETATM   30  F   UNL     1      -9.235   9.521  63.270  1.00  0.00    -0.268 F  
HETATM   31  F   UNL     1      -7.086   9.700  63.598  1.00  0.00    -0.096 F  
HETATM   32  F   UNL     1      -8.480  10.506  65.044  1.00  0.00    -0.163 F  
HETATM   33 CL   UNL     1      -7.851   6.811  62.585  1.00  0.00    -0.105 Cl 
HETATM   34  C   UNL     1      -8.151   5.698  65.010  1.00  0.00    -0.122 A  
HETATM   35  C   UNL     1      -8.376   5.695  66.393  1.00  0.00    -0.112 A  
ENDBRANCH  23  25
ENDBRANCH  21  23
ENDBRANCH  19  21
ENDBRANCH  16  19
ENDBRANCH  12  13
ENDBRANCH  10  12
ENDBRANCH   3   6
TORSDOF 7
ENDMDL
MODEL      167
REMARK 921   NORMALIZED FREE ENERGY PREDICTED BY IDOCK:   -5.18 KCAL/MOL
REMARK 922        TOTAL FREE ENERGY PREDICTED BY IDOCK:   -9.15 KCAL/MOL
REMARK 923 INTER-LIGAND FREE ENERGY PREDICTED BY IDOCK:   -7.95 KCAL/MOL
REMARK 924 INTRA-LIGAND FREE ENERGY PREDICTED BY IDOCK:   -1.20 KCAL/MOL
REMARK 927      BINDING AFFINITY PREDICTED BY RF-SCORE:    0.00 PKD
ROOT
HETATM    1  C   UNL     1     -10.055   3.909  63.836  1.00  0.00    -0.188 C  
HETATM    2  N   UNL     1      -9.487   4.994  64.587  1.00  0.00    -0.358 N  
HETATM    3  C   UNL     1      -8.287   4.857  65.251  1.00  0.00    -0.131 C  
HETATM    4  H   UNL     1      -9.982   5.884  64.630  1.00  0.00     0.000 HD 
HETATM    5  O   UNL     1      -7.634   3.819  65.264  1.00  0.00    -0.079 OA 
ENDROOT
BRANCH   3   6
HETATM    6  C   UNL     1      -7.804   6.091  65.953  1.00  0.00    -0.106 A  
HETATM    7  N   UNL     1      -7.252   5.929  67.189  1.00  0.00    -0.074 NA 
HETATM    8  C   UNL     1      -6.886   7.062  67.829  1.00  0.00    -0.074 A  
HETATM    9  C   UNL     1      -7.078   8.341  67.322  1.00  0.00    -0.079 A  
HETATM   10  C   UNL     1      -7.666   8.469  66.069  1.00  0.00    -0.093 A  
HETATM   11  C   UNL     1      -7.985   7.322  65.345  1.00  0.00    -0.125 A  
BRANCH  10  12
HETATM   12  O   UNL     1      -7.892   9.753  65.605  1.00  0.00    -0.107 OA 
BRANCH  12  13
HETATM   13  C   UNL     1      -8.808  10.534  66.282  1.00  0.00    -0.159 A  
HETATM   14  C   UNL     1     -10.134  10.153  66.449  1.00  0.00    -0.300 A  
HETATM   15  C   UNL     1     -11.047  11.043  67.003  1.00  0.00    -0.311 A  
HETATM   16  C   UNL     1     -10.648  12.282  67.517  1.00  0.00    -0.218 A  
HETATM   17  C   UNL     1      -9.296  12.625  67.431  1.00  0.00    -0.189 A  
HETATM   18  C   UNL     1      -8.379  11.751  66.816  1.00  0.00    -0.165 A  
BRANCH  16  19
HETATM   19  N   UNL     1     -11.570  13.186  68.110  1.00  0.00    -0.317 N  
HETATM   20  H   UNL     1     -12.040  12.907  68.972  1.00  0.00     0.000 HD 
BRANCH  19  21
HETATM   21  C   UNL     1     -11.861  14.433  67.571  1.00  0.00    -0.386 C  
HETATM   22  O   UNL     1     -12.229  14.587  66.413  1.00  0.00    -0.373 OA 
BRANCH  21  23
HETATM   23  N   UNL     1     -11.686  15.486  68.451  1.00  0.00    -0.437 N  
HETATM   24  H   UNL     1     -12.344  15.586  69.224  1.00  0.00     0.000 HD 
BRANCH  23  25
HETATM   25  C   UNL     1     -10.629  16.440  68.331  1.00  0.00    -0.311 A  
HETATM   26  C   UNL     1     -10.762  17.634  67.611  1.00  0.00    -0.318 A  
HETATM   27  C   UNL     1      -9.691  18.521  67.403  1.00  0.00    -0.318 A  
HETATM   28  C   UNL     1      -9.895  19.732  66.535  1.00  0.00    -0.436 C  
HETATM   29  C   UNL     1      -8.470  18.222  68.001  1.00  0.00    -0.262 A  
HETATM   30  F   UNL     1      -9.055  19.767  65.461  1.00  0.00    -0.215 F  
HETATM   31  F   UNL     1      -9.710  20.904  67.204  1.00  0.00    -0.595 F  
HETATM   32  F   UNL     1     -11.150  19.820  66.006  1.00  0.00    -0.485 F  
HETATM   33 CL   UNL     1      -7.096  19.252  67.833  1.00  0.00    -0.265 Cl 
HETATM   34  C   UNL     1      -8.330  17.059  68.772  1.00  0.00    -0.237 A  
HETATM   35  C   UNL     1      -9.400  16.168  68.934  1.00  0.00    -0.235 A  
ENDBRANCH  23  25
ENDBRANCH  21  23
ENDBRANCH  19  21
ENDBRANCH  16  19
ENDBRANCH  12  13
ENDBRANCH  10  12
ENDBRANCH   3   6
TORSDOF 7
ENDMDL
MODEL      168
REMARK 921   NORMALIZED FREE ENERGY PREDICTED BY IDOCK:   -5.16 KCAL/MOL
REMARK 922        TOTAL FREE ENERGY PREDICTED BY IDOCK:   -9.12 KCAL/MOL
REMARK 923 INTER-LIGAND FREE ENERGY PREDICTED BY IDOCK:   -8.13 KCAL/MOL
REMARK 924 INTRA-LIGAND FREE ENERGY PREDICTED BY IDOCK:   -0.99 KCAL/MOL
REMARK 927      BINDING AFFINITY PREDICTED BY RF-SCORE:    0.00 PKD
ROOT
HETATM    1  C   UNL     1      -7.602   3.704  65.347  1.00  0.00    -0.078 C  
HETATM    2  N   UNL     1      -7.549   5.062  64.881  1.00  0.00    -0.076 N  
HETATM    3  C   UNL     1      -7.294   6.108  65.742  1.00  0.00    -0.080 C  
HETATM    4  H   UNL     1      -7.702   5.256  63.892  1.00  0.00     0.000 HD 
HETATM    5  O   UNL     1      -7.113   5.964  66.946  1.00  0.00    -0.067 OA 
ENDROOT
BRANCH   3   6
HETATM    6  C   UNL     1      -7.227   7.461  65.098  1.00  0.00    -0.066 A  
HETATM    7  N   UNL     1      -6.037   8.122  65.162  1.00  0.00    -0.045 NA 
HETATM    8  C   UNL     1      -6.020   9.367  64.635  1.00  0.00    -0.072 A  
HETATM    9  C   UNL     1      -7.131   9.997  64.089  1.00  0.00    -0.126 A  
HETATM   10  C   UNL     1      -8.334   9.301  64.062  1.00  0.00    -0.178 A  
HETATM   11  C   UNL     1      -8.372   7.986  64.524  1.00  0.00    -0.048 A  
BRANCH  10  12
HETATM   12  O   UNL     1      -9.438   9.965  63.557  1.00  0.00    -0.266 OA 
BRANCH  12  13
HETATM   13  C   UNL     1     -10.210  10.698  64.437  1.00  0.00    -0.330 A  
HETATM   14  C   UNL     1     -10.919  11.828  64.045  1.00  0.00    -0.451 A  
HETATM   15  C   UNL     1     -11.554  12.613  65.000  1.00  0.00    -0.384 A  
HETATM   16  C   UNL     1     -11.609  12.236  66.346  1.00  0.00    -0.383 A  
HETATM   17  C   UNL     1     -10.973  11.049  66.722  1.00  0.00    -0.279 A  
HETATM   18  C   UNL     1     -10.277  10.282  65.769  1.00  0.00    -0.289 A  
BRANCH  16  19
HETATM   19  N   UNL     1     -12.281  13.019  67.324  1.00  0.00    -0.230 N  
HETATM   20  H   UNL     1     -13.293  12.929  67.408  1.00  0.00     0.000 HD 
BRANCH  19  21
HETATM   21  C   UNL     1     -11.620  13.902  68.170  1.00  0.00    -0.335 C  
HETATM   22  O   UNL     1     -11.024  13.538  69.176  1.00  0.00    -0.239 OA 
BRANCH  21  23
HETATM   23  N   UNL     1     -11.706  15.227  67.784  1.00  0.00    -0.347 N  
HETATM   24  H   UNL     1     -12.628  15.660  67.740  1.00  0.00     0.000 HD 
BRANCH  23  25
HETATM   25  C   UNL     1     -10.566  16.019  67.443  1.00  0.00    -0.316 A  
HETATM   26  C   UNL     1     -10.365  17.313  67.937  1.00  0.00    -0.360 A  
HETATM   27  C   UNL     1      -9.301  18.131  67.518  1.00  0.00    -0.258 A  
HETATM   28  C   UNL     1      -9.215  19.546  68.025  1.00  0.00    -0.334 C  
HETATM   29  C   UNL     1      -8.376  17.595  66.627  1.00  0.00    -0.260 A  
HETATM   30  F   UNL     1      -9.237  20.472  67.026  1.00  0.00    -0.452 F  
HETATM   31  F   UNL     1      -8.084  19.785  68.745  1.00  0.00    -0.373 F  
HETATM   32  F   UNL     1     -10.243  19.893  68.853  1.00  0.00    -0.504 F  
HETATM   33 CL   UNL     1      -7.019  18.500  66.067  1.00  0.00    -0.293 Cl 
HETATM   34  C   UNL     1      -8.528  16.281  66.162  1.00  0.00    -0.313 A  
HETATM   35  C   UNL     1      -9.618  15.496  66.562  1.00  0.00    -0.295 A  
ENDBRANCH  23  25
ENDBRANCH  21  23
ENDBRANCH  19  21
ENDBRANCH  16  19
ENDBRANCH  12  13
ENDBRANCH  10  12
ENDBRANCH   3   6
TORSDOF 7
ENDMDL
MODEL      169
REMARK 921   NORMALIZED FREE ENERGY PREDICTED BY IDOCK:   -5.14 KCAL/MOL
REMARK 922        TOTAL FREE ENERGY PREDICTED BY IDOCK:   -9.09 KCAL/MOL
REMARK 923 INTER-LIGAND FREE ENERGY PREDICTED BY IDOCK:   -8.50 KCAL/MOL
REMARK 924 INTRA-LIGAND FREE ENERGY PREDICTED BY IDOCK:   -0.59 KCAL/MOL
REMARK 927      BINDING AFFINITY PREDICTED BY RF-SCORE:    0.00 PKD
ROOT
HETATM    1  C   UNL     1     -13.502  12.394  72.136  1.00  0.00    -0.378 C  
HETATM    2  N   UNL     1     -12.547  11.559  71.462  1.00  0.00    -0.303 N  
HETATM    3  C   UNL     1     -12.576  10.187  71.589  1.00  0.00    -0.434 C  
HETATM    4  H   UNL     1     -11.834  11.990  70.875  1.00  0.00     0.000 HD 
HETATM    5  O   UNL     1     -13.390   9.589  72.285  1.00  0.00    -0.438 OA 
ENDROOT
BRANCH   3   6
HETATM    6  C   UNL     1     -11.544   9.450  70.789  1.00  0.00    -0.298 A  
HETATM    7  N   UNL     1     -11.049   8.298  71.321  1.00  0.00    -0.244 NA 
HETATM    8  C   UNL     1     -10.071   7.688  70.613  1.00  0.00    -0.187 A  
HETATM    9  C   UNL     1      -9.537   8.188  69.432  1.00  0.00    -0.167 A  
HETATM   10  C   UNL     1     -10.050   9.379  68.931  1.00  0.00    -0.190 A  
HETATM   11  C   UNL     1     -11.112   9.995  69.591  1.00  0.00    -0.300 A  
BRANCH  10  12
HETATM   12  O   UNL     1      -9.470   9.882  67.780  1.00  0.00    -0.140 OA 
BRANCH  12  13
HETATM   13  C   UNL     1      -9.645  11.223  67.501  1.00  0.00    -0.170 A  
HETATM   14  C   UNL     1      -8.847  12.212  68.065  1.00  0.00    -0.181 A  
HETATM   15  C   UNL     1      -9.163  13.552  67.870  1.00  0.00    -0.211 A  
HETATM   16  C   UNL     1     -10.197  13.948  67.015  1.00  0.00    -0.254 A  
HETATM   17  C   UNL     1     -10.940  12.951  66.376  1.00  0.00    -0.310 A  
HETATM   18  C   UNL     1     -10.662  11.592  66.618  1.00  0.00    -0.311 A  
BRANCH  16  19
HETATM   19  N   UNL     1     -10.509  15.316  66.788  1.00  0.00    -0.287 N  
HETATM   20  H   UNL     1     -10.182  15.754  65.926  1.00  0.00     0.000 HD 
BRANCH  19  21
HETATM   21  C   UNL     1     -11.238  16.085  67.687  1.00  0.00    -0.183 C  
HETATM   22  O   UNL     1     -11.734  15.624  68.708  1.00  0.00    -0.363 OA 
BRANCH  21  23
HETATM   23  N   UNL     1     -11.366  17.413  67.322  1.00  0.00     0.350 N  
HETATM   24  H   UNL     1     -12.299  17.773  67.122  1.00  0.00     0.000 HD 
BRANCH  23  25
HETATM   25  C   UNL     1     -10.254  18.305  67.212  1.00  0.00    -0.373 A  
HETATM   26  C   UNL     1      -8.984  17.889  66.796  1.00  0.00    -0.272 A  
HETATM   27  C   UNL     1      -7.867  18.742  66.789  1.00  0.00    -0.255 A  
HETATM   28  C   UNL     1      -6.517  18.187  66.422  1.00  0.00    -0.213 C  
HETATM   29  C   UNL     1      -8.059  20.073  67.149  1.00  0.00    -0.320 A  
HETATM   30  F   UNL     1      -5.592  18.334  67.412  1.00  0.00    -0.137 F  
HETATM   31  F   UNL     1      -5.987  18.772  65.311  1.00  0.00    -0.212 F  
HETATM   32  F   UNL     1      -6.533  16.850  66.146  1.00  0.00    -0.230 F  
HETATM   33 CL   UNL     1      -6.765  21.213  67.153  1.00  0.00    -0.422 Cl 
HETATM   34  C   UNL     1      -9.335  20.525  67.517  1.00  0.00    -0.482 A  
HETATM   35  C   UNL     1     -10.428  19.648  67.553  1.00  0.00    -0.589 A  
ENDBRANCH  23  25
ENDBRANCH  21  23
ENDBRANCH  19  21
ENDBRANCH  16  19
ENDBRANCH  12  13
ENDBRANCH  10  12
ENDBRANCH   3   6
TORSDOF 7
ENDMDL
MODEL      170
REMARK 921   NORMALIZED FREE ENERGY PREDICTED BY IDOCK:   -5.14 KCAL/MOL
REMARK 922        TOTAL FREE ENERGY PREDICTED BY IDOCK:   -9.09 KCAL/MOL
REMARK 923 INTER-LIGAND FREE ENERGY PREDICTED BY IDOCK:   -8.21 KCAL/MOL
REMARK 924 INTRA-LIGAND FREE ENERGY PREDICTED BY IDOCK:   -0.88 KCAL/MOL
REMARK 927      BINDING AFFINITY PREDICTED BY RF-SCORE:    0.00 PKD
ROOT
HETATM    1  C   UNL     1      -8.682   4.171  74.364  1.00  0.00    -0.095 C  
HETATM    2  N   UNL     1      -9.113   5.289  73.572  1.00  0.00    -0.128 N  
HETATM    3  C   UNL     1     -10.053   5.144  72.575  1.00  0.00    -0.180 C  
HETATM    4  H   UNL     1      -8.716   6.211  73.752  1.00  0.00     0.000 HD 
HETATM    5  O   UNL     1     -10.571   4.071  72.283  1.00  0.00    -0.107 OA 
ENDROOT
BRANCH   3   6
HETATM    6  C   UNL     1     -10.432   6.411  71.867  1.00  0.00    -0.209 A  
HETATM    7  N   UNL     1     -11.069   7.367  72.600  1.00  0.00    -0.306 NA 
HETATM    8  C   UNL     1     -11.460   8.471  71.924  1.00  0.00    -0.335 A  
HETATM    9  C   UNL     1     -11.288   8.650  70.557  1.00  0.00    -0.241 A  
HETATM   10  C   UNL     1     -10.656   7.642  69.837  1.00  0.00    -0.235 A  
HETATM   11  C   UNL     1     -10.168   6.524  70.512  1.00  0.00    -0.224 A  
BRANCH  10  12
HETATM   12  O   UNL     1     -10.539   7.821  68.470  1.00  0.00    -0.189 OA 
BRANCH  12  13
HETATM   13  C   UNL     1      -9.962   8.991  68.018  1.00  0.00    -0.176 A  
HETATM   14  C   UNL     1      -8.688   9.392  68.401  1.00  0.00    -0.124 A  
HETATM   15  C   UNL     1      -8.218  10.649  68.038  1.00  0.00    -0.113 A  
HETATM   16  C   UNL     1      -8.945  11.490  67.187  1.00  0.00    -0.166 A  
HETATM   17  C   UNL     1     -10.188  11.045  66.729  1.00  0.00    -0.272 A  
HETATM   18  C   UNL     1     -10.693   9.797  67.142  1.00  0.00    -0.273 A  
BRANCH  16  19
HETATM   19  N   UNL     1      -8.459  12.765  66.790  1.00  0.00    -0.397 N  
HETATM   20  H   UNL     1      -7.619  12.808  66.213  1.00  0.00     0.000 HD 
BRANCH  19  21
HETATM   21  C   UNL     1      -9.078  13.956  67.150  1.00  0.00    -0.239 C  
HETATM   22  O   UNL     1      -9.578  14.139  68.253  1.00  0.00    -0.214 OA 
BRANCH  21  23
HETATM   23  N   UNL     1      -9.091  14.911  66.150  1.00  0.00    -0.484 N  
HETATM   24  H   UNL     1      -9.425  14.641  65.225  1.00  0.00     0.000 HD 
BRANCH  23  25
HETATM   25  C   UNL     1      -8.659  16.260  66.349  1.00  0.00    -0.326 A  
HETATM   26  C   UNL     1      -9.543  17.345  66.368  1.00  0.00    -0.291 A  
HETATM   27  C   UNL     1      -9.108  18.679  66.456  1.00  0.00    -0.317 A  
HETATM   28  C   UNL     1     -10.119  19.791  66.371  1.00  0.00    -0.491 C  
HETATM   29  C   UNL     1      -7.744  18.914  66.600  1.00  0.00    -0.248 A  
HETATM   30  F   UNL     1      -9.884  20.647  65.337  1.00  0.00    -0.289 F  
HETATM   31  F   UNL     1     -10.166  20.555  67.498  1.00  0.00    -0.533 F  
HETATM   32  F   UNL     1     -11.398  19.353  66.186  1.00  0.00    -0.217 F  
HETATM   33 CL   UNL     1      -7.103  20.509  66.742  1.00  0.00    -0.320 Cl 
HETATM   34  C   UNL     1      -6.846  17.838  66.638  1.00  0.00    -0.242 A  
HETATM   35  C   UNL     1      -7.297  16.517  66.509  1.00  0.00    -0.229 A  
ENDBRANCH  23  25
ENDBRANCH  21  23
ENDBRANCH  19  21
ENDBRANCH  16  19
ENDBRANCH  12  13
ENDBRANCH  10  12
ENDBRANCH   3   6
TORSDOF 7
ENDMDL
MODEL      171
REMARK 921   NORMALIZED FREE ENERGY PREDICTED BY IDOCK:   -5.14 KCAL/MOL
REMARK 922        TOTAL FREE ENERGY PREDICTED BY IDOCK:   -9.09 KCAL/MOL
REMARK 923 INTER-LIGAND FREE ENERGY PREDICTED BY IDOCK:   -7.60 KCAL/MOL
REMARK 924 INTRA-LIGAND FREE ENERGY PREDICTED BY IDOCK:   -1.50 KCAL/MOL
REMARK 927      BINDING AFFINITY PREDICTED BY RF-SCORE:    0.00 PKD
ROOT
HETATM    1  C   UNL     1     -10.901   4.735  72.970  1.00  0.00    -0.256 C  
HETATM    2  N   UNL     1     -11.655   5.875  72.526  1.00  0.00    -0.400 N  
HETATM    3  C   UNL     1     -11.172   7.157  72.672  1.00  0.00    -0.293 C  
HETATM    4  H   UNL     1     -12.566   5.731  72.093  1.00  0.00     0.000 HD 
HETATM    5  O   UNL     1     -10.094   7.419  73.194  1.00  0.00    -0.230 OA 
ENDROOT
BRANCH   3   6
HETATM    6  C   UNL     1     -12.054   8.237  72.120  1.00  0.00    -0.367 A  
HETATM    7  N   UNL     1     -13.391   7.979  72.060  1.00  0.00    -0.281 NA 
HETATM    8  C   UNL     1     -14.157   8.941  71.496  1.00  0.00    -0.280 A  
HETATM    9  C   UNL     1     -13.656  10.118  70.956  1.00  0.00    -0.084 A  
HETATM   10  C   UNL     1     -12.284  10.337  71.013  1.00  0.00    -0.384 A  
HETATM   11  C   UNL     1     -11.472   9.405  71.657  1.00  0.00    -0.463 A  
BRANCH  10  12
HETATM   12  O   UNL     1     -11.803  11.494  70.426  1.00  0.00    -0.346 OA 
BRANCH  12  13
HETATM   13  C   UNL     1     -11.051  11.370  69.275  1.00  0.00    -0.254 A  
HETATM   14  C   UNL     1      -9.724  10.956  69.291  1.00  0.00    -0.087 A  
HETATM   15  C   UNL     1      -8.971  10.996  68.124  1.00  0.00    -0.152 A  
HETATM   16  C   UNL     1      -9.541  11.329  66.890  1.00  0.00    -0.191 A  
HETATM   17  C   UNL     1     -10.900  11.656  66.862  1.00  0.00    -0.322 A  
HETATM   18  C   UNL     1     -11.652  11.675  68.052  1.00  0.00    -0.383 A  
BRANCH  16  19
HETATM   19  N   UNL     1      -8.785  11.345  65.687  1.00  0.00    -0.378 N  
HETATM   20  H   UNL     1      -7.918  11.883  65.664  1.00  0.00     0.000 HD 
BRANCH  19  21
HETATM   21  C   UNL     1      -9.171  10.662  64.541  1.00  0.00    -0.231 C  
HETATM   22  O   UNL     1      -9.186  11.179  63.431  1.00  0.00    -0.231 OA 
BRANCH  21  23
HETATM   23  N   UNL     1      -9.549   9.350  64.764  1.00  0.00    -0.425 N  
HETATM   24  H   UNL     1     -10.318   8.967  64.214  1.00  0.00     0.000 HD 
BRANCH  23  25
HETATM   25  C   UNL     1      -8.916   8.506  65.728  1.00  0.00    -0.182 A  
HETATM   26  C   UNL     1      -9.609   7.911  66.789  1.00  0.00    -0.278 A  
HETATM   27  C   UNL     1      -8.969   7.169  67.797  1.00  0.00    -0.122 A  
HETATM   28  C   UNL     1      -9.776   6.647  68.954  1.00  0.00    -0.135 C  
HETATM   29  C   UNL     1      -7.596   6.967  67.686  1.00  0.00    -0.110 A  
HETATM   30  F   UNL     1      -9.340   7.108  70.160  1.00  0.00    -0.156 F  
HETATM   31  F   UNL     1      -9.768   5.287  69.037  1.00  0.00    -0.152 F  
HETATM   32  F   UNL     1     -11.096   6.991  68.899  1.00  0.00    -0.218 F  
HETATM   33 CL   UNL     1      -6.713   6.052  68.852  1.00  0.00    -0.058 Cl 
HETATM   34  C   UNL     1      -6.890   7.508  66.602  1.00  0.00    -0.066 A  
HETATM   35  C   UNL     1      -7.542   8.278  65.629  1.00  0.00    -0.083 A  
ENDBRANCH  23  25
ENDBRANCH  21  23
ENDBRANCH  19  21
ENDBRANCH  16  19
ENDBRANCH  12  13
ENDBRANCH  10  12
ENDBRANCH   3   6
TORSDOF 7
ENDMDL
MODEL      172
REMARK 921   NORMALIZED FREE ENERGY PREDICTED BY IDOCK:   -5.14 KCAL/MOL
REMARK 922        TOTAL FREE ENERGY PREDICTED BY IDOCK:   -9.09 KCAL/MOL
REMARK 923 INTER-LIGAND FREE ENERGY PREDICTED BY IDOCK:   -8.08 KCAL/MOL
REMARK 924 INTRA-LIGAND FREE ENERGY PREDICTED BY IDOCK:   -1.02 KCAL/MOL
REMARK 927      BINDING AFFINITY PREDICTED BY RF-SCORE:    0.00 PKD
ROOT
HETATM    1  C   UNL     1      -5.176   7.964  63.006  1.00  0.00    -0.050 C  
HETATM    2  N   UNL     1      -5.834   7.284  64.087  1.00  0.00    -0.037 N  
HETATM    3  C   UNL     1      -6.923   6.469  63.867  1.00  0.00    -0.047 C  
HETATM    4  H   UNL     1      -5.487   7.407  65.038  1.00  0.00     0.000 HD 
HETATM    5  O   UNL     1      -7.412   6.278  62.759  1.00  0.00    -0.055 OA 
ENDROOT
BRANCH   3   6
HETATM    6  C   UNL     1      -7.471   5.794  65.089  1.00  0.00    -0.078 A  
HETATM    7  N   UNL     1      -6.727   4.791  65.633  1.00  0.00    -0.054 NA 
HETATM    8  C   UNL     1      -7.274   4.154  66.693  1.00  0.00    -0.072 A  
HETATM    9  C   UNL     1      -8.533   4.436  67.207  1.00  0.00    -0.104 A  
HETATM   10  C   UNL     1      -9.275   5.449  66.611  1.00  0.00    -0.132 A  
HETATM   11  C   UNL     1      -8.712   6.182  65.567  1.00  0.00    -0.105 A  
BRANCH  10  12
HETATM   12  O   UNL     1     -10.545   5.680  67.108  1.00  0.00    -0.245 OA 
BRANCH  12  13
HETATM   13  C   UNL     1     -10.666   6.484  68.224  1.00  0.00    -0.278 A  
HETATM   14  C   UNL     1     -11.113   6.000  69.448  1.00  0.00    -0.445 A  
HETATM   15  C   UNL     1     -11.361   6.881  70.494  1.00  0.00    -0.374 A  
HETATM   16  C   UNL     1     -11.058   8.244  70.397  1.00  0.00    -0.235 A  
HETATM   17  C   UNL     1     -10.522   8.713  69.194  1.00  0.00    -0.223 A  
HETATM   18  C   UNL     1     -10.325   7.834  68.112  1.00  0.00    -0.248 A  
BRANCH  16  19
HETATM   19  N   UNL     1     -11.283   9.147  71.470  1.00  0.00    -0.335 N  
HETATM   20  H   UNL     1     -10.475   9.554  71.942  1.00  0.00     0.000 HD 
BRANCH  19  21
HETATM   21  C   UNL     1     -12.554   9.501  71.908  1.00  0.00    -0.396 C  
HETATM   22  O   UNL     1     -13.066   9.029  72.915  1.00  0.00    -0.334 OA 
BRANCH  21  23
HETATM   23  N   UNL     1     -13.194  10.423  71.100  1.00  0.00    -0.358 N  
HETATM   24  H   UNL     1     -13.818  10.079  70.370  1.00  0.00     0.000 HD 
BRANCH  23  25
HETATM   25  C   UNL     1     -13.023  11.836  71.236  1.00  0.00    -0.254 A  
HETATM   26  C   UNL     1     -12.350  12.615  70.288  1.00  0.00    -0.269 A  
HETATM   27  C   UNL     1     -12.089  13.985  70.474  1.00  0.00    -0.424 A  
HETATM   28  C   UNL     1     -11.273  14.725  69.450  1.00  0.00    -0.284 C  
HETATM   29  C   UNL     1     -12.587  14.594  71.622  1.00  0.00    -0.337 A  
HETATM   30  F   UNL     1     -10.142  15.282  69.970  1.00  0.00    -0.271 F  
HETATM   31  F   UNL     1     -11.960  15.739  68.854  1.00  0.00    -0.370 F  
HETATM   32  F   UNL     1     -10.840  13.937  68.423  1.00  0.00    -0.229 F  
HETATM   33 CL   UNL     1     -12.349  16.273  71.939  1.00  0.00    -0.405 Cl 
HETATM   34  C   UNL     1     -13.313  13.844  72.559  1.00  0.00    -0.656 A  
HETATM   35  C   UNL     1     -13.527  12.471  72.373  1.00  0.00    -0.372 A  
ENDBRANCH  23  25
ENDBRANCH  21  23
ENDBRANCH  19  21
ENDBRANCH  16  19
ENDBRANCH  12  13
ENDBRANCH  10  12
ENDBRANCH   3   6
TORSDOF 7
ENDMDL
MODEL      173
REMARK 921   NORMALIZED FREE ENERGY PREDICTED BY IDOCK:   -5.13 KCAL/MOL
REMARK 922        TOTAL FREE ENERGY PREDICTED BY IDOCK:   -9.08 KCAL/MOL
REMARK 923 INTER-LIGAND FREE ENERGY PREDICTED BY IDOCK:   -8.11 KCAL/MOL
REMARK 924 INTRA-LIGAND FREE ENERGY PREDICTED BY IDOCK:   -0.97 KCAL/MOL
REMARK 927      BINDING AFFINITY PREDICTED BY RF-SCORE:    0.00 PKD
ROOT
HETATM    1  C   UNL     1      -8.721  10.343  62.976  1.00  0.00    -0.206 C  
HETATM    2  N   UNL     1      -9.240  11.208  63.998  1.00  0.00    -0.359 N  
HETATM    3  C   UNL     1     -10.406  11.920  63.814  1.00  0.00    -0.415 C  
HETATM    4  H   UNL     1      -8.736  11.299  64.880  1.00  0.00     0.000 HD 
HETATM    5  O   UNL     1     -11.067  11.881  62.781  1.00  0.00     0.108 OA 
ENDROOT
BRANCH   3   6
HETATM    6  C   UNL     1     -10.842  12.744  64.988  1.00  0.00    -0.292 A  
HETATM    7  N   UNL     1     -11.568  13.867  64.725  1.00  0.00    -0.357 NA 
HETATM    8  C   UNL     1     -11.891  14.629  65.794  1.00  0.00    -0.274 A  
HETATM    9  C   UNL     1     -11.496  14.352  67.097  1.00  0.00    -0.379 A  
HETATM   10  C   UNL     1     -10.736  13.211  67.324  1.00  0.00    -0.254 A  
HETATM   11  C   UNL     1     -10.449  12.359  66.259  1.00  0.00    -0.271 A  
BRANCH  10  12
HETATM   12  O   UNL     1     -10.313  12.981  68.621  1.00  0.00    -0.241 OA 
BRANCH  12  13
HETATM   13  C   UNL     1     -10.613  11.761  69.193  1.00  0.00    -0.069 A  
HETATM   14  C   UNL     1      -9.744  10.677  69.139  1.00  0.00    -0.205 A  
HETATM   15  C   UNL     1     -10.159   9.432  69.596  1.00  0.00    -0.218 A  
HETATM   16  C   UNL     1     -11.394   9.254  70.229  1.00  0.00    -0.203 A  
HETATM   17  C   UNL     1     -12.229  10.367  70.365  1.00  0.00    -0.389 A  
HETATM   18  C   UNL     1     -11.837  11.617  69.850  1.00  0.00    -0.434 A  
BRANCH  16  19
HETATM   19  N   UNL     1     -11.815   7.990  70.724  1.00  0.00    -0.438 N  
HETATM   20  H   UNL     1     -11.536   7.150  70.215  1.00  0.00     0.000 HD 
BRANCH  19  21
HETATM   21  C   UNL     1     -12.588   7.845  71.870  1.00  0.00    -0.319 C  
HETATM   22  O   UNL     1     -13.810   7.910  71.860  1.00  0.00    -0.352 OA 
BRANCH  21  23
HETATM   23  N   UNL     1     -11.855   7.634  73.024  1.00  0.00    -0.598 N  
HETATM   24  H   UNL     1     -12.020   8.247  73.822  1.00  0.00     0.000 HD 
BRANCH  23  25
HETATM   25  C   UNL     1     -10.878   6.598  73.152  1.00  0.00    -0.269 A  
HETATM   26  C   UNL     1     -11.201   5.237  73.094  1.00  0.00    -0.382 A  
HETATM   27  C   UNL     1     -10.259   4.220  73.327  1.00  0.00    -0.216 A  
HETATM   28  C   UNL     1     -10.711   2.785  73.342  1.00  0.00    -0.182 C  
HETATM   29  C   UNL     1      -8.938   4.594  73.557  1.00  0.00    -0.104 A  
HETATM   30  F   UNL     1     -10.458   2.158  74.526  1.00  0.00    -0.149 F  
HETATM   31  F   UNL     1     -10.120   2.031  72.374  1.00  0.00    -0.177 F  
HETATM   32  F   UNL     1     -12.053   2.633  73.141  1.00  0.00    -0.082 F  
HETATM   33 CL   UNL     1      -7.696   3.428  73.830  1.00  0.00    -0.065 Cl 
HETATM   34  C   UNL     1      -8.582   5.950  73.566  1.00  0.00    -0.119 A  
HETATM   35  C   UNL     1      -9.544   6.949  73.369  1.00  0.00    -0.202 A  
ENDBRANCH  23  25
ENDBRANCH  21  23
ENDBRANCH  19  21
ENDBRANCH  16  19
ENDBRANCH  12  13
ENDBRANCH  10  12
ENDBRANCH   3   6
TORSDOF 7
ENDMDL
MODEL      174
REMARK 921   NORMALIZED FREE ENERGY PREDICTED BY IDOCK:   -5.13 KCAL/MOL
REMARK 922        TOTAL FREE ENERGY PREDICTED BY IDOCK:   -9.07 KCAL/MOL
REMARK 923 INTER-LIGAND FREE ENERGY PREDICTED BY IDOCK:   -6.93 KCAL/MOL
REMARK 924 INTRA-LIGAND FREE ENERGY PREDICTED BY IDOCK:   -2.14 KCAL/MOL
REMARK 927      BINDING AFFINITY PREDICTED BY RF-SCORE:    0.00 PKD
ROOT
HETATM    1  C   UNL     1     -10.464   8.206  67.862  1.00  0.00    -0.197 C  
HETATM    2  N   UNL     1      -9.230   8.752  68.355  1.00  0.00    -0.138 N  
HETATM    3  C   UNL     1      -9.207   9.648  69.402  1.00  0.00    -0.189 C  
HETATM    4  H   UNL     1      -8.351   8.471  67.920  1.00  0.00     0.000 HD 
HETATM    5  O   UNL     1     -10.217  10.050  69.971  1.00  0.00    -0.249 OA 
ENDROOT
BRANCH   3   6
HETATM    6  C   UNL     1      -7.841  10.093  69.831  1.00  0.00    -0.151 A  
HETATM    7  N   UNL     1      -7.290   9.464  70.907  1.00  0.00    -0.250 NA 
HETATM    8  C   UNL     1      -6.088   9.928  71.316  1.00  0.00     0.036 A  
HETATM    9  C   UNL     1      -5.431  11.006  70.736  1.00  0.00    -0.124 A  
HETATM   10  C   UNL     1      -6.034  11.639  69.655  1.00  0.00    -0.106 A  
HETATM   11  C   UNL     1      -7.236  11.139  69.156  1.00  0.00    -0.123 A  
BRANCH  10  12
HETATM   12  O   UNL     1      -5.385  12.740  69.124  1.00  0.00    -0.068 OA 
BRANCH  12  13
HETATM   13  C   UNL     1      -6.142  13.855  68.825  1.00  0.00    -0.086 A  
HETATM   14  C   UNL     1      -6.431  14.233  67.519  1.00  0.00    -0.064 A  
HETATM   15  C   UNL     1      -7.065  15.445  67.272  1.00  0.00    -0.206 A  
HETATM   16  C   UNL     1      -7.539  16.254  68.311  1.00  0.00    -0.153 A  
HETATM   17  C   UNL     1      -7.329  15.825  69.625  1.00  0.00    -0.118 A  
HETATM   18  C   UNL     1      -6.633  14.628  69.880  1.00  0.00    -0.167 A  
BRANCH  16  19
HETATM   19  N   UNL     1      -8.213  17.480  68.067  1.00  0.00    -0.232 N  
HETATM   20  H   UNL     1      -7.659  18.333  67.982  1.00  0.00     0.000 HD 
BRANCH  19  21
HETATM   21  C   UNL     1      -9.594  17.572  67.937  1.00  0.00    -0.277 C  
HETATM   22  O   UNL     1     -10.338  17.791  68.884  1.00  0.00    -0.368 OA 
BRANCH  21  23
HETATM   23  N   UNL     1     -10.055  17.383  66.646  1.00  0.00    -0.305 N  
HETATM   24  H   UNL     1     -10.000  18.164  65.992  1.00  0.00     0.000 HD 
BRANCH  23  25
HETATM   25  C   UNL     1     -10.604  16.146  66.184  1.00  0.00    -0.283 A  
HETATM   26  C   UNL     1     -10.667  14.998  66.982  1.00  0.00    -0.304 A  
HETATM   27  C   UNL     1     -11.108  13.755  66.494  1.00  0.00    -0.309 A  
HETATM   28  C   UNL     1     -11.051  12.549  67.392  1.00  0.00    -0.272 C  
HETATM   29  C   UNL     1     -11.562  13.693  65.180  1.00  0.00    -0.319 A  
HETATM   30  F   UNL     1     -10.279  11.545  66.889  1.00  0.00    -0.221 F  
HETATM   31  F   UNL     1     -12.278  12.006  67.631  1.00  0.00    -0.314 F  
HETATM   32  F   UNL     1     -10.532  12.810  68.627  1.00  0.00    -0.232 F  
HETATM   33 CL   UNL     1     -12.148  12.226  64.486  1.00  0.00    -0.466 Cl 
HETATM   34  C   UNL     1     -11.558  14.844  64.380  1.00  0.00    -0.296 A  
HETATM   35  C   UNL     1     -11.078  16.065  64.874  1.00  0.00    -0.381 A  
ENDBRANCH  23  25
ENDBRANCH  21  23
ENDBRANCH  19  21
ENDBRANCH  16  19
ENDBRANCH  12  13
ENDBRANCH  10  12
ENDBRANCH   3   6
TORSDOF 7
ENDMDL
MODEL      175
REMARK 921   NORMALIZED FREE ENERGY PREDICTED BY IDOCK:   -5.12 KCAL/MOL
REMARK 922        TOTAL FREE ENERGY PREDICTED BY IDOCK:   -9.07 KCAL/MOL
REMARK 923 INTER-LIGAND FREE ENERGY PREDICTED BY IDOCK:   -7.61 KCAL/MOL
REMARK 924 INTRA-LIGAND FREE ENERGY PREDICTED BY IDOCK:   -1.46 KCAL/MOL
REMARK 927      BINDING AFFINITY PREDICTED BY RF-SCORE:    0.00 PKD
ROOT
HETATM    1  C   UNL     1     -10.173   7.757  68.602  1.00  0.00    -0.201 C  
HETATM    2  N   UNL     1      -8.960   8.468  68.898  1.00  0.00    -0.145 N  
HETATM    3  C   UNL     1      -8.920   9.450  69.864  1.00  0.00    -0.200 C  
HETATM    4  H   UNL     1      -8.110   8.240  68.383  1.00  0.00     0.000 HD 
HETATM    5  O   UNL     1      -9.898   9.796  70.519  1.00  0.00    -0.260 OA 
ENDROOT
BRANCH   3   6
HETATM    6  C   UNL     1      -7.573  10.069  70.088  1.00  0.00    -0.155 A  
HETATM    7  N   UNL     1      -6.808   9.550  71.090  1.00  0.00    -0.293 NA 
HETATM    8  C   UNL     1      -5.627  10.168  71.316  1.00  0.00    -0.044 A  
HETATM    9  C   UNL     1      -5.192  11.294  70.629  1.00  0.00    -0.113 A  
HETATM   10  C   UNL     1      -6.009  11.811  69.630  1.00  0.00    -0.112 A  
HETATM   11  C   UNL     1      -7.198  11.154  69.314  1.00  0.00    -0.112 A  
BRANCH  10  12
HETATM   12  O   UNL     1      -5.578  12.960  68.992  1.00  0.00    -0.067 OA 
BRANCH  12  13
HETATM   13  C   UNL     1      -6.524  13.909  68.659  1.00  0.00    -0.092 A  
HETATM   14  C   UNL     1      -7.148  13.938  67.418  1.00  0.00    -0.091 A  
HETATM   15  C   UNL     1      -7.977  15.003  67.083  1.00  0.00    -0.238 A  
HETATM   16  C   UNL     1      -8.307  15.999  68.008  1.00  0.00    -0.162 A  
HETATM   17  C   UNL     1      -7.750  15.917  69.288  1.00  0.00    -0.222 A  
HETATM   18  C   UNL     1      -6.862  14.873  69.612  1.00  0.00    -0.181 A  
BRANCH  16  19
HETATM   19  N   UNL     1      -9.175  17.075  67.683  1.00  0.00    -0.232 N  
HETATM   20  H   UNL     1      -9.041  17.559  66.795  1.00  0.00     0.000 HD 
BRANCH  19  21
HETATM   21  C   UNL     1     -10.201  17.500  68.520  1.00  0.00    -0.378 C  
HETATM   22  O   UNL     1     -10.115  18.499  69.223  1.00  0.00    -0.279 OA 
BRANCH  21  23
HETATM   23  N   UNL     1     -11.321  16.689  68.498  1.00  0.00    -0.252 N  
HETATM   24  H   UNL     1     -12.224  17.104  68.728  1.00  0.00     0.000 HD 
BRANCH  23  25
HETATM   25  C   UNL     1     -11.276  15.298  68.171  1.00  0.00    -0.324 A  
HETATM   26  C   UNL     1     -11.487  14.816  66.873  1.00  0.00    -0.354 A  
HETATM   27  C   UNL     1     -11.548  13.445  66.571  1.00  0.00    -0.394 A  
HETATM   28  C   UNL     1     -11.877  13.013  65.168  1.00  0.00    -0.369 C  
HETATM   29  C   UNL     1     -11.320  12.538  67.602  1.00  0.00    -0.306 A  
HETATM   30  F   UNL     1     -12.997  12.238  65.096  1.00  0.00    -0.400 F  
HETATM   31  F   UNL     1     -10.877  12.296  64.584  1.00  0.00    -0.298 F  
HETATM   32  F   UNL     1     -12.111  14.054  64.317  1.00  0.00    -0.418 F  
HETATM   33 CL   UNL     1     -11.347  10.833  67.340  1.00  0.00    -0.324 Cl 
HETATM   34  C   UNL     1     -11.053  13.000  68.899  1.00  0.00    -0.307 A  
HETATM   35  C   UNL     1     -11.034  14.372  69.186  1.00  0.00    -0.288 A  
ENDBRANCH  23  25
ENDBRANCH  21  23
ENDBRANCH  19  21
ENDBRANCH  16  19
ENDBRANCH  12  13
ENDBRANCH  10  12
ENDBRANCH   3   6
TORSDOF 7
ENDMDL
MODEL      176
REMARK 921   NORMALIZED FREE ENERGY PREDICTED BY IDOCK:   -5.12 KCAL/MOL
REMARK 922        TOTAL FREE ENERGY PREDICTED BY IDOCK:   -9.06 KCAL/MOL
REMARK 923 INTER-LIGAND FREE ENERGY PREDICTED BY IDOCK:   -7.99 KCAL/MOL
REMARK 924 INTRA-LIGAND FREE ENERGY PREDICTED BY IDOCK:   -1.07 KCAL/MOL
REMARK 927      BINDING AFFINITY PREDICTED BY RF-SCORE:    0.00 PKD
ROOT
HETATM    1  C   UNL     1      -9.557   6.728  70.405  1.00  0.00    -0.169 C  
HETATM    2  N   UNL     1      -9.121   6.851  69.042  1.00  0.00    -0.139 N  
HETATM    3  C   UNL     1      -9.327   5.840  68.128  1.00  0.00    -0.109 C  
HETATM    4  H   UNL     1      -8.650   7.705  68.743  1.00  0.00     0.000 HD 
HETATM    5  O   UNL     1      -9.871   4.777  68.405  1.00  0.00    -0.152 OA 
ENDROOT
BRANCH   3   6
HETATM    6  C   UNL     1      -8.856   6.135  66.735  1.00  0.00    -0.122 A  
HETATM    7  N   UNL     1      -8.669   5.073  65.902  1.00  0.00    -0.127 NA 
HETATM    8  C   UNL     1      -8.180   5.359  64.674  1.00  0.00    -0.133 A  
HETATM    9  C   UNL     1      -7.832   6.636  64.252  1.00  0.00    -0.115 A  
HETATM   10  C   UNL     1      -8.014   7.693  65.137  1.00  0.00    -0.130 A  
HETATM   11  C   UNL     1      -8.589   7.448  66.383  1.00  0.00    -0.138 A  
BRANCH  10  12
HETATM   12  O   UNL     1      -7.615   8.948  64.713  1.00  0.00    -0.100 OA 
BRANCH  12  13
HETATM   13  C   UNL     1      -8.529   9.980  64.798  1.00  0.00    -0.173 A  
HETATM   14  C   UNL     1      -9.502  10.197  63.830  1.00  0.00    -0.332 A  
HETATM   15  C   UNL     1     -10.295  11.338  63.888  1.00  0.00    -0.439 A  
HETATM   16  C   UNL     1     -10.230  12.226  64.968  1.00  0.00    -0.285 A  
HETATM   17  C   UNL     1      -9.313  11.955  65.987  1.00  0.00    -0.215 A  
HETATM   18  C   UNL     1      -8.467  10.833  65.903  1.00  0.00    -0.166 A  
BRANCH  16  19
HETATM   19  N   UNL     1     -11.057  13.379  65.048  1.00  0.00    -0.307 N  
HETATM   20  H   UNL     1     -10.696  14.263  64.687  1.00  0.00     0.000 HD 
BRANCH  19  21
HETATM   21  C   UNL     1     -12.334  13.358  65.596  1.00  0.00    -0.470 C  
HETATM   22  O   UNL     1     -13.269  12.760  65.079  1.00  0.00    -0.768 OA 
BRANCH  21  23
HETATM   23  N   UNL     1     -12.458  14.081  66.769  1.00  0.00    -0.526 N  
HETATM   24  H   UNL     1     -13.323  13.993  67.302  1.00  0.00     0.000 HD 
BRANCH  23  25
HETATM   25  C   UNL     1     -11.435  14.944  67.269  1.00  0.00    -0.340 A  
HETATM   26  C   UNL     1     -11.243  16.248  66.798  1.00  0.00     0.217 A  
HETATM   27  C   UNL     1     -10.172  17.059  67.213  1.00  0.00    -0.310 A  
HETATM   28  C   UNL     1      -9.983  18.412  66.582  1.00  0.00    -0.368 C  
HETATM   29  C   UNL     1      -9.312  16.557  68.185  1.00  0.00    -0.218 A  
HETATM   30  F   UNL     1      -8.775  18.550  65.968  1.00  0.00    -0.278 F  
HETATM   31  F   UNL     1     -10.078  19.434  67.477  1.00  0.00    -0.383 F  
HETATM   32  F   UNL     1     -10.906  18.698  65.617  1.00  0.00    -0.478 F  
HETATM   33 CL   UNL     1      -7.980  17.474  68.785  1.00  0.00    -0.265 Cl 
HETATM   34  C   UNL     1      -9.518  15.273  68.711  1.00  0.00    -0.212 A  
HETATM   35  C   UNL     1     -10.570  14.467  68.255  1.00  0.00    -0.243 A  
ENDBRANCH  23  25
ENDBRANCH  21  23
ENDBRANCH  19  21
ENDBRANCH  16  19
ENDBRANCH  12  13
ENDBRANCH  10  12
ENDBRANCH   3   6
TORSDOF 7
ENDMDL
MODEL      177
REMARK 921   NORMALIZED FREE ENERGY PREDICTED BY IDOCK:   -5.09 KCAL/MOL
REMARK 922        TOTAL FREE ENERGY PREDICTED BY IDOCK:   -9.01 KCAL/MOL
REMARK 923 INTER-LIGAND FREE ENERGY PREDICTED BY IDOCK:   -7.87 KCAL/MOL
REMARK 924 INTRA-LIGAND FREE ENERGY PREDICTED BY IDOCK:   -1.14 KCAL/MOL
REMARK 927      BINDING AFFINITY PREDICTED BY RF-SCORE:    0.00 PKD
ROOT
HETATM    1  C   UNL     1     -12.257   8.348  71.792  1.00  0.00    -0.330 C  
HETATM    2  N   UNL     1     -11.044   8.133  71.052  1.00  0.00    -0.249 N  
HETATM    3  C   UNL     1     -10.607   6.863  70.743  1.00  0.00    -0.220 C  
HETATM    4  H   UNL     1     -10.496   8.937  70.748  1.00  0.00     0.000 HD 
HETATM    5  O   UNL     1     -11.197   5.843  71.081  1.00  0.00    -0.276 OA 
ENDROOT
BRANCH   3   6
HETATM    6  C   UNL     1      -9.349   6.803  69.928  1.00  0.00    -0.157 A  
HETATM    7  N   UNL     1      -8.704   5.604  69.865  1.00  0.00    -0.124 NA 
HETATM    8  C   UNL     1      -7.538   5.592  69.180  1.00  0.00    -0.088 A  
HETATM    9  C   UNL     1      -6.966   6.715  68.596  1.00  0.00    -0.080 A  
HETATM   10  C   UNL     1      -7.640   7.926  68.701  1.00  0.00    -0.101 A  
HETATM   11  C   UNL     1      -8.883   7.963  69.331  1.00  0.00    -0.145 A  
BRANCH  10  12
HETATM   12  O   UNL     1      -7.028   9.040  68.153  1.00  0.00    -0.074 OA 
BRANCH  12  13
HETATM   13  C   UNL     1      -7.797   9.884  67.376  1.00  0.00    -0.098 A  
HETATM   14  C   UNL     1      -8.491   9.441  66.256  1.00  0.00    -0.133 A  
HETATM   15  C   UNL     1      -9.123  10.359  65.425  1.00  0.00    -0.221 A  
HETATM   16  C   UNL     1      -9.189  11.719  65.745  1.00  0.00    -0.139 A  
HETATM   17  C   UNL     1      -8.568  12.148  66.921  1.00  0.00    -0.191 A  
HETATM   18  C   UNL     1      -7.875  11.231  67.735  1.00  0.00    -0.115 A  
BRANCH  16  19
HETATM   19  N   UNL     1      -9.857  12.659  64.915  1.00  0.00    -0.493 N  
HETATM   20  H   UNL     1      -9.297  13.338  64.399  1.00  0.00     0.000 HD 
BRANCH  19  21
HETATM   21  C   UNL     1     -11.239  12.697  64.774  1.00  0.00    -0.302 C  
HETATM   22  O   UNL     1     -11.794  12.851  63.693  1.00  0.00    -0.464 OA 
BRANCH  21  23
HETATM   23  N   UNL     1     -11.933  12.557  65.962  1.00  0.00    -0.421 N  
HETATM   24  H   UNL     1     -12.574  11.770  66.060  1.00  0.00     0.000 HD 
BRANCH  23  25
HETATM   25  C   UNL     1     -11.797  13.462  67.060  1.00  0.00    -0.394 A  
HETATM   26  C   UNL     1     -11.310  14.767  66.913  1.00  0.00    -0.358 A  
HETATM   27  C   UNL     1     -11.075  15.619  68.006  1.00  0.00    -0.335 A  
HETATM   28  C   UNL     1     -10.458  16.971  67.768  1.00  0.00    -0.349 C  
HETATM   29  C   UNL     1     -11.409  15.160  69.277  1.00  0.00    -0.300 A  
HETATM   30  F   UNL     1      -9.282  17.145  68.433  1.00  0.00    -0.232 F  
HETATM   31  F   UNL     1     -11.268  17.999  68.144  1.00  0.00    -0.220 F  
HETATM   32  F   UNL     1     -10.163  17.213  66.457  1.00  0.00    -0.280 F  
HETATM   33 CL   UNL     1     -11.186  16.131  70.685  1.00  0.00    -0.387 Cl 
HETATM   34  C   UNL     1     -11.949  13.876  69.441  1.00  0.00    -0.402 A  
HETATM   35  C   UNL     1     -12.139  13.028  68.342  1.00  0.00    -0.193 A  
ENDBRANCH  23  25
ENDBRANCH  21  23
ENDBRANCH  19  21
ENDBRANCH  16  19
ENDBRANCH  12  13
ENDBRANCH  10  12
ENDBRANCH   3   6
TORSDOF 7
ENDMDL
MODEL      178
REMARK 921   NORMALIZED FREE ENERGY PREDICTED BY IDOCK:   -5.06 KCAL/MOL
REMARK 922        TOTAL FREE ENERGY PREDICTED BY IDOCK:   -8.98 KCAL/MOL
REMARK 923 INTER-LIGAND FREE ENERGY PREDICTED BY IDOCK:   -7.02 KCAL/MOL
REMARK 924 INTRA-LIGAND FREE ENERGY PREDICTED BY IDOCK:   -1.97 KCAL/MOL
REMARK 927      BINDING AFFINITY PREDICTED BY RF-SCORE:    0.00 PKD
ROOT
HETATM    1  C   UNL     1     -12.377  14.918  64.171  1.00  0.00    -0.185 C  
HETATM    2  N   UNL     1     -11.336  14.251  64.903  1.00  0.00    -0.354 N  
HETATM    3  C   UNL     1     -11.189  12.881  64.857  1.00  0.00    -0.300 C  
HETATM    4  H   UNL     1     -10.692  14.802  65.468  1.00  0.00     0.000 HD 
HETATM    5  O   UNL     1     -11.928  12.142  64.214  1.00  0.00    -0.380 OA 
ENDROOT
BRANCH   3   6
HETATM    6  C   UNL     1     -10.030  12.338  65.638  1.00  0.00    -0.251 A  
HETATM    7  N   UNL     1      -9.417  13.184  66.512  1.00  0.00    -0.255 NA 
HETATM    8  C   UNL     1      -8.334  12.691  67.155  1.00  0.00    -0.172 A  
HETATM    9  C   UNL     1      -7.810  11.423  66.940  1.00  0.00    -0.158 A  
HETATM   10  C   UNL     1      -8.447  10.596  66.022  1.00  0.00    -0.165 A  
HETATM   11  C   UNL     1      -9.613  11.039  65.399  1.00  0.00    -0.267 A  
BRANCH  10  12
HETATM   12  O   UNL     1      -7.881   9.355  65.789  1.00  0.00    -0.097 OA 
BRANCH  12  13
HETATM   13  C   UNL     1      -8.050   8.376  66.748  1.00  0.00    -0.098 A  
HETATM   14  C   UNL     1      -7.115   8.144  67.750  1.00  0.00    -0.087 A  
HETATM   15  C   UNL     1      -7.261   7.049  68.594  1.00  0.00    -0.094 A  
HETATM   16  C   UNL     1      -8.395   6.230  68.549  1.00  0.00    -0.115 A  
HETATM   17  C   UNL     1      -9.378   6.522  67.599  1.00  0.00    -0.118 A  
HETATM   18  C   UNL     1      -9.206   7.594  66.703  1.00  0.00    -0.211 A  
BRANCH  16  19
HETATM   19  N   UNL     1      -8.565   5.126  69.426  1.00  0.00    -0.095 N  
HETATM   20  H   UNL     1      -7.992   4.294  69.280  1.00  0.00     0.000 HD 
BRANCH  19  21
HETATM   21  C   UNL     1      -9.476   5.127  70.476  1.00  0.00    -0.169 C  
HETATM   22  O   UNL     1     -10.334   4.264  70.612  1.00  0.00    -0.055 OA 
BRANCH  21  23
HETATM   23  N   UNL     1      -9.336   6.193  71.345  1.00  0.00    -0.153 N  
HETATM   24  H   UNL     1      -8.523   6.214  71.960  1.00  0.00     0.000 HD 
BRANCH  23  25
HETATM   25  C   UNL     1     -10.276   7.267  71.425  1.00  0.00    -0.188 A  
HETATM   26  C   UNL     1     -10.410   8.236  70.423  1.00  0.00    -0.214 A  
HETATM   27  C   UNL     1     -11.257   9.350  70.550  1.00  0.00    -0.329 A  
HETATM   28  C   UNL     1     -11.267  10.396  69.467  1.00  0.00    -0.269 C  
HETATM   29  C   UNL     1     -12.042   9.447  71.695  1.00  0.00    -0.388 A  
HETATM   30  F   UNL     1     -10.928  11.636  69.920  1.00  0.00    -0.226 F  
HETATM   31  F   UNL     1     -12.482  10.526  68.865  1.00  0.00    -0.154 F  
HETATM   32  F   UNL     1     -10.393  10.138  68.451  1.00  0.00    -0.170 F  
HETATM   33 CL   UNL     1     -13.135  10.759  71.943  1.00  0.00    -0.599 Cl 
HETATM   34  C   UNL     1     -11.965   8.459  72.687  1.00  0.00    -0.346 A  
HETATM   35  C   UNL     1     -11.084   7.376  72.558  1.00  0.00    -0.350 A  
ENDBRANCH  23  25
ENDBRANCH  21  23
ENDBRANCH  19  21
ENDBRANCH  16  19
ENDBRANCH  12  13
ENDBRANCH  10  12
ENDBRANCH   3   6
TORSDOF 7
ENDMDL
MODEL      179
REMARK 921   NORMALIZED FREE ENERGY PREDICTED BY IDOCK:   -5.04 KCAL/MOL
REMARK 922        TOTAL FREE ENERGY PREDICTED BY IDOCK:   -8.95 KCAL/MOL
REMARK 923 INTER-LIGAND FREE ENERGY PREDICTED BY IDOCK:   -7.40 KCAL/MOL
REMARK 924 INTRA-LIGAND FREE ENERGY PREDICTED BY IDOCK:   -1.55 KCAL/MOL
REMARK 927      BINDING AFFINITY PREDICTED BY RF-SCORE:    0.00 PKD
ROOT
HETATM    1  C   UNL     1     -13.034  10.275  71.055  1.00  0.00    -0.397 C  
HETATM    2  N   UNL     1     -11.631   9.980  71.152  1.00  0.00    -0.377 N  
HETATM    3  C   UNL     1     -11.167   8.937  71.923  1.00  0.00    -0.377 C  
HETATM    4  H   UNL     1     -10.964  10.555  70.638  1.00  0.00     0.000 HD 
HETATM    5  O   UNL     1     -11.898   8.206  72.584  1.00  0.00    -0.395 OA 
ENDROOT
BRANCH   3   6
HETATM    6  C   UNL     1      -9.683   8.728  71.887  1.00  0.00    -0.316 A  
HETATM    7  N   UNL     1      -9.089   8.276  73.028  1.00  0.00    -0.261 NA 
HETATM    8  C   UNL     1      -7.743   8.161  72.991  1.00  0.00    -0.148 A  
HETATM    9  C   UNL     1      -6.960   8.510  71.898  1.00  0.00    -0.101 A  
HETATM   10  C   UNL     1      -7.598   8.991  70.760  1.00  0.00    -0.120 A  
HETATM   11  C   UNL     1      -8.990   9.049  70.732  1.00  0.00    -0.286 A  
BRANCH  10  12
HETATM   12  O   UNL     1      -6.795   9.378  69.701  1.00  0.00    -0.051 OA 
BRANCH  12  13
HETATM   13  C   UNL     1      -6.824  10.704  69.319  1.00  0.00    -0.086 A  
HETATM   14  C   UNL     1      -7.453  11.132  68.156  1.00  0.00    -0.093 A  
HETATM   15  C   UNL     1      -7.321  12.452  67.741  1.00  0.00    -0.123 A  
HETATM   16  C   UNL     1      -6.668  13.409  68.526  1.00  0.00    -0.096 A  
HETATM   17  C   UNL     1      -6.115  12.995  69.741  1.00  0.00    -0.123 A  
HETATM   18  C   UNL     1      -6.195  11.646  70.136  1.00  0.00    -0.121 A  
BRANCH  16  19
HETATM   19  N   UNL     1      -6.552  14.766  68.123  1.00  0.00    -0.118 N  
HETATM   20  H   UNL     1      -6.153  14.970  67.206  1.00  0.00     0.000 HD 
BRANCH  19  21
HETATM   21  C   UNL     1      -6.958  15.830  68.920  1.00  0.00    -0.135 C  
HETATM   22  O   UNL     1      -6.168  16.577  69.484  1.00  0.00    -0.184 OA 
BRANCH  21  23
HETATM   23  N   UNL     1      -8.330  15.963  69.030  1.00  0.00    -0.225 N  
HETATM   24  H   UNL     1      -8.724  16.175  69.947  1.00  0.00     0.000 HD 
BRANCH  23  25
HETATM   25  C   UNL     1      -9.223  15.819  67.923  1.00  0.00    -0.191 A  
HETATM   26  C   UNL     1      -9.950  14.648  67.681  1.00  0.00    -0.227 A  
HETATM   27  C   UNL     1     -10.745  14.468  66.536  1.00  0.00    -0.312 A  
HETATM   28  C   UNL     1     -11.414  13.140  66.304  1.00  0.00    -0.334 C  
HETATM   29  C   UNL     1     -10.859  15.532  65.646  1.00  0.00    -0.346 A  
HETATM   30  F   UNL     1     -11.042  12.552  65.133  1.00  0.00    -0.305 F  
HETATM   31  F   UNL     1     -12.773  13.228  66.274  1.00  0.00    -0.386 F  
HETATM   32  F   UNL     1     -11.140  12.214  67.269  1.00  0.00    -0.261 F  
HETATM   33 CL   UNL     1     -11.827  15.430  64.222  1.00  0.00    -0.319 Cl 
HETATM   34  C   UNL     1     -10.183  16.734  65.897  1.00  0.00    -0.345 A  
HETATM   35  C   UNL     1      -9.364  16.879  67.026  1.00  0.00    -0.245 A  
ENDBRANCH  23  25
ENDBRANCH  21  23
ENDBRANCH  19  21
ENDBRANCH  16  19
ENDBRANCH  12  13
ENDBRANCH  10  12
ENDBRANCH   3   6
TORSDOF 7
ENDMDL
MODEL      180
REMARK 921   NORMALIZED FREE ENERGY PREDICTED BY IDOCK:   -5.03 KCAL/MOL
REMARK 922        TOTAL FREE ENERGY PREDICTED BY IDOCK:   -8.93 KCAL/MOL
REMARK 923 INTER-LIGAND FREE ENERGY PREDICTED BY IDOCK:   -7.31 KCAL/MOL
REMARK 924 INTRA-LIGAND FREE ENERGY PREDICTED BY IDOCK:   -1.62 KCAL/MOL
REMARK 927      BINDING AFFINITY PREDICTED BY RF-SCORE:    0.00 PKD
ROOT
HETATM    1  C   UNL     1     -11.994  11.235  69.074  1.00  0.00    -0.325 C  
HETATM    2  N   UNL     1     -10.678  11.019  69.609  1.00  0.00    -0.428 N  
HETATM    3  C   UNL     1      -9.744  10.261  68.937  1.00  0.00    -0.189 C  
HETATM    4  H   UNL     1     -10.430  11.436  70.505  1.00  0.00     0.000 HD 
HETATM    5  O   UNL     1      -9.963   9.712  67.862  1.00  0.00    -0.153 OA 
ENDROOT
BRANCH   3   6
HETATM    6  C   UNL     1      -8.403  10.165  69.601  1.00  0.00    -0.161 A  
HETATM    7  N   UNL     1      -8.242   9.192  70.541  1.00  0.00    -0.162 NA 
HETATM    8  C   UNL     1      -7.047   9.169  71.174  1.00  0.00    -0.075 A  
HETATM    9  C   UNL     1      -6.028  10.086  70.949  1.00  0.00    -0.082 A  
HETATM   10  C   UNL     1      -6.237  11.080  70.000  1.00  0.00    -0.139 A  
HETATM   11  C   UNL     1      -7.425  11.089  69.271  1.00  0.00    -0.100 A  
BRANCH  10  12
HETATM   12  O   UNL     1      -5.228  12.011  69.827  1.00  0.00    -0.069 OA 
BRANCH  12  13
HETATM   13  C   UNL     1      -5.588  13.301  69.491  1.00  0.00    -0.087 A  
HETATM   14  C   UNL     1      -6.379  14.092  70.315  1.00  0.00    -0.121 A  
HETATM   15  C   UNL     1      -6.837  15.324  69.861  1.00  0.00    -0.135 A  
HETATM   16  C   UNL     1      -6.424  15.857  68.635  1.00  0.00    -0.113 A  
HETATM   17  C   UNL     1      -5.553  15.098  67.849  1.00  0.00    -0.140 A  
HETATM   18  C   UNL     1      -5.135  13.824  68.278  1.00  0.00    -0.104 A  
BRANCH  16  19
HETATM   19  N   UNL     1      -6.865  17.128  68.176  1.00  0.00    -0.171 N  
HETATM   20  H   UNL     1      -6.212  17.911  68.209  1.00  0.00     0.000 HD 
BRANCH  19  21
HETATM   21  C   UNL     1      -8.146  17.352  67.685  1.00  0.00    -0.197 C  
HETATM   22  O   UNL     1      -9.006  17.948  68.320  1.00  0.00    -0.262 OA 
BRANCH  21  23
HETATM   23  N   UNL     1      -8.366  16.833  66.422  1.00  0.00    -0.284 N  
HETATM   24  H   UNL     1      -7.976  17.327  65.620  1.00  0.00     0.000 HD 
BRANCH  23  25
HETATM   25  C   UNL     1      -9.115  15.638  66.186  1.00  0.00    -0.342 A  
HETATM   26  C   UNL     1     -10.274  15.610  65.402  1.00  0.00    -0.401 A  
HETATM   27  C   UNL     1     -11.069  14.459  65.258  1.00  0.00    -0.344 A  
HETATM   28  C   UNL     1     -12.352  14.542  64.477  1.00  0.00    -0.414 C  
HETATM   29  C   UNL     1     -10.637  13.286  65.870  1.00  0.00    -0.281 A  
HETATM   30  F   UNL     1     -13.448  14.205  65.214  1.00  0.00    -0.368 F  
HETATM   31  F   UNL     1     -12.362  13.732  63.382  1.00  0.00    -0.543 F  
HETATM   32  F   UNL     1     -12.619  15.792  63.996  1.00  0.00    -0.352 F  
HETATM   33 CL   UNL     1     -11.520  11.810  65.739  1.00  0.00    -0.319 Cl 
HETATM   34  C   UNL     1      -9.449  13.278  66.616  1.00  0.00    -0.262 A  
HETATM   35  C   UNL     1      -8.692  14.447  66.779  1.00  0.00    -0.187 A  
ENDBRANCH  23  25
ENDBRANCH  21  23
ENDBRANCH  19  21
ENDBRANCH  16  19
ENDBRANCH  12  13
ENDBRANCH  10  12
ENDBRANCH   3   6
TORSDOF 7
ENDMDL
MODEL      181
REMARK 921   NORMALIZED FREE ENERGY PREDICTED BY IDOCK:   -5.03 KCAL/MOL
REMARK 922        TOTAL FREE ENERGY PREDICTED BY IDOCK:   -8.93 KCAL/MOL
REMARK 923 INTER-LIGAND FREE ENERGY PREDICTED BY IDOCK:   -7.49 KCAL/MOL
REMARK 924 INTRA-LIGAND FREE ENERGY PREDICTED BY IDOCK:   -1.44 KCAL/MOL
REMARK 927      BINDING AFFINITY PREDICTED BY RF-SCORE:    0.00 PKD
ROOT
HETATM    1  C   UNL     1      -9.164  13.842  67.578  1.00  0.00    -0.205 C  
HETATM    2  N   UNL     1     -10.073  13.375  68.588  1.00  0.00    -0.363 N  
HETATM    3  C   UNL     1     -10.937  14.235  69.231  1.00  0.00    -0.241 C  
HETATM    4  H   UNL     1     -10.079  12.386  68.834  1.00  0.00     0.000 HD 
HETATM    5  O   UNL     1     -10.984  15.440  69.007  1.00  0.00    -0.228 OA 
ENDROOT
BRANCH   3   6
HETATM    6  C   UNL     1     -11.853  13.591  70.227  1.00  0.00    -0.257 A  
HETATM    7  N   UNL     1     -12.230  14.339  71.302  1.00  0.00    -0.347 NA 
HETATM    8  C   UNL     1     -13.001  13.714  72.220  1.00  0.00    -0.320 A  
HETATM    9  C   UNL     1     -13.379  12.379  72.142  1.00  0.00    -0.508 A  
HETATM   10  C   UNL     1     -12.956  11.640  71.044  1.00  0.00    -0.135 A  
HETATM   11  C   UNL     1     -12.226  12.270  70.037  1.00  0.00    -0.267 A  
BRANCH  10  12
HETATM   12  O   UNL     1     -13.304  10.301  71.011  1.00  0.00    -0.368 OA 
BRANCH  12  13
HETATM   13  C   UNL     1     -12.401   9.386  71.516  1.00  0.00    -0.370 A  
HETATM   14  C   UNL     1     -12.799   8.181  72.083  1.00  0.00    -0.311 A  
HETATM   15  C   UNL     1     -11.862   7.368  72.712  1.00  0.00    -0.107 A  
HETATM   16  C   UNL     1     -10.495   7.665  72.688  1.00  0.00    -0.287 A  
HETATM   17  C   UNL     1     -10.088   8.833  72.036  1.00  0.00    -0.397 A  
HETATM   18  C   UNL     1     -11.039   9.689  71.450  1.00  0.00    -0.397 A  
BRANCH  16  19
HETATM   19  N   UNL     1      -9.529   6.825  73.304  1.00  0.00    -0.144 N  
HETATM   20  H   UNL     1      -9.497   6.786  74.323  1.00  0.00     0.000 HD 
BRANCH  19  21
HETATM   21  C   UNL     1      -8.625   6.056  72.582  1.00  0.00    -0.118 C  
HETATM   22  O   UNL     1      -7.412   6.216  72.648  1.00  0.00    -0.092 OA 
BRANCH  21  23
HETATM   23  N   UNL     1      -9.214   5.101  71.773  1.00  0.00    -0.140 N  
HETATM   24  H   UNL     1      -9.705   4.325  72.217  1.00  0.00     0.000 HD 
BRANCH  23  25
HETATM   25  C   UNL     1      -9.169   5.148  70.345  1.00  0.00    -0.148 A  
HETATM   26  C   UNL     1      -9.450   6.309  69.614  1.00  0.00    -0.157 A  
HETATM   27  C   UNL     1      -9.511   6.328  68.210  1.00  0.00    -0.117 A  
HETATM   28  C   UNL     1      -9.916   7.595  67.507  1.00  0.00    -0.178 C  
HETATM   29  C   UNL     1      -9.210   5.154  67.526  1.00  0.00    -0.117 A  
HETATM   30  F   UNL     1     -11.028   7.444  66.732  1.00  0.00    -0.426 F  
HETATM   31  F   UNL     1      -8.943   8.085  66.689  1.00  0.00    -0.126 F  
HETATM   32  F   UNL     1     -10.215   8.621  68.358  1.00  0.00    -0.189 F  
HETATM   33 CL   UNL     1      -9.229   5.071  65.804  1.00  0.00    -0.153 Cl 
HETATM   34  C   UNL     1      -8.872   3.993  68.238  1.00  0.00    -0.138 A  
HETATM   35  C   UNL     1      -8.855   3.986  69.639  1.00  0.00    -0.139 A  
ENDBRANCH  23  25
ENDBRANCH  21  23
ENDBRANCH  19  21
ENDBRANCH  16  19
ENDBRANCH  12  13
ENDBRANCH  10  12
ENDBRANCH   3   6
TORSDOF 7
ENDMDL
MODEL      182
REMARK 921   NORMALIZED FREE ENERGY PREDICTED BY IDOCK:   -5.02 KCAL/MOL
REMARK 922        TOTAL FREE ENERGY PREDICTED BY IDOCK:   -8.93 KCAL/MOL
REMARK 923 INTER-LIGAND FREE ENERGY PREDICTED BY IDOCK:   -7.84 KCAL/MOL
REMARK 924 INTRA-LIGAND FREE ENERGY PREDICTED BY IDOCK:   -1.09 KCAL/MOL
REMARK 927      BINDING AFFINITY PREDICTED BY RF-SCORE:    0.00 PKD
ROOT
HETATM    1  C   UNL     1     -10.628   3.682  62.958  1.00  0.00    -0.218 C  
HETATM    2  N   UNL     1      -9.968   4.543  63.900  1.00  0.00    -0.369 N  
HETATM    3  C   UNL     1      -8.900   4.102  64.651  1.00  0.00    -0.136 C  
HETATM    4  H   UNL     1     -10.296   5.501  64.015  1.00  0.00     0.000 HD 
HETATM    5  O   UNL     1      -8.452   2.962  64.586  1.00  0.00    -0.090 OA 
ENDROOT
BRANCH   3   6
HETATM    6  C   UNL     1      -8.290   5.130  65.556  1.00  0.00    -0.126 A  
HETATM    7  N   UNL     1      -6.956   5.021  65.812  1.00  0.00    -0.065 NA 
HETATM    8  C   UNL     1      -6.443   5.919  66.684  1.00  0.00    -0.047 A  
HETATM    9  C   UNL     1      -7.195   6.885  67.340  1.00  0.00    -0.090 A  
HETATM   10  C   UNL     1      -8.557   6.951  67.073  1.00  0.00    -0.121 A  
HETATM   11  C   UNL     1      -9.108   6.094  66.121  1.00  0.00    -0.158 A  
BRANCH  10  12
HETATM   12  O   UNL     1      -9.294   7.889  67.774  1.00  0.00    -0.139 OA 
BRANCH  12  13
HETATM   13  C   UNL     1      -9.087   9.223  67.483  1.00  0.00    -0.120 A  
HETATM   14  C   UNL     1      -8.320  10.052  68.293  1.00  0.00    -0.110 A  
HETATM   15  C   UNL     1      -8.271  11.418  68.037  1.00  0.00    -0.140 A  
HETATM   16  C   UNL     1      -8.876  11.978  66.907  1.00  0.00    -0.197 A  
HETATM   17  C   UNL     1      -9.571  11.126  66.043  1.00  0.00    -0.248 A  
HETATM   18  C   UNL     1      -9.674   9.751  66.331  1.00  0.00    -0.275 A  
BRANCH  16  19
HETATM   19  N   UNL     1      -8.807  13.368  66.623  1.00  0.00    -0.434 N  
HETATM   20  H   UNL     1      -8.468  13.662  65.707  1.00  0.00     0.000 HD 
BRANCH  19  21
HETATM   21  C   UNL     1      -9.180  14.347  67.537  1.00  0.00    -0.200 C  
HETATM   22  O   UNL     1      -8.368  15.008  68.172  1.00  0.00    -0.135 OA 
BRANCH  21  23
HETATM   23  N   UNL     1     -10.547  14.499  67.676  1.00  0.00    -0.250 N  
HETATM   24  H   UNL     1     -11.048  15.048  66.977  1.00  0.00     0.000 HD 
BRANCH  23  25
HETATM   25  C   UNL     1     -11.294  13.926  68.752  1.00  0.00    -0.277 A  
HETATM   26  C   UNL     1     -11.843  14.691  69.788  1.00  0.00    -0.366 A  
HETATM   27  C   UNL     1     -12.485  14.118  70.900  1.00  0.00    -0.436 A  
HETATM   28  C   UNL     1     -12.959  15.008  72.017  1.00  0.00    -0.343 C  
HETATM   29  C   UNL     1     -12.634  12.734  70.927  1.00  0.00    -0.255 A  
HETATM   30  F   UNL     1     -12.396  14.701  73.220  1.00  0.00    -0.429 F  
HETATM   31  F   UNL     1     -14.308  14.958  72.201  1.00  0.00    -0.472 F  
HETATM   32  F   UNL     1     -12.676  16.329  71.820  1.00  0.00    -0.486 F  
HETATM   33 CL   UNL     1     -13.427  11.928  72.230  1.00  0.00    -0.409 Cl 
HETATM   34  C   UNL     1     -12.140  11.953  69.873  1.00  0.00    -0.344 A  
HETATM   35  C   UNL     1     -11.469  12.541  68.792  1.00  0.00    -0.353 A  
ENDBRANCH  23  25
ENDBRANCH  21  23
ENDBRANCH  19  21
ENDBRANCH  16  19
ENDBRANCH  12  13
ENDBRANCH  10  12
ENDBRANCH   3   6
TORSDOF 7
ENDMDL
MODEL      183
REMARK 921   NORMALIZED FREE ENERGY PREDICTED BY IDOCK:   -5.02 KCAL/MOL
REMARK 922        TOTAL FREE ENERGY PREDICTED BY IDOCK:   -8.92 KCAL/MOL
REMARK 923 INTER-LIGAND FREE ENERGY PREDICTED BY IDOCK:   -7.65 KCAL/MOL
REMARK 924 INTRA-LIGAND FREE ENERGY PREDICTED BY IDOCK:   -1.26 KCAL/MOL
REMARK 927      BINDING AFFINITY PREDICTED BY RF-SCORE:    0.00 PKD
ROOT
HETATM    1  C   UNL     1      -5.692   2.802  63.049  1.00  0.00    -0.009 C  
HETATM    2  N   UNL     1      -5.776   4.192  63.400  1.00  0.00    -0.013 N  
HETATM    3  C   UNL     1      -6.922   4.727  63.948  1.00  0.00    -0.048 C  
HETATM    4  H   UNL     1      -4.971   4.797  63.242  1.00  0.00     0.000 HD 
HETATM    5  O   UNL     1      -7.940   4.075  64.158  1.00  0.00    -0.084 OA 
ENDROOT
BRANCH   3   6
HETATM    6  C   UNL     1      -6.841   6.182  64.302  1.00  0.00    -0.042 A  
HETATM    7  N   UNL     1      -5.598   6.713  64.474  1.00  0.00    -0.030 NA 
HETATM    8  C   UNL     1      -5.553   8.008  64.858  1.00  0.00    -0.044 A  
HETATM    9  C   UNL     1      -6.675   8.783  65.118  1.00  0.00    -0.064 A  
HETATM   10  C   UNL     1      -7.928   8.202  64.955  1.00  0.00    -0.139 A  
HETATM   11  C   UNL     1      -8.015   6.892  64.484  1.00  0.00    -0.106 A  
BRANCH  10  12
HETATM   12  O   UNL     1      -9.030   8.977  65.266  1.00  0.00    -0.196 OA 
BRANCH  12  13
HETATM   13  C   UNL     1      -9.364   9.124  66.598  1.00  0.00    -0.177 A  
HETATM   14  C   UNL     1      -9.171  10.315  67.289  1.00  0.00    -0.157 A  
HETATM   15  C   UNL     1      -9.381  10.361  68.663  1.00  0.00    -0.167 A  
HETATM   16  C   UNL     1      -9.903   9.269  69.365  1.00  0.00    -0.174 A  
HETATM   17  C   UNL     1     -10.183   8.101  68.650  1.00  0.00    -0.226 A  
HETATM   18  C   UNL     1      -9.915   8.031  67.270  1.00  0.00    -0.282 A  
BRANCH  16  19
HETATM   19  N   UNL     1     -10.147   9.318  70.764  1.00  0.00    -0.268 N  
HETATM   20  H   UNL     1      -9.348   9.292  71.399  1.00  0.00     0.000 HD 
BRANCH  19  21
HETATM   21  C   UNL     1     -11.423   9.398  71.307  1.00  0.00    -0.363 C  
HETATM   22  O   UNL     1     -11.753   8.796  72.321  1.00  0.00    -0.363 OA 
BRANCH  21  23
HETATM   23  N   UNL     1     -12.291  10.207  70.597  1.00  0.00    -0.380 N  
HETATM   24  H   UNL     1     -12.807   9.798  69.818  1.00  0.00     0.000 HD 
BRANCH  23  25
HETATM   25  C   UNL     1     -12.499  11.589  70.900  1.00  0.00    -0.366 A  
HETATM   26  C   UNL     1     -11.943  12.625  70.140  1.00  0.00    -0.375 A  
HETATM   27  C   UNL     1     -12.059  13.979  70.499  1.00  0.00    -0.424 A  
HETATM   28  C   UNL     1     -11.348  15.023  69.681  1.00  0.00    -0.286 C  
HETATM   29  C   UNL     1     -12.819  14.294  71.622  1.00  0.00    -0.348 A  
HETATM   30  F   UNL     1     -10.459  15.757  70.408  1.00  0.00    -0.302 F  
HETATM   31  F   UNL     1     -12.199  15.915  69.101  1.00  0.00    -0.372 F  
HETATM   32  F   UNL     1     -10.620  14.505  68.649  1.00  0.00    -0.226 F  
HETATM   33 CL   UNL     1     -13.048  15.924  72.139  1.00  0.00    -0.492 Cl 
HETATM   34  C   UNL     1     -13.430  13.275  72.367  1.00  0.00    -0.670 A  
HETATM   35  C   UNL     1     -13.269  11.929  72.013  1.00  0.00    -0.461 A  
ENDBRANCH  23  25
ENDBRANCH  21  23
ENDBRANCH  19  21
ENDBRANCH  16  19
ENDBRANCH  12  13
ENDBRANCH  10  12
ENDBRANCH   3   6
TORSDOF 7
ENDMDL
MODEL      184
REMARK 921   NORMALIZED FREE ENERGY PREDICTED BY IDOCK:   -5.00 KCAL/MOL
REMARK 922        TOTAL FREE ENERGY PREDICTED BY IDOCK:   -8.89 KCAL/MOL
REMARK 923 INTER-LIGAND FREE ENERGY PREDICTED BY IDOCK:   -8.12 KCAL/MOL
REMARK 924 INTRA-LIGAND FREE ENERGY PREDICTED BY IDOCK:   -0.77 KCAL/MOL
REMARK 927      BINDING AFFINITY PREDICTED BY RF-SCORE:    0.00 PKD
ROOT
HETATM    1  C   UNL     1     -11.446   2.062  73.797  1.00  0.00    -0.178 C  
HETATM    2  N   UNL     1     -10.550   3.184  73.792  1.00  0.00    -0.167 N  
HETATM    3  C   UNL     1      -9.590   3.334  72.814  1.00  0.00    -0.118 C  
HETATM    4  H   UNL     1     -10.625   3.886  74.527  1.00  0.00     0.000 HD 
HETATM    5  O   UNL     1      -9.421   2.530  71.903  1.00  0.00    -0.102 OA 
ENDROOT
BRANCH   3   6
HETATM    6  C   UNL     1      -8.762   4.579  72.919  1.00  0.00    -0.112 A  
HETATM    7  N   UNL     1      -7.424   4.421  73.124  1.00  0.00    -0.079 NA 
HETATM    8  C   UNL     1      -6.709   5.558  73.283  1.00  0.00    -0.078 A  
HETATM    9  C   UNL     1      -7.262   6.832  73.289  1.00  0.00    -0.075 A  
HETATM   10  C   UNL     1      -8.634   6.954  73.100  1.00  0.00    -0.118 A  
HETATM   11  C   UNL     1      -9.393   5.810  72.855  1.00  0.00    -0.146 A  
BRANCH  10  12
HETATM   12  O   UNL     1      -9.170   8.228  73.158  1.00  0.00    -0.260 OA 
BRANCH  12  13
HETATM   13  C   UNL     1      -9.801   8.716  72.031  1.00  0.00    -0.325 A  
HETATM   14  C   UNL     1     -11.183   8.844  71.946  1.00  0.00    -0.447 A  
HETATM   15  C   UNL     1     -11.774   9.195  70.738  1.00  0.00    -0.308 A  
HETATM   16  C   UNL     1     -11.010   9.547  69.619  1.00  0.00    -0.212 A  
HETATM   17  C   UNL     1      -9.617   9.506  69.735  1.00  0.00    -0.235 A  
HETATM   18  C   UNL     1      -9.016   9.093  70.940  1.00  0.00    -0.298 A  
BRANCH  16  19
HETATM   19  N   UNL     1     -11.605   9.934  68.389  1.00  0.00    -0.440 N  
HETATM   20  H   UNL     1     -12.606   9.777  68.261  1.00  0.00     0.000 HD 
BRANCH  19  21
HETATM   21  C   UNL     1     -10.888  10.517  67.351  1.00  0.00    -0.291 C  
HETATM   22  O   UNL     1      -9.881  10.011  66.872  1.00  0.00    -0.180 OA 
BRANCH  21  23
HETATM   23  N   UNL     1     -11.404  11.723  66.914  1.00  0.00    -0.325 N  
HETATM   24  H   UNL     1     -11.946  11.735  66.050  1.00  0.00     0.000 HD 
BRANCH  23  25
HETATM   25  C   UNL     1     -11.214  12.956  67.614  1.00  0.00    -0.278 A  
HETATM   26  C   UNL     1     -11.778  13.211  68.869  1.00  0.00    -0.368 A  
HETATM   27  C   UNL     1     -11.681  14.460  69.508  1.00  0.00    -0.362 A  
HETATM   28  C   UNL     1     -12.400  14.679  70.811  1.00  0.00    -0.328 C  
HETATM   29  C   UNL     1     -10.931  15.454  68.887  1.00  0.00    -0.261 A  
HETATM   30  F   UNL     1     -13.302  15.700  70.757  1.00  0.00    -0.518 F  
HETATM   31  F   UNL     1     -11.558  14.965  71.842  1.00  0.00    -0.403 F  
HETATM   32  F   UNL     1     -13.117  13.595  71.229  1.00  0.00    -0.389 F  
HETATM   33 CL   UNL     1     -10.724  17.015  69.593  1.00  0.00    -0.190 Cl 
HETATM   34  C   UNL     1     -10.311  15.202  67.655  1.00  0.00    -0.248 A  
HETATM   35  C   UNL     1     -10.454  13.962  67.016  1.00  0.00    -0.278 A  
ENDBRANCH  23  25
ENDBRANCH  21  23
ENDBRANCH  19  21
ENDBRANCH  16  19
ENDBRANCH  12  13
ENDBRANCH  10  12
ENDBRANCH   3   6
TORSDOF 7
ENDMDL
MODEL      185
REMARK 921   NORMALIZED FREE ENERGY PREDICTED BY IDOCK:   -4.99 KCAL/MOL
REMARK 922        TOTAL FREE ENERGY PREDICTED BY IDOCK:   -8.88 KCAL/MOL
REMARK 923 INTER-LIGAND FREE ENERGY PREDICTED BY IDOCK:   -8.12 KCAL/MOL
REMARK 924 INTRA-LIGAND FREE ENERGY PREDICTED BY IDOCK:   -0.76 KCAL/MOL
REMARK 927      BINDING AFFINITY PREDICTED BY RF-SCORE:    0.00 PKD
ROOT
HETATM    1  C   UNL     1      -5.125  18.921  64.398  1.00  0.00    -0.194 C  
HETATM    2  N   UNL     1      -6.481  18.862  64.870  1.00  0.00    -0.182 N  
HETATM    3  C   UNL     1      -6.779  18.942  66.213  1.00  0.00    -0.215 C  
HETATM    4  H   UNL     1      -7.239  18.758  64.196  1.00  0.00     0.000 HD 
HETATM    5  O   UNL     1      -5.929  19.053  67.090  1.00  0.00    -0.167 OA 
ENDROOT
BRANCH   3   6
HETATM    6  C   UNL     1      -8.241  18.911  66.544  1.00  0.00    -0.297 A  
HETATM    7  N   UNL     1      -9.084  19.584  65.710  1.00  0.00    -0.333 NA 
HETATM    8  C   UNL     1     -10.388  19.597  66.067  1.00  0.00    -0.523 A  
HETATM    9  C   UNL     1     -10.885  19.013  67.225  1.00  0.00    -0.494 A  
HETATM   10  C   UNL     1      -9.992  18.355  68.065  1.00  0.00    -0.351 A  
HETATM   11  C   UNL     1      -8.653  18.253  67.691  1.00  0.00    -0.261 A  
BRANCH  10  12
HETATM   12  O   UNL     1     -10.501  17.823  69.236  1.00  0.00    -0.267 OA 
BRANCH  12  13
HETATM   13  C   UNL     1     -10.875  16.493  69.234  1.00  0.00    -0.326 A  
HETATM   14  C   UNL     1     -10.904  15.729  68.074  1.00  0.00    -0.309 A  
HETATM   15  C   UNL     1     -11.433  14.443  68.104  1.00  0.00    -0.337 A  
HETATM   16  C   UNL     1     -11.830  13.838  69.301  1.00  0.00    -0.344 A  
HETATM   17  C   UNL     1     -11.714  14.578  70.482  1.00  0.00    -0.338 A  
HETATM   18  C   UNL     1     -11.235  15.902  70.447  1.00  0.00    -0.392 A  
BRANCH  16  19
HETATM   19  N   UNL     1     -12.346  12.515  69.345  1.00  0.00    -0.023 N  
HETATM   20  H   UNL     1     -13.280  12.343  68.973  1.00  0.00     0.000 HD 
BRANCH  19  21
HETATM   21  C   UNL     1     -11.634  11.443  69.871  1.00  0.00    -0.323 C  
HETATM   22  O   UNL     1     -12.085  10.708  70.740  1.00  0.00    -0.311 OA 
BRANCH  21  23
HETATM   23  N   UNL     1     -10.369  11.286  69.335  1.00  0.00    -0.435 N  
HETATM   24  H   UNL     1      -9.685  12.028  69.481  1.00  0.00     0.000 HD 
BRANCH  23  25
HETATM   25  C   UNL     1      -9.973  10.135  68.586  1.00  0.00    -0.170 A  
HETATM   26  C   UNL     1      -9.277   9.061  69.155  1.00  0.00    -0.144 A  
HETATM   27  C   UNL     1      -8.794   7.979  68.397  1.00  0.00    -0.134 A  
HETATM   28  C   UNL     1      -7.971   6.916  69.071  1.00  0.00    -0.116 C  
HETATM   29  C   UNL     1      -9.086   7.954  67.036  1.00  0.00    -0.137 A  
HETATM   30  F   UNL     1      -6.726   6.783  68.533  1.00  0.00    -0.053 F  
HETATM   31  F   UNL     1      -8.547   5.683  69.015  1.00  0.00    -0.103 F  
HETATM   32  F   UNL     1      -7.760   7.149  70.400  1.00  0.00    -0.087 F  
HETATM   33 CL   UNL     1      -8.565   6.663  66.017  1.00  0.00    -0.145 Cl 
HETATM   34  C   UNL     1      -9.828   8.992  66.456  1.00  0.00    -0.338 A  
HETATM   35  C   UNL     1     -10.267  10.080  67.222  1.00  0.00    -0.275 A  
ENDBRANCH  23  25
ENDBRANCH  21  23
ENDBRANCH  19  21
ENDBRANCH  16  19
ENDBRANCH  12  13
ENDBRANCH  10  12
ENDBRANCH   3   6
TORSDOF 7
ENDMDL
MODEL      186
REMARK 921   NORMALIZED FREE ENERGY PREDICTED BY IDOCK:   -4.99 KCAL/MOL
REMARK 922        TOTAL FREE ENERGY PREDICTED BY IDOCK:   -8.88 KCAL/MOL
REMARK 923 INTER-LIGAND FREE ENERGY PREDICTED BY IDOCK:   -7.49 KCAL/MOL
REMARK 924 INTRA-LIGAND FREE ENERGY PREDICTED BY IDOCK:   -1.39 KCAL/MOL
REMARK 927      BINDING AFFINITY PREDICTED BY RF-SCORE:    0.00 PKD
ROOT
HETATM    1  C   UNL     1     -12.312  14.785  64.180  1.00  0.00    -0.231 C  
HETATM    2  N   UNL     1     -11.647  13.825  65.017  1.00  0.00    -0.329 N  
HETATM    3  C   UNL     1     -11.630  12.484  64.698  1.00  0.00    -0.343 C  
HETATM    4  H   UNL     1     -11.178  14.141  65.865  1.00  0.00     0.000 HD 
HETATM    5  O   UNL     1     -12.180  12.017  63.706  1.00  0.00    -0.475 OA 
ENDROOT
BRANCH   3   6
HETATM    6  C   UNL     1     -10.859  11.614  65.644  1.00  0.00    -0.276 A  
HETATM    7  N   UNL     1     -10.301  12.217  66.731  1.00  0.00    -0.216 NA 
HETATM    8  C   UNL     1      -9.555  11.424  67.533  1.00  0.00    -0.167 A  
HETATM    9  C   UNL     1      -9.305  10.080  67.286  1.00  0.00    -0.170 A  
HETATM   10  C   UNL     1      -9.871   9.504  66.155  1.00  0.00    -0.272 A  
HETATM   11  C   UNL     1     -10.710  10.269  65.346  1.00  0.00     0.158 A  
BRANCH  10  12
HETATM   12  O   UNL     1      -9.569   8.177  65.903  1.00  0.00    -0.103 OA 
BRANCH  12  13
HETATM   13  C   UNL     1      -9.495   7.315  66.979  1.00  0.00    -0.156 A  
HETATM   14  C   UNL     1      -8.286   6.826  67.461  1.00  0.00    -0.122 A  
HETATM   15  C   UNL     1      -8.279   5.844  68.445  1.00  0.00    -0.109 A  
HETATM   16  C   UNL     1      -9.458   5.412  69.063  1.00  0.00    -0.133 A  
HETATM   17  C   UNL     1     -10.666   5.974  68.639  1.00  0.00    -0.363 A  
HETATM   18  C   UNL     1     -10.682   6.924  67.601  1.00  0.00    -0.344 A  
BRANCH  16  19
HETATM   19  N   UNL     1      -9.456   4.430  70.089  1.00  0.00    -0.156 N  
HETATM   20  H   UNL     1      -9.459   3.445  69.821  1.00  0.00     0.000 HD 
BRANCH  19  21
HETATM   21  C   UNL     1      -9.451   4.748  71.442  1.00  0.00    -0.154 C  
HETATM   22  O   UNL     1      -9.880   3.993  72.305  1.00  0.00    -0.145 OA 
BRANCH  21  23
HETATM   23  N   UNL     1      -8.930   5.997  71.727  1.00  0.00    -0.139 N  
HETATM   24  H   UNL     1      -7.969   6.057  72.063  1.00  0.00     0.000 HD 
BRANCH  23  25
HETATM   25  C   UNL     1      -9.672   7.209  71.574  1.00  0.00    -0.164 A  
HETATM   26  C   UNL     1     -11.037   7.306  71.870  1.00  0.00    -0.270 A  
HETATM   27  C   UNL     1     -11.790   8.467  71.618  1.00  0.00    -0.370 A  
HETATM   28  C   UNL     1     -13.273   8.454  71.874  1.00  0.00    -0.357 C  
HETATM   29  C   UNL     1     -11.124   9.582  71.119  1.00  0.00    -0.379 A  
HETATM   30  F   UNL     1     -14.009   8.728  70.760  1.00  0.00    -0.130 F  
HETATM   31  F   UNL     1     -13.658   9.355  72.820  1.00  0.00    -0.466 F  
HETATM   32  F   UNL     1     -13.740   7.251  72.319  1.00  0.00    -0.214 F  
HETATM   33 CL   UNL     1     -11.944  11.066  70.798  1.00  0.00    -0.443 Cl 
HETATM   34  C   UNL     1      -9.746   9.524  70.868  1.00  0.00    -0.242 A  
HETATM   35  C   UNL     1      -9.021   8.345  71.089  1.00  0.00    -0.207 A  
ENDBRANCH  23  25
ENDBRANCH  21  23
ENDBRANCH  19  21
ENDBRANCH  16  19
ENDBRANCH  12  13
ENDBRANCH  10  12
ENDBRANCH   3   6
TORSDOF 7
ENDMDL
MODEL      187
REMARK 921   NORMALIZED FREE ENERGY PREDICTED BY IDOCK:   -4.98 KCAL/MOL
REMARK 922        TOTAL FREE ENERGY PREDICTED BY IDOCK:   -8.86 KCAL/MOL
REMARK 923 INTER-LIGAND FREE ENERGY PREDICTED BY IDOCK:   -7.66 KCAL/MOL
REMARK 924 INTRA-LIGAND FREE ENERGY PREDICTED BY IDOCK:   -1.20 KCAL/MOL
REMARK 927      BINDING AFFINITY PREDICTED BY RF-SCORE:    0.00 PKD
ROOT
HETATM    1  C   UNL     1      -6.681  20.223  68.108  1.00  0.00    -0.295 C  
HETATM    2  N   UNL     1      -6.868  18.812  68.302  1.00  0.00    -0.237 N  
HETATM    3  C   UNL     1      -6.204  18.129  69.296  1.00  0.00    -0.253 C  
HETATM    4  H   UNL     1      -7.507  18.305  67.690  1.00  0.00     0.000 HD 
HETATM    5  O   UNL     1      -5.408  18.657  70.066  1.00  0.00    -0.202 OA 
ENDROOT
BRANCH   3   6
HETATM    6  C   UNL     1      -6.537  16.670  69.400  1.00  0.00    -0.222 A  
HETATM    7  N   UNL     1      -5.833  15.933  70.304  1.00  0.00    -0.155 NA 
HETATM    8  C   UNL     1      -6.105  14.608  70.331  1.00  0.00    -0.173 A  
HETATM    9  C   UNL     1      -7.007  13.981  69.481  1.00  0.00    -0.007 A  
HETATM   10  C   UNL     1      -7.690  14.761  68.555  1.00  0.00    -0.120 A  
HETATM   11  C   UNL     1      -7.494  16.141  68.550  1.00  0.00    -0.167 A  
BRANCH  10  12
HETATM   12  O   UNL     1      -8.546  14.107  67.687  1.00  0.00    -0.166 OA 
BRANCH  12  13
HETATM   13  C   UNL     1      -9.653  13.478  68.222  1.00  0.00    -0.218 A  
HETATM   14  C   UNL     1     -10.775  14.177  68.651  1.00  0.00    -0.263 A  
HETATM   15  C   UNL     1     -11.794  13.509  69.320  1.00  0.00    -0.392 A  
HETATM   16  C   UNL     1     -11.788  12.118  69.472  1.00  0.00    -0.321 A  
HETATM   17  C   UNL     1     -10.700  11.406  68.958  1.00  0.00    -0.245 A  
HETATM   18  C   UNL     1      -9.637  12.085  68.332  1.00  0.00    -0.190 A  
BRANCH  16  19
HETATM   19  N   UNL     1     -12.839  11.425  70.130  1.00  0.00     0.017 N  
HETATM   20  H   UNL     1     -13.509  10.905  69.563  1.00  0.00     0.000 HD 
BRANCH  19  21
HETATM   21  C   UNL     1     -12.997  11.424  71.511  1.00  0.00    -0.399 C  
HETATM   22  O   UNL     1     -12.821  12.420  72.201  1.00  0.00    -0.238 OA 
BRANCH  21  23
HETATM   23  N   UNL     1     -13.357  10.197  72.038  1.00  0.00    -0.478 N  
HETATM   24  H   UNL     1     -14.225  10.134  72.570  1.00  0.00     0.000 HD 
BRANCH  23  25
HETATM   25  C   UNL     1     -12.573   9.013  71.874  1.00  0.00    -0.382 A  
HETATM   26  C   UNL     1     -11.179   9.037  71.746  1.00  0.00    -0.448 A  
HETATM   27  C   UNL     1     -10.419   7.884  71.478  1.00  0.00    -0.251 A  
HETATM   28  C   UNL     1      -8.937   8.014  71.257  1.00  0.00    -0.139 C  
HETATM   29  C   UNL     1     -11.085   6.664  71.408  1.00  0.00    -0.263 A  
HETATM   30  F   UNL     1      -8.538   7.561  70.035  1.00  0.00    -0.131 F  
HETATM   31  F   UNL     1      -8.200   7.332  72.178  1.00  0.00    -0.099 F  
HETATM   32  F   UNL     1      -8.485   9.300  71.322  1.00  0.00    -0.223 F  
HETATM   33 CL   UNL     1     -10.250   5.185  71.109  1.00  0.00    -0.288 Cl 
HETATM   34  C   UNL     1     -12.475   6.610  71.588  1.00  0.00    -0.353 A  
HETATM   35  C   UNL     1     -13.219   7.777  71.816  1.00  0.00    -0.354 A  
ENDBRANCH  23  25
ENDBRANCH  21  23
ENDBRANCH  19  21
ENDBRANCH  16  19
ENDBRANCH  12  13
ENDBRANCH  10  12
ENDBRANCH   3   6
TORSDOF 7
ENDMDL
MODEL      188
REMARK 921   NORMALIZED FREE ENERGY PREDICTED BY IDOCK:   -4.97 KCAL/MOL
REMARK 922        TOTAL FREE ENERGY PREDICTED BY IDOCK:   -8.85 KCAL/MOL
REMARK 923 INTER-LIGAND FREE ENERGY PREDICTED BY IDOCK:   -7.31 KCAL/MOL
REMARK 924 INTRA-LIGAND FREE ENERGY PREDICTED BY IDOCK:   -1.55 KCAL/MOL
REMARK 927      BINDING AFFINITY PREDICTED BY RF-SCORE:    0.00 PKD
ROOT
HETATM    1  C   UNL     1     -10.561  18.400  67.663  1.00  0.00    -0.408 C  
HETATM    2  N   UNL     1      -9.287  17.746  67.775  1.00  0.00    -0.254 N  
HETATM    3  C   UNL     1      -9.048  16.798  68.746  1.00  0.00    -0.259 C  
HETATM    4  H   UNL     1      -8.543  17.989  67.121  1.00  0.00     0.000 HD 
HETATM    5  O   UNL     1      -9.880  16.458  69.580  1.00  0.00    -0.216 OA 
ENDROOT
BRANCH   3   6
HETATM    6  C   UNL     1      -7.685  16.174  68.705  1.00  0.00    -0.200 A  
HETATM    7  N   UNL     1      -6.645  16.919  69.175  1.00  0.00    -0.212 NA 
HETATM    8  C   UNL     1      -5.417  16.362  69.066  1.00  0.00    -0.119 A  
HETATM    9  C   UNL     1      -5.172  15.127  68.479  1.00  0.00    -0.100 A  
HETATM   10  C   UNL     1      -6.254  14.406  67.989  1.00  0.00    -0.155 A  
HETATM   11  C   UNL     1      -7.543  14.912  68.154  1.00  0.00    -0.115 A  
BRANCH  10  12
HETATM   12  O   UNL     1      -5.981  13.201  67.366  1.00  0.00    -0.293 OA 
BRANCH  12  13
HETATM   13  C   UNL     1      -6.750  12.106  67.708  1.00  0.00    -0.103 A  
HETATM   14  C   UNL     1      -7.069  11.801  69.026  1.00  0.00    -0.100 A  
HETATM   15  C   UNL     1      -7.715  10.606  69.324  1.00  0.00    -0.142 A  
HETATM   16  C   UNL     1      -8.171   9.745  68.320  1.00  0.00    -0.105 A  
HETATM   17  C   UNL     1      -7.930  10.101  66.989  1.00  0.00    -0.110 A  
HETATM   18  C   UNL     1      -7.223  11.280  66.685  1.00  0.00    -0.126 A  
BRANCH  16  19
HETATM   19  N   UNL     1      -8.857   8.536  68.615  1.00  0.00    -0.135 N  
HETATM   20  H   UNL     1      -8.327   7.760  69.011  1.00  0.00     0.000 HD 
BRANCH  19  21
HETATM   21  C   UNL     1     -10.217   8.363  68.388  1.00  0.00    -0.206 C  
HETATM   22  O   UNL     1     -10.657   7.619  67.521  1.00  0.00    -0.255 OA 
BRANCH  21  23
HETATM   23  N   UNL     1     -11.029   9.114  69.218  1.00  0.00    -0.415 N  
HETATM   24  H   UNL     1     -11.458   8.655  70.022  1.00  0.00     0.000 HD 
BRANCH  23  25
HETATM   25  C   UNL     1     -11.297  10.502  69.006  1.00  0.00    -0.257 A  
HETATM   26  C   UNL     1     -11.622  11.381  70.047  1.00  0.00    -0.382 A  
HETATM   27  C   UNL     1     -11.989  12.720  69.826  1.00  0.00    -0.362 A  
HETATM   28  C   UNL     1     -12.419  13.568  70.992  1.00  0.00    -0.369 C  
HETATM   29  C   UNL     1     -11.958  13.199  68.519  1.00  0.00    -0.289 A  
HETATM   30  F   UNL     1     -13.683  14.060  70.856  1.00  0.00    -0.281 F  
HETATM   31  F   UNL     1     -11.609  14.644  71.194  1.00  0.00    -0.340 F  
HETATM   32  F   UNL     1     -12.425  12.899  72.182  1.00  0.00    -0.155 F  
HETATM   33 CL   UNL     1     -12.365  14.831  68.137  1.00  0.00    -0.037 Cl 
HETATM   34  C   UNL     1     -11.582  12.350  67.468  1.00  0.00    -0.431 A  
HETATM   35  C   UNL     1     -11.257  11.008  67.706  1.00  0.00    -0.374 A  
ENDBRANCH  23  25
ENDBRANCH  21  23
ENDBRANCH  19  21
ENDBRANCH  16  19
ENDBRANCH  12  13
ENDBRANCH  10  12
ENDBRANCH   3   6
TORSDOF 7
ENDMDL
MODEL      189
REMARK 921   NORMALIZED FREE ENERGY PREDICTED BY IDOCK:   -4.94 KCAL/MOL
REMARK 922        TOTAL FREE ENERGY PREDICTED BY IDOCK:   -8.80 KCAL/MOL
REMARK 923 INTER-LIGAND FREE ENERGY PREDICTED BY IDOCK:   -8.67 KCAL/MOL
REMARK 924 INTRA-LIGAND FREE ENERGY PREDICTED BY IDOCK:   -0.13 KCAL/MOL
REMARK 927      BINDING AFFINITY PREDICTED BY RF-SCORE:    0.00 PKD
ROOT
HETATM    1  C   UNL     1     -10.618   5.787  66.384  1.00  0.00    -0.155 C  
HETATM    2  N   UNL     1     -10.664   5.877  67.817  1.00  0.00    -0.269 N  
HETATM    3  C   UNL     1     -10.033   4.948  68.616  1.00  0.00    -0.125 C  
HETATM    4  H   UNL     1     -11.175   6.644  68.253  1.00  0.00     0.000 HD 
HETATM    5  O   UNL     1      -9.410   3.987  68.175  1.00  0.00    -0.142 OA 
ENDROOT
BRANCH   3   6
HETATM    6  C   UNL     1     -10.135   5.201  70.090  1.00  0.00    -0.272 A  
HETATM    7  N   UNL     1     -10.026   4.123  70.917  1.00  0.00    -0.178 NA 
HETATM    8  C   UNL     1     -10.189   4.367  72.237  1.00  0.00    -0.188 A  
HETATM    9  C   UNL     1     -10.493   5.614  72.767  1.00  0.00    -0.247 A  
HETATM   10  C   UNL     1     -10.620   6.687  71.892  1.00  0.00    -0.211 A  
HETATM   11  C   UNL     1     -10.382   6.490  70.532  1.00  0.00    -0.240 A  
BRANCH  10  12
HETATM   12  O   UNL     1     -10.971   7.910  72.436  1.00  0.00    -0.271 OA 
BRANCH  12  13
HETATM   13  C   UNL     1     -11.102   8.986  71.581  1.00  0.00    -0.363 A  
HETATM   14  C   UNL     1     -12.268   9.737  71.500  1.00  0.00    -0.493 A  
HETATM   15  C   UNL     1     -12.400  10.710  70.516  1.00  0.00    -0.448 A  
HETATM   16  C   UNL     1     -11.338  11.049  69.670  1.00  0.00    -0.292 A  
HETATM   17  C   UNL     1     -10.134  10.354  69.815  1.00  0.00    -0.201 A  
HETATM   18  C   UNL     1     -10.017   9.327  70.770  1.00  0.00    -0.357 A  
BRANCH  16  19
HETATM   19  N   UNL     1     -11.455  12.062  68.680  1.00  0.00    -0.270 N  
HETATM   20  H   UNL     1     -11.585  11.781  67.708  1.00  0.00     0.000 HD 
BRANCH  19  21
HETATM   21  C   UNL     1     -11.400  13.419  68.976  1.00  0.00    -0.287 C  
HETATM   22  O   UNL     1     -12.396  14.086  69.227  1.00  0.00    -0.324 OA 
BRANCH  21  23
HETATM   23  N   UNL     1     -10.124  13.952  68.949  1.00  0.00    -0.399 N  
HETATM   24  H   UNL     1      -9.372  13.433  69.402  1.00  0.00     0.000 HD 
BRANCH  23  25
HETATM   25  C   UNL     1      -9.808  15.196  68.319  1.00  0.00    -0.223 A  
HETATM   26  C   UNL     1      -8.752  16.014  68.740  1.00  0.00    -0.223 A  
HETATM   27  C   UNL     1      -8.508  17.285  68.190  1.00  0.00    -0.238 A  
HETATM   28  C   UNL     1      -7.412  18.139  68.767  1.00  0.00    -0.274 C  
HETATM   29  C   UNL     1      -9.315  17.707  67.138  1.00  0.00    -0.245 A  
HETATM   30  F   UNL     1      -7.862  19.336  69.239  1.00  0.00    -0.365 F  
HETATM   31  F   UNL     1      -6.431  18.426  67.867  1.00  0.00    -0.188 F  
HETATM   32  F   UNL     1      -6.768  17.562  69.823  1.00  0.00    -0.221 F  
HETATM   33 CL   UNL     1      -9.089  19.237  66.373  1.00  0.00    -0.363 Cl 
HETATM   34  C   UNL     1     -10.344  16.881  66.665  1.00  0.00    -0.299 A  
HETATM   35  C   UNL     1     -10.595  15.633  67.253  1.00  0.00    -0.305 A  
ENDBRANCH  23  25
ENDBRANCH  21  23
ENDBRANCH  19  21
ENDBRANCH  16  19
ENDBRANCH  12  13
ENDBRANCH  10  12
ENDBRANCH   3   6
TORSDOF 7
ENDMDL
MODEL      190
REMARK 921   NORMALIZED FREE ENERGY PREDICTED BY IDOCK:   -4.92 KCAL/MOL
REMARK 922        TOTAL FREE ENERGY PREDICTED BY IDOCK:   -8.78 KCAL/MOL
REMARK 923 INTER-LIGAND FREE ENERGY PREDICTED BY IDOCK:   -7.57 KCAL/MOL
REMARK 924 INTRA-LIGAND FREE ENERGY PREDICTED BY IDOCK:   -1.21 KCAL/MOL
REMARK 927      BINDING AFFINITY PREDICTED BY RF-SCORE:    0.00 PKD
ROOT
HETATM    1  C   UNL     1      -6.765  21.071  67.755  1.00  0.00    -0.295 C  
HETATM    2  N   UNL     1      -7.274  19.775  68.111  1.00  0.00    -0.287 N  
HETATM    3  C   UNL     1      -8.529  19.363  67.720  1.00  0.00    -0.310 C  
HETATM    4  H   UNL     1      -6.693  19.147  68.665  1.00  0.00     0.000 HD 
HETATM    5  O   UNL     1      -9.297  20.061  67.065  1.00  0.00    -0.343 OA 
ENDROOT
BRANCH   3   6
HETATM    6  C   UNL     1      -8.899  17.969  68.131  1.00  0.00    -0.273 A  
HETATM    7  N   UNL     1      -8.025  17.305  68.937  1.00  0.00    -0.235 NA 
HETATM    8  C   UNL     1      -8.349  16.027  69.239  1.00  0.00    -0.217 A  
HETATM    9  C   UNL     1      -9.469  15.370  68.746  1.00  0.00    -0.211 A  
HETATM   10  C   UNL     1     -10.326  16.071  67.906  1.00  0.00    -0.269 A  
HETATM   11  C   UNL     1     -10.068  17.415  67.636  1.00  0.00    -0.327 A  
BRANCH  10  12
HETATM   12  O   UNL     1     -11.409  15.382  67.390  1.00  0.00    -0.319 OA 
BRANCH  12  13
HETATM   13  C   UNL     1     -11.157  14.331  66.530  1.00  0.00    -0.323 A  
HETATM   14  C   UNL     1     -10.396  14.477  65.377  1.00  0.00    -0.405 A  
HETATM   15  C   UNL     1     -10.302  13.426  64.471  1.00  0.00    -0.394 A  
HETATM   16  C   UNL     1     -10.854  12.169  64.741  1.00  0.00    -0.307 A  
HETATM   17  C   UNL     1     -11.541  11.999  65.947  1.00  0.00    -0.364 A  
HETATM   18  C   UNL     1     -11.690  13.078  66.839  1.00  0.00    -0.441 A  
BRANCH  16  19
HETATM   19  N   UNL     1     -10.738  11.082  63.834  1.00  0.00    -0.510 N  
HETATM   20  H   UNL     1     -11.586  10.723  63.393  1.00  0.00     0.000 HD 
BRANCH  19  21
HETATM   21  C   UNL     1      -9.524  10.486  63.518  1.00  0.00    -0.312 C  
HETATM   22  O   UNL     1      -9.391   9.698  62.589  1.00  0.00    -0.258 OA 
BRANCH  21  23
HETATM   23  N   UNL     1      -8.481  10.849  64.351  1.00  0.00    -0.372 N  
HETATM   24  H   UNL     1      -7.874  11.616  64.062  1.00  0.00     0.000 HD 
BRANCH  23  25
HETATM   25  C   UNL     1      -8.213  10.203  65.598  1.00  0.00    -0.150 A  
HETATM   26  C   UNL     1      -8.622  10.728  66.829  1.00  0.00    -0.136 A  
HETATM   27  C   UNL     1      -8.266  10.149  68.060  1.00  0.00    -0.113 A  
HETATM   28  C   UNL     1      -8.666  10.834  69.339  1.00  0.00     0.041 C  
HETATM   29  C   UNL     1      -7.533   8.967  68.038  1.00  0.00    -0.092 A  
HETATM   30  F   UNL     1      -7.601  11.164  70.123  1.00  0.00     0.099 F  
HETATM   31  F   UNL     1      -9.491  10.075  70.113  1.00  0.00    -0.252 F  
HETATM   32  F   UNL     1      -9.340  12.005  69.145  1.00  0.00     0.018 F  
HETATM   33 CL   UNL     1      -7.064   8.158  69.488  1.00  0.00    -0.050 Cl 
HETATM   34  C   UNL     1      -7.160   8.394  66.814  1.00  0.00    -0.074 A  
HETATM   35  C   UNL     1      -7.492   9.008  65.599  1.00  0.00    -0.086 A  
ENDBRANCH  23  25
ENDBRANCH  21  23
ENDBRANCH  19  21
ENDBRANCH  16  19
ENDBRANCH  12  13
ENDBRANCH  10  12
ENDBRANCH   3   6
TORSDOF 7
ENDMDL
MODEL      191
REMARK 921   NORMALIZED FREE ENERGY PREDICTED BY IDOCK:   -4.91 KCAL/MOL
REMARK 922        TOTAL FREE ENERGY PREDICTED BY IDOCK:   -8.77 KCAL/MOL
REMARK 923 INTER-LIGAND FREE ENERGY PREDICTED BY IDOCK:   -7.75 KCAL/MOL
REMARK 924 INTRA-LIGAND FREE ENERGY PREDICTED BY IDOCK:   -1.02 KCAL/MOL
REMARK 927      BINDING AFFINITY PREDICTED BY RF-SCORE:    0.00 PKD
ROOT
HETATM    1  C   UNL     1     -10.777   3.497  63.510  1.00  0.00    -0.249 C  
HETATM    2  N   UNL     1      -9.833   4.275  64.264  1.00  0.00    -0.308 N  
HETATM    3  C   UNL     1      -8.881   3.675  65.060  1.00  0.00    -0.123 C  
HETATM    4  H   UNL     1      -9.869   5.292  64.210  1.00  0.00     0.000 HD 
HETATM    5  O   UNL     1      -8.777   2.460  65.193  1.00  0.00    -0.104 OA 
ENDROOT
BRANCH   3   6
HETATM    6  C   UNL     1      -7.941   4.618  65.749  1.00  0.00    -0.099 A  
HETATM    7  N   UNL     1      -6.920   4.068  66.465  1.00  0.00    -0.058 NA 
HETATM    8  C   UNL     1      -6.126   4.936  67.132  1.00  0.00    -0.031 A  
HETATM    9  C   UNL     1      -6.323   6.311  67.156  1.00  0.00    -0.037 A  
HETATM   10  C   UNL     1      -7.389   6.835  66.435  1.00  0.00    -0.073 A  
HETATM   11  C   UNL     1      -8.182   5.979  65.670  1.00  0.00    -0.139 A  
BRANCH  10  12
HETATM   12  O   UNL     1      -7.594   8.201  66.512  1.00  0.00    -0.089 OA 
BRANCH  12  13
HETATM   13  C   UNL     1      -8.432   8.674  67.502  1.00  0.00    -0.124 A  
HETATM   14  C   UNL     1      -9.816   8.565  67.424  1.00  0.00    -0.244 A  
HETATM   15  C   UNL     1     -10.615   9.193  68.373  1.00  0.00    -0.217 A  
HETATM   16  C   UNL     1     -10.068   9.838  69.487  1.00  0.00    -0.217 A  
HETATM   17  C   UNL     1      -8.675   9.866  69.611  1.00  0.00    -0.218 A  
HETATM   18  C   UNL     1      -7.861   9.284  68.622  1.00  0.00    -0.089 A  
BRANCH  16  19
HETATM   19  N   UNL     1     -10.878  10.458  70.476  1.00  0.00    -0.429 N  
HETATM   20  H   UNL     1     -10.676  10.272  71.458  1.00  0.00     0.000 HD 
BRANCH  19  21
HETATM   21  C   UNL     1     -11.935  11.306  70.165  1.00  0.00    -0.369 C  
HETATM   22  O   UNL     1     -13.023  10.899  69.779  1.00  0.00    -0.121 OA 
BRANCH  21  23
HETATM   23  N   UNL     1     -11.645  12.650  70.318  1.00  0.00    -0.538 N  
HETATM   24  H   UNL     1     -11.588  13.029  71.263  1.00  0.00     0.000 HD 
BRANCH  23  25
HETATM   25  C   UNL     1     -11.423  13.534  69.217  1.00  0.00    -0.291 A  
HETATM   26  C   UNL     1     -11.792  13.218  67.903  1.00  0.00    -0.388 A  
HETATM   27  C   UNL     1     -11.478  14.040  66.806  1.00  0.00    -0.379 A  
HETATM   28  C   UNL     1     -11.825  13.578  65.417  1.00  0.00    -0.357 C  
HETATM   29  C   UNL     1     -10.833  15.247  67.058  1.00  0.00    -0.321 A  
HETATM   30  F   UNL     1     -10.737  13.476  64.601  1.00  0.00    -0.326 F  
HETATM   31  F   UNL     1     -12.702  14.407  64.785  1.00  0.00    -0.424 F  
HETATM   32  F   UNL     1     -12.412  12.346  65.381  1.00  0.00    -0.501 F  
HETATM   33 CL   UNL     1     -10.422  16.342  65.790  1.00  0.00    -0.377 Cl 
HETATM   34  C   UNL     1     -10.503  15.608  68.372  1.00  0.00    -0.242 A  
HETATM   35  C   UNL     1     -10.791  14.756  69.448  1.00  0.00    -0.269 A  
ENDBRANCH  23  25
ENDBRANCH  21  23
ENDBRANCH  19  21
ENDBRANCH  16  19
ENDBRANCH  12  13
ENDBRANCH  10  12
ENDBRANCH   3   6
TORSDOF 7
ENDMDL
MODEL      192
REMARK 921   NORMALIZED FREE ENERGY PREDICTED BY IDOCK:   -4.90 KCAL/MOL
REMARK 922        TOTAL FREE ENERGY PREDICTED BY IDOCK:   -8.76 KCAL/MOL
REMARK 923 INTER-LIGAND FREE ENERGY PREDICTED BY IDOCK:   -7.31 KCAL/MOL
REMARK 924 INTRA-LIGAND FREE ENERGY PREDICTED BY IDOCK:   -1.45 KCAL/MOL
REMARK 927      BINDING AFFINITY PREDICTED BY RF-SCORE:    0.00 PKD
ROOT
HETATM    1  C   UNL     1     -13.558  14.971  71.329  1.00  0.00    -0.453 C  
HETATM    2  N   UNL     1     -12.770  15.012  70.128  1.00  0.00    -0.584 N  
HETATM    3  C   UNL     1     -12.121  13.893  69.655  1.00  0.00    -0.349 C  
HETATM    4  H   UNL     1     -12.690  15.889  69.614  1.00  0.00     0.000 HD 
HETATM    5  O   UNL     1     -12.153  12.803  70.219  1.00  0.00    -0.349 OA 
ENDROOT
BRANCH   3   6
HETATM    6  C   UNL     1     -11.377  14.083  68.368  1.00  0.00    -0.291 A  
HETATM    7  N   UNL     1     -12.115  14.140  67.224  1.00  0.00    -0.413 NA 
HETATM    8  C   UNL     1     -11.417  14.245  66.070  1.00  0.00    -0.347 A  
HETATM    9  C   UNL     1     -10.030  14.253  65.997  1.00  0.00    -0.337 A  
HETATM   10  C   UNL     1      -9.309  14.170  67.183  1.00  0.00    -0.237 A  
HETATM   11  C   UNL     1      -9.993  14.140  68.397  1.00  0.00    -0.235 A  
BRANCH  10  12
HETATM   12  O   UNL     1      -7.929  14.132  67.083  1.00  0.00    -0.168 OA 
BRANCH  12  13
HETATM   13  C   UNL     1      -7.265  13.082  67.686  1.00  0.00    -0.151 A  
HETATM   14  C   UNL     1      -7.489  11.756  67.333  1.00  0.00    -0.143 A  
HETATM   15  C   UNL     1      -6.909  10.734  68.075  1.00  0.00    -0.068 A  
HETATM   16  C   UNL     1      -5.998  10.997  69.104  1.00  0.00    -0.043 A  
HETATM   17  C   UNL     1      -5.704  12.332  69.397  1.00  0.00    -0.084 A  
HETATM   18  C   UNL     1      -6.335  13.371  68.687  1.00  0.00    -0.091 A  
BRANCH  16  19
HETATM   19  N   UNL     1      -5.379   9.957  69.849  1.00  0.00    -0.036 N  
HETATM   20  H   UNL     1      -4.421   9.694  69.616  1.00  0.00     0.000 HD 
BRANCH  19  21
HETATM   21  C   UNL     1      -6.018   9.282  70.882  1.00  0.00    -0.059 C  
HETATM   22  O   UNL     1      -6.155   9.757  72.003  1.00  0.00    -0.301 OA 
BRANCH  21  23
HETATM   23  N   UNL     1      -6.476   8.023  70.537  1.00  0.00    -0.037 N  
HETATM   24  H   UNL     1      -5.880   7.433  69.958  1.00  0.00     0.000 HD 
BRANCH  23  25
HETATM   25  C   UNL     1      -7.744   7.510  70.953  1.00  0.00    -0.090 A  
HETATM   26  C   UNL     1      -8.903   8.294  71.000  1.00  0.00    -0.176 A  
HETATM   27  C   UNL     1     -10.124   7.818  71.510  1.00  0.00    -0.212 A  
HETATM   28  C   UNL     1     -11.294   8.757  71.615  1.00  0.00    -0.320 C  
HETATM   29  C   UNL     1     -10.188   6.489  71.918  1.00  0.00    -0.194 A  
HETATM   30  F   UNL     1     -11.758   8.891  72.890  1.00  0.00    -0.247 F  
HETATM   31  F   UNL     1     -12.358   8.368  70.859  1.00  0.00    -0.287 F  
HETATM   32  F   UNL     1     -11.013  10.029  71.206  1.00  0.00    -0.402 F  
HETATM   33 CL   UNL     1     -11.641   5.794  72.535  1.00  0.00    -0.353 Cl 
HETATM   34  C   UNL     1      -9.053   5.670  71.828  1.00  0.00    -0.145 A  
HETATM   35  C   UNL     1      -7.835   6.175  71.353  1.00  0.00    -0.108 A  
ENDBRANCH  23  25
ENDBRANCH  21  23
ENDBRANCH  19  21
ENDBRANCH  16  19
ENDBRANCH  12  13
ENDBRANCH  10  12
ENDBRANCH   3   6
TORSDOF 7
ENDMDL
MODEL      193
REMARK 921   NORMALIZED FREE ENERGY PREDICTED BY IDOCK:   -4.90 KCAL/MOL
REMARK 922        TOTAL FREE ENERGY PREDICTED BY IDOCK:   -8.76 KCAL/MOL
REMARK 923 INTER-LIGAND FREE ENERGY PREDICTED BY IDOCK:   -6.73 KCAL/MOL
REMARK 924 INTRA-LIGAND FREE ENERGY PREDICTED BY IDOCK:   -2.03 KCAL/MOL
REMARK 927      BINDING AFFINITY PREDICTED BY RF-SCORE:    0.00 PKD
ROOT
HETATM    1  C   UNL     1      -7.709   8.837  62.989  1.00  0.00    -0.118 C  
HETATM    2  N   UNL     1      -7.582   8.020  64.164  1.00  0.00    -0.114 N  
HETATM    3  C   UNL     1      -6.722   8.359  65.185  1.00  0.00    -0.063 C  
HETATM    4  H   UNL     1      -8.141   7.171  64.244  1.00  0.00     0.000 HD 
HETATM    5  O   UNL     1      -6.004   9.353  65.164  1.00  0.00    -0.061 OA 
ENDROOT
BRANCH   3   6
HETATM    6  C   UNL     1      -6.734   7.431  66.364  1.00  0.00    -0.060 A  
HETATM    7  N   UNL     1      -5.578   7.311  67.074  1.00  0.00    -0.022 NA 
HETATM    8  C   UNL     1      -5.595   6.419  68.090  1.00  0.00    -0.008 A  
HETATM    9  C   UNL     1      -6.684   5.616  68.404  1.00  0.00    -0.057 A  
HETATM   10  C   UNL     1      -7.839   5.748  67.642  1.00  0.00    -0.098 A  
HETATM   11  C   UNL     1      -7.887   6.714  66.637  1.00  0.00    -0.104 A  
BRANCH  10  12
HETATM   12  O   UNL     1      -8.894   4.905  67.943  1.00  0.00    -0.103 OA 
BRANCH  12  13
HETATM   13  C   UNL     1      -9.806   5.322  68.893  1.00  0.00    -0.164 A  
HETATM   14  C   UNL     1     -10.913   6.100  68.574  1.00  0.00    -0.404 A  
HETATM   15  C   UNL     1     -11.711   6.618  69.587  1.00  0.00    -0.216 A  
HETATM   16  C   UNL     1     -11.508   6.281  70.930  1.00  0.00    -0.312 A  
HETATM   17  C   UNL     1     -10.448   5.423  71.239  1.00  0.00    -0.296 A  
HETATM   18  C   UNL     1      -9.601   4.944  70.221  1.00  0.00    -0.265 A  
BRANCH  16  19
HETATM   19  N   UNL     1     -12.337   6.784  71.969  1.00  0.00    -0.475 N  
HETATM   20  H   UNL     1     -12.942   6.131  72.468  1.00  0.00     0.000 HD 
BRANCH  19  21
HETATM   21  C   UNL     1     -12.360   8.124  72.336  1.00  0.00    -0.294 C  
HETATM   22  O   UNL     1     -13.399   8.749  72.504  1.00  0.00    -0.399 OA 
BRANCH  21  23
HETATM   23  N   UNL     1     -11.107   8.692  72.484  1.00  0.00    -0.263 N  
HETATM   24  H   UNL     1     -10.691   8.712  73.415  1.00  0.00     0.000 HD 
BRANCH  23  25
HETATM   25  C   UNL     1     -10.368   9.252  71.397  1.00  0.00    -0.321 A  
HETATM   26  C   UNL     1     -10.942  10.109  70.450  1.00  0.00    -0.386 A  
HETATM   27  C   UNL     1     -10.243  10.574  69.322  1.00  0.00    -0.245 A  
HETATM   28  C   UNL     1     -10.965  11.412  68.302  1.00  0.00    -0.216 C  
HETATM   29  C   UNL     1      -8.905  10.216  69.189  1.00  0.00    -0.175 A  
HETATM   30  F   UNL     1     -10.959  10.859  67.056  1.00  0.00    -0.288 F  
HETATM   31  F   UNL     1     -10.437  12.661  68.170  1.00  0.00    -0.204 F  
HETATM   32  F   UNL     1     -12.283  11.613  68.594  1.00  0.00    -0.375 F  
HETATM   33 CL   UNL     1      -7.946  10.750  67.858  1.00  0.00    -0.109 Cl 
HETATM   34  C   UNL     1      -8.295   9.403  70.155  1.00  0.00    -0.197 A  
HETATM   35  C   UNL     1      -9.020   8.918  71.252  1.00  0.00    -0.312 A  
ENDBRANCH  23  25
ENDBRANCH  21  23
ENDBRANCH  19  21
ENDBRANCH  16  19
ENDBRANCH  12  13
ENDBRANCH  10  12
ENDBRANCH   3   6
TORSDOF 7
ENDMDL
MODEL      194
REMARK 921   NORMALIZED FREE ENERGY PREDICTED BY IDOCK:   -4.90 KCAL/MOL
REMARK 922        TOTAL FREE ENERGY PREDICTED BY IDOCK:   -8.75 KCAL/MOL
REMARK 923 INTER-LIGAND FREE ENERGY PREDICTED BY IDOCK:   -7.46 KCAL/MOL
REMARK 924 INTRA-LIGAND FREE ENERGY PREDICTED BY IDOCK:   -1.29 KCAL/MOL
REMARK 927      BINDING AFFINITY PREDICTED BY RF-SCORE:    0.00 PKD
ROOT
HETATM    1  C   UNL     1     -14.191  15.090  71.473  1.00  0.00    -0.540 C  
HETATM    2  N   UNL     1     -13.097  15.614  70.703  1.00  0.00    -0.699 N  
HETATM    3  C   UNL     1     -12.202  14.782  70.066  1.00  0.00    -0.333 C  
HETATM    4  H   UNL     1     -12.980  16.624  70.626  1.00  0.00     0.000 HD 
HETATM    5  O   UNL     1     -12.261  13.558  70.118  1.00  0.00    -0.332 OA 
ENDROOT
BRANCH   3   6
HETATM    6  C   UNL     1     -11.142  15.478  69.266  1.00  0.00    -0.285 A  
HETATM    7  N   UNL     1     -11.522  16.039  68.084  1.00  0.00    -0.304 NA 
HETATM    8  C   UNL     1     -10.535  16.602  67.349  1.00  0.00    -0.314 A  
HETATM    9  C   UNL     1      -9.195  16.597  67.712  1.00  0.00    -0.214 A  
HETATM   10  C   UNL     1      -8.841  15.995  68.914  1.00  0.00    -0.233 A  
HETATM   11  C   UNL     1      -9.839  15.474  69.736  1.00  0.00    -0.268 A  
BRANCH  10  12
HETATM   12  O   UNL     1      -7.495  15.961  69.232  1.00  0.00    -0.200 OA 
BRANCH  12  13
HETATM   13  C   UNL     1      -6.895  14.725  69.375  1.00  0.00    -0.162 A  
HETATM   14  C   UNL     1      -6.965  13.743  68.394  1.00  0.00    -0.103 A  
HETATM   15  C   UNL     1      -6.476  12.468  68.653  1.00  0.00    -0.078 A  
HETATM   16  C   UNL     1      -5.797  12.166  69.839  1.00  0.00    -0.140 A  
HETATM   17  C   UNL     1      -5.647  13.183  70.787  1.00  0.00    -0.187 A  
HETATM   18  C   UNL     1      -6.194  14.459  70.553  1.00  0.00    -0.164 A  
BRANCH  16  19
HETATM   19  N   UNL     1      -5.270  10.873  70.099  1.00  0.00    -0.050 N  
HETATM   20  H   UNL     1      -4.344  10.643  69.739  1.00  0.00     0.000 HD 
BRANCH  19  21
HETATM   21  C   UNL     1      -5.958   9.907  70.824  1.00  0.00    -0.092 C  
HETATM   22  O   UNL     1      -5.919   9.838  72.046  1.00  0.00    -0.290 OA 
BRANCH  21  23
HETATM   23  N   UNL     1      -6.681   9.023  70.043  1.00  0.00    -0.042 N  
HETATM   24  H   UNL     1      -6.242   8.647  69.203  1.00  0.00     0.000 HD 
BRANCH  23  25
HETATM   25  C   UNL     1      -8.014   8.610  70.357  1.00  0.00    -0.101 A  
HETATM   26  C   UNL     1      -8.386   7.265  70.467  1.00  0.00    -0.133 A  
HETATM   27  C   UNL     1      -9.716   6.857  70.668  1.00  0.00    -0.180 A  
HETATM   28  C   UNL     1     -10.044   5.389  70.677  1.00  0.00    -0.231 C  
HETATM   29  C   UNL     1     -10.684   7.844  70.832  1.00  0.00    -0.221 A  
HETATM   30  F   UNL     1     -10.948   5.039  69.719  1.00  0.00    -0.248 F  
HETATM   31  F   UNL     1     -10.560   4.966  71.864  1.00  0.00    -0.261 F  
HETATM   32  F   UNL     1      -8.963   4.586  70.453  1.00  0.00    -0.106 F  
HETATM   33 CL   UNL     1     -12.342   7.457  71.110  1.00  0.00    -0.359 Cl 
HETATM   34  C   UNL     1     -10.324   9.198  70.780  1.00  0.00    -0.323 A  
HETATM   35  C   UNL     1      -8.998   9.583  70.539  1.00  0.00    -0.265 A  
ENDBRANCH  23  25
ENDBRANCH  21  23
ENDBRANCH  19  21
ENDBRANCH  16  19
ENDBRANCH  12  13
ENDBRANCH  10  12
ENDBRANCH   3   6
TORSDOF 7
ENDMDL
MODEL      195
REMARK 921   NORMALIZED FREE ENERGY PREDICTED BY IDOCK:   -4.89 KCAL/MOL
REMARK 922        TOTAL FREE ENERGY PREDICTED BY IDOCK:   -8.74 KCAL/MOL
REMARK 923 INTER-LIGAND FREE ENERGY PREDICTED BY IDOCK:   -7.21 KCAL/MOL
REMARK 924 INTRA-LIGAND FREE ENERGY PREDICTED BY IDOCK:   -1.53 KCAL/MOL
REMARK 927      BINDING AFFINITY PREDICTED BY RF-SCORE:    0.00 PKD
ROOT
HETATM    1  C   UNL     1      -7.055  17.417  69.187  1.00  0.00    -0.196 C  
HETATM    2  N   UNL     1      -8.153  16.809  68.488  1.00  0.00    -0.229 N  
HETATM    3  C   UNL     1      -8.006  16.313  67.211  1.00  0.00    -0.167 C  
HETATM    4  H   UNL     1      -9.061  16.743  68.947  1.00  0.00     0.000 HD 
HETATM    5  O   UNL     1      -6.954  16.365  66.582  1.00  0.00    -0.203 OA 
ENDROOT
BRANCH   3   6
HETATM    6  C   UNL     1      -9.230  15.670  66.632  1.00  0.00    -0.266 A  
HETATM    7  N   UNL     1      -9.378  15.717  65.278  1.00  0.00    -0.136 NA 
HETATM    8  C   UNL     1     -10.522  15.190  64.786  1.00  0.00    -0.209 A  
HETATM    9  C   UNL     1     -11.537  14.660  65.573  1.00  0.00    -0.335 A  
HETATM   10  C   UNL     1     -11.362  14.649  66.952  1.00  0.00    -0.356 A  
HETATM   11  C   UNL     1     -10.162  15.112  67.491  1.00  0.00    -0.238 A  
BRANCH  10  12
HETATM   12  O   UNL     1     -12.405  14.160  67.718  1.00  0.00    -0.256 OA 
BRANCH  12  13
HETATM   13  C   UNL     1     -12.160  13.065  68.522  1.00  0.00    -0.149 A  
HETATM   14  C   UNL     1     -11.849  11.814  68.004  1.00  0.00    -0.304 A  
HETATM   15  C   UNL     1     -11.762  10.715  68.851  1.00  0.00    -0.282 A  
HETATM   16  C   UNL     1     -11.858  10.846  70.241  1.00  0.00    -0.361 A  
HETATM   17  C   UNL     1     -12.079  12.123  70.766  1.00  0.00    -0.279 A  
HETATM   18  C   UNL     1     -12.227  13.229  69.908  1.00  0.00    -0.313 A  
BRANCH  16  19
HETATM   19  N   UNL     1     -11.742   9.733  71.116  1.00  0.00    -0.354 N  
HETATM   20  H   UNL     1     -12.540   9.491  71.704  1.00  0.00     0.000 HD 
BRANCH  19  21
HETATM   21  C   UNL     1     -10.592   8.957  71.206  1.00  0.00    -0.281 C  
HETATM   22  O   UNL     1      -9.527   9.393  71.624  1.00  0.00    -0.262 OA 
BRANCH  21  23
HETATM   23  N   UNL     1     -10.753   7.654  70.771  1.00  0.00    -0.222 N  
HETATM   24  H   UNL     1     -11.235   6.995  71.382  1.00  0.00     0.000 HD 
BRANCH  23  25
HETATM   25  C   UNL     1     -10.277   7.186  69.507  1.00  0.00    -0.195 A  
HETATM   26  C   UNL     1      -9.670   8.026  68.565  1.00  0.00    -0.166 A  
HETATM   27  C   UNL     1      -9.300   7.588  67.281  1.00  0.00    -0.168 A  
HETATM   28  C   UNL     1      -8.743   8.580  66.296  1.00  0.00    -0.142 C  
HETATM   29  C   UNL     1      -9.488   6.244  66.970  1.00  0.00    -0.131 A  
HETATM   30  F   UNL     1      -9.482   8.670  65.154  1.00  0.00    -0.160 F  
HETATM   31  F   UNL     1      -7.471   8.286  65.908  1.00  0.00    -0.075 F  
HETATM   32  F   UNL     1      -8.682   9.855  66.780  1.00  0.00    -0.126 F  
HETATM   33 CL   UNL     1      -9.046   5.594  65.434  1.00  0.00    -0.086 Cl 
HETATM   34  C   UNL     1     -10.044   5.374  67.918  1.00  0.00    -0.215 A  
HETATM   35  C   UNL     1     -10.442   5.839  69.179  1.00  0.00    -0.346 A  
ENDBRANCH  23  25
ENDBRANCH  21  23
ENDBRANCH  19  21
ENDBRANCH  16  19
ENDBRANCH  12  13
ENDBRANCH  10  12
ENDBRANCH   3   6
TORSDOF 7
ENDMDL
MODEL      196
REMARK 921   NORMALIZED FREE ENERGY PREDICTED BY IDOCK:   -4.89 KCAL/MOL
REMARK 922        TOTAL FREE ENERGY PREDICTED BY IDOCK:   -8.74 KCAL/MOL
REMARK 923 INTER-LIGAND FREE ENERGY PREDICTED BY IDOCK:   -8.62 KCAL/MOL
REMARK 924 INTRA-LIGAND FREE ENERGY PREDICTED BY IDOCK:   -0.12 KCAL/MOL
REMARK 927      BINDING AFFINITY PREDICTED BY RF-SCORE:    0.00 PKD
ROOT
HETATM    1  C   UNL     1     -11.027   5.296  73.419  1.00  0.00    -0.316 C  
HETATM    2  N   UNL     1     -10.888   5.374  71.992  1.00  0.00    -0.225 N  
HETATM    3  C   UNL     1     -10.662   6.576  71.357  1.00  0.00    -0.238 C  
HETATM    4  H   UNL     1     -10.958   4.522  71.436  1.00  0.00     0.000 HD 
HETATM    5  O   UNL     1     -10.578   7.648  71.946  1.00  0.00    -0.210 OA 
ENDROOT
BRANCH   3   6
HETATM    6  C   UNL     1     -10.495   6.489  69.869  1.00  0.00    -0.213 A  
HETATM    7  N   UNL     1     -10.049   5.307  69.360  1.00  0.00    -0.221 NA 
HETATM    8  C   UNL     1      -9.842   5.275  68.024  1.00  0.00    -0.149 A  
HETATM    9  C   UNL     1     -10.017   6.366  67.182  1.00  0.00    -0.197 A  
HETATM   10  C   UNL     1     -10.450   7.564  67.740  1.00  0.00    -0.223 A  
HETATM   11  C   UNL     1     -10.749   7.613  69.101  1.00  0.00    -0.153 A  
BRANCH  10  12
HETATM   12  O   UNL     1     -10.570   8.649  66.891  1.00  0.00    -0.287 OA 
BRANCH  12  13
HETATM   13  C   UNL     1     -10.230   9.895  67.381  1.00  0.00    -0.222 A  
HETATM   14  C   UNL     1     -11.097  10.980  67.328  1.00  0.00    -0.359 A  
HETATM   15  C   UNL     1     -10.649  12.244  67.694  1.00  0.00    -0.238 A  
HETATM   16  C   UNL     1      -9.375  12.445  68.238  1.00  0.00    -0.199 A  
HETATM   17  C   UNL     1      -8.537  11.334  68.376  1.00  0.00    -0.155 A  
HETATM   18  C   UNL     1      -8.966  10.062  67.950  1.00  0.00    -0.131 A  
BRANCH  16  19
HETATM   19  N   UNL     1      -8.920  13.729  68.641  1.00  0.00    -0.348 N  
HETATM   20  H   UNL     1      -7.915  13.907  68.654  1.00  0.00     0.000 HD 
BRANCH  19  21
HETATM   21  C   UNL     1      -9.780  14.752  69.020  1.00  0.00    -0.190 C  
HETATM   22  O   UNL     1     -10.999  14.653  68.959  1.00  0.00    -0.239 OA 
BRANCH  21  23
HETATM   23  N   UNL     1      -9.139  15.896  69.460  1.00  0.00    -0.226 N  
HETATM   24  H   UNL     1      -8.947  15.991  70.457  1.00  0.00     0.000 HD 
BRANCH  23  25
HETATM   25  C   UNL     1      -8.733  16.952  68.586  1.00  0.00    -0.267 A  
HETATM   26  C   UNL     1      -9.566  18.026  68.254  1.00  0.00    -0.321 A  
HETATM   27  C   UNL     1      -9.207  19.007  67.312  1.00  0.00    -0.321 A  
HETATM   28  C   UNL     1     -10.202  20.072  66.941  1.00  0.00    -0.462 C  
HETATM   29  C   UNL     1      -7.938  18.932  66.744  1.00  0.00    -0.259 A  
HETATM   30  F   UNL     1     -10.502  20.082  65.611  1.00  0.00    -0.552 F  
HETATM   31  F   UNL     1      -9.774  21.329  67.246  1.00  0.00    -0.599 F  
HETATM   32  F   UNL     1     -11.403  19.943  67.575  1.00  0.00    -0.398 F  
HETATM   33 CL   UNL     1      -7.383  20.095  65.598  1.00  0.00    -0.324 Cl 
HETATM   34  C   UNL     1      -7.066  17.895  67.104  1.00  0.00    -0.206 A  
HETATM   35  C   UNL     1      -7.459  16.906  68.016  1.00  0.00    -0.177 A  
ENDBRANCH  23  25
ENDBRANCH  21  23
ENDBRANCH  19  21
ENDBRANCH  16  19
ENDBRANCH  12  13
ENDBRANCH  10  12
ENDBRANCH   3   6
TORSDOF 7
ENDMDL
MODEL      197
REMARK 921   NORMALIZED FREE ENERGY PREDICTED BY IDOCK:   -4.89 KCAL/MOL
REMARK 922        TOTAL FREE ENERGY PREDICTED BY IDOCK:   -8.74 KCAL/MOL
REMARK 923 INTER-LIGAND FREE ENERGY PREDICTED BY IDOCK:   -7.62 KCAL/MOL
REMARK 924 INTRA-LIGAND FREE ENERGY PREDICTED BY IDOCK:   -1.12 KCAL/MOL
REMARK 927      BINDING AFFINITY PREDICTED BY RF-SCORE:    0.00 PKD
ROOT
HETATM    1  C   UNL     1     -10.670   3.829  64.266  1.00  0.00    -0.201 C  
HETATM    2  N   UNL     1     -10.301   4.825  65.234  1.00  0.00    -0.444 N  
HETATM    3  C   UNL     1      -9.798   4.476  66.468  1.00  0.00    -0.227 C  
HETATM    4  H   UNL     1     -10.414   5.812  65.002  1.00  0.00     0.000 HD 
HETATM    5  O   UNL     1      -9.644   3.315  66.833  1.00  0.00    -0.161 OA 
ENDROOT
BRANCH   3   6
HETATM    6  C   UNL     1      -9.417   5.628  67.350  1.00  0.00    -0.114 A  
HETATM    7  N   UNL     1      -9.521   5.443  68.696  1.00  0.00    -0.118 NA 
HETATM    8  C   UNL     1      -9.237   6.517  69.467  1.00  0.00    -0.142 A  
HETATM    9  C   UNL     1      -8.899   7.767  68.967  1.00  0.00    -0.138 A  
HETATM   10  C   UNL     1      -8.826   7.926  67.588  1.00  0.00    -0.128 A  
HETATM   11  C   UNL     1      -9.035   6.822  66.763  1.00  0.00    -0.141 A  
BRANCH  10  12
HETATM   12  O   UNL     1      -8.534   9.192  67.112  1.00  0.00    -0.119 OA 
BRANCH  12  13
HETATM   13  C   UNL     1      -9.366  10.230  67.483  1.00  0.00    -0.148 A  
HETATM   14  C   UNL     1     -10.750  10.148  67.388  1.00  0.00    -0.336 A  
HETATM   15  C   UNL     1     -11.529  11.274  67.630  1.00  0.00    -0.341 A  
HETATM   16  C   UNL     1     -10.971  12.472  68.090  1.00  0.00    -0.228 A  
HETATM   17  C   UNL     1      -9.586  12.523  68.273  1.00  0.00    -0.209 A  
HETATM   18  C   UNL     1      -8.786  11.404  67.972  1.00  0.00    -0.155 A  
BRANCH  16  19
HETATM   19  N   UNL     1     -11.763  13.618  68.365  1.00  0.00    -0.338 N  
HETATM   20  H   UNL     1     -12.432  13.575  69.135  1.00  0.00     0.000 HD 
BRANCH  19  21
HETATM   21  C   UNL     1     -11.669  14.797  67.635  1.00  0.00    -0.341 C  
HETATM   22  O   UNL     1     -11.703  14.825  66.411  1.00  0.00    -0.346 OA 
BRANCH  21  23
HETATM   23  N   UNL     1     -11.522  15.933  68.410  1.00  0.00    -0.367 N  
HETATM   24  H   UNL     1     -12.246  16.149  69.095  1.00  0.00     0.000 HD 
BRANCH  23  25
HETATM   25  C   UNL     1     -10.406  16.819  68.298  1.00  0.00    -0.319 A  
HETATM   26  C   UNL     1      -9.097  16.435  68.615  1.00  0.00    -0.233 A  
HETATM   27  C   UNL     1      -8.017  17.335  68.608  1.00  0.00    -0.267 A  
HETATM   28  C   UNL     1      -6.661  16.863  69.057  1.00  0.00    -0.209 C  
HETATM   29  C   UNL     1      -8.260  18.643  68.200  1.00  0.00    -0.303 A  
HETATM   30  F   UNL     1      -6.174  17.568  70.117  1.00  0.00    -0.238 F  
HETATM   31  F   UNL     1      -5.718  16.944  68.077  1.00  0.00    -0.109 F  
HETATM   32  F   UNL     1      -6.642  15.558  69.460  1.00  0.00    -0.130 F  
HETATM   33 CL   UNL     1      -7.004  19.824  68.130  1.00  0.00    -0.315 Cl 
HETATM   34  C   UNL     1      -9.553  19.035  67.826  1.00  0.00    -0.365 A  
HETATM   35  C   UNL     1     -10.623  18.132  67.878  1.00  0.00    -0.389 A  
ENDBRANCH  23  25
ENDBRANCH  21  23
ENDBRANCH  19  21
ENDBRANCH  16  19
ENDBRANCH  12  13
ENDBRANCH  10  12
ENDBRANCH   3   6
TORSDOF 7
ENDMDL
MODEL      198
REMARK 921   NORMALIZED FREE ENERGY PREDICTED BY IDOCK:   -4.87 KCAL/MOL
REMARK 922        TOTAL FREE ENERGY PREDICTED BY IDOCK:   -8.71 KCAL/MOL
REMARK 923 INTER-LIGAND FREE ENERGY PREDICTED BY IDOCK:   -7.16 KCAL/MOL
REMARK 924 INTRA-LIGAND FREE ENERGY PREDICTED BY IDOCK:   -1.55 KCAL/MOL
REMARK 927      BINDING AFFINITY PREDICTED BY RF-SCORE:    0.00 PKD
ROOT
HETATM    1  C   UNL     1     -13.884  15.640  72.824  1.00  0.00    -0.545 C  
HETATM    2  N   UNL     1     -13.506  14.392  72.220  1.00  0.00    -0.392 N  
HETATM    3  C   UNL     1     -12.677  14.348  71.120  1.00  0.00    -0.352 C  
HETATM    4  H   UNL     1     -13.858  13.520  72.614  1.00  0.00     0.000 HD 
HETATM    5  O   UNL     1     -12.221  15.348  70.576  1.00  0.00    -0.338 OA 
ENDROOT
BRANCH   3   6
HETATM    6  C   UNL     1     -12.338  12.971  70.633  1.00  0.00    -0.310 A  
HETATM    7  N   UNL     1     -11.603  12.879  69.488  1.00  0.00    -0.295 NA 
HETATM    8  C   UNL     1     -11.368  11.628  69.033  1.00  0.00    -0.275 A  
HETATM    9  C   UNL     1     -11.859  10.475  69.632  1.00  0.00    -0.306 A  
HETATM   10  C   UNL     1     -12.625  10.609  70.784  1.00  0.00    -0.386 A  
HETATM   11  C   UNL     1     -12.823  11.877  71.329  1.00  0.00    -0.391 A  
BRANCH  10  12
HETATM   12  O   UNL     1     -13.143   9.451  71.337  1.00  0.00    -0.341 OA 
BRANCH  12  13
HETATM   13  C   UNL     1     -12.255   8.485  71.767  1.00  0.00    -0.334 A  
HETATM   14  C   UNL     1     -11.018   8.801  72.315  1.00  0.00    -0.336 A  
HETATM   15  C   UNL     1     -10.102   7.791  72.590  1.00  0.00    -0.320 A  
HETATM   16  C   UNL     1     -10.433   6.439  72.446  1.00  0.00    -0.198 A  
HETATM   17  C   UNL     1     -11.713   6.121  71.981  1.00  0.00    -0.354 A  
HETATM   18  C   UNL     1     -12.621   7.143  71.645  1.00  0.00    -0.410 A  
BRANCH  16  19
HETATM   19  N   UNL     1      -9.513   5.400  72.751  1.00  0.00    -0.145 N  
HETATM   20  H   UNL     1      -9.881   4.477  72.985  1.00  0.00     0.000 HD 
BRANCH  19  21
HETATM   21  C   UNL     1      -8.136   5.583  72.745  1.00  0.00    -0.109 C  
HETATM   22  O   UNL     1      -7.516   6.003  73.714  1.00  0.00    -0.092 OA 
BRANCH  21  23
HETATM   23  N   UNL     1      -7.527   5.260  71.545  1.00  0.00    -0.093 N  
HETATM   24  H   UNL     1      -7.451   4.275  71.290  1.00  0.00     0.000 HD 
BRANCH  23  25
HETATM   25  C   UNL     1      -7.000   6.238  70.646  1.00  0.00    -0.064 A  
HETATM   26  C   UNL     1      -7.458   7.560  70.608  1.00  0.00    -0.077 A  
HETATM   27  C   UNL     1      -7.017   8.492  69.653  1.00  0.00    -0.047 A  
HETATM   28  C   UNL     1      -7.633   9.864  69.621  1.00  0.00    -0.136 C  
HETATM   29  C   UNL     1      -6.032   8.090  68.755  1.00  0.00    -0.039 A  
HETATM   30  F   UNL     1      -8.223  10.157  68.428  1.00  0.00    -0.103 F  
HETATM   31  F   UNL     1      -6.732  10.858  69.858  1.00  0.00    -0.107 F  
HETATM   32  F   UNL     1      -8.613  10.044  70.554  1.00  0.00    -0.186 F  
HETATM   33 CL   UNL     1      -5.399   9.158  67.558  1.00  0.00    -0.037 Cl 
HETATM   34  C   UNL     1      -5.519   6.786  68.810  1.00  0.00    -0.017 A  
HETATM   35  C   UNL     1      -6.002   5.861  69.746  1.00  0.00    -0.025 A  
ENDBRANCH  23  25
ENDBRANCH  21  23
ENDBRANCH  19  21
ENDBRANCH  16  19
ENDBRANCH  12  13
ENDBRANCH  10  12
ENDBRANCH   3   6
TORSDOF 7
ENDMDL
MODEL      199
REMARK 921   NORMALIZED FREE ENERGY PREDICTED BY IDOCK:   -4.86 KCAL/MOL
REMARK 922        TOTAL FREE ENERGY PREDICTED BY IDOCK:   -8.69 KCAL/MOL
REMARK 923 INTER-LIGAND FREE ENERGY PREDICTED BY IDOCK:   -7.77 KCAL/MOL
REMARK 924 INTRA-LIGAND FREE ENERGY PREDICTED BY IDOCK:   -0.93 KCAL/MOL
REMARK 927      BINDING AFFINITY PREDICTED BY RF-SCORE:    0.00 PKD
ROOT
HETATM    1  C   UNL     1      -7.004  17.408  69.270  1.00  0.00    -0.175 C  
HETATM    2  N   UNL     1      -8.128  16.836  68.583  1.00  0.00    -0.240 N  
HETATM    3  C   UNL     1      -8.052  16.478  67.254  1.00  0.00    -0.168 C  
HETATM    4  H   UNL     1      -9.001  16.691  69.088  1.00  0.00     0.000 HD 
HETATM    5  O   UNL     1      -7.046  16.630  66.568  1.00  0.00    -0.233 OA 
ENDROOT
BRANCH   3   6
HETATM    6  C   UNL     1      -9.293  15.853  66.690  1.00  0.00    -0.249 A  
HETATM    7  N   UNL     1      -9.589  16.122  65.387  1.00  0.00    -0.392 NA 
HETATM    8  C   UNL     1     -10.747  15.602  64.922  1.00  0.00    -0.382 A  
HETATM    9  C   UNL     1     -11.639  14.869  65.695  1.00  0.00    -0.245 A  
HETATM   10  C   UNL     1     -11.316  14.635  67.027  1.00  0.00    -0.355 A  
HETATM   11  C   UNL     1     -10.093  15.087  67.521  1.00  0.00    -0.228 A  
BRANCH  10  12
HETATM   12  O   UNL     1     -12.240  13.945  67.790  1.00  0.00    -0.338 OA 
BRANCH  12  13
HETATM   13  C   UNL     1     -11.845  12.753  68.364  1.00  0.00    -0.310 A  
HETATM   14  C   UNL     1     -11.302  11.711  67.621  1.00  0.00    -0.362 A  
HETATM   15  C   UNL     1     -11.064  10.481  68.223  1.00  0.00    -0.340 A  
HETATM   16  C   UNL     1     -11.240  10.287  69.598  1.00  0.00    -0.269 A  
HETATM   17  C   UNL     1     -11.699  11.366  70.359  1.00  0.00    -0.362 A  
HETATM   18  C   UNL     1     -11.998  12.595  69.743  1.00  0.00    -0.365 A  
BRANCH  16  19
HETATM   19  N   UNL     1     -10.972   9.041  70.226  1.00  0.00    -0.241 N  
HETATM   20  H   UNL     1     -11.759   8.486  70.562  1.00  0.00     0.000 HD 
BRANCH  19  21
HETATM   21  C   UNL     1      -9.686   8.543  70.402  1.00  0.00    -0.175 C  
HETATM   22  O   UNL     1      -8.686   9.134  70.016  1.00  0.00    -0.145 OA 
BRANCH  21  23
HETATM   23  N   UNL     1      -9.637   7.318  71.041  1.00  0.00    -0.159 N  
HETATM   24  H   UNL     1      -9.670   7.300  72.060  1.00  0.00     0.000 HD 
BRANCH  23  25
HETATM   25  C   UNL     1      -9.541   6.074  70.342  1.00  0.00    -0.164 A  
HETATM   26  C   UNL     1      -9.442   5.991  68.948  1.00  0.00    -0.140 A  
HETATM   27  C   UNL     1      -9.456   4.767  68.256  1.00  0.00    -0.191 A  
HETATM   28  C   UNL     1      -9.445   4.772  66.751  1.00  0.00    -0.155 C  
HETATM   29  C   UNL     1      -9.501   3.594  69.003  1.00  0.00    -0.156 A  
HETATM   30  F   UNL     1     -10.529   4.150  66.208  1.00  0.00    -0.211 F  
HETATM   31  F   UNL     1      -8.348   4.160  66.225  1.00  0.00    -0.103 F  
HETATM   32  F   UNL     1      -9.447   6.025  66.209  1.00  0.00    -0.161 F  
HETATM   33 CL   UNL     1      -9.496   2.038  68.258  1.00  0.00    -0.258 Cl 
HETATM   34  C   UNL     1      -9.544   3.653  70.403  1.00  0.00    -0.254 A  
HETATM   35  C   UNL     1      -9.569   4.884  71.073  1.00  0.00    -0.238 A  
ENDBRANCH  23  25
ENDBRANCH  21  23
ENDBRANCH  19  21
ENDBRANCH  16  19
ENDBRANCH  12  13
ENDBRANCH  10  12
ENDBRANCH   3   6
TORSDOF 7
ENDMDL
MODEL      200
REMARK 921   NORMALIZED FREE ENERGY PREDICTED BY IDOCK:   -4.84 KCAL/MOL
REMARK 922        TOTAL FREE ENERGY PREDICTED BY IDOCK:   -8.66 KCAL/MOL
REMARK 923 INTER-LIGAND FREE ENERGY PREDICTED BY IDOCK:   -7.74 KCAL/MOL
REMARK 924 INTRA-LIGAND FREE ENERGY PREDICTED BY IDOCK:   -0.92 KCAL/MOL
REMARK 927      BINDING AFFINITY PREDICTED BY RF-SCORE:    0.00 PKD
ROOT
HETATM    1  C   UNL     1      -6.009  18.870  69.744  1.00  0.00    -0.257 C  
HETATM    2  N   UNL     1      -6.251  17.504  69.370  1.00  0.00    -0.241 N  
HETATM    3  C   UNL     1      -7.442  17.117  68.794  1.00  0.00    -0.250 C  
HETATM    4  H   UNL     1      -5.526  16.807  69.533  1.00  0.00     0.000 HD 
HETATM    5  O   UNL     1      -8.371  17.887  68.576  1.00  0.00    -0.295 OA 
ENDROOT
BRANCH   3   6
HETATM    6  C   UNL     1      -7.526  15.667  68.419  1.00  0.00    -0.120 A  
HETATM    7  N   UNL     1      -6.353  14.980  68.320  1.00  0.00    -0.108 NA 
HETATM    8  C   UNL     1      -6.451  13.694  67.914  1.00  0.00    -0.156 A  
HETATM    9  C   UNL     1      -7.644  13.075  67.565  1.00  0.00    -0.166 A  
HETATM   10  C   UNL     1      -8.818  13.814  67.655  1.00  0.00    -0.189 A  
HETATM   11  C   UNL     1      -8.767  15.119  68.144  1.00  0.00    -0.167 A  
BRANCH  10  12
HETATM   12  O   UNL     1      -9.989  13.192  67.257  1.00  0.00    -0.225 OA 
BRANCH  12  13
HETATM   13  C   UNL     1      -9.948  11.835  67.008  1.00  0.00    -0.204 A  
HETATM   14  C   UNL     1      -9.684  11.316  65.746  1.00  0.00    -0.263 A  
HETATM   15  C   UNL     1      -9.806   9.949  65.519  1.00  0.00    -0.381 A  
HETATM   16  C   UNL     1     -10.070   9.051  66.559  1.00  0.00    -0.283 A  
HETATM   17  C   UNL     1     -10.244   9.568  67.846  1.00  0.00    -0.251 A  
HETATM   18  C   UNL     1     -10.180  10.957  68.069  1.00  0.00    -0.202 A  
BRANCH  16  19
HETATM   19  N   UNL     1     -10.169   7.650  66.340  1.00  0.00    -0.485 N  
HETATM   20  H   UNL     1     -10.634   7.321  65.494  1.00  0.00     0.000 HD 
BRANCH  19  21
HETATM   21  C   UNL     1      -9.660   6.709  67.227  1.00  0.00    -0.132 C  
HETATM   22  O   UNL     1      -8.465   6.457  67.315  1.00  0.00    -0.112 OA 
BRANCH  21  23
HETATM   23  N   UNL     1     -10.622   6.073  67.990  1.00  0.00    -0.238 N  
HETATM   24  H   UNL     1     -11.428   5.666  67.515  1.00  0.00     0.000 HD 
BRANCH  23  25
HETATM   25  C   UNL     1     -10.542   5.958  69.413  1.00  0.00    -0.309 A  
HETATM   26  C   UNL     1     -10.810   7.025  70.278  1.00  0.00    -0.283 A  
HETATM   27  C   UNL     1     -10.628   6.942  71.670  1.00  0.00    -0.231 A  
HETATM   28  C   UNL     1     -10.845   8.167  72.516  1.00  0.00    -0.361 C  
HETATM   29  C   UNL     1     -10.230   5.721  72.204  1.00  0.00    -0.199 A  
HETATM   30  F   UNL     1      -9.737   8.532  73.221  1.00  0.00    -0.281 F  
HETATM   31  F   UNL     1     -11.846   8.014  73.427  1.00  0.00    -0.209 F  
HETATM   32  F   UNL     1     -11.188   9.275  71.795  1.00  0.00    -0.386 F  
HETATM   33 CL   UNL     1     -10.001   5.499  73.900  1.00  0.00    -0.180 Cl 
HETATM   34  C   UNL     1     -10.009   4.622  71.361  1.00  0.00    -0.267 A  
HETATM   35  C   UNL     1     -10.159   4.737  69.973  1.00  0.00    -0.308 A  
ENDBRANCH  23  25
ENDBRANCH  21  23
ENDBRANCH  19  21
ENDBRANCH  16  19
ENDBRANCH  12  13
ENDBRANCH  10  12
ENDBRANCH   3   6
TORSDOF 7
ENDMDL
MODEL      201
REMARK 921   NORMALIZED FREE ENERGY PREDICTED BY IDOCK:   -4.83 KCAL/MOL
REMARK 922        TOTAL FREE ENERGY PREDICTED BY IDOCK:   -8.65 KCAL/MOL
REMARK 923 INTER-LIGAND FREE ENERGY PREDICTED BY IDOCK:   -7.64 KCAL/MOL
REMARK 924 INTRA-LIGAND FREE ENERGY PREDICTED BY IDOCK:   -1.01 KCAL/MOL
REMARK 927      BINDING AFFINITY PREDICTED BY RF-SCORE:    0.00 PKD
ROOT
HETATM    1  C   UNL     1      -6.528   1.546  63.937  1.00  0.00    -0.014 C  
HETATM    2  N   UNL     1      -6.346   2.876  64.448  1.00  0.00    -0.023 N  
HETATM    3  C   UNL     1      -7.414   3.637  64.871  1.00  0.00    -0.073 C  
HETATM    4  H   UNL     1      -5.405   3.266  64.499  1.00  0.00     0.000 HD 
HETATM    5  O   UNL     1      -8.578   3.252  64.831  1.00  0.00    -0.100 OA 
ENDROOT
BRANCH   3   6
HETATM    6  C   UNL     1      -7.058   4.987  65.418  1.00  0.00    -0.067 A  
HETATM    7  N   UNL     1      -5.846   5.112  66.029  1.00  0.00    -0.018 NA 
HETATM    8  C   UNL     1      -5.577   6.320  66.574  1.00  0.00    -0.013 A  
HETATM    9  C   UNL     1      -6.464   7.389  66.576  1.00  0.00    -0.052 A  
HETATM   10  C   UNL     1      -7.700   7.218  65.965  1.00  0.00    -0.095 A  
HETATM   11  C   UNL     1      -7.984   6.013  65.324  1.00  0.00    -0.117 A  
BRANCH  10  12
HETATM   12  O   UNL     1      -8.586   8.280  66.021  1.00  0.00    -0.132 OA 
BRANCH  12  13
HETATM   13  C   UNL     1      -9.150   8.588  67.244  1.00  0.00    -0.133 A  
HETATM   14  C   UNL     1      -8.851   9.760  67.929  1.00  0.00    -0.122 A  
HETATM   15  C   UNL     1      -9.327   9.947  69.221  1.00  0.00    -0.215 A  
HETATM   16  C   UNL     1     -10.209   9.041  69.821  1.00  0.00    -0.205 A  
HETATM   17  C   UNL     1     -10.580   7.907  69.092  1.00  0.00    -0.184 A  
HETATM   18  C   UNL     1     -10.053   7.683  67.806  1.00  0.00    -0.237 A  
BRANCH  16  19
HETATM   19  N   UNL     1     -10.722   9.239  71.131  1.00  0.00    -0.306 N  
HETATM   20  H   UNL     1     -10.062   9.366  71.898  1.00  0.00     0.000 HD 
BRANCH  19  21
HETATM   21  C   UNL     1     -12.082   9.269  71.414  1.00  0.00    -0.348 C  
HETATM   22  O   UNL     1     -12.584   8.635  72.333  1.00  0.00    -0.383 OA 
BRANCH  21  23
HETATM   23  N   UNL     1     -12.821  10.067  70.560  1.00  0.00    -0.556 N  
HETATM   24  H   UNL     1     -13.628   9.658  70.089  1.00  0.00     0.000 HD 
BRANCH  23  25
HETATM   25  C   UNL     1     -12.508  11.439  70.303  1.00  0.00    -0.232 A  
HETATM   26  C   UNL     1     -12.589  12.433  71.285  1.00  0.00    -0.332 A  
HETATM   27  C   UNL     1     -12.385  13.796  71.007  1.00  0.00    -0.452 A  
HETATM   28  C   UNL     1     -12.588  14.810  72.100  1.00  0.00    -0.334 C  
HETATM   29  C   UNL     1     -12.022  14.151  69.711  1.00  0.00    -0.339 A  
HETATM   30  F   UNL     1     -13.541  15.736  71.800  1.00  0.00    -0.517 F  
HETATM   31  F   UNL     1     -11.455  15.507  72.395  1.00  0.00    -0.463 F  
HETATM   32  F   UNL     1     -12.987  14.262  73.285  1.00  0.00    -0.566 F  
HETATM   33 CL   UNL     1     -11.725  15.791  69.265  1.00  0.00    -0.379 Cl 
HETATM   34  C   UNL     1     -11.883  13.165  68.724  1.00  0.00    -0.361 A  
HETATM   35  C   UNL     1     -12.128  11.815  69.013  1.00  0.00    -0.276 A  
ENDBRANCH  23  25
ENDBRANCH  21  23
ENDBRANCH  19  21
ENDBRANCH  16  19
ENDBRANCH  12  13
ENDBRANCH  10  12
ENDBRANCH   3   6
TORSDOF 7
ENDMDL
MODEL      202
REMARK 921   NORMALIZED FREE ENERGY PREDICTED BY IDOCK:   -4.83 KCAL/MOL
REMARK 922        TOTAL FREE ENERGY PREDICTED BY IDOCK:   -8.65 KCAL/MOL
REMARK 923 INTER-LIGAND FREE ENERGY PREDICTED BY IDOCK:   -7.91 KCAL/MOL
REMARK 924 INTRA-LIGAND FREE ENERGY PREDICTED BY IDOCK:   -0.74 KCAL/MOL
REMARK 927      BINDING AFFINITY PREDICTED BY RF-SCORE:    0.00 PKD
ROOT
HETATM    1  C   UNL     1      -9.968   4.088  65.429  1.00  0.00    -0.179 C  
HETATM    2  N   UNL     1      -9.865   4.298  66.846  1.00  0.00    -0.213 N  
HETATM    3  C   UNL     1     -10.447   5.389  67.455  1.00  0.00    -0.170 C  
HETATM    4  H   UNL     1      -9.352   3.625  67.414  1.00  0.00     0.000 HD 
HETATM    5  O   UNL     1     -11.069   6.253  66.846  1.00  0.00    -0.361 OA 
ENDROOT
BRANCH   3   6
HETATM    6  C   UNL     1     -10.290   5.445  68.946  1.00  0.00    -0.190 A  
HETATM    7  N   UNL     1      -9.760   4.349  69.558  1.00  0.00    -0.205 NA 
HETATM    8  C   UNL     1      -9.692   4.398  70.908  1.00  0.00    -0.197 A  
HETATM    9  C   UNL     1     -10.159   5.458  71.674  1.00  0.00    -0.259 A  
HETATM   10  C   UNL     1     -10.715   6.550  71.016  1.00  0.00    -0.243 A  
HETATM   11  C   UNL     1     -10.731   6.570  69.622  1.00  0.00    -0.323 A  
BRANCH  10  12
HETATM   12  O   UNL     1     -11.217   7.572  71.801  1.00  0.00    -0.238 OA 
BRANCH  12  13
HETATM   13  C   UNL     1     -11.474   8.786  71.196  1.00  0.00    -0.286 A  
HETATM   14  C   UNL     1     -12.570   9.571  71.533  1.00  0.00    -0.462 A  
HETATM   15  C   UNL     1     -12.866  10.707  70.788  1.00  0.00    -0.439 A  
HETATM   16  C   UNL     1     -12.018  11.162  69.772  1.00  0.00    -0.357 A  
HETATM   17  C   UNL     1     -10.866  10.420  69.496  1.00  0.00    -0.295 A  
HETATM   18  C   UNL     1     -10.595   9.236  70.208  1.00  0.00    -0.278 A  
BRANCH  16  19
HETATM   19  N   UNL     1     -12.298  12.338  69.024  1.00  0.00     0.047 N  
HETATM   20  H   UNL     1     -13.048  12.308  68.333  1.00  0.00     0.000 HD 
BRANCH  19  21
HETATM   21  C   UNL     1     -11.597  13.526  69.192  1.00  0.00    -0.310 C  
HETATM   22  O   UNL     1     -11.642  14.185  70.223  1.00  0.00    -0.263 OA 
BRANCH  21  23
HETATM   23  N   UNL     1     -10.854  13.905  68.088  1.00  0.00    -0.243 N  
HETATM   24  H   UNL     1     -10.960  14.857  67.737  1.00  0.00     0.000 HD 
BRANCH  23  25
HETATM   25  C   UNL     1      -9.947  13.029  67.416  1.00  0.00    -0.228 A  
HETATM   26  C   UNL     1     -10.194  12.515  66.137  1.00  0.00    -0.269 A  
HETATM   27  C   UNL     1      -9.354  11.570  65.521  1.00  0.00    -0.203 A  
HETATM   28  C   UNL     1      -9.746  10.996  64.186  1.00  0.00    -0.285 C  
HETATM   29  C   UNL     1      -8.196  11.190  66.192  1.00  0.00    -0.128 A  
HETATM   30  F   UNL     1      -9.882   9.640  64.208  1.00  0.00    -0.274 F  
HETATM   31  F   UNL     1      -8.846  11.275  63.202  1.00  0.00    -0.198 F  
HETATM   32  F   UNL     1     -10.940  11.465  63.719  1.00  0.00    -0.390 F  
HETATM   33 CL   UNL     1      -7.083  10.058  65.518  1.00  0.00    -0.125 Cl 
HETATM   34  C   UNL     1      -7.901  11.734  67.450  1.00  0.00    -0.155 A  
HETATM   35  C   UNL     1      -8.772  12.645  68.064  1.00  0.00    -0.190 A  
ENDBRANCH  23  25
ENDBRANCH  21  23
ENDBRANCH  19  21
ENDBRANCH  16  19
ENDBRANCH  12  13
ENDBRANCH  10  12
ENDBRANCH   3   6
TORSDOF 7
ENDMDL
MODEL      203
REMARK 921   NORMALIZED FREE ENERGY PREDICTED BY IDOCK:   -4.80 KCAL/MOL
REMARK 922        TOTAL FREE ENERGY PREDICTED BY IDOCK:   -8.61 KCAL/MOL
REMARK 923 INTER-LIGAND FREE ENERGY PREDICTED BY IDOCK:   -8.44 KCAL/MOL
REMARK 924 INTRA-LIGAND FREE ENERGY PREDICTED BY IDOCK:   -0.18 KCAL/MOL
REMARK 927      BINDING AFFINITY PREDICTED BY RF-SCORE:    0.00 PKD
ROOT
HETATM    1  C   UNL     1      -5.137  18.217  64.933  1.00  0.00    -0.049 C  
HETATM    2  N   UNL     1      -6.486  18.321  65.416  1.00  0.00    -0.236 N  
HETATM    3  C   UNL     1      -6.768  18.868  66.649  1.00  0.00    -0.194 C  
HETATM    4  H   UNL     1      -7.252  17.983  64.834  1.00  0.00     0.000 HD 
HETATM    5  O   UNL     1      -5.908  19.285  67.418  1.00  0.00    -0.181 OA 
ENDROOT
BRANCH   3   6
HETATM    6  C   UNL     1      -8.225  18.948  66.993  1.00  0.00    -0.270 A  
HETATM    7  N   UNL     1      -8.948  19.948  66.416  1.00  0.00    -0.366 NA 
HETATM    8  C   UNL     1     -10.243  20.040  66.794  1.00  0.00    -0.462 A  
HETATM    9  C   UNL     1     -10.839  19.218  67.742  1.00  0.00    -0.416 A  
HETATM   10  C   UNL     1     -10.064  18.223  68.328  1.00  0.00    -0.386 A  
HETATM   11  C   UNL     1      -8.747  18.047  67.907  1.00  0.00    -0.258 A  
BRANCH  10  12
HETATM   12  O   UNL     1     -10.665  17.447  69.304  1.00  0.00    -0.220 OA 
BRANCH  12  13
HETATM   13  C   UNL     1     -10.663  16.077  69.133  1.00  0.00    -0.272 A  
HETATM   14  C   UNL     1      -9.647  15.410  68.458  1.00  0.00    -0.201 A  
HETATM   15  C   UNL     1      -9.772  14.053  68.182  1.00  0.00    -0.220 A  
HETATM   16  C   UNL     1     -10.842  13.297  68.673  1.00  0.00    -0.259 A  
HETATM   17  C   UNL     1     -11.817  13.954  69.431  1.00  0.00    -0.384 A  
HETATM   18  C   UNL     1     -11.725  15.340  69.661  1.00  0.00    -0.355 A  
BRANCH  16  19
HETATM   19  N   UNL     1     -10.963  11.905  68.420  1.00  0.00    -0.217 N  
HETATM   20  H   UNL     1     -10.594  11.535  67.543  1.00  0.00     0.000 HD 
BRANCH  19  21
HETATM   21  C   UNL     1     -11.560  11.022  69.312  1.00  0.00    -0.314 C  
HETATM   22  O   UNL     1     -12.713  10.629  69.187  1.00  0.00    -0.160 OA 
BRANCH  21  23
HETATM   23  N   UNL     1     -10.743  10.636  70.359  1.00  0.00    -0.416 N  
HETATM   24  H   UNL     1     -10.024  11.286  70.678  1.00  0.00     0.000 HD 
BRANCH  23  25
HETATM   25  C   UNL     1     -10.855   9.372  71.015  1.00  0.00    -0.336 A  
HETATM   26  C   UNL     1     -10.209   8.217  70.556  1.00  0.00    -0.213 A  
HETATM   27  C   UNL     1     -10.405   6.953  71.139  1.00  0.00    -0.222 A  
HETATM   28  C   UNL     1      -9.749   5.748  70.522  1.00  0.00    -0.177 C  
HETATM   29  C   UNL     1     -11.224   6.870  72.261  1.00  0.00    -0.263 A  
HETATM   30  F   UNL     1     -10.642   4.795  70.131  1.00  0.00    -0.311 F  
HETATM   31  F   UNL     1      -8.872   5.131  71.362  1.00  0.00    -0.124 F  
HETATM   32  F   UNL     1      -9.024   6.034  69.401  1.00  0.00    -0.123 F  
HETATM   33 CL   UNL     1     -11.514   5.374  73.069  1.00  0.00    -0.354 Cl 
HETATM   34  C   UNL     1     -11.837   8.023  72.770  1.00  0.00    -0.303 A  
HETATM   35  C   UNL     1     -11.660   9.268  72.151  1.00  0.00    -0.172 A  
ENDBRANCH  23  25
ENDBRANCH  21  23
ENDBRANCH  19  21
ENDBRANCH  16  19
ENDBRANCH  12  13
ENDBRANCH  10  12
ENDBRANCH   3   6
TORSDOF 7
ENDMDL
MODEL      204
REMARK 921   NORMALIZED FREE ENERGY PREDICTED BY IDOCK:   -4.77 KCAL/MOL
REMARK 922        TOTAL FREE ENERGY PREDICTED BY IDOCK:   -8.58 KCAL/MOL
REMARK 923 INTER-LIGAND FREE ENERGY PREDICTED BY IDOCK:   -7.53 KCAL/MOL
REMARK 924 INTRA-LIGAND FREE ENERGY PREDICTED BY IDOCK:   -1.05 KCAL/MOL
REMARK 927      BINDING AFFINITY PREDICTED BY RF-SCORE:    0.00 PKD
ROOT
HETATM    1  C   UNL     1      -5.875  21.316  65.746  1.00  0.00    -0.200 C  
HETATM    2  N   UNL     1      -7.010  20.470  65.994  1.00  0.00    -0.409 N  
HETATM    3  C   UNL     1      -6.869  19.233  66.584  1.00  0.00    -0.194 C  
HETATM    4  H   UNL     1      -7.940  20.792  65.728  1.00  0.00     0.000 HD 
HETATM    5  O   UNL     1      -5.787  18.763  66.921  1.00  0.00    -0.158 OA 
ENDROOT
BRANCH   3   6
HETATM    6  C   UNL     1      -8.149  18.488  66.817  1.00  0.00    -0.254 A  
HETATM    7  N   UNL     1      -9.301  19.083  66.398  1.00  0.00    -0.336 NA 
HETATM    8  C   UNL     1     -10.448  18.424  66.679  1.00  0.00    -0.385 A  
HETATM    9  C   UNL     1     -10.506  17.231  67.389  1.00  0.00    -0.338 A  
HETATM   10  C   UNL     1      -9.313  16.665  67.822  1.00  0.00    -0.222 A  
HETATM   11  C   UNL     1      -8.106  17.274  67.483  1.00  0.00    -0.197 A  
BRANCH  10  12
HETATM   12  O   UNL     1      -9.398  15.503  68.568  1.00  0.00    -0.186 OA 
BRANCH  12  13
HETATM   13  C   UNL     1      -9.882  14.369  67.946  1.00  0.00    -0.224 A  
HETATM   14  C   UNL     1     -11.038  13.722  68.367  1.00  0.00    -0.287 A  
HETATM   15  C   UNL     1     -11.394  12.502  67.804  1.00  0.00    -0.351 A  
HETATM   16  C   UNL     1     -10.687  11.953  66.728  1.00  0.00    -0.246 A  
HETATM   17  C   UNL     1      -9.577  12.653  66.246  1.00  0.00    -0.244 A  
HETATM   18  C   UNL     1      -9.178  13.859  66.853  1.00  0.00    -0.269 A  
BRANCH  16  19
HETATM   19  N   UNL     1     -11.061  10.720  66.128  1.00  0.00     0.035 N  
HETATM   20  H   UNL     1     -12.054  10.516  66.013  1.00  0.00     0.000 HD 
BRANCH  19  21
HETATM   21  C   UNL     1     -10.135   9.780  65.691  1.00  0.00    -0.212 C  
HETATM   22  O   UNL     1      -9.387   9.976  64.742  1.00  0.00    -0.230 OA 
BRANCH  21  23
HETATM   23  N   UNL     1     -10.143   8.600  66.412  1.00  0.00    -0.375 N  
HETATM   24  H   UNL     1     -10.491   7.756  65.957  1.00  0.00     0.000 HD 
BRANCH  23  25
HETATM   25  C   UNL     1      -9.687   8.506  67.764  1.00  0.00    -0.162 A  
HETATM   26  C   UNL     1     -10.556   8.340  68.849  1.00  0.00    -0.160 A  
HETATM   27  C   UNL     1     -10.118   8.354  70.185  1.00  0.00    -0.193 A  
HETATM   28  C   UNL     1     -11.131   8.268  71.294  1.00  0.00    -0.251 C  
HETATM   29  C   UNL     1      -8.752   8.470  70.423  1.00  0.00    -0.149 A  
HETATM   30  F   UNL     1     -11.096   9.341  72.133  1.00  0.00    -0.422 F  
HETATM   31  F   UNL     1     -10.971   7.164  72.075  1.00  0.00    -0.226 F  
HETATM   32  F   UNL     1     -12.421   8.206  70.851  1.00  0.00    -0.271 F  
HETATM   33 CL   UNL     1      -8.102   8.474  72.020  1.00  0.00    -0.189 Cl 
HETATM   34  C   UNL     1      -7.858   8.583  69.348  1.00  0.00    -0.098 A  
HETATM   35  C   UNL     1      -8.319   8.605  68.025  1.00  0.00    -0.123 A  
ENDBRANCH  23  25
ENDBRANCH  21  23
ENDBRANCH  19  21
ENDBRANCH  16  19
ENDBRANCH  12  13
ENDBRANCH  10  12
ENDBRANCH   3   6
TORSDOF 7
ENDMDL
MODEL      205
REMARK 921   NORMALIZED FREE ENERGY PREDICTED BY IDOCK:   -4.74 KCAL/MOL
REMARK 922        TOTAL FREE ENERGY PREDICTED BY IDOCK:   -8.52 KCAL/MOL
REMARK 923 INTER-LIGAND FREE ENERGY PREDICTED BY IDOCK:   -7.72 KCAL/MOL
REMARK 924 INTRA-LIGAND FREE ENERGY PREDICTED BY IDOCK:   -0.80 KCAL/MOL
REMARK 927      BINDING AFFINITY PREDICTED BY RF-SCORE:    0.00 PKD
ROOT
HETATM    1  C   UNL     1      -6.796  20.337  65.187  1.00  0.00    -0.264 C  
HETATM    2  N   UNL     1      -7.276  19.207  65.932  1.00  0.00    -0.272 N  
HETATM    3  C   UNL     1      -8.559  19.169  66.433  1.00  0.00    -0.328 C  
HETATM    4  H   UNL     1      -6.654  18.415  66.094  1.00  0.00     0.000 HD 
HETATM    5  O   UNL     1      -9.366  20.082  66.298  1.00  0.00    -0.379 OA 
ENDROOT
BRANCH   3   6
HETATM    6  C   UNL     1      -8.926  17.904  67.150  1.00  0.00    -0.251 A  
HETATM    7  N   UNL     1      -8.040  17.430  68.070  1.00  0.00    -0.220 NA 
HETATM    8  C   UNL     1      -8.362  16.253  68.654  1.00  0.00    -0.220 A  
HETATM    9  C   UNL     1      -9.492  15.510  68.338  1.00  0.00    -0.196 A  
HETATM   10  C   UNL     1     -10.362  16.013  67.377  1.00  0.00    -0.294 A  
HETATM   11  C   UNL     1     -10.104  17.261  66.810  1.00  0.00    -0.302 A  
BRANCH  10  12
HETATM   12  O   UNL     1     -11.455  15.234  67.044  1.00  0.00    -0.286 OA 
BRANCH  12  13
HETATM   13  C   UNL     1     -11.220  14.006  66.457  1.00  0.00    -0.322 A  
HETATM   14  C   UNL     1     -11.364  12.809  67.148  1.00  0.00    -0.365 A  
HETATM   15  C   UNL     1     -10.968  11.615  66.556  1.00  0.00    -0.349 A  
HETATM   16  C   UNL     1     -10.537  11.559  65.226  1.00  0.00    -0.283 A  
HETATM   17  C   UNL     1     -10.481  12.755  64.503  1.00  0.00    -0.392 A  
HETATM   18  C   UNL     1     -10.824  13.974  65.118  1.00  0.00    -0.376 A  
BRANCH  16  19
HETATM   19  N   UNL     1     -10.158  10.339  64.604  1.00  0.00    -0.321 N  
HETATM   20  H   UNL     1     -10.799   9.914  63.934  1.00  0.00     0.000 HD 
BRANCH  19  21
HETATM   21  C   UNL     1      -8.953   9.699  64.868  1.00  0.00    -0.217 C  
HETATM   22  O   UNL     1      -7.864  10.234  64.699  1.00  0.00    -0.149 OA 
BRANCH  21  23
HETATM   23  N   UNL     1      -9.090   8.401  65.326  1.00  0.00    -0.414 N  
HETATM   24  H   UNL     1      -9.094   7.644  64.643  1.00  0.00     0.000 HD 
BRANCH  23  25
HETATM   25  C   UNL     1      -9.225   8.069  66.710  1.00  0.00    -0.165 A  
HETATM   26  C   UNL     1      -8.407   7.131  67.349  1.00  0.00    -0.119 A  
HETATM   27  C   UNL     1      -8.609   6.726  68.681  1.00  0.00    -0.122 A  
HETATM   28  C   UNL     1      -7.744   5.640  69.260  1.00  0.00    -0.088 C  
HETATM   29  C   UNL     1      -9.627   7.342  69.403  1.00  0.00    -0.154 A  
HETATM   30  F   UNL     1      -8.458   4.561  69.689  1.00  0.00    -0.069 F  
HETATM   31  F   UNL     1      -7.005   6.060  70.325  1.00  0.00    -0.053 F  
HETATM   32  F   UNL     1      -6.835   5.134  68.375  1.00  0.00    -0.049 F  
HETATM   33 CL   UNL     1      -9.947   6.940  71.050  1.00  0.00    -0.196 Cl 
HETATM   34  C   UNL     1     -10.424   8.324  68.798  1.00  0.00    -0.200 A  
HETATM   35  C   UNL     1     -10.230   8.685  67.458  1.00  0.00    -0.308 A  
ENDBRANCH  23  25
ENDBRANCH  21  23
ENDBRANCH  19  21
ENDBRANCH  16  19
ENDBRANCH  12  13
ENDBRANCH  10  12
ENDBRANCH   3   6
TORSDOF 7
ENDMDL
MODEL      206
REMARK 921   NORMALIZED FREE ENERGY PREDICTED BY IDOCK:   -4.72 KCAL/MOL
REMARK 922        TOTAL FREE ENERGY PREDICTED BY IDOCK:   -8.50 KCAL/MOL
REMARK 923 INTER-LIGAND FREE ENERGY PREDICTED BY IDOCK:   -7.59 KCAL/MOL
REMARK 924 INTRA-LIGAND FREE ENERGY PREDICTED BY IDOCK:   -0.91 KCAL/MOL
REMARK 927      BINDING AFFINITY PREDICTED BY RF-SCORE:    0.00 PKD
ROOT
HETATM    1  C   UNL     1     -12.361  14.337  64.440  1.00  0.00    -0.391 C  
HETATM    2  N   UNL     1     -11.508  14.840  65.481  1.00  0.00    -0.342 N  
HETATM    3  C   UNL     1     -10.913  16.080  65.385  1.00  0.00    -0.253 C  
HETATM    4  H   UNL     1     -11.339  14.269  66.308  1.00  0.00     0.000 HD 
HETATM    5  O   UNL     1     -11.051  16.825  64.421  1.00  0.00    -1.072 OA 
ENDROOT
BRANCH   3   6
HETATM    6  C   UNL     1     -10.088  16.483  66.570  1.00  0.00    -0.299 A  
HETATM    7  N   UNL     1     -10.436  17.635  67.209  1.00  0.00    -0.351 NA 
HETATM    8  C   UNL     1      -9.637  18.013  68.232  1.00  0.00    -0.318 A  
HETATM    9  C   UNL     1      -8.492  17.328  68.621  1.00  0.00    -0.260 A  
HETATM   10  C   UNL     1      -8.154  16.170  67.931  1.00  0.00    -0.145 A  
HETATM   11  C   UNL     1      -8.997  15.706  66.922  1.00  0.00    -0.267 A  
BRANCH  10  12
HETATM   12  O   UNL     1      -6.984  15.531  68.303  1.00  0.00    -0.107 OA 
BRANCH  12  13
HETATM   13  C   UNL     1      -6.954  14.151  68.245  1.00  0.00    -0.106 A  
HETATM   14  C   UNL     1      -7.000  13.454  67.043  1.00  0.00     0.492 A  
HETATM   15  C   UNL     1      -7.121  12.069  67.049  1.00  0.00    -0.091 A  
HETATM   16  C   UNL     1      -7.075  11.331  68.237  1.00  0.00    -0.074 A  
HETATM   17  C   UNL     1      -6.936  12.030  69.440  1.00  0.00     0.024 A  
HETATM   18  C   UNL     1      -6.874  13.437  69.442  1.00  0.00     0.005 A  
BRANCH  16  19
HETATM   19  N   UNL     1      -7.169   9.914  68.251  1.00  0.00    -0.077 N  
HETATM   20  H   UNL     1      -6.339   9.372  68.492  1.00  0.00     0.000 HD 
BRANCH  19  21
HETATM   21  C   UNL     1      -8.342   9.231  67.949  1.00  0.00    -0.116 C  
HETATM   22  O   UNL     1      -8.399   8.010  67.872  1.00  0.00    -0.127 OA 
BRANCH  21  23
HETATM   23  N   UNL     1      -9.434  10.050  67.733  1.00  0.00    -0.140 N  
HETATM   24  H   UNL     1      -9.602  10.395  66.787  1.00  0.00     0.000 HD 
BRANCH  23  25
HETATM   25  C   UNL     1     -10.341  10.438  68.768  1.00  0.00    -0.196 A  
HETATM   26  C   UNL     1     -10.960   9.516  69.620  1.00  0.00    -0.233 A  
HETATM   27  C   UNL     1     -11.932   9.887  70.566  1.00  0.00    -0.320 A  
HETATM   28  C   UNL     1     -12.620   8.820  71.374  1.00  0.00    -0.294 C  
HETATM   29  C   UNL     1     -12.231  11.240  70.699  1.00  0.00    -0.393 A  
HETATM   30  F   UNL     1     -13.972   8.813  71.206  1.00  0.00    -0.400 F  
HETATM   31  F   UNL     1     -12.400   8.941  72.712  1.00  0.00    -0.411 F  
HETATM   32  F   UNL     1     -12.217   7.554  71.061  1.00  0.00    -0.321 F  
HETATM   33 CL   UNL     1     -13.388  11.809  71.845  1.00  0.00    -0.503 Cl 
HETATM   34  C   UNL     1     -11.582  12.186  69.893  1.00  0.00    -0.297 A  
HETATM   35  C   UNL     1     -10.645  11.791  68.929  1.00  0.00    -0.211 A  
ENDBRANCH  23  25
ENDBRANCH  21  23
ENDBRANCH  19  21
ENDBRANCH  16  19
ENDBRANCH  12  13
ENDBRANCH  10  12
ENDBRANCH   3   6
TORSDOF 7
ENDMDL
MODEL      207
REMARK 921   NORMALIZED FREE ENERGY PREDICTED BY IDOCK:   -4.72 KCAL/MOL
REMARK 922        TOTAL FREE ENERGY PREDICTED BY IDOCK:   -8.50 KCAL/MOL
REMARK 923 INTER-LIGAND FREE ENERGY PREDICTED BY IDOCK:   -7.31 KCAL/MOL
REMARK 924 INTRA-LIGAND FREE ENERGY PREDICTED BY IDOCK:   -1.19 KCAL/MOL
REMARK 927      BINDING AFFINITY PREDICTED BY RF-SCORE:    0.00 PKD
ROOT
HETATM    1  C   UNL     1     -14.351   8.301  72.574  1.00  0.00    -0.130 C  
HETATM    2  N   UNL     1     -12.930   8.124  72.453  1.00  0.00    -0.558 N  
HETATM    3  C   UNL     1     -12.137   9.070  71.840  1.00  0.00    -0.378 C  
HETATM    4  H   UNL     1     -12.499   7.280  72.829  1.00  0.00     0.000 HD 
HETATM    5  O   UNL     1     -12.575  10.105  71.349  1.00  0.00    -0.352 OA 
ENDROOT
BRANCH   3   6
HETATM    6  C   UNL     1     -10.669   8.762  71.832  1.00  0.00    -0.359 A  
HETATM    7  N   UNL     1     -10.217   7.859  72.746  1.00  0.00    -0.288 NA 
HETATM    8  C   UNL     1      -8.881   7.649  72.763  1.00  0.00    -0.153 A  
HETATM    9  C   UNL     1      -7.977   8.320  71.950  1.00  0.00    -0.165 A  
HETATM   10  C   UNL     1      -8.472   9.252  71.046  1.00  0.00    -0.089 A  
HETATM   11  C   UNL     1      -9.850   9.438  70.944  1.00  0.00    -0.338 A  
BRANCH  10  12
HETATM   12  O   UNL     1      -7.549   9.942  70.280  1.00  0.00    -0.164 OA 
BRANCH  12  13
HETATM   13  C   UNL     1      -7.378   9.554  68.966  1.00  0.00    -0.072 A  
HETATM   14  C   UNL     1      -6.564  10.251  68.082  1.00  0.00    -0.057 A  
HETATM   15  C   UNL     1      -6.548   9.907  66.735  1.00  0.00    -0.071 A  
HETATM   16  C   UNL     1      -7.241   8.791  66.252  1.00  0.00    -0.086 A  
HETATM   17  C   UNL     1      -7.987   8.036  67.162  1.00  0.00    -0.113 A  
HETATM   18  C   UNL     1      -8.053   8.417  68.516  1.00  0.00    -0.123 A  
BRANCH  16  19
HETATM   19  N   UNL     1      -7.208   8.416  64.882  1.00  0.00    -0.082 N  
HETATM   20  H   UNL     1      -6.530   7.714  64.585  1.00  0.00     0.000 HD 
BRANCH  19  21
HETATM   21  C   UNL     1      -8.058   8.961  63.927  1.00  0.00    -0.163 C  
HETATM   22  O   UNL     1      -8.742   8.277  63.177  1.00  0.00     0.045 OA 
BRANCH  21  23
HETATM   23  N   UNL     1      -8.055  10.344  63.891  1.00  0.00    -0.269 N  
HETATM   24  H   UNL     1      -7.192  10.820  63.625  1.00  0.00     0.000 HD 
BRANCH  23  25
HETATM   25  C   UNL     1      -9.200  11.139  64.207  1.00  0.00    -0.106 A  
HETATM   26  C   UNL     1      -9.450  11.633  65.493  1.00  0.00    -0.215 A  
HETATM   27  C   UNL     1     -10.629  12.323  65.828  1.00  0.00    -0.289 A  
HETATM   28  C   UNL     1     -10.862  12.733  67.256  1.00  0.00    -0.251 C  
HETATM   29  C   UNL     1     -11.546  12.579  64.813  1.00  0.00    -0.337 A  
HETATM   30  F   UNL     1     -12.001  12.202  67.785  1.00  0.00    -0.390 F  
HETATM   31  F   UNL     1     -10.960  14.083  67.413  1.00  0.00    -0.276 F  
HETATM   32  F   UNL     1      -9.865  12.348  68.105  1.00  0.00    -0.188 F  
HETATM   33 CL   UNL     1     -13.013  13.438  65.106  1.00  0.00    -0.366 Cl 
HETATM   34  C   UNL     1     -11.290  12.141  63.506  1.00  0.00    -0.535 A  
HETATM   35  C   UNL     1     -10.126  11.420  63.202  1.00  0.00    -0.390 A  
ENDBRANCH  23  25
ENDBRANCH  21  23
ENDBRANCH  19  21
ENDBRANCH  16  19
ENDBRANCH  12  13
ENDBRANCH  10  12
ENDBRANCH   3   6
TORSDOF 7
ENDMDL
MODEL      208
REMARK 921   NORMALIZED FREE ENERGY PREDICTED BY IDOCK:   -4.72 KCAL/MOL
REMARK 922        TOTAL FREE ENERGY PREDICTED BY IDOCK:   -8.49 KCAL/MOL
REMARK 923 INTER-LIGAND FREE ENERGY PREDICTED BY IDOCK:   -7.32 KCAL/MOL
REMARK 924 INTRA-LIGAND FREE ENERGY PREDICTED BY IDOCK:   -1.18 KCAL/MOL
REMARK 927      BINDING AFFINITY PREDICTED BY RF-SCORE:    0.00 PKD
ROOT
HETATM    1  C   UNL     1      -9.693   7.737  73.323  1.00  0.00    -0.294 C  
HETATM    2  N   UNL     1     -10.030   8.127  71.982  1.00  0.00    -0.211 N  
HETATM    3  C   UNL     1      -9.177   8.898  71.222  1.00  0.00    -0.258 C  
HETATM    4  H   UNL     1     -10.919   7.827  71.584  1.00  0.00     0.000 HD 
HETATM    5  O   UNL     1      -8.097   9.313  71.628  1.00  0.00    -0.317 OA 
ENDROOT
BRANCH   3   6
HETATM    6  C   UNL     1      -9.649   9.185  69.828  1.00  0.00    -0.181 A  
HETATM    7  N   UNL     1     -10.048   8.122  69.074  1.00  0.00    -0.200 NA 
HETATM    8  C   UNL     1     -10.405   8.399  67.799  1.00  0.00    -0.235 A  
HETATM    9  C   UNL     1     -10.345   9.664  67.230  1.00  0.00    -0.310 A  
HETATM   10  C   UNL     1      -9.910  10.721  68.022  1.00  0.00    -0.165 A  
HETATM   11  C   UNL     1      -9.609  10.489  69.363  1.00  0.00    -0.170 A  
BRANCH  10  12
HETATM   12  O   UNL     1      -9.813  11.963  67.421  1.00  0.00    -0.182 OA 
BRANCH  12  13
HETATM   13  C   UNL     1      -8.722  12.749  67.733  1.00  0.00    -0.184 A  
HETATM   14  C   UNL     1      -8.844  13.971  68.384  1.00  0.00    -0.180 A  
HETATM   15  C   UNL     1      -7.730  14.790  68.536  1.00  0.00    -0.120 A  
HETATM   16  C   UNL     1      -6.450  14.370  68.160  1.00  0.00    -0.136 A  
HETATM   17  C   UNL     1      -6.317  13.101  67.587  1.00  0.00    -0.163 A  
HETATM   18  C   UNL     1      -7.450  12.293  67.377  1.00  0.00    -0.160 A  
BRANCH  16  19
HETATM   19  N   UNL     1      -5.303  15.189  68.337  1.00  0.00    -0.101 N  
HETATM   20  H   UNL     1      -4.397  14.832  68.033  1.00  0.00     0.000 HD 
BRANCH  19  21
HETATM   21  C   UNL     1      -5.359  16.456  68.906  1.00  0.00    -0.116 C  
HETATM   22  O   UNL     1      -5.496  16.639  70.109  1.00  0.00    -0.182 OA 
BRANCH  21  23
HETATM   23  N   UNL     1      -5.257  17.491  67.995  1.00  0.00    -0.129 N  
HETATM   24  H   UNL     1      -4.327  17.785  67.697  1.00  0.00     0.000 HD 
BRANCH  23  25
HETATM   25  C   UNL     1      -6.392  18.168  67.449  1.00  0.00    -0.172 A  
HETATM   26  C   UNL     1      -7.632  18.216  68.097  1.00  0.00    -0.269 A  
HETATM   27  C   UNL     1      -8.775  18.789  67.513  1.00  0.00    -0.292 A  
HETATM   28  C   UNL     1     -10.092  18.710  68.237  1.00  0.00    -0.389 C  
HETATM   29  C   UNL     1      -8.638  19.393  66.266  1.00  0.00    -0.345 A  
HETATM   30  F   UNL     1     -11.057  18.067  67.521  1.00  0.00    -0.365 F  
HETATM   31  F   UNL     1     -10.600  19.934  68.552  1.00  0.00    -0.535 F  
HETATM   32  F   UNL     1     -10.023  18.038  69.423  1.00  0.00    -0.266 F  
HETATM   33 CL   UNL     1      -9.968  20.148  65.469  1.00  0.00    -0.263 Cl 
HETATM   34  C   UNL     1      -7.392  19.405  65.624  1.00  0.00    -0.214 A  
HETATM   35  C   UNL     1      -6.274  18.793  66.207  1.00  0.00    -0.212 A  
ENDBRANCH  23  25
ENDBRANCH  21  23
ENDBRANCH  19  21
ENDBRANCH  16  19
ENDBRANCH  12  13
ENDBRANCH  10  12
ENDBRANCH   3   6
TORSDOF 7
ENDMDL
MODEL      209
REMARK 921   NORMALIZED FREE ENERGY PREDICTED BY IDOCK:   -4.72 KCAL/MOL
REMARK 922        TOTAL FREE ENERGY PREDICTED BY IDOCK:   -8.49 KCAL/MOL
REMARK 923 INTER-LIGAND FREE ENERGY PREDICTED BY IDOCK:   -7.95 KCAL/MOL
REMARK 924 INTRA-LIGAND FREE ENERGY PREDICTED BY IDOCK:   -0.54 KCAL/MOL
REMARK 927      BINDING AFFINITY PREDICTED BY RF-SCORE:    0.00 PKD
ROOT
HETATM    1  C   UNL     1     -10.507  20.015  66.087  1.00  0.00    -0.415 C  
HETATM    2  N   UNL     1      -9.528  19.015  66.409  1.00  0.00    -0.343 N  
HETATM    3  C   UNL     1      -9.756  18.075  67.391  1.00  0.00    -0.296 C  
HETATM    4  H   UNL     1      -8.644  19.000  65.901  1.00  0.00     0.000 HD 
HETATM    5  O   UNL     1     -10.783  18.031  68.060  1.00  0.00    -0.376 OA 
ENDROOT
BRANCH   3   6
HETATM    6  C   UNL     1      -8.658  17.072  67.581  1.00  0.00    -0.210 A  
HETATM    7  N   UNL     1      -7.427  17.551  67.914  1.00  0.00    -0.200 NA 
HETATM    8  C   UNL     1      -6.439  16.633  68.013  1.00  0.00    -0.133 A  
HETATM    9  C   UNL     1      -6.606  15.278  67.758  1.00  0.00    -0.182 A  
HETATM   10  C   UNL     1      -7.871  14.828  67.397  1.00  0.00    -0.200 A  
HETATM   11  C   UNL     1      -8.932  15.732  67.361  1.00  0.00    -0.204 A  
BRANCH  10  12
HETATM   12  O   UNL     1      -8.003  13.483  67.101  1.00  0.00    -0.139 OA 
BRANCH  12  13
HETATM   13  C   UNL     1      -7.716  12.570  68.096  1.00  0.00    -0.141 A  
HETATM   14  C   UNL     1      -6.569  12.653  68.876  1.00  0.00    -0.095 A  
HETATM   15  C   UNL     1      -6.254  11.625  69.758  1.00  0.00    -0.139 A  
HETATM   16  C   UNL     1      -7.126  10.552  69.980  1.00  0.00    -0.127 A  
HETATM   17  C   UNL     1      -8.324  10.520  69.260  1.00  0.00    -0.144 A  
HETATM   18  C   UNL     1      -8.618  11.528  68.323  1.00  0.00    -0.161 A  
BRANCH  16  19
HETATM   19  N   UNL     1      -6.825   9.512  70.900  1.00  0.00    -0.102 N  
HETATM   20  H   UNL     1      -6.012   9.619  71.508  1.00  0.00     0.000 HD 
BRANCH  19  21
HETATM   21  C   UNL     1      -7.587   8.355  71.009  1.00  0.00    -0.084 C  
HETATM   22  O   UNL     1      -7.508   7.429  70.212  1.00  0.00    -0.079 OA 
BRANCH  21  23
HETATM   23  N   UNL     1      -8.450   8.346  72.089  1.00  0.00    -0.178 N  
HETATM   24  H   UNL     1      -8.052   8.359  73.029  1.00  0.00     0.000 HD 
BRANCH  23  25
HETATM   25  C   UNL     1      -9.873   8.320  71.955  1.00  0.00    -0.232 A  
HETATM   26  C   UNL     1     -10.622   9.442  71.579  1.00  0.00    -0.331 A  
HETATM   27  C   UNL     1     -12.028   9.445  71.550  1.00  0.00    -0.456 A  
HETATM   28  C   UNL     1     -12.756  10.722  71.230  1.00  0.00    -0.441 C  
HETATM   29  C   UNL     1     -12.689   8.256  71.845  1.00  0.00    -0.342 A  
HETATM   30  F   UNL     1     -13.595  11.122  72.227  1.00  0.00    -0.508 F  
HETATM   31  F   UNL     1     -13.514  10.633  70.102  1.00  0.00    -0.209 F  
HETATM   32  F   UNL     1     -11.926  11.785  71.017  1.00  0.00    -0.407 F  
HETATM   33 CL   UNL     1     -14.410   8.140  71.816  1.00  0.00    -0.533 Cl 
HETATM   34  C   UNL     1     -11.957   7.105  72.170  1.00  0.00    -0.304 A  
HETATM   35  C   UNL     1     -10.557   7.135  72.231  1.00  0.00    -0.244 A  
ENDBRANCH  23  25
ENDBRANCH  21  23
ENDBRANCH  19  21
ENDBRANCH  16  19
ENDBRANCH  12  13
ENDBRANCH  10  12
ENDBRANCH   3   6
TORSDOF 7
ENDMDL
MODEL      210
REMARK 921   NORMALIZED FREE ENERGY PREDICTED BY IDOCK:   -4.71 KCAL/MOL
REMARK 922        TOTAL FREE ENERGY PREDICTED BY IDOCK:   -8.48 KCAL/MOL
REMARK 923 INTER-LIGAND FREE ENERGY PREDICTED BY IDOCK:   -7.14 KCAL/MOL
REMARK 924 INTRA-LIGAND FREE ENERGY PREDICTED BY IDOCK:   -1.34 KCAL/MOL
REMARK 927      BINDING AFFINITY PREDICTED BY RF-SCORE:    0.00 PKD
ROOT
HETATM    1  C   UNL     1      -9.136   4.006  71.025  1.00  0.00    -0.116 C  
HETATM    2  N   UNL     1     -10.074   5.029  71.394  1.00  0.00    -0.192 N  
HETATM    3  C   UNL     1     -10.263   6.147  70.610  1.00  0.00    -0.199 C  
HETATM    4  H   UNL     1     -10.612   4.927  72.253  1.00  0.00     0.000 HD 
HETATM    5  O   UNL     1      -9.649   6.356  69.569  1.00  0.00    -0.144 OA 
ENDROOT
BRANCH   3   6
HETATM    6  C   UNL     1     -11.308   7.103  71.104  1.00  0.00    -0.275 A  
HETATM    7  N   UNL     1     -12.511   6.577  71.470  1.00  0.00    -0.260 NA 
HETATM    8  C   UNL     1     -13.457   7.465  71.848  1.00  0.00    -0.229 A  
HETATM    9  C   UNL     1     -13.281   8.843  71.840  1.00  0.00    -0.443 A  
HETATM   10  C   UNL     1     -12.049   9.345  71.438  1.00  0.00    -0.363 A  
HETATM   11  C   UNL     1     -11.022   8.458  71.116  1.00  0.00    -0.292 A  
BRANCH  10  12
HETATM   12  O   UNL     1     -11.912  10.721  71.391  1.00  0.00    -0.262 OA 
BRANCH  12  13
HETATM   13  C   UNL     1     -11.946  11.334  70.154  1.00  0.00    -0.369 A  
HETATM   14  C   UNL     1     -12.022  10.614  68.968  1.00  0.00    -0.186 A  
HETATM   15  C   UNL     1     -11.899  11.272  67.749  1.00  0.00    -0.164 A  
HETATM   16  C   UNL     1     -11.822  12.667  67.669  1.00  0.00    -0.329 A  
HETATM   17  C   UNL     1     -11.839  13.395  68.863  1.00  0.00    -0.373 A  
HETATM   18  C   UNL     1     -11.903  12.728  70.102  1.00  0.00    -0.326 A  
BRANCH  16  19
HETATM   19  N   UNL     1     -11.725  13.349  66.427  1.00  0.00    -0.350 N  
HETATM   20  H   UNL     1     -11.927  14.349  66.402  1.00  0.00     0.000 HD 
BRANCH  19  21
HETATM   21  C   UNL     1     -11.365  12.716  65.243  1.00  0.00    -0.315 C  
HETATM   22  O   UNL     1     -12.184  12.227  64.475  1.00  0.00    -0.410 OA 
BRANCH  21  23
HETATM   23  N   UNL     1     -10.002  12.676  65.013  1.00  0.00    -0.453 N  
HETATM   24  H   UNL     1      -9.562  13.480  64.565  1.00  0.00     0.000 HD 
BRANCH  23  25
HETATM   25  C   UNL     1      -9.179  11.564  65.374  1.00  0.00    -0.108 A  
HETATM   26  C   UNL     1      -8.859  11.255  66.701  1.00  0.00    -0.175 A  
HETATM   27  C   UNL     1      -7.964  10.228  67.049  1.00  0.00    -0.111 A  
HETATM   28  C   UNL     1      -7.599  10.026  68.495  1.00  0.00    -0.087 C  
HETATM   29  C   UNL     1      -7.435   9.448  66.025  1.00  0.00    -0.096 A  
HETATM   30  F   UNL     1      -6.262  10.148  68.729  1.00  0.00    -0.047 F  
HETATM   31  F   UNL     1      -7.962   8.802  68.969  1.00  0.00    -0.101 F  
HETATM   32  F   UNL     1      -8.190  10.923  69.337  1.00  0.00    -0.146 F  
HETATM   33 CL   UNL     1      -6.348   8.146  66.339  1.00  0.00    -0.049 Cl 
HETATM   34  C   UNL     1      -7.785   9.706  64.692  1.00  0.00    -0.130 A  
HETATM   35  C   UNL     1      -8.649  10.760  64.364  1.00  0.00    -0.042 A  
ENDBRANCH  23  25
ENDBRANCH  21  23
ENDBRANCH  19  21
ENDBRANCH  16  19
ENDBRANCH  12  13
ENDBRANCH  10  12
ENDBRANCH   3   6
TORSDOF 7
ENDMDL
MODEL      211
REMARK 921   NORMALIZED FREE ENERGY PREDICTED BY IDOCK:   -4.67 KCAL/MOL
REMARK 922        TOTAL FREE ENERGY PREDICTED BY IDOCK:   -8.43 KCAL/MOL
REMARK 923 INTER-LIGAND FREE ENERGY PREDICTED BY IDOCK:   -6.95 KCAL/MOL
REMARK 924 INTRA-LIGAND FREE ENERGY PREDICTED BY IDOCK:   -1.49 KCAL/MOL
REMARK 927      BINDING AFFINITY PREDICTED BY RF-SCORE:    0.00 PKD
ROOT
HETATM    1  C   UNL     1     -10.889  14.082  68.713  1.00  0.00    -0.263 C  
HETATM    2  N   UNL     1     -11.428  13.082  69.593  1.00  0.00    -0.458 N  
HETATM    3  C   UNL     1     -11.120  11.748  69.439  1.00  0.00    -0.181 C  
HETATM    4  H   UNL     1     -12.053  13.366  70.347  1.00  0.00     0.000 HD 
HETATM    5  O   UNL     1     -10.390  11.320  68.551  1.00  0.00    -0.187 OA 
ENDROOT
BRANCH   3   6
HETATM    6  C   UNL     1     -11.724  10.832  70.461  1.00  0.00    -0.351 A  
HETATM    7  N   UNL     1     -12.916  11.207  71.006  1.00  0.00    -0.304 NA 
HETATM    8  C   UNL     1     -13.407  10.400  71.973  1.00  0.00    -0.335 A  
HETATM    9  C   UNL     1     -12.755   9.270  72.450  1.00  0.00    -0.383 A  
HETATM   10  C   UNL     1     -11.529   8.931  71.888  1.00  0.00    -0.372 A  
HETATM   11  C   UNL     1     -11.028   9.694  70.834  1.00  0.00    -0.412 A  
BRANCH  10  12
HETATM   12  O   UNL     1     -10.876   7.830  72.412  1.00  0.00    -0.253 OA 
BRANCH  12  13
HETATM   13  C   UNL     1     -10.456   6.849  71.535  1.00  0.00    -0.212 A  
HETATM   14  C   UNL     1      -9.236   6.198  71.673  1.00  0.00    -0.150 A  
HETATM   15  C   UNL     1      -8.796   5.331  70.679  1.00  0.00    -0.148 A  
HETATM   16  C   UNL     1      -9.604   4.993  69.587  1.00  0.00    -0.170 A  
HETATM   17  C   UNL     1     -10.869   5.580  69.499  1.00  0.00    -0.254 A  
HETATM   18  C   UNL     1     -11.294   6.504  70.472  1.00  0.00    -0.426 A  
BRANCH  16  19
HETATM   19  N   UNL     1      -9.173   4.086  68.581  1.00  0.00    -0.138 N  
HETATM   20  H   UNL     1      -8.856   3.159  68.864  1.00  0.00     0.000 HD 
BRANCH  19  21
HETATM   21  C   UNL     1      -9.165   4.405  67.228  1.00  0.00    -0.143 C  
HETATM   22  O   UNL     1      -9.987   3.962  66.436  1.00  0.00    -0.166 OA 
BRANCH  21  23
HETATM   23  N   UNL     1      -8.141   5.256  66.854  1.00  0.00    -0.104 N  
HETATM   24  H   UNL     1      -7.180   4.925  66.939  1.00  0.00     0.000 HD 
BRANCH  23  25
HETATM   25  C   UNL     1      -8.363   6.576  66.353  1.00  0.00    -0.120 A  
HETATM   26  C   UNL     1      -8.262   6.900  64.995  1.00  0.00    -0.096 A  
HETATM   27  C   UNL     1      -8.375   8.218  64.516  1.00  0.00    -0.097 A  
HETATM   28  C   UNL     1      -8.155   8.491  63.053  1.00  0.00    -0.174 C  
HETATM   29  C   UNL     1      -8.667   9.223  65.433  1.00  0.00    -0.178 A  
HETATM   30  F   UNL     1      -7.138   9.369  62.821  1.00  0.00    -0.103 F  
HETATM   31  F   UNL     1      -9.255   9.007  62.437  1.00  0.00    -0.239 F  
HETATM   32  F   UNL     1      -7.833   7.378  62.331  1.00  0.00    -0.097 F  
HETATM   33 CL   UNL     1      -8.852  10.869  64.952  1.00  0.00    -0.166 Cl 
HETATM   34  C   UNL     1      -8.827   8.912  66.791  1.00  0.00    -0.142 A  
HETATM   35  C   UNL     1      -8.672   7.598  67.252  1.00  0.00    -0.124 A  
ENDBRANCH  23  25
ENDBRANCH  21  23
ENDBRANCH  19  21
ENDBRANCH  16  19
ENDBRANCH  12  13
ENDBRANCH  10  12
ENDBRANCH   3   6
TORSDOF 7
ENDMDL
MODEL      212
REMARK 921   NORMALIZED FREE ENERGY PREDICTED BY IDOCK:   -4.64 KCAL/MOL
REMARK 922        TOTAL FREE ENERGY PREDICTED BY IDOCK:   -8.38 KCAL/MOL
REMARK 923 INTER-LIGAND FREE ENERGY PREDICTED BY IDOCK:   -7.25 KCAL/MOL
REMARK 924 INTRA-LIGAND FREE ENERGY PREDICTED BY IDOCK:   -1.13 KCAL/MOL
REMARK 927      BINDING AFFINITY PREDICTED BY RF-SCORE:    0.00 PKD
ROOT
HETATM    1  C   UNL     1     -12.763  15.469  71.486  1.00  0.00    -0.434 C  
HETATM    2  N   UNL     1     -11.715  16.184  70.811  1.00  0.00    -0.516 N  
HETATM    3  C   UNL     1     -11.524  16.065  69.452  1.00  0.00    -0.336 C  
HETATM    4  H   UNL     1     -11.101  16.794  71.350  1.00  0.00     0.000 HD 
HETATM    5  O   UNL     1     -12.207  15.344  68.732  1.00  0.00    -0.208 OA 
ENDROOT
BRANCH   3   6
HETATM    6  C   UNL     1     -10.419  16.908  68.888  1.00  0.00    -0.346 A  
HETATM    7  N   UNL     1     -10.779  17.963  68.103  1.00  0.00    -0.332 NA 
HETATM    8  C   UNL     1      -9.764  18.666  67.552  1.00  0.00    -0.310 A  
HETATM    9  C   UNL     1      -8.421  18.349  67.707  1.00  0.00    -0.270 A  
HETATM   10  C   UNL     1      -8.092  17.251  68.495  1.00  0.00    -0.262 A  
HETATM   11  C   UNL     1      -9.106  16.549  69.144  1.00  0.00    -0.184 A  
BRANCH  10  12
HETATM   12  O   UNL     1      -6.751  16.925  68.596  1.00  0.00    -0.161 OA 
BRANCH  12  13
HETATM   13  C   UNL     1      -6.419  15.595  68.756  1.00  0.00    -0.109 A  
HETATM   14  C   UNL     1      -6.468  14.683  67.708  1.00  0.00    -0.182 A  
HETATM   15  C   UNL     1      -6.272  13.329  67.957  1.00  0.00    -0.129 A  
HETATM   16  C   UNL     1      -5.902  12.859  69.222  1.00  0.00    -0.087 A  
HETATM   17  C   UNL     1      -5.763  13.791  70.254  1.00  0.00    -0.142 A  
HETATM   18  C   UNL     1      -6.019  15.156  70.020  1.00  0.00    -0.142 A  
BRANCH  16  19
HETATM   19  N   UNL     1      -5.672  11.481  69.478  1.00  0.00    -0.063 N  
HETATM   20  H   UNL     1      -4.884  11.024  69.018  1.00  0.00     0.000 HD 
BRANCH  19  21
HETATM   21  C   UNL     1      -6.471  10.726  70.328  1.00  0.00    -0.127 C  
HETATM   22  O   UNL     1      -6.015  10.034  71.230  1.00  0.00    -0.218 OA 
BRANCH  21  23
HETATM   23  N   UNL     1      -7.825  10.815  70.059  1.00  0.00    -0.245 N  
HETATM   24  H   UNL     1      -8.243  11.742  69.974  1.00  0.00     0.000 HD 
BRANCH  23  25
HETATM   25  C   UNL     1      -8.668   9.672  69.896  1.00  0.00    -0.219 A  
HETATM   26  C   UNL     1      -8.768   8.968  68.690  1.00  0.00    -0.133 A  
HETATM   27  C   UNL     1      -9.675   7.911  68.497  1.00  0.00    -0.167 A  
HETATM   28  C   UNL     1      -9.787   7.273  67.139  1.00  0.00    -0.185 C  
HETATM   29  C   UNL     1     -10.454   7.514  69.580  1.00  0.00    -0.234 A  
HETATM   30  F   UNL     1     -11.041   7.356  66.612  1.00  0.00    -0.372 F  
HETATM   31  F   UNL     1      -9.459   5.951  67.145  1.00  0.00    -0.115 F  
HETATM   32  F   UNL     1      -8.970   7.838  66.202  1.00  0.00    -0.155 F  
HETATM   33 CL   UNL     1     -11.582   6.214  69.464  1.00  0.00    -0.336 Cl 
HETATM   34  C   UNL     1     -10.331   8.170  70.814  1.00  0.00    -0.217 A  
HETATM   35  C   UNL     1      -9.447   9.246  70.973  1.00  0.00    -0.313 A  
ENDBRANCH  23  25
ENDBRANCH  21  23
ENDBRANCH  19  21
ENDBRANCH  16  19
ENDBRANCH  12  13
ENDBRANCH  10  12
ENDBRANCH   3   6
TORSDOF 7
ENDMDL
MODEL      213
REMARK 921   NORMALIZED FREE ENERGY PREDICTED BY IDOCK:   -4.63 KCAL/MOL
REMARK 922        TOTAL FREE ENERGY PREDICTED BY IDOCK:   -8.38 KCAL/MOL
REMARK 923 INTER-LIGAND FREE ENERGY PREDICTED BY IDOCK:   -7.34 KCAL/MOL
REMARK 924 INTRA-LIGAND FREE ENERGY PREDICTED BY IDOCK:   -1.04 KCAL/MOL
REMARK 927      BINDING AFFINITY PREDICTED BY RF-SCORE:    0.00 PKD
ROOT
HETATM    1  C   UNL     1      -6.096   2.234  62.748  1.00  0.00    -0.009 C  
HETATM    2  N   UNL     1      -6.023   3.589  63.220  1.00  0.00    -0.014 N  
HETATM    3  C   UNL     1      -7.145   4.385  63.298  1.00  0.00    -0.044 C  
HETATM    4  H   UNL     1      -5.121   3.971  63.503  1.00  0.00     0.000 HD 
HETATM    5  O   UNL     1      -8.265   4.011  62.965  1.00  0.00    -0.079 OA 
ENDROOT
BRANCH   3   6
HETATM    6  C   UNL     1      -6.914   5.760  63.851  1.00  0.00    -0.050 A  
HETATM    7  N   UNL     1      -5.779   5.956  64.579  1.00  0.00    -0.023 NA 
HETATM    8  C   UNL     1      -5.627   7.185  65.123  1.00  0.00    -0.032 A  
HETATM    9  C   UNL     1      -6.562   8.206  65.014  1.00  0.00    -0.052 A  
HETATM   10  C   UNL     1      -7.720   7.962  64.285  1.00  0.00    -0.128 A  
HETATM   11  C   UNL     1      -7.876   6.734  63.643  1.00  0.00    -0.106 A  
BRANCH  10  12
HETATM   12  O   UNL     1      -8.658   8.977  64.230  1.00  0.00    -0.189 OA 
BRANCH  12  13
HETATM   13  C   UNL     1      -9.019   9.590  65.414  1.00  0.00    -0.201 A  
HETATM   14  C   UNL     1      -8.602  10.873  65.748  1.00  0.00    -0.176 A  
HETATM   15  C   UNL     1      -8.866  11.380  67.015  1.00  0.00    -0.168 A  
HETATM   16  C   UNL     1      -9.654  10.683  67.938  1.00  0.00    -0.162 A  
HETATM   17  C   UNL     1     -10.149   9.430  67.565  1.00  0.00    -0.268 A  
HETATM   18  C   UNL     1      -9.834   8.887  66.305  1.00  0.00    -0.355 A  
BRANCH  16  19
HETATM   19  N   UNL     1      -9.952  11.207  69.225  1.00  0.00    -0.420 N  
HETATM   20  H   UNL     1      -9.194  11.615  69.772  1.00  0.00     0.000 HD 
BRANCH  19  21
HETATM   21  C   UNL     1     -11.230  11.188  69.771  1.00  0.00    -0.245 C  
HETATM   22  O   UNL     1     -11.656  10.251  70.434  1.00  0.00    -0.280 OA 
BRANCH  21  23
HETATM   23  N   UNL     1     -11.981  12.315  69.492  1.00  0.00    -0.295 N  
HETATM   24  H   UNL     1     -12.786  12.520  70.084  1.00  0.00     0.000 HD 
BRANCH  23  25
HETATM   25  C   UNL     1     -11.685  13.207  68.415  1.00  0.00    -0.351 A  
HETATM   26  C   UNL     1     -11.884  12.868  67.071  1.00  0.00    -0.437 A  
HETATM   27  C   UNL     1     -11.493  13.702  66.009  1.00  0.00    -0.340 A  
HETATM   28  C   UNL     1     -11.654  13.218  64.594  1.00  0.00    -0.350 C  
HETATM   29  C   UNL     1     -10.950  14.945  66.321  1.00  0.00    -0.338 A  
HETATM   30  F   UNL     1     -10.477  13.175  63.908  1.00  0.00    -0.416 F  
HETATM   31  F   UNL     1     -12.498  13.994  63.859  1.00  0.00    -0.465 F  
HETATM   32  F   UNL     1     -12.163  11.955  64.503  1.00  0.00    -0.395 F  
HETATM   33 CL   UNL     1     -10.460  16.058  65.098  1.00  0.00    -0.388 Cl 
HETATM   34  C   UNL     1     -10.792  15.328  67.661  1.00  0.00    -0.295 A  
HETATM   35  C   UNL     1     -11.152  14.464  68.705  1.00  0.00    -0.269 A  
ENDBRANCH  23  25
ENDBRANCH  21  23
ENDBRANCH  19  21
ENDBRANCH  16  19
ENDBRANCH  12  13
ENDBRANCH  10  12
ENDBRANCH   3   6
TORSDOF 7
ENDMDL
MODEL      214
REMARK 921   NORMALIZED FREE ENERGY PREDICTED BY IDOCK:   -4.63 KCAL/MOL
REMARK 922        TOTAL FREE ENERGY PREDICTED BY IDOCK:   -8.37 KCAL/MOL
REMARK 923 INTER-LIGAND FREE ENERGY PREDICTED BY IDOCK:   -7.90 KCAL/MOL
REMARK 924 INTRA-LIGAND FREE ENERGY PREDICTED BY IDOCK:   -0.47 KCAL/MOL
REMARK 927      BINDING AFFINITY PREDICTED BY RF-SCORE:    0.00 PKD
ROOT
HETATM    1  C   UNL     1     -14.405  15.402  71.787  1.00  0.00    -0.531 C  
HETATM    2  N   UNL     1     -13.463  15.362  70.702  1.00  0.00    -0.792 N  
HETATM    3  C   UNL     1     -12.184  15.855  70.843  1.00  0.00    -0.355 C  
HETATM    4  H   UNL     1     -13.747  14.959  69.810  1.00  0.00     0.000 HD 
HETATM    5  O   UNL     1     -11.765  16.368  71.875  1.00  0.00    -0.493 OA 
ENDROOT
BRANCH   3   6
HETATM    6  C   UNL     1     -11.306  15.700  69.637  1.00  0.00    -0.329 A  
HETATM    7  N   UNL     1     -11.077  16.815  68.886  1.00  0.00    -0.251 NA 
HETATM    8  C   UNL     1     -10.338  16.636  67.768  1.00  0.00    -0.306 A  
HETATM    9  C   UNL     1      -9.855  15.406  67.341  1.00  0.00    -0.216 A  
HETATM   10  C   UNL     1     -10.128  14.287  68.119  1.00  0.00    -0.232 A  
HETATM   11  C   UNL     1     -10.820  14.443  69.320  1.00  0.00    -0.261 A  
BRANCH  10  12
HETATM   12  O   UNL     1      -9.679  13.065  67.650  1.00  0.00    -0.202 OA 
BRANCH  12  13
HETATM   13  C   UNL     1     -10.078  11.927  68.323  1.00  0.00    -0.203 A  
HETATM   14  C   UNL     1      -9.171  11.031  68.877  1.00  0.00    -0.139 A  
HETATM   15  C   UNL     1      -9.622   9.827  69.407  1.00  0.00    -0.218 A  
HETATM   16  C   UNL     1     -10.986   9.535  69.515  1.00  0.00    -0.195 A  
HETATM   17  C   UNL     1     -11.900  10.480  69.039  1.00  0.00    -0.183 A  
HETATM   18  C   UNL     1     -11.446  11.674  68.447  1.00  0.00    -0.360 A  
BRANCH  16  19
HETATM   19  N   UNL     1     -11.455   8.319  70.081  1.00  0.00    -0.465 N  
HETATM   20  H   UNL     1     -12.169   7.791  69.578  1.00  0.00     0.000 HD 
BRANCH  19  21
HETATM   21  C   UNL     1     -10.987   7.816  71.288  1.00  0.00    -0.234 C  
HETATM   22  O   UNL     1     -10.644   8.534  72.220  1.00  0.00    -0.319 OA 
BRANCH  21  23
HETATM   23  N   UNL     1     -10.929   6.435  71.342  1.00  0.00    -0.256 N  
HETATM   24  H   UNL     1     -11.547   5.949  71.992  1.00  0.00     0.000 HD 
BRANCH  23  25
HETATM   25  C   UNL     1     -10.045   5.656  70.532  1.00  0.00    -0.217 A  
HETATM   26  C   UNL     1      -9.242   6.214  69.531  1.00  0.00    -0.143 A  
HETATM   27  C   UNL     1      -8.454   5.436  68.664  1.00  0.00    -0.093 A  
HETATM   28  C   UNL     1      -7.697   6.109  67.552  1.00  0.00    -0.097 C  
HETATM   29  C   UNL     1      -8.429   4.059  68.865  1.00  0.00    -0.078 A  
HETATM   30  F   UNL     1      -8.045   5.652  66.316  1.00  0.00    -0.101 F  
HETATM   31  F   UNL     1      -6.348   5.948  67.655  1.00  0.00    -0.034 F  
HETATM   32  F   UNL     1      -7.890   7.459  67.499  1.00  0.00    -0.103 F  
HETATM   33 CL   UNL     1      -7.479   3.011  67.877  1.00  0.00    -0.053 Cl 
HETATM   34  C   UNL     1      -9.184   3.484  69.897  1.00  0.00    -0.217 A  
HETATM   35  C   UNL     1      -9.993   4.275  70.725  1.00  0.00    -0.224 A  
ENDBRANCH  23  25
ENDBRANCH  21  23
ENDBRANCH  19  21
ENDBRANCH  16  19
ENDBRANCH  12  13
ENDBRANCH  10  12
ENDBRANCH   3   6
TORSDOF 7
ENDMDL
MODEL      215
REMARK 921   NORMALIZED FREE ENERGY PREDICTED BY IDOCK:   -4.62 KCAL/MOL
REMARK 922        TOTAL FREE ENERGY PREDICTED BY IDOCK:   -8.36 KCAL/MOL
REMARK 923 INTER-LIGAND FREE ENERGY PREDICTED BY IDOCK:   -7.28 KCAL/MOL
REMARK 924 INTRA-LIGAND FREE ENERGY PREDICTED BY IDOCK:   -1.08 KCAL/MOL
REMARK 927      BINDING AFFINITY PREDICTED BY RF-SCORE:    0.00 PKD
ROOT
HETATM    1  C   UNL     1     -11.372   5.723  72.862  1.00  0.00    -0.252 C  
HETATM    2  N   UNL     1     -11.209   5.774  71.436  1.00  0.00    -0.216 N  
HETATM    3  C   UNL     1     -10.686   6.886  70.811  1.00  0.00    -0.233 C  
HETATM    4  H   UNL     1     -11.485   4.970  70.873  1.00  0.00     0.000 HD 
HETATM    5  O   UNL     1     -10.343   7.900  71.410  1.00  0.00    -0.195 OA 
ENDROOT
BRANCH   3   6
HETATM    6  C   UNL     1     -10.537   6.770  69.324  1.00  0.00    -0.231 A  
HETATM    7  N   UNL     1     -10.312   5.526  68.815  1.00  0.00    -0.205 NA 
HETATM    8  C   UNL     1     -10.113   5.457  67.479  1.00  0.00    -0.180 A  
HETATM    9  C   UNL     1     -10.088   6.562  66.638  1.00  0.00    -0.201 A  
HETATM   10  C   UNL     1     -10.298   7.818  67.195  1.00  0.00    -0.319 A  
HETATM   11  C   UNL     1     -10.584   7.921  68.555  1.00  0.00    -0.146 A  
BRANCH  10  12
HETATM   12  O   UNL     1     -10.220   8.907  66.345  1.00  0.00    -0.283 OA 
BRANCH  12  13
HETATM   13  C   UNL     1      -9.309   9.900  66.649  1.00  0.00    -0.157 A  
HETATM   14  C   UNL     1      -9.699  11.164  67.076  1.00  0.00    -0.210 A  
HETATM   15  C   UNL     1      -8.751  12.171  67.220  1.00  0.00    -0.182 A  
HETATM   16  C   UNL     1      -7.382  11.921  67.065  1.00  0.00    -0.118 A  
HETATM   17  C   UNL     1      -6.986  10.624  66.725  1.00  0.00    -0.110 A  
HETATM   18  C   UNL     1      -7.948   9.617  66.519  1.00  0.00    -0.112 A  
BRANCH  16  19
HETATM   19  N   UNL     1      -6.404  12.937  67.238  1.00  0.00    -0.257 N  
HETATM   20  H   UNL     1      -5.518  12.849  66.740  1.00  0.00     0.000 HD 
BRANCH  19  21
HETATM   21  C   UNL     1      -6.600  14.045  68.054  1.00  0.00    -0.147 C  
HETATM   22  O   UNL     1      -6.964  13.956  69.220  1.00  0.00    -0.114 OA 
BRANCH  21  23
HETATM   23  N   UNL     1      -6.361  15.256  67.431  1.00  0.00    -0.091 N  
HETATM   24  H   UNL     1      -5.402  15.483  67.164  1.00  0.00     0.000 HD 
BRANCH  23  25
HETATM   25  C   UNL     1      -7.389  16.205  67.142  1.00  0.00    -0.215 A  
HETATM   26  C   UNL     1      -7.383  17.510  67.649  1.00  0.00    -0.192 A  
HETATM   27  C   UNL     1      -8.446  18.409  67.453  1.00  0.00    -0.257 A  
HETATM   28  C   UNL     1      -8.402  19.759  68.115  1.00  0.00    -0.289 C  
HETATM   29  C   UNL     1      -9.514  17.994  66.662  1.00  0.00    -0.297 A  
HETATM   30  F   UNL     1      -9.455  19.978  68.952  1.00  0.00    -0.341 F  
HETATM   31  F   UNL     1      -8.401  20.789  67.224  1.00  0.00    -0.381 F  
HETATM   32  F   UNL     1      -7.292  19.954  68.885  1.00  0.00    -0.356 F  
HETATM   33 CL   UNL     1     -10.860  19.023  66.336  1.00  0.00    -0.364 Cl 
HETATM   34  C   UNL     1      -9.516  16.710  66.099  1.00  0.00    -0.319 A  
HETATM   35  C   UNL     1      -8.463  15.816  66.339  1.00  0.00    -0.313 A  
ENDBRANCH  23  25
ENDBRANCH  21  23
ENDBRANCH  19  21
ENDBRANCH  16  19
ENDBRANCH  12  13
ENDBRANCH  10  12
ENDBRANCH   3   6
TORSDOF 7
ENDMDL
MODEL      216
REMARK 921   NORMALIZED FREE ENERGY PREDICTED BY IDOCK:   -4.62 KCAL/MOL
REMARK 922        TOTAL FREE ENERGY PREDICTED BY IDOCK:   -8.36 KCAL/MOL
REMARK 923 INTER-LIGAND FREE ENERGY PREDICTED BY IDOCK:   -7.15 KCAL/MOL
REMARK 924 INTRA-LIGAND FREE ENERGY PREDICTED BY IDOCK:   -1.20 KCAL/MOL
REMARK 927      BINDING AFFINITY PREDICTED BY RF-SCORE:    0.00 PKD
ROOT
HETATM    1  C   UNL     1      -8.879  18.423  67.554  1.00  0.00    -0.261 C  
HETATM    2  N   UNL     1      -9.719  17.504  66.837  1.00  0.00    -0.279 N  
HETATM    3  C   UNL     1      -9.240  16.291  66.391  1.00  0.00    -0.299 C  
HETATM    4  H   UNL     1     -10.690  17.755  66.654  1.00  0.00     0.000 HD 
HETATM    5  O   UNL     1      -8.083  15.918  66.556  1.00  0.00    -0.265 OA 
ENDROOT
BRANCH   3   6
HETATM    6  C   UNL     1     -10.249  15.424  65.699  1.00  0.00    -0.376 A  
HETATM    7  N   UNL     1     -10.991  15.999  64.711  1.00  0.00    -0.609 NA 
HETATM    8  C   UNL     1     -11.939  15.216  64.148  1.00  0.00    -0.170 A  
HETATM    9  C   UNL     1     -12.210  13.913  64.546  1.00  0.00    -0.451 A  
HETATM   10  C   UNL     1     -11.449  13.367  65.573  1.00  0.00    -0.305 A  
HETATM   11  C   UNL     1     -10.410  14.116  66.124  1.00  0.00    -0.304 A  
BRANCH  10  12
HETATM   12  O   UNL     1     -11.769  12.086  65.984  1.00  0.00    -0.460 OA 
BRANCH  12  13
HETATM   13  C   UNL     1     -10.760  11.143  66.007  1.00  0.00    -0.211 A  
HETATM   14  C   UNL     1     -10.147  10.679  64.850  1.00  0.00    -0.402 A  
HETATM   15  C   UNL     1      -9.247   9.621  64.918  1.00  0.00    -0.306 A  
HETATM   16  C   UNL     1      -8.839   9.080  66.142  1.00  0.00    -0.164 A  
HETATM   17  C   UNL     1      -9.389   9.612  67.312  1.00  0.00    -0.163 A  
HETATM   18  C   UNL     1     -10.346  10.642  67.243  1.00  0.00    -0.265 A  
BRANCH  16  19
HETATM   19  N   UNL     1      -7.898   8.018  66.223  1.00  0.00    -0.097 N  
HETATM   20  H   UNL     1      -6.980   8.209  66.624  1.00  0.00     0.000 HD 
BRANCH  19  21
HETATM   21  C   UNL     1      -8.173   6.729  65.781  1.00  0.00    -0.135 C  
HETATM   22  O   UNL     1      -7.470   6.140  64.970  1.00  0.00    -0.073 OA 
BRANCH  21  23
HETATM   23  N   UNL     1      -9.315   6.174  66.329  1.00  0.00    -0.205 N  
HETATM   24  H   UNL     1     -10.117   6.015  65.719  1.00  0.00     0.000 HD 
BRANCH  23  25
HETATM   25  C   UNL     1      -9.428   5.813  67.707  1.00  0.00    -0.112 A  
HETATM   26  C   UNL     1      -8.322   5.482  68.499  1.00  0.00    -0.101 A  
HETATM   27  C   UNL     1      -8.442   5.025  69.823  1.00  0.00    -0.092 A  
HETATM   28  C   UNL     1      -7.208   4.597  70.570  1.00  0.00    -0.049 C  
HETATM   29  C   UNL     1      -9.716   4.968  70.381  1.00  0.00    -0.209 A  
HETATM   30  F   UNL     1      -7.260   3.300  70.987  1.00  0.00    -0.032 F  
HETATM   31  F   UNL     1      -6.972   5.349  71.681  1.00  0.00    -0.057 F  
HETATM   32  F   UNL     1      -6.064   4.686  69.831  1.00  0.00    -0.016 F  
HETATM   33 CL   UNL     1      -9.977   4.445  72.004  1.00  0.00    -0.242 Cl 
HETATM   34  C   UNL     1     -10.833   5.347  69.623  1.00  0.00    -0.158 A  
HETATM   35  C   UNL     1     -10.694   5.763  68.292  1.00  0.00    -0.285 A  
ENDBRANCH  23  25
ENDBRANCH  21  23
ENDBRANCH  19  21
ENDBRANCH  16  19
ENDBRANCH  12  13
ENDBRANCH  10  12
ENDBRANCH   3   6
TORSDOF 7
ENDMDL
MODEL      217
REMARK 921   NORMALIZED FREE ENERGY PREDICTED BY IDOCK:   -4.60 KCAL/MOL
REMARK 922        TOTAL FREE ENERGY PREDICTED BY IDOCK:   -8.33 KCAL/MOL
REMARK 923 INTER-LIGAND FREE ENERGY PREDICTED BY IDOCK:   -7.31 KCAL/MOL
REMARK 924 INTRA-LIGAND FREE ENERGY PREDICTED BY IDOCK:   -1.02 KCAL/MOL
REMARK 927      BINDING AFFINITY PREDICTED BY RF-SCORE:    0.00 PKD
ROOT
HETATM    1  C   UNL     1      -8.567   8.316  73.236  1.00  0.00    -0.203 C  
HETATM    2  N   UNL     1      -8.695   7.708  71.941  1.00  0.00    -0.110 N  
HETATM    3  C   UNL     1      -8.850   6.346  71.798  1.00  0.00    -0.139 C  
HETATM    4  H   UNL     1      -8.672   8.296  71.109  1.00  0.00     0.000 HD 
HETATM    5  O   UNL     1      -8.874   5.564  72.743  1.00  0.00    -0.123 OA 
ENDROOT
BRANCH   3   6
HETATM    6  C   UNL     1      -9.015   5.867  70.387  1.00  0.00    -0.147 A  
HETATM    7  N   UNL     1      -9.651   4.677  70.203  1.00  0.00    -0.176 NA 
HETATM    8  C   UNL     1      -9.728   4.235  68.927  1.00  0.00    -0.125 A  
HETATM    9  C   UNL     1      -9.170   4.894  67.839  1.00  0.00    -0.142 A  
HETATM   10  C   UNL     1      -8.507   6.094  68.067  1.00  0.00    -0.116 A  
HETATM   11  C   UNL     1      -8.475   6.621  69.358  1.00  0.00    -0.131 A  
BRANCH  10  12
HETATM   12  O   UNL     1      -7.918   6.708  66.976  1.00  0.00    -0.106 OA 
BRANCH  12  13
HETATM   13  C   UNL     1      -8.270   8.015  66.702  1.00  0.00    -0.108 A  
HETATM   14  C   UNL     1      -8.688   8.426  65.441  1.00  0.00    -0.175 A  
HETATM   15  C   UNL     1      -8.883   9.778  65.182  1.00  0.00    -0.213 A  
HETATM   16  C   UNL     1      -8.789  10.742  66.191  1.00  0.00    -0.177 A  
HETATM   17  C   UNL     1      -8.458  10.314  67.480  1.00  0.00    -0.118 A  
HETATM   18  C   UNL     1      -8.201   8.953  67.734  1.00  0.00    -0.110 A  
BRANCH  16  19
HETATM   19  N   UNL     1      -9.014  12.123  65.940  1.00  0.00    -0.425 N  
HETATM   20  H   UNL     1      -8.249  12.778  66.104  1.00  0.00     0.000 HD 
BRANCH  19  21
HETATM   21  C   UNL     1     -10.228  12.621  65.482  1.00  0.00    -0.281 C  
HETATM   22  O   UNL     1     -10.312  13.427  64.564  1.00  0.00    -0.413 OA 
BRANCH  21  23
HETATM   23  N   UNL     1     -11.331  12.136  66.161  1.00  0.00    -0.346 N  
HETATM   24  H   UNL     1     -12.023  11.597  65.640  1.00  0.00     0.000 HD 
BRANCH  23  25
HETATM   25  C   UNL     1     -11.549  12.354  67.557  1.00  0.00    -0.365 A  
HETATM   26  C   UNL     1     -11.692  11.307  68.476  1.00  0.00    -0.378 A  
HETATM   27  C   UNL     1     -12.013  11.520  69.828  1.00  0.00    -0.415 A  
HETATM   28  C   UNL     1     -12.245  10.335  70.726  1.00  0.00    -0.350 C  
HETATM   29  C   UNL     1     -12.124  12.833  70.275  1.00  0.00    -0.297 A  
HETATM   30  F   UNL     1     -13.488  10.324  71.285  1.00  0.00    -0.414 F  
HETATM   31  F   UNL     1     -11.360  10.268  71.759  1.00  0.00    -0.261 F  
HETATM   32  F   UNL     1     -12.134   9.134  70.085  1.00  0.00    -0.081 F  
HETATM   33 CL   UNL     1     -12.490  13.210  71.918  1.00  0.00    -0.085 Cl 
HETATM   34  C   UNL     1     -11.931  13.898  69.383  1.00  0.00    -0.402 A  
HETATM   35  C   UNL     1     -11.650  13.664  68.030  1.00  0.00    -0.368 A  
ENDBRANCH  23  25
ENDBRANCH  21  23
ENDBRANCH  19  21
ENDBRANCH  16  19
ENDBRANCH  12  13
ENDBRANCH  10  12
ENDBRANCH   3   6
TORSDOF 7
ENDMDL
MODEL      218
REMARK 921   NORMALIZED FREE ENERGY PREDICTED BY IDOCK:   -4.59 KCAL/MOL
REMARK 922        TOTAL FREE ENERGY PREDICTED BY IDOCK:   -8.31 KCAL/MOL
REMARK 923 INTER-LIGAND FREE ENERGY PREDICTED BY IDOCK:   -7.46 KCAL/MOL
REMARK 924 INTRA-LIGAND FREE ENERGY PREDICTED BY IDOCK:   -0.86 KCAL/MOL
REMARK 927      BINDING AFFINITY PREDICTED BY RF-SCORE:    0.00 PKD
ROOT
HETATM    1  C   UNL     1      -9.895   3.372  71.388  1.00  0.00    -0.134 C  
HETATM    2  N   UNL     1     -10.056   4.677  70.810  1.00  0.00    -0.218 N  
HETATM    3  C   UNL     1      -8.969   5.438  70.437  1.00  0.00    -0.133 C  
HETATM    4  H   UNL     1     -10.996   5.049  70.672  1.00  0.00     0.000 HD 
HETATM    5  O   UNL     1      -7.807   5.074  70.580  1.00  0.00    -0.071 OA 
ENDROOT
BRANCH   3   6
HETATM    6  C   UNL     1      -9.301   6.758  69.807  1.00  0.00    -0.145 A  
HETATM    7  N   UNL     1     -10.610   7.138  69.809  1.00  0.00    -0.228 NA 
HETATM    8  C   UNL     1     -10.893   8.299  69.177  1.00  0.00    -0.017 A  
HETATM    9  C   UNL     1      -9.951   9.073  68.511  1.00  0.00    -0.193 A  
HETATM   10  C   UNL     1      -8.629   8.643  68.509  1.00  0.00    -0.135 A  
HETATM   11  C   UNL     1      -8.286   7.492  69.217  1.00  0.00    -0.130 A  
BRANCH  10  12
HETATM   12  O   UNL     1      -7.717   9.404  67.800  1.00  0.00    -0.088 OA 
BRANCH  12  13
HETATM   13  C   UNL     1      -7.910  10.771  67.757  1.00  0.00    -0.109 A  
HETATM   14  C   UNL     1      -7.424  11.624  68.741  1.00  0.00    -0.114 A  
HETATM   15  C   UNL     1      -7.778  12.969  68.729  1.00  0.00     0.004 A  
HETATM   16  C   UNL     1      -8.515  13.527  67.679  1.00  0.00    -0.184 A  
HETATM   17  C   UNL     1      -8.924  12.683  66.642  1.00  0.00    -0.164 A  
HETATM   18  C   UNL     1      -8.620  11.309  66.681  1.00  0.00    -0.167 A  
BRANCH  16  19
HETATM   19  N   UNL     1      -8.856  14.906  67.644  1.00  0.00    -0.175 N  
HETATM   20  H   UNL     1      -8.391  15.539  68.295  1.00  0.00     0.000 HD 
BRANCH  19  21
HETATM   21  C   UNL     1      -9.795  15.431  66.764  1.00  0.00    -0.245 C  
HETATM   22  O   UNL     1      -9.568  15.602  65.573  1.00  0.00    -0.307 OA 
BRANCH  21  23
HETATM   23  N   UNL     1     -11.004  15.755  67.354  1.00  0.00    -0.308 N  
HETATM   24  H   UNL     1     -11.545  16.524  66.958  1.00  0.00     0.000 HD 
BRANCH  23  25
HETATM   25  C   UNL     1     -11.531  15.066  68.490  1.00  0.00    -0.317 A  
HETATM   26  C   UNL     1     -11.670  15.668  69.746  1.00  0.00    -0.368 A  
HETATM   27  C   UNL     1     -12.087  14.961  70.887  1.00  0.00    -0.377 A  
HETATM   28  C   UNL     1     -12.115  15.661  72.219  1.00  0.00    -0.454 C  
HETATM   29  C   UNL     1     -12.440  13.624  70.734  1.00  0.00    -0.359 A  
HETATM   30  F   UNL     1     -11.319  15.067  73.151  1.00  0.00    -0.448 F  
HETATM   31  F   UNL     1     -13.363  15.722  72.762  1.00  0.00    -0.464 F  
HETATM   32  F   UNL     1     -11.689  16.957  72.164  1.00  0.00    -0.506 F  
HETATM   33 CL   UNL     1     -12.989  12.668  72.061  1.00  0.00    -0.423 Cl 
HETATM   34  C   UNL     1     -12.360  13.015  69.474  1.00  0.00    -0.067 A  
HETATM   35  C   UNL     1     -11.904  13.728  68.356  1.00  0.00    -0.411 A  
ENDBRANCH  23  25
ENDBRANCH  21  23
ENDBRANCH  19  21
ENDBRANCH  16  19
ENDBRANCH  12  13
ENDBRANCH  10  12
ENDBRANCH   3   6
TORSDOF 7
ENDMDL
MODEL      219
REMARK 921   NORMALIZED FREE ENERGY PREDICTED BY IDOCK:   -4.56 KCAL/MOL
REMARK 922        TOTAL FREE ENERGY PREDICTED BY IDOCK:   -8.28 KCAL/MOL
REMARK 923 INTER-LIGAND FREE ENERGY PREDICTED BY IDOCK:   -7.36 KCAL/MOL
REMARK 924 INTRA-LIGAND FREE ENERGY PREDICTED BY IDOCK:   -0.92 KCAL/MOL
REMARK 927      BINDING AFFINITY PREDICTED BY RF-SCORE:    0.00 PKD
ROOT
HETATM    1  C   UNL     1     -12.087  13.877  65.128  1.00  0.00    -0.403 C  
HETATM    2  N   UNL     1     -11.260  14.922  65.664  1.00  0.00    -0.346 N  
HETATM    3  C   UNL     1     -11.089  16.116  64.999  1.00  0.00    -0.294 C  
HETATM    4  H   UNL     1     -10.789  14.777  66.557  1.00  0.00     0.000 HD 
HETATM    5  O   UNL     1     -11.606  16.368  63.915  1.00  0.00    -1.100 OA 
ENDROOT
BRANCH   3   6
HETATM    6  C   UNL     1     -10.233  17.124  65.707  1.00  0.00    -0.219 A  
HETATM    7  N   UNL     1     -10.737  18.382  65.845  1.00  0.00    -0.390 NA 
HETATM    8  C   UNL     1      -9.920  19.289  66.426  1.00  0.00    -0.405 A  
HETATM    9  C   UNL     1      -8.621  19.018  66.835  1.00  0.00    -0.307 A  
HETATM   10  C   UNL     1      -8.131  17.729  66.657  1.00  0.00    -0.258 A  
HETATM   11  C   UNL     1      -8.971  16.747  66.133  1.00  0.00    -0.295 A  
BRANCH  10  12
HETATM   12  O   UNL     1      -6.819  17.494  67.027  1.00  0.00    -0.156 OA 
BRANCH  12  13
HETATM   13  C   UNL     1      -6.581  16.535  67.992  1.00  0.00    -0.137 A  
HETATM   14  C   UNL     1      -5.344  15.918  68.141  1.00  0.00    -0.118 A  
HETATM   15  C   UNL     1      -5.202  14.853  69.023  1.00  0.00    -0.094 A  
HETATM   16  C   UNL     1      -6.244  14.454  69.868  1.00  0.00    -0.149 A  
HETATM   17  C   UNL     1      -7.460  15.138  69.781  1.00  0.00    -0.118 A  
HETATM   18  C   UNL     1      -7.626  16.177  68.846  1.00  0.00    -0.201 A  
BRANCH  16  19
HETATM   19  N   UNL     1      -6.099  13.385  70.793  1.00  0.00    -0.391 N  
HETATM   20  H   UNL     1      -6.039  13.606  71.787  1.00  0.00     0.000 HD 
BRANCH  19  21
HETATM   21  C   UNL     1      -6.035  12.052  70.405  1.00  0.00    -0.107 C  
HETATM   22  O   UNL     1      -6.023  11.126  71.206  1.00  0.00    -0.358 OA 
BRANCH  21  23
HETATM   23  N   UNL     1      -5.974  11.863  69.036  1.00  0.00    -0.062 N  
HETATM   24  H   UNL     1      -5.083  12.020  68.564  1.00  0.00     0.000 HD 
BRANCH  23  25
HETATM   25  C   UNL     1      -7.097  11.460  68.250  1.00  0.00    -0.078 A  
HETATM   26  C   UNL     1      -7.842  10.307  68.525  1.00  0.00    -0.097 A  
HETATM   27  C   UNL     1      -8.879   9.853  67.690  1.00  0.00    -0.126 A  
HETATM   28  C   UNL     1      -9.563   8.550  68.006  1.00  0.00    -0.149 C  
HETATM   29  C   UNL     1      -9.214  10.628  66.585  1.00  0.00    -0.164 A  
HETATM   30  F   UNL     1      -9.464   7.637  66.999  1.00  0.00    -0.152 F  
HETATM   31  F   UNL     1     -10.892   8.696  68.263  1.00  0.00    -0.227 F  
HETATM   32  F   UNL     1      -9.056   7.920  69.107  1.00  0.00    -0.143 F  
HETATM   33 CL   UNL     1     -10.485  10.180  65.508  1.00  0.00    -0.184 Cl 
HETATM   34  C   UNL     1      -8.517  11.816  66.321  1.00  0.00    -0.022 A  
HETATM   35  C   UNL     1      -7.461  12.230  67.144  1.00  0.00    -0.113 A  
ENDBRANCH  23  25
ENDBRANCH  21  23
ENDBRANCH  19  21
ENDBRANCH  16  19
ENDBRANCH  12  13
ENDBRANCH  10  12
ENDBRANCH   3   6
TORSDOF 7
ENDMDL
MODEL      220
REMARK 921   NORMALIZED FREE ENERGY PREDICTED BY IDOCK:   -4.56 KCAL/MOL
REMARK 922        TOTAL FREE ENERGY PREDICTED BY IDOCK:   -8.27 KCAL/MOL
REMARK 923 INTER-LIGAND FREE ENERGY PREDICTED BY IDOCK:   -7.25 KCAL/MOL
REMARK 924 INTRA-LIGAND FREE ENERGY PREDICTED BY IDOCK:   -1.03 KCAL/MOL
REMARK 927      BINDING AFFINITY PREDICTED BY RF-SCORE:    0.00 PKD
ROOT
HETATM    1  C   UNL     1      -7.246   3.464  64.385  1.00  0.00    -0.058 C  
HETATM    2  N   UNL     1      -7.275   3.661  65.808  1.00  0.00    -0.070 N  
HETATM    3  C   UNL     1      -6.245   4.297  66.466  1.00  0.00    -0.032 C  
HETATM    4  H   UNL     1      -8.075   3.323  66.342  1.00  0.00     0.000 HD 
HETATM    5  O   UNL     1      -5.241   4.721  65.904  1.00  0.00    -0.008 OA 
ENDROOT
BRANCH   3   6
HETATM    6  C   UNL     1      -6.441   4.466  67.943  1.00  0.00    -0.038 A  
HETATM    7  N   UNL     1      -5.346   4.797  68.683  1.00  0.00    -0.007 NA 
HETATM    8  C   UNL     1      -5.534   4.878  70.020  1.00  0.00    -0.011 A  
HETATM    9  C   UNL     1      -6.739   4.606  70.655  1.00  0.00    -0.036 A  
HETATM   10  C   UNL     1      -7.829   4.247  69.871  1.00  0.00    -0.052 A  
HETATM   11  C   UNL     1      -7.695   4.231  68.483  1.00  0.00    -0.070 A  
BRANCH  10  12
HETATM   12  O   UNL     1      -9.006   3.935  70.528  1.00  0.00    -0.082 OA 
BRANCH  12  13
HETATM   13  C   UNL     1      -9.999   4.893  70.568  1.00  0.00    -0.241 A  
HETATM   14  C   UNL     1     -10.619   5.372  69.420  1.00  0.00    -0.295 A  
HETATM   15  C   UNL     1     -11.501   6.444  69.504  1.00  0.00    -0.412 A  
HETATM   16  C   UNL     1     -11.886   6.985  70.736  1.00  0.00    -0.355 A  
HETATM   17  C   UNL     1     -11.330   6.439  71.896  1.00  0.00    -0.339 A  
HETATM   18  C   UNL     1     -10.390   5.394  71.811  1.00  0.00    -0.271 A  
BRANCH  16  19
HETATM   19  N   UNL     1     -12.809   8.061  70.833  1.00  0.00    -0.506 N  
HETATM   20  H   UNL     1     -13.756   7.925  70.479  1.00  0.00     0.000 HD 
BRANCH  19  21
HETATM   21  C   UNL     1     -12.480   9.292  71.389  1.00  0.00    -0.341 C  
HETATM   22  O   UNL     1     -13.202   9.875  72.188  1.00  0.00    -0.438 OA 
BRANCH  21  23
HETATM   23  N   UNL     1     -11.274   9.807  70.950  1.00  0.00    -0.332 N  
HETATM   24  H   UNL     1     -10.454   9.698  71.549  1.00  0.00     0.000 HD 
BRANCH  23  25
HETATM   25  C   UNL     1     -11.118  10.483  69.701  1.00  0.00    -0.283 A  
HETATM   26  C   UNL     1     -11.311  11.862  69.554  1.00  0.00    -0.306 A  
HETATM   27  C   UNL     1     -11.263  12.509  68.307  1.00  0.00    -0.309 A  
HETATM   28  C   UNL     1     -11.580  13.978  68.225  1.00  0.00    -0.329 C  
HETATM   29  C   UNL     1     -10.941  11.747  67.188  1.00  0.00    -0.276 A  
HETATM   30  F   UNL     1     -12.632  14.252  67.403  1.00  0.00    -0.318 F  
HETATM   31  F   UNL     1     -10.534  14.723  67.772  1.00  0.00    -0.244 F  
HETATM   32  F   UNL     1     -11.916  14.531  69.427  1.00  0.00    -0.302 F  
HETATM   33 CL   UNL     1     -10.830  12.442  65.613  1.00  0.00    -0.303 Cl 
HETATM   34  C   UNL     1     -10.689  10.374  67.320  1.00  0.00    -0.331 A  
HETATM   35  C   UNL     1     -10.781   9.741  68.567  1.00  0.00    -0.252 A  
ENDBRANCH  23  25
ENDBRANCH  21  23
ENDBRANCH  19  21
ENDBRANCH  16  19
ENDBRANCH  12  13
ENDBRANCH  10  12
ENDBRANCH   3   6
TORSDOF 7
ENDMDL
MODEL      221
REMARK 921   NORMALIZED FREE ENERGY PREDICTED BY IDOCK:   -4.55 KCAL/MOL
REMARK 922        TOTAL FREE ENERGY PREDICTED BY IDOCK:   -8.27 KCAL/MOL
REMARK 923 INTER-LIGAND FREE ENERGY PREDICTED BY IDOCK:   -7.31 KCAL/MOL
REMARK 924 INTRA-LIGAND FREE ENERGY PREDICTED BY IDOCK:   -0.95 KCAL/MOL
REMARK 927      BINDING AFFINITY PREDICTED BY RF-SCORE:    0.00 PKD
ROOT
HETATM    1  C   UNL     1      -9.476   3.952  71.615  1.00  0.00    -0.151 C  
HETATM    2  N   UNL     1     -10.499   4.960  71.644  1.00  0.00    -0.167 N  
HETATM    3  C   UNL     1     -10.215   6.281  71.375  1.00  0.00    -0.201 C  
HETATM    4  H   UNL     1     -11.457   4.691  71.867  1.00  0.00     0.000 HD 
HETATM    5  O   UNL     1      -9.090   6.692  71.111  1.00  0.00    -0.151 OA 
ENDROOT
BRANCH   3   6
HETATM    6  C   UNL     1     -11.396   7.205  71.400  1.00  0.00    -0.259 A  
HETATM    7  N   UNL     1     -12.616   6.664  71.124  1.00  0.00    -0.237 NA 
HETATM    8  C   UNL     1     -13.655   7.529  71.086  1.00  0.00    -0.149 A  
HETATM    9  C   UNL     1     -13.534   8.901  71.268  1.00  0.00    -0.222 A  
HETATM   10  C   UNL     1     -12.270   9.421  71.523  1.00  0.00    -0.369 A  
HETATM   11  C   UNL     1     -11.187   8.551  71.648  1.00  0.00    -0.361 A  
BRANCH  10  12
HETATM   12  O   UNL     1     -12.166  10.794  71.653  1.00  0.00    -0.268 OA 
BRANCH  12  13
HETATM   13  C   UNL     1     -12.023  11.543  70.502  1.00  0.00    -0.344 A  
HETATM   14  C   UNL     1     -11.703  10.973  69.275  1.00  0.00    -0.397 A  
HETATM   15  C   UNL     1     -11.421  11.787  68.184  1.00  0.00    -0.382 A  
HETATM   16  C   UNL     1     -11.569  13.178  68.245  1.00  0.00    -0.335 A  
HETATM   17  C   UNL     1     -11.980  13.742  69.456  1.00  0.00    -0.399 A  
HETATM   18  C   UNL     1     -12.208  12.925  70.580  1.00  0.00    -0.386 A  
BRANCH  16  19
HETATM   19  N   UNL     1     -11.310  14.015  67.127  1.00  0.00    -0.316 N  
HETATM   20  H   UNL     1     -11.564  15.001  67.188  1.00  0.00     0.000 HD 
BRANCH  19  21
HETATM   21  C   UNL     1     -10.727  13.551  65.954  1.00  0.00    -0.277 C  
HETATM   22  O   UNL     1     -11.377  13.083  65.028  1.00  0.00    -0.288 OA 
BRANCH  21  23
HETATM   23  N   UNL     1      -9.348  13.655  65.928  1.00  0.00    -0.499 N  
HETATM   24  H   UNL     1      -8.819  12.963  65.396  1.00  0.00     0.000 HD 
BRANCH  23  25
HETATM   25  C   UNL     1      -8.626  14.683  66.611  1.00  0.00    -0.094 A  
HETATM   26  C   UNL     1      -7.853  14.439  67.752  1.00  0.00    -0.169 A  
HETATM   27  C   UNL     1      -7.231  15.465  68.484  1.00  0.00    -0.114 A  
HETATM   28  C   UNL     1      -6.500  15.126  69.754  1.00  0.00    -0.166 C  
HETATM   29  C   UNL     1      -7.340  16.768  68.006  1.00  0.00    -0.161 A  
HETATM   30  F   UNL     1      -6.998  15.771  70.846  1.00  0.00     0.599 F  
HETATM   31  F   UNL     1      -5.173  15.430  69.702  1.00  0.00    -0.095 F  
HETATM   32  F   UNL     1      -6.547  13.799  70.074  1.00  0.00    -0.128 F  
HETATM   33 CL   UNL     1      -6.597  18.100  68.811  1.00  0.00    -0.228 Cl 
HETATM   34  C   UNL     1      -8.065  17.028  66.834  1.00  0.00    -0.252 A  
HETATM   35  C   UNL     1      -8.710  15.995  66.140  1.00  0.00    -0.348 A  
ENDBRANCH  23  25
ENDBRANCH  21  23
ENDBRANCH  19  21
ENDBRANCH  16  19
ENDBRANCH  12  13
ENDBRANCH  10  12
ENDBRANCH   3   6
TORSDOF 7
ENDMDL
MODEL      222
REMARK 921   NORMALIZED FREE ENERGY PREDICTED BY IDOCK:   -4.55 KCAL/MOL
REMARK 922        TOTAL FREE ENERGY PREDICTED BY IDOCK:   -8.25 KCAL/MOL
REMARK 923 INTER-LIGAND FREE ENERGY PREDICTED BY IDOCK:   -6.70 KCAL/MOL
REMARK 924 INTRA-LIGAND FREE ENERGY PREDICTED BY IDOCK:   -1.55 KCAL/MOL
REMARK 927      BINDING AFFINITY PREDICTED BY RF-SCORE:    0.00 PKD
ROOT
HETATM    1  C   UNL     1     -13.975  14.923  71.447  1.00  0.00    -0.463 C  
HETATM    2  N   UNL     1     -12.834  15.508  70.799  1.00  0.00    -0.507 N  
HETATM    3  C   UNL     1     -12.176  14.859  69.777  1.00  0.00    -0.287 C  
HETATM    4  H   UNL     1     -12.503  16.424  71.102  1.00  0.00     0.000 HD 
HETATM    5  O   UNL     1     -12.498  13.751  69.361  1.00  0.00    -0.255 OA 
ENDROOT
BRANCH   3   6
HETATM    6  C   UNL     1     -11.032  15.617  69.173  1.00  0.00    -0.259 A  
HETATM    7  N   UNL     1     -11.274  16.292  68.014  1.00  0.00    -0.306 NA 
HETATM    8  C   UNL     1     -10.211  16.911  67.454  1.00  0.00    -0.298 A  
HETATM    9  C   UNL     1      -8.920  16.857  67.963  1.00  0.00    -0.224 A  
HETATM   10  C   UNL     1      -8.705  16.139  69.134  1.00  0.00    -0.235 A  
HETATM   11  C   UNL     1      -9.790  15.552  69.783  1.00  0.00    -0.268 A  
BRANCH  10  12
HETATM   12  O   UNL     1      -7.403  16.058  69.596  1.00  0.00    -0.189 OA 
BRANCH  12  13
HETATM   13  C   UNL     1      -6.838  14.805  69.723  1.00  0.00    -0.173 A  
HETATM   14  C   UNL     1      -6.974  13.823  68.749  1.00  0.00    -0.109 A  
HETATM   15  C   UNL     1      -6.516  12.533  68.996  1.00  0.00    -0.097 A  
HETATM   16  C   UNL     1      -5.804  12.214  70.157  1.00  0.00    -0.162 A  
HETATM   17  C   UNL     1      -5.588  13.229  71.095  1.00  0.00    -0.172 A  
HETATM   18  C   UNL     1      -6.102  14.521  70.876  1.00  0.00    -0.115 A  
BRANCH  16  19
HETATM   19  N   UNL     1      -5.308  10.906  70.404  1.00  0.00    -0.074 N  
HETATM   20  H   UNL     1      -4.301  10.777  70.502  1.00  0.00     0.000 HD 
BRANCH  19  21
HETATM   21  C   UNL     1      -6.133   9.793  70.518  1.00  0.00    -0.078 C  
HETATM   22  O   UNL     1      -6.829   9.580  71.502  1.00  0.00    -0.314 OA 
BRANCH  21  23
HETATM   23  N   UNL     1      -6.089   8.942  69.428  1.00  0.00    -0.040 N  
HETATM   24  H   UNL     1      -5.176   8.651  69.077  1.00  0.00     0.000 HD 
BRANCH  23  25
HETATM   25  C   UNL     1      -7.259   8.452  68.770  1.00  0.00    -0.079 A  
HETATM   26  C   UNL     1      -8.110   9.273  68.021  1.00  0.00    -0.104 A  
HETATM   27  C   UNL     1      -9.316   8.813  67.464  1.00  0.00    -0.161 A  
HETATM   28  C   UNL     1     -10.220   9.787  66.757  1.00  0.00    -0.233 C  
HETATM   29  C   UNL     1      -9.632   7.466  67.611  1.00  0.00    -0.138 A  
HETATM   30  F   UNL     1     -11.462   9.862  67.314  1.00  0.00    -0.211 F  
HETATM   31  F   UNL     1     -10.407   9.482  65.443  1.00  0.00    -0.317 F  
HETATM   32  F   UNL     1      -9.752  11.069  66.761  1.00  0.00    -0.196 F  
HETATM   33 CL   UNL     1     -11.073   6.790  66.947  1.00  0.00    -0.418 Cl 
HETATM   34  C   UNL     1      -8.766   6.613  68.311  1.00  0.00    -0.118 A  
HETATM   35  C   UNL     1      -7.588   7.101  68.892  1.00  0.00    -0.100 A  
ENDBRANCH  23  25
ENDBRANCH  21  23
ENDBRANCH  19  21
ENDBRANCH  16  19
ENDBRANCH  12  13
ENDBRANCH  10  12
ENDBRANCH   3   6
TORSDOF 7
ENDMDL
MODEL      223
REMARK 921   NORMALIZED FREE ENERGY PREDICTED BY IDOCK:   -4.54 KCAL/MOL
REMARK 922        TOTAL FREE ENERGY PREDICTED BY IDOCK:   -8.25 KCAL/MOL
REMARK 923 INTER-LIGAND FREE ENERGY PREDICTED BY IDOCK:   -7.16 KCAL/MOL
REMARK 924 INTRA-LIGAND FREE ENERGY PREDICTED BY IDOCK:   -1.09 KCAL/MOL
REMARK 927      BINDING AFFINITY PREDICTED BY RF-SCORE:    0.00 PKD
ROOT
HETATM    1  C   UNL     1      -9.322  11.032  62.462  1.00  0.00    -0.259 C  
HETATM    2  N   UNL     1      -9.752  11.557  63.728  1.00  0.00    -0.377 N  
HETATM    3  C   UNL     1     -11.040  12.008  63.920  1.00  0.00    -0.405 C  
HETATM    4  H   UNL     1      -9.090  11.595  64.503  1.00  0.00     0.000 HD 
HETATM    5  O   UNL     1     -11.894  12.011  63.041  1.00  0.00    -0.240 OA 
ENDROOT
BRANCH   3   6
HETATM    6  C   UNL     1     -11.348  12.484  65.309  1.00  0.00    -0.324 A  
HETATM    7  N   UNL     1     -12.240  13.507  65.433  1.00  0.00    -0.418 NA 
HETATM    8  C   UNL     1     -12.450  13.963  66.689  1.00  0.00    -0.270 A  
HETATM    9  C   UNL     1     -11.790  13.482  67.813  1.00  0.00    -0.398 A  
HETATM   10  C   UNL     1     -10.869  12.454  67.645  1.00  0.00    -0.225 A  
HETATM   11  C   UNL     1     -10.684  11.905  66.377  1.00  0.00    -0.303 A  
BRANCH  10  12
HETATM   12  O   UNL     1     -10.190  12.024  68.771  1.00  0.00    -0.204 OA 
BRANCH  12  13
HETATM   13  C   UNL     1     -10.442  10.747  69.231  1.00  0.00    -0.217 A  
HETATM   14  C   UNL     1      -9.779   9.631  68.735  1.00  0.00    -0.167 A  
HETATM   15  C   UNL     1     -10.180   8.357  69.123  1.00  0.00    -0.217 A  
HETATM   16  C   UNL     1     -11.160   8.159  70.101  1.00  0.00    -0.187 A  
HETATM   17  C   UNL     1     -11.761   9.288  70.666  1.00  0.00    -0.276 A  
HETATM   18  C   UNL     1     -11.401  10.578  70.232  1.00  0.00    -0.407 A  
BRANCH  16  19
HETATM   19  N   UNL     1     -11.556   6.862  70.524  1.00  0.00    -0.348 N  
HETATM   20  H   UNL     1     -12.059   6.267  69.865  1.00  0.00     0.000 HD 
BRANCH  19  21
HETATM   21  C   UNL     1     -11.287   6.365  71.794  1.00  0.00    -0.289 C  
HETATM   22  O   UNL     1     -11.768   6.847  72.812  1.00  0.00    -0.154 OA 
BRANCH  21  23
HETATM   23  N   UNL     1     -10.421   5.287  71.808  1.00  0.00    -0.217 N  
HETATM   24  H   UNL     1     -10.532   4.586  72.541  1.00  0.00     0.000 HD 
BRANCH  23  25
HETATM   25  C   UNL     1      -9.377   5.108  70.848  1.00  0.00    -0.150 A  
HETATM   26  C   UNL     1      -9.464   4.193  69.793  1.00  0.00    -0.265 A  
HETATM   27  C   UNL     1      -8.397   3.940  68.913  1.00  0.00    -0.087 A  
HETATM   28  C   UNL     1      -8.542   2.869  67.867  1.00  0.00    -0.093 C  
HETATM   29  C   UNL     1      -7.233   4.688  69.067  1.00  0.00    -0.053 A  
HETATM   30  F   UNL     1      -7.604   1.885  67.976  1.00  0.00    -0.052 F  
HETATM   31  F   UNL     1      -8.446   3.350  66.596  1.00  0.00    -0.099 F  
HETATM   32  F   UNL     1      -9.742   2.221  67.911  1.00  0.00    -0.250 F  
HETATM   33 CL   UNL     1      -5.871   4.478  68.029  1.00  0.00    -0.021 Cl 
HETATM   34  C   UNL     1      -7.144   5.649  70.084  1.00  0.00    -0.066 A  
HETATM   35  C   UNL     1      -8.206   5.858  70.975  1.00  0.00    -0.122 A  
ENDBRANCH  23  25
ENDBRANCH  21  23
ENDBRANCH  19  21
ENDBRANCH  16  19
ENDBRANCH  12  13
ENDBRANCH  10  12
ENDBRANCH   3   6
TORSDOF 7
ENDMDL
MODEL      224
REMARK 921   NORMALIZED FREE ENERGY PREDICTED BY IDOCK:   -4.54 KCAL/MOL
REMARK 922        TOTAL FREE ENERGY PREDICTED BY IDOCK:   -8.25 KCAL/MOL
REMARK 923 INTER-LIGAND FREE ENERGY PREDICTED BY IDOCK:   -7.42 KCAL/MOL
REMARK 924 INTRA-LIGAND FREE ENERGY PREDICTED BY IDOCK:   -0.82 KCAL/MOL
REMARK 927      BINDING AFFINITY PREDICTED BY RF-SCORE:    0.00 PKD
ROOT
HETATM    1  C   UNL     1      -6.530   5.989  70.610  1.00  0.00    -0.040 C  
HETATM    2  N   UNL     1      -7.251   6.691  69.584  1.00  0.00    -0.076 N  
HETATM    3  C   UNL     1      -8.205   7.636  69.894  1.00  0.00    -0.130 C  
HETATM    4  H   UNL     1      -7.053   6.485  68.605  1.00  0.00     0.000 HD 
HETATM    5  O   UNL     1      -8.515   7.933  71.043  1.00  0.00    -0.117 OA 
ENDROOT
BRANCH   3   6
HETATM    6  C   UNL     1      -8.838   8.313  68.716  1.00  0.00    -0.137 A  
HETATM    7  N   UNL     1      -8.195   8.210  67.519  1.00  0.00    -0.122 NA 
HETATM    8  C   UNL     1      -8.750   8.885  66.486  1.00  0.00    -0.130 A  
HETATM    9  C   UNL     1      -9.880   9.684  66.596  1.00  0.00    -0.285 A  
HETATM   10  C   UNL     1     -10.497   9.785  67.838  1.00  0.00    -0.239 A  
HETATM   11  C   UNL     1     -10.000   9.042  68.907  1.00  0.00    -0.197 A  
BRANCH  10  12
HETATM   12  O   UNL     1     -11.592  10.624  67.934  1.00  0.00    -0.491 OA 
BRANCH  12  13
HETATM   13  C   UNL     1     -11.406  11.966  67.664  1.00  0.00    -0.304 A  
HETATM   14  C   UNL     1     -10.501  12.750  68.371  1.00  0.00    -0.253 A  
HETATM   15  C   UNL     1     -10.464  14.124  68.162  1.00  0.00    -0.244 A  
HETATM   16  C   UNL     1     -11.230  14.739  67.165  1.00  0.00    -0.343 A  
HETATM   17  C   UNL     1     -12.071  13.933  66.393  1.00  0.00    -0.489 A  
HETATM   18  C   UNL     1     -12.157  12.549  66.642  1.00  0.00    -0.212 A  
BRANCH  16  19
HETATM   19  N   UNL     1     -11.177  16.138  66.927  1.00  0.00     0.019 N  
HETATM   20  H   UNL     1     -11.552  16.768  67.636  1.00  0.00     0.000 HD 
BRANCH  19  21
HETATM   21  C   UNL     1     -10.636  16.689  65.771  1.00  0.00    -0.268 C  
HETATM   22  O   UNL     1     -10.520  16.060  64.726  1.00  0.00    -0.564 OA 
BRANCH  21  23
HETATM   23  N   UNL     1     -10.229  18.004  65.907  1.00  0.00    -0.289 N  
HETATM   24  H   UNL     1     -10.655  18.708  65.305  1.00  0.00     0.000 HD 
BRANCH  23  25
HETATM   25  C   UNL     1      -9.240  18.424  66.850  1.00  0.00    -0.287 A  
HETATM   26  C   UNL     1      -8.283  17.554  67.386  1.00  0.00    -0.217 A  
HETATM   27  C   UNL     1      -7.380  17.942  68.391  1.00  0.00    -0.259 A  
HETATM   28  C   UNL     1      -6.449  16.917  68.981  1.00  0.00    -0.202 C  
HETATM   29  C   UNL     1      -7.404  19.267  68.815  1.00  0.00    -0.346 A  
HETATM   30  F   UNL     1      -6.606  16.765  70.326  1.00  0.00    -0.058 F  
HETATM   31  F   UNL     1      -5.135  17.214  68.779  1.00  0.00    -0.130 F  
HETATM   32  F   UNL     1      -6.615  15.666  68.461  1.00  0.00    -0.106 F  
HETATM   33 CL   UNL     1      -6.325  19.857  70.025  1.00  0.00    -0.385 Cl 
HETATM   34  C   UNL     1      -8.318  20.169  68.253  1.00  0.00    -0.087 A  
HETATM   35  C   UNL     1      -9.236  19.753  67.278  1.00  0.00    -0.437 A  
ENDBRANCH  23  25
ENDBRANCH  21  23
ENDBRANCH  19  21
ENDBRANCH  16  19
ENDBRANCH  12  13
ENDBRANCH  10  12
ENDBRANCH   3   6
TORSDOF 7
ENDMDL
MODEL      225
REMARK 921   NORMALIZED FREE ENERGY PREDICTED BY IDOCK:   -4.47 KCAL/MOL
REMARK 922        TOTAL FREE ENERGY PREDICTED BY IDOCK:   -8.14 KCAL/MOL
REMARK 923 INTER-LIGAND FREE ENERGY PREDICTED BY IDOCK:   -7.19 KCAL/MOL
REMARK 924 INTRA-LIGAND FREE ENERGY PREDICTED BY IDOCK:   -0.96 KCAL/MOL
REMARK 927      BINDING AFFINITY PREDICTED BY RF-SCORE:    0.00 PKD
ROOT
HETATM    1  C   UNL     1     -12.923  14.407  72.856  1.00  0.00    -0.481 C  
HETATM    2  N   UNL     1     -12.060  14.759  71.763  1.00  0.00    -0.350 N  
HETATM    3  C   UNL     1     -12.509  15.528  70.711  1.00  0.00    -0.440 C  
HETATM    4  H   UNL     1     -11.093  14.434  71.766  1.00  0.00     0.000 HD 
HETATM    5  O   UNL     1     -13.657  15.949  70.622  1.00  0.00    -0.261 OA 
ENDROOT
BRANCH   3   6
HETATM    6  C   UNL     1     -11.478  15.848  69.670  1.00  0.00    -0.346 A  
HETATM    7  N   UNL     1     -11.849  16.688  68.664  1.00  0.00     0.192 NA 
HETATM    8  C   UNL     1     -10.925  16.908  67.701  1.00  0.00    -0.165 A  
HETATM    9  C   UNL     1      -9.675  16.304  67.670  1.00  0.00    -0.234 A  
HETATM   10  C   UNL     1      -9.339  15.434  68.701  1.00  0.00    -0.202 A  
HETATM   11  C   UNL     1     -10.235  15.244  69.752  1.00  0.00    -0.241 A  
BRANCH  10  12
HETATM   12  O   UNL     1      -8.107  14.808  68.624  1.00  0.00    -0.139 OA 
BRANCH  12  13
HETATM   13  C   UNL     1      -8.043  13.584  67.987  1.00  0.00    -0.156 A  
HETATM   14  C   UNL     1      -9.179  12.876  67.615  1.00  0.00    -0.193 A  
HETATM   15  C   UNL     1      -9.058  11.583  67.117  1.00  0.00    -0.167 A  
HETATM   16  C   UNL     1      -7.810  11.007  66.860  1.00  0.00    -0.140 A  
HETATM   17  C   UNL     1      -6.667  11.758  67.150  1.00  0.00    -0.145 A  
HETATM   18  C   UNL     1      -6.785  13.044  67.710  1.00  0.00    -0.143 A  
BRANCH  16  19
HETATM   19  N   UNL     1      -7.677   9.697  66.325  1.00  0.00    -0.101 N  
HETATM   20  H   UNL     1      -6.749   9.274  66.295  1.00  0.00     0.000 HD 
BRANCH  19  21
HETATM   21  C   UNL     1      -8.755   8.965  65.840  1.00  0.00    -0.170 C  
HETATM   22  O   UNL     1      -9.503   9.383  64.965  1.00  0.00    -0.247 OA 
BRANCH  21  23
HETATM   23  N   UNL     1      -8.916   7.730  66.441  1.00  0.00    -0.156 N  
HETATM   24  H   UNL     1      -8.500   6.914  65.992  1.00  0.00     0.000 HD 
BRANCH  23  25
HETATM   25  C   UNL     1      -9.637   7.540  67.661  1.00  0.00    -0.143 A  
HETATM   26  C   UNL     1      -9.450   8.348  68.788  1.00  0.00    -0.147 A  
HETATM   27  C   UNL     1     -10.079   8.096  70.020  1.00  0.00    -0.196 A  
HETATM   28  C   UNL     1      -9.746   8.956  71.208  1.00  0.00    -0.289 C  
HETATM   29  C   UNL     1     -10.977   7.034  70.089  1.00  0.00    -0.272 A  
HETATM   30  F   UNL     1      -9.241   8.246  72.256  1.00  0.00    -0.197 F  
HETATM   31  F   UNL     1     -10.822   9.638  71.690  1.00  0.00    -0.419 F  
HETATM   32  F   UNL     1      -8.809   9.913  70.944  1.00  0.00    -0.133 F  
HETATM   33 CL   UNL     1     -11.824   6.650  71.541  1.00  0.00    -0.368 Cl 
HETATM   34  C   UNL     1     -11.221   6.245  68.956  1.00  0.00    -0.415 A  
HETATM   35  C   UNL     1     -10.554   6.490  67.748  1.00  0.00    -0.321 A  
ENDBRANCH  23  25
ENDBRANCH  21  23
ENDBRANCH  19  21
ENDBRANCH  16  19
ENDBRANCH  12  13
ENDBRANCH  10  12
ENDBRANCH   3   6
TORSDOF 7
ENDMDL
MODEL      226
REMARK 921   NORMALIZED FREE ENERGY PREDICTED BY IDOCK:   -4.44 KCAL/MOL
REMARK 922        TOTAL FREE ENERGY PREDICTED BY IDOCK:   -8.10 KCAL/MOL
REMARK 923 INTER-LIGAND FREE ENERGY PREDICTED BY IDOCK:   -7.72 KCAL/MOL
REMARK 924 INTRA-LIGAND FREE ENERGY PREDICTED BY IDOCK:   -0.39 KCAL/MOL
REMARK 927      BINDING AFFINITY PREDICTED BY RF-SCORE:    0.00 PKD
ROOT
HETATM    1  C   UNL     1     -10.376   8.668  72.204  1.00  0.00    -0.333 C  
HETATM    2  N   UNL     1     -10.092   7.330  71.764  1.00  0.00    -0.179 N  
HETATM    3  C   UNL     1     -10.436   6.235  72.525  1.00  0.00    -0.203 C  
HETATM    4  H   UNL     1      -9.626   7.188  70.868  1.00  0.00     0.000 HD 
HETATM    5  O   UNL     1     -10.985   6.316  73.619  1.00  0.00    -0.184 OA 
ENDROOT
BRANCH   3   6
HETATM    6  C   UNL     1     -10.114   4.905  71.912  1.00  0.00    -0.199 A  
HETATM    7  N   UNL     1      -9.958   3.849  72.759  1.00  0.00    -0.145 NA 
HETATM    8  C   UNL     1      -9.602   2.677  72.188  1.00  0.00    -0.125 A  
HETATM    9  C   UNL     1      -9.355   2.514  70.830  1.00  0.00    -0.215 A  
HETATM   10  C   UNL     1      -9.501   3.619  69.999  1.00  0.00    -0.190 A  
HETATM   11  C   UNL     1      -9.943   4.826  70.540  1.00  0.00    -0.306 A  
BRANCH  10  12
HETATM   12  O   UNL     1      -9.204   3.446  68.659  1.00  0.00    -0.140 OA 
BRANCH  12  13
HETATM   13  C   UNL     1      -9.165   4.567  67.854  1.00  0.00    -0.131 A  
HETATM   14  C   UNL     1     -10.279   5.030  67.165  1.00  0.00    -0.234 A  
HETATM   15  C   UNL     1     -10.147   6.070  66.252  1.00  0.00    -0.067 A  
HETATM   16  C   UNL     1      -8.940   6.758  66.089  1.00  0.00    -0.136 A  
HETATM   17  C   UNL     1      -7.843   6.350  66.853  1.00  0.00    -0.104 A  
HETATM   18  C   UNL     1      -7.957   5.258  67.735  1.00  0.00    -0.099 A  
BRANCH  16  19
HETATM   19  N   UNL     1      -8.804   7.840  65.179  1.00  0.00    -0.379 N  
HETATM   20  H   UNL     1      -8.429   7.650  64.249  1.00  0.00     0.000 HD 
BRANCH  19  21
HETATM   21  C   UNL     1      -9.157   9.146  65.497  1.00  0.00    -0.219 C  
HETATM   22  O   UNL     1      -8.704  10.120  64.909  1.00  0.00    -0.159 OA 
BRANCH  21  23
HETATM   23  N   UNL     1     -10.055   9.250  66.543  1.00  0.00    -0.274 N  
HETATM   24  H   UNL     1     -10.321   8.400  67.041  1.00  0.00     0.000 HD 
BRANCH  23  25
HETATM   25  C   UNL     1     -10.631  10.490  66.962  1.00  0.00    -0.253 A  
HETATM   26  C   UNL     1     -11.008  11.494  66.063  1.00  0.00    -0.316 A  
HETATM   27  C   UNL     1     -11.473  12.754  66.479  1.00  0.00    -0.409 A  
HETATM   28  C   UNL     1     -11.764  13.811  65.448  1.00  0.00    -0.335 C  
HETATM   29  C   UNL     1     -11.625  12.975  67.845  1.00  0.00    -0.342 A  
HETATM   30  F   UNL     1     -11.024  14.942  65.620  1.00  0.00    -0.302 F  
HETATM   31  F   UNL     1     -13.068  14.203  65.441  1.00  0.00    -0.527 F  
HETATM   32  F   UNL     1     -11.507  13.410  64.169  1.00  0.00    -0.367 F  
HETATM   33 CL   UNL     1     -12.212  14.474  68.466  1.00  0.00    -0.236 Cl 
HETATM   34  C   UNL     1     -11.305  11.963  68.761  1.00  0.00    -0.330 A  
HETATM   35  C   UNL     1     -10.806  10.728  68.326  1.00  0.00    -0.276 A  
ENDBRANCH  23  25
ENDBRANCH  21  23
ENDBRANCH  19  21
ENDBRANCH  16  19
ENDBRANCH  12  13
ENDBRANCH  10  12
ENDBRANCH   3   6
TORSDOF 7
ENDMDL
MODEL      227
REMARK 921   NORMALIZED FREE ENERGY PREDICTED BY IDOCK:   -4.42 KCAL/MOL
REMARK 922        TOTAL FREE ENERGY PREDICTED BY IDOCK:   -8.08 KCAL/MOL
REMARK 923 INTER-LIGAND FREE ENERGY PREDICTED BY IDOCK:   -6.88 KCAL/MOL
REMARK 924 INTRA-LIGAND FREE ENERGY PREDICTED BY IDOCK:   -1.20 KCAL/MOL
REMARK 927      BINDING AFFINITY PREDICTED BY RF-SCORE:    0.00 PKD
ROOT
HETATM    1  C   UNL     1      -6.592   6.184  73.423  1.00  0.00    -0.074 C  
HETATM    2  N   UNL     1      -7.906   6.287  72.852  1.00  0.00    -0.104 N  
HETATM    3  C   UNL     1      -8.780   7.282  73.233  1.00  0.00    -0.141 C  
HETATM    4  H   UNL     1      -8.198   5.610  72.149  1.00  0.00     0.000 HD 
HETATM    5  O   UNL     1      -8.515   8.128  74.081  1.00  0.00    -0.262 OA 
ENDROOT
BRANCH   3   6
HETATM    6  C   UNL     1     -10.096   7.284  72.515  1.00  0.00    -0.187 A  
HETATM    7  N   UNL     1     -10.373   6.213  71.719  1.00  0.00    -0.206 NA 
HETATM    8  C   UNL     1     -11.535   6.270  71.030  1.00  0.00    -0.306 A  
HETATM    9  C   UNL     1     -12.408   7.350  71.061  1.00  0.00    -0.303 A  
HETATM   10  C   UNL     1     -12.081   8.436  71.865  1.00  0.00    -0.342 A  
HETATM   11  C   UNL     1     -10.931   8.381  72.651  1.00  0.00    -0.318 A  
BRANCH  10  12
HETATM   12  O   UNL     1     -12.941   9.520  71.844  1.00  0.00    -0.362 OA 
BRANCH  12  13
HETATM   13  C   UNL     1     -12.590  10.608  71.070  1.00  0.00    -0.416 A  
HETATM   14  C   UNL     1     -12.562  11.903  71.572  1.00  0.00    -0.298 A  
HETATM   15  C   UNL     1     -12.352  12.976  70.713  1.00  0.00    -0.394 A  
HETATM   16  C   UNL     1     -12.043  12.788  69.362  1.00  0.00    -0.192 A  
HETATM   17  C   UNL     1     -11.981  11.477  68.878  1.00  0.00    -0.364 A  
HETATM   18  C   UNL     1     -12.253  10.391  69.732  1.00  0.00    -0.166 A  
BRANCH  16  19
HETATM   19  N   UNL     1     -11.800  13.878  68.483  1.00  0.00    -0.351 N  
HETATM   20  H   UNL     1     -12.588  14.459  68.198  1.00  0.00     0.000 HD 
BRANCH  19  21
HETATM   21  C   UNL     1     -10.536  14.188  67.995  1.00  0.00    -0.239 C  
HETATM   22  O   UNL     1     -10.352  14.995  67.093  1.00  0.00    -0.252 OA 
BRANCH  21  23
HETATM   23  N   UNL     1      -9.507  13.498  68.608  1.00  0.00    -0.386 N  
HETATM   24  H   UNL     1      -9.088  13.897  69.448  1.00  0.00     0.000 HD 
BRANCH  23  25
HETATM   25  C   UNL     1      -9.001  12.251  68.124  1.00  0.00    -0.192 A  
HETATM   26  C   UNL     1      -8.664  11.188  68.969  1.00  0.00    -0.027 A  
HETATM   27  C   UNL     1      -8.067  10.004  68.502  1.00  0.00    -0.103 A  
HETATM   28  C   UNL     1      -7.646   8.951  69.491  1.00  0.00    -0.080 C  
HETATM   29  C   UNL     1      -7.871   9.868  67.131  1.00  0.00    -0.099 A  
HETATM   30  F   UNL     1      -6.314   8.670  69.438  1.00  0.00    -0.038 F  
HETATM   31  F   UNL     1      -8.295   7.766  69.315  1.00  0.00    -0.127 F  
HETATM   32  F   UNL     1      -7.884   9.295  70.791  1.00  0.00    -0.114 F  
HETATM   33 CL   UNL     1      -7.171   8.447  66.447  1.00  0.00    -0.071 Cl 
HETATM   34  C   UNL     1      -8.252  10.899  66.260  1.00  0.00    -0.165 A  
HETATM   35  C   UNL     1      -8.810  12.087  66.751  1.00  0.00    -0.198 A  
ENDBRANCH  23  25
ENDBRANCH  21  23
ENDBRANCH  19  21
ENDBRANCH  16  19
ENDBRANCH  12  13
ENDBRANCH  10  12
ENDBRANCH   3   6
TORSDOF 7
ENDMDL
MODEL      228
REMARK 921   NORMALIZED FREE ENERGY PREDICTED BY IDOCK:   -4.42 KCAL/MOL
REMARK 922        TOTAL FREE ENERGY PREDICTED BY IDOCK:   -8.08 KCAL/MOL
REMARK 923 INTER-LIGAND FREE ENERGY PREDICTED BY IDOCK:   -7.06 KCAL/MOL
REMARK 924 INTRA-LIGAND FREE ENERGY PREDICTED BY IDOCK:   -1.02 KCAL/MOL
REMARK 927      BINDING AFFINITY PREDICTED BY RF-SCORE:    0.00 PKD
ROOT
HETATM    1  C   UNL     1      -6.248  19.217  65.918  1.00  0.00    -0.195 C  
HETATM    2  N   UNL     1      -7.346  18.291  65.939  1.00  0.00    -0.238 N  
HETATM    3  C   UNL     1      -7.239  17.063  66.553  1.00  0.00    -0.276 C  
HETATM    4  H   UNL     1      -8.224  18.549  65.489  1.00  0.00     0.000 HD 
HETATM    5  O   UNL     1      -6.216  16.668  67.104  1.00  0.00    -0.149 OA 
ENDROOT
BRANCH   3   6
HETATM    6  C   UNL     1      -8.484  16.227  66.529  1.00  0.00    -0.303 A  
HETATM    7  N   UNL     1      -9.445  16.568  65.626  1.00  0.00    -0.488 NA 
HETATM    8  C   UNL     1     -10.586  15.843  65.670  1.00  0.00    -0.378 A  
HETATM    9  C   UNL     1     -10.830  14.830  66.589  1.00  0.00    -0.319 A  
HETATM   10  C   UNL     1      -9.836  14.525  67.511  1.00  0.00    -0.222 A  
HETATM   11  C   UNL     1      -8.616  15.198  67.446  1.00  0.00    -0.201 A  
BRANCH  10  12
HETATM   12  O   UNL     1     -10.120  13.546  68.447  1.00  0.00    -0.235 OA 
BRANCH  12  13
HETATM   13  C   UNL     1     -10.268  12.248  68.000  1.00  0.00    -0.206 A  
HETATM   14  C   UNL     1     -11.376  11.472  68.318  1.00  0.00    -0.352 A  
HETATM   15  C   UNL     1     -11.402  10.126  67.971  1.00  0.00    -0.152 A  
HETATM   16  C   UNL     1     -10.392   9.545  67.196  1.00  0.00    -0.253 A  
HETATM   17  C   UNL     1      -9.322  10.353  66.799  1.00  0.00    -0.181 A  
HETATM   18  C   UNL     1      -9.263  11.702  67.199  1.00  0.00    -0.176 A  
BRANCH  16  19
HETATM   19  N   UNL     1     -10.425   8.177  66.813  1.00  0.00    -0.383 N  
HETATM   20  H   UNL     1     -11.205   7.849  66.243  1.00  0.00     0.000 HD 
BRANCH  19  21
HETATM   21  C   UNL     1      -9.443   7.265  67.180  1.00  0.00    -0.145 C  
HETATM   22  O   UNL     1      -8.330   7.245  66.670  1.00  0.00    -0.114 OA 
BRANCH  21  23
HETATM   23  N   UNL     1      -9.836   6.375  68.163  1.00  0.00    -0.125 N  
HETATM   24  H   UNL     1     -10.376   5.555  67.886  1.00  0.00     0.000 HD 
BRANCH  23  25
HETATM   25  C   UNL     1      -9.523   6.547  69.547  1.00  0.00    -0.146 A  
HETATM   26  C   UNL     1      -9.791   5.571  70.514  1.00  0.00    -0.254 A  
HETATM   27  C   UNL     1      -9.582   5.782  71.888  1.00  0.00    -0.172 A  
HETATM   28  C   UNL     1      -9.990   4.716  72.868  1.00  0.00    -0.150 C  
HETATM   29  C   UNL     1      -9.020   6.992  72.285  1.00  0.00    -0.133 A  
HETATM   30  F   UNL     1     -10.906   5.150  73.779  1.00  0.00    -0.266 F  
HETATM   31  F   UNL     1      -8.941   4.222  73.584  1.00  0.00    -0.094 F  
HETATM   32  F   UNL     1     -10.564   3.625  72.281  1.00  0.00    -0.224 F  
HETATM   33 CL   UNL     1      -8.698   7.347  73.942  1.00  0.00    -0.233 Cl 
HETATM   34  C   UNL     1      -8.693   7.963  71.328  1.00  0.00    -0.149 A  
HETATM   35  C   UNL     1      -8.946   7.747  69.966  1.00  0.00    -0.142 A  
ENDBRANCH  23  25
ENDBRANCH  21  23
ENDBRANCH  19  21
ENDBRANCH  16  19
ENDBRANCH  12  13
ENDBRANCH  10  12
ENDBRANCH   3   6
TORSDOF 7
ENDMDL
MODEL      229
REMARK 921   NORMALIZED FREE ENERGY PREDICTED BY IDOCK:   -4.42 KCAL/MOL
REMARK 922        TOTAL FREE ENERGY PREDICTED BY IDOCK:   -8.08 KCAL/MOL
REMARK 923 INTER-LIGAND FREE ENERGY PREDICTED BY IDOCK:   -6.64 KCAL/MOL
REMARK 924 INTRA-LIGAND FREE ENERGY PREDICTED BY IDOCK:   -1.44 KCAL/MOL
REMARK 927      BINDING AFFINITY PREDICTED BY RF-SCORE:    0.00 PKD
ROOT
HETATM    1  C   UNL     1     -12.533  12.610  63.265  1.00  0.00    -0.270 C  
HETATM    2  N   UNL     1     -11.479  12.327  64.199  1.00  0.00    -0.355 N  
HETATM    3  C   UNL     1     -11.630  12.564  65.548  1.00  0.00    -0.386 C  
HETATM    4  H   UNL     1     -10.599  11.942  63.856  1.00  0.00     0.000 HD 
HETATM    5  O   UNL     1     -12.648  13.038  66.041  1.00  0.00    -0.453 OA 
ENDROOT
BRANCH   3   6
HETATM    6  C   UNL     1     -10.459  12.175  66.399  1.00  0.00    -0.230 A  
HETATM    7  N   UNL     1     -10.300  12.836  67.580  1.00  0.00    -0.218 NA 
HETATM    8  C   UNL     1      -9.200  12.516  68.298  1.00  0.00    -0.186 A  
HETATM    9  C   UNL     1      -8.235  11.608  67.881  1.00  0.00    -0.141 A  
HETATM   10  C   UNL     1      -8.417  10.970  66.659  1.00  0.00    -0.153 A  
HETATM   11  C   UNL     1      -9.579  11.215  65.928  1.00  0.00    -0.250 A  
BRANCH  10  12
HETATM   12  O   UNL     1      -7.421  10.106  66.242  1.00  0.00    -0.102 OA 
BRANCH  12  13
HETATM   13  C   UNL     1      -7.599   8.755  66.468  1.00  0.00    -0.095 A  
HETATM   14  C   UNL     1      -7.064   8.106  67.575  1.00  0.00    -0.083 A  
HETATM   15  C   UNL     1      -7.144   6.722  67.673  1.00  0.00    -0.085 A  
HETATM   16  C   UNL     1      -7.861   5.958  66.745  1.00  0.00    -0.101 A  
HETATM   17  C   UNL     1      -8.476   6.624  65.681  1.00  0.00    -0.147 A  
HETATM   18  C   UNL     1      -8.347   8.020  65.545  1.00  0.00    -0.153 A  
BRANCH  16  19
HETATM   19  N   UNL     1      -7.971   4.546  66.853  1.00  0.00    -0.101 N  
HETATM   20  H   UNL     1      -7.533   3.966  66.136  1.00  0.00     0.000 HD 
BRANCH  19  21
HETATM   21  C   UNL     1      -8.649   3.917  67.891  1.00  0.00    -0.097 C  
HETATM   22  O   UNL     1      -8.181   2.973  68.515  1.00  0.00    -0.063 OA 
BRANCH  21  23
HETATM   23  N   UNL     1      -9.902   4.443  68.149  1.00  0.00    -0.109 N  
HETATM   24  H   UNL     1     -10.662   4.224  67.504  1.00  0.00     0.000 HD 
BRANCH  23  25
HETATM   25  C   UNL     1     -10.184   5.278  69.274  1.00  0.00    -0.231 A  
HETATM   26  C   UNL     1      -9.915   4.892  70.593  1.00  0.00    -0.305 A  
HETATM   27  C   UNL     1     -10.290   5.667  71.705  1.00  0.00    -0.270 A  
HETATM   28  C   UNL     1     -10.051   5.132  73.091  1.00  0.00    -0.165 C  
HETATM   29  C   UNL     1     -10.893   6.899  71.469  1.00  0.00    -0.230 A  
HETATM   30  F   UNL     1     -11.194   5.015  73.823  1.00  0.00    -0.345 F  
HETATM   31  F   UNL     1      -9.205   5.910  73.822  1.00  0.00    -0.127 F  
HETATM   32  F   UNL     1      -9.491   3.887  73.106  1.00  0.00    -0.117 F  
HETATM   33 CL   UNL     1     -11.372   7.941  72.757  1.00  0.00    -0.462 Cl 
HETATM   34  C   UNL     1     -11.123   7.329  70.154  1.00  0.00    -0.281 A  
HETATM   35  C   UNL     1     -10.776   6.524  69.061  1.00  0.00    -0.324 A  
ENDBRANCH  23  25
ENDBRANCH  21  23
ENDBRANCH  19  21
ENDBRANCH  16  19
ENDBRANCH  12  13
ENDBRANCH  10  12
ENDBRANCH   3   6
TORSDOF 7
ENDMDL
MODEL      230
REMARK 921   NORMALIZED FREE ENERGY PREDICTED BY IDOCK:   -4.42 KCAL/MOL
REMARK 922        TOTAL FREE ENERGY PREDICTED BY IDOCK:   -8.07 KCAL/MOL
REMARK 923 INTER-LIGAND FREE ENERGY PREDICTED BY IDOCK:   -7.39 KCAL/MOL
REMARK 924 INTRA-LIGAND FREE ENERGY PREDICTED BY IDOCK:   -0.68 KCAL/MOL
REMARK 927      BINDING AFFINITY PREDICTED BY RF-SCORE:    0.00 PKD
ROOT
HETATM    1  C   UNL     1      -5.132  18.219  64.923  1.00  0.00    -0.100 C  
HETATM    2  N   UNL     1      -6.512  18.312  65.309  1.00  0.00    -0.179 N  
HETATM    3  C   UNL     1      -6.886  18.861  66.516  1.00  0.00    -0.203 C  
HETATM    4  H   UNL     1      -7.232  17.965  64.675  1.00  0.00     0.000 HD 
HETATM    5  O   UNL     1      -6.086  19.288  67.342  1.00  0.00    -0.189 OA 
ENDROOT
BRANCH   3   6
HETATM    6  C   UNL     1      -8.364  18.928  66.756  1.00  0.00    -0.281 A  
HETATM    7  N   UNL     1      -9.052  19.925  66.131  1.00  0.00    -0.367 NA 
HETATM    8  C   UNL     1     -10.372  20.006  66.416  1.00  0.00    -0.455 A  
HETATM    9  C   UNL     1     -11.026  19.176  67.317  1.00  0.00    -0.417 A  
HETATM   10  C   UNL     1     -10.288  18.186  67.955  1.00  0.00    -0.396 A  
HETATM   11  C   UNL     1      -8.943  18.021  67.628  1.00  0.00    -0.251 A  
BRANCH  10  12
HETATM   12  O   UNL     1     -10.950  17.403  68.884  1.00  0.00    -0.123 OA 
BRANCH  12  13
HETATM   13  C   UNL     1     -10.931  16.033  68.706  1.00  0.00    -0.320 A  
HETATM   14  C   UNL     1     -10.412  15.436  67.564  1.00  0.00    -0.275 A  
HETATM   15  C   UNL     1     -10.557  14.067  67.370  1.00  0.00    -0.278 A  
HETATM   16  C   UNL     1     -11.108  13.238  68.354  1.00  0.00    -0.270 A  
HETATM   17  C   UNL     1     -11.546  13.831  69.542  1.00  0.00    -0.355 A  
HETATM   18  C   UNL     1     -11.455  15.225  69.717  1.00  0.00    -0.332 A  
BRANCH  16  19
HETATM   19  N   UNL     1     -11.234  11.834  68.176  1.00  0.00    -0.239 N  
HETATM   20  H   UNL     1     -11.977  11.485  67.569  1.00  0.00     0.000 HD 
BRANCH  19  21
HETATM   21  C   UNL     1     -10.392  10.915  68.789  1.00  0.00    -0.198 C  
HETATM   22  O   UNL     1     -10.700  10.307  69.807  1.00  0.00    -0.249 OA 
BRANCH  21  23
HETATM   23  N   UNL     1      -9.172  10.755  68.158  1.00  0.00    -0.146 N  
HETATM   24  H   UNL     1      -8.327  11.035  68.657  1.00  0.00     0.000 HD 
BRANCH  23  25
HETATM   25  C   UNL     1      -9.036  10.218  66.840  1.00  0.00    -0.143 A  
HETATM   26  C   UNL     1      -9.182  10.995  65.685  1.00  0.00    -0.231 A  
HETATM   27  C   UNL     1      -9.155  10.446  64.390  1.00  0.00    -0.267 A  
HETATM   28  C   UNL     1      -9.418  11.337  63.207  1.00  0.00    -0.327 C  
HETATM   29  C   UNL     1      -8.903   9.083  64.263  1.00  0.00    -0.049 A  
HETATM   30  F   UNL     1     -10.488  10.936  62.464  1.00  0.00    -0.091 F  
HETATM   31  F   UNL     1      -8.361  11.410  62.350  1.00  0.00    -0.288 F  
HETATM   32  F   UNL     1      -9.688  12.632  63.546  1.00  0.00    -0.272 F  
HETATM   33 CL   UNL     1      -8.823   8.311  62.723  1.00  0.00     0.180 Cl 
HETATM   34  C   UNL     1      -8.700   8.296  65.406  1.00  0.00    -0.147 A  
HETATM   35  C   UNL     1      -8.770   8.856  66.689  1.00  0.00    -0.140 A  
ENDBRANCH  23  25
ENDBRANCH  21  23
ENDBRANCH  19  21
ENDBRANCH  16  19
ENDBRANCH  12  13
ENDBRANCH  10  12
ENDBRANCH   3   6
TORSDOF 7
ENDMDL
MODEL      231
REMARK 921   NORMALIZED FREE ENERGY PREDICTED BY IDOCK:   -4.41 KCAL/MOL
REMARK 922        TOTAL FREE ENERGY PREDICTED BY IDOCK:   -8.07 KCAL/MOL
REMARK 923 INTER-LIGAND FREE ENERGY PREDICTED BY IDOCK:   -7.07 KCAL/MOL
REMARK 924 INTRA-LIGAND FREE ENERGY PREDICTED BY IDOCK:   -1.00 KCAL/MOL
REMARK 927      BINDING AFFINITY PREDICTED BY RF-SCORE:    0.00 PKD
ROOT
HETATM    1  C   UNL     1     -12.252  15.546  64.196  1.00  0.00    -0.004 C  
HETATM    2  N   UNL     1     -11.308  14.482  64.397  1.00  0.00    -0.610 N  
HETATM    3  C   UNL     1     -11.581  13.193  63.994  1.00  0.00    -0.428 C  
HETATM    4  H   UNL     1     -10.416  14.685  64.847  1.00  0.00     0.000 HD 
HETATM    5  O   UNL     1     -12.633  12.859  63.459  1.00  0.00    -0.711 OA 
ENDROOT
BRANCH   3   6
HETATM    6  C   UNL     1     -10.479  12.204  64.232  1.00  0.00    -0.339 A  
HETATM    7  N   UNL     1     -10.235  11.294  63.247  1.00  0.00    -0.367 NA 
HETATM    8  C   UNL     1      -9.283  10.371  63.514  1.00  0.00    -0.282 A  
HETATM    9  C   UNL     1      -8.597  10.284  64.718  1.00  0.00    -0.193 A  
HETATM   10  C   UNL     1      -8.889  11.214  65.709  1.00  0.00    -0.174 A  
HETATM   11  C   UNL     1      -9.808  12.229  65.443  1.00  0.00    -0.209 A  
BRANCH  10  12
HETATM   12  O   UNL     1      -8.229  11.079  66.918  1.00  0.00    -0.129 OA 
BRANCH  12  13
HETATM   13  C   UNL     1      -8.826  10.313  67.899  1.00  0.00    -0.122 A  
HETATM   14  C   UNL     1     -10.186  10.381  68.175  1.00  0.00    -0.187 A  
HETATM   15  C   UNL     1     -10.706   9.703  69.272  1.00  0.00    -0.246 A  
HETATM   16  C   UNL     1      -9.919   8.844  70.048  1.00  0.00    -0.190 A  
HETATM   17  C   UNL     1      -8.569   8.706  69.710  1.00  0.00    -0.131 A  
HETATM   18  C   UNL     1      -8.026   9.437  68.637  1.00  0.00    -0.092 A  
BRANCH  16  19
HETATM   19  N   UNL     1     -10.449   8.126  71.153  1.00  0.00    -0.197 N  
HETATM   20  H   UNL     1      -9.987   8.215  72.058  1.00  0.00     0.000 HD 
BRANCH  19  21
HETATM   21  C   UNL     1     -11.568   7.307  71.057  1.00  0.00    -0.299 C  
HETATM   22  O   UNL     1     -12.623   7.554  71.628  1.00  0.00    -0.322 OA 
BRANCH  21  23
HETATM   23  N   UNL     1     -11.382   6.184  70.272  1.00  0.00    -0.373 N  
HETATM   24  H   UNL     1     -11.957   6.076  69.436  1.00  0.00     0.000 HD 
BRANCH  23  25
HETATM   25  C   UNL     1     -10.424   5.167  70.574  1.00  0.00    -0.208 A  
HETATM   26  C   UNL     1     -10.037   4.852  71.882  1.00  0.00    -0.262 A  
HETATM   27  C   UNL     1      -9.019   3.928  72.174  1.00  0.00    -0.146 A  
HETATM   28  C   UNL     1      -8.597   3.721  73.603  1.00  0.00    -0.090 C  
HETATM   29  C   UNL     1      -8.425   3.253  71.111  1.00  0.00    -0.067 A  
HETATM   30  F   UNL     1      -7.279   3.994  73.816  1.00  0.00    -0.055 F  
HETATM   31  F   UNL     1      -8.800   2.447  74.039  1.00  0.00    -0.070 F  
HETATM   32  F   UNL     1      -9.270   4.511  74.491  1.00  0.00    -0.107 F  
HETATM   33 CL   UNL     1      -7.184   2.080  71.354  1.00  0.00    -0.032 Cl 
HETATM   34  C   UNL     1      -8.836   3.513  69.795  1.00  0.00    -0.151 A  
HETATM   35  C   UNL     1      -9.827   4.467  69.524  1.00  0.00    -0.277 A  
ENDBRANCH  23  25
ENDBRANCH  21  23
ENDBRANCH  19  21
ENDBRANCH  16  19
ENDBRANCH  12  13
ENDBRANCH  10  12
ENDBRANCH   3   6
TORSDOF 7
ENDMDL
MODEL      232
REMARK 921   NORMALIZED FREE ENERGY PREDICTED BY IDOCK:   -4.41 KCAL/MOL
REMARK 922        TOTAL FREE ENERGY PREDICTED BY IDOCK:   -8.06 KCAL/MOL
REMARK 923 INTER-LIGAND FREE ENERGY PREDICTED BY IDOCK:   -6.62 KCAL/MOL
REMARK 924 INTRA-LIGAND FREE ENERGY PREDICTED BY IDOCK:   -1.44 KCAL/MOL
REMARK 927      BINDING AFFINITY PREDICTED BY RF-SCORE:    0.00 PKD
ROOT
HETATM    1  C   UNL     1     -12.301   9.619  71.652  1.00  0.00    -0.404 C  
HETATM    2  N   UNL     1     -11.574   8.412  71.934  1.00  0.00    -0.306 N  
HETATM    3  C   UNL     1     -12.193   7.181  71.920  1.00  0.00    -0.323 C  
HETATM    4  H   UNL     1     -10.579   8.468  72.150  1.00  0.00     0.000 HD 
HETATM    5  O   UNL     1     -13.386   7.025  71.685  1.00  0.00    -0.369 OA 
ENDROOT
BRANCH   3   6
HETATM    6  C   UNL     1     -11.293   6.012  72.191  1.00  0.00    -0.299 A  
HETATM    7  N   UNL     1     -11.148   5.626  73.489  1.00  0.00    -0.205 NA 
HETATM    8  C   UNL     1     -10.279   4.614  73.714  1.00  0.00    -0.189 A  
HETATM    9  C   UNL     1      -9.523   4.001  72.724  1.00  0.00    -0.163 A  
HETATM   10  C   UNL     1      -9.679   4.438  71.413  1.00  0.00    -0.178 A  
HETATM   11  C   UNL     1     -10.623   5.425  71.131  1.00  0.00    -0.276 A  
BRANCH  10  12
HETATM   12  O   UNL     1      -8.881   3.846  70.450  1.00  0.00    -0.075 OA 
BRANCH  12  13
HETATM   13  C   UNL     1      -8.857   4.414  69.192  1.00  0.00    -0.092 A  
HETATM   14  C   UNL     1      -8.268   5.648  68.941  1.00  0.00    -0.100 A  
HETATM   15  C   UNL     1      -8.406   6.241  67.691  1.00  0.00    -0.117 A  
HETATM   16  C   UNL     1      -9.021   5.576  66.625  1.00  0.00    -0.118 A  
HETATM   17  C   UNL     1      -9.532   4.295  66.855  1.00  0.00    -0.205 A  
HETATM   18  C   UNL     1      -9.447   3.716  68.136  1.00  0.00    -0.215 A  
BRANCH  16  19
HETATM   19  N   UNL     1      -9.142   6.164  65.337  1.00  0.00    -0.372 N  
HETATM   20  H   UNL     1      -9.925   5.885  64.746  1.00  0.00     0.000 HD 
BRANCH  19  21
HETATM   21  C   UNL     1      -8.241   7.101  64.845  1.00  0.00    -0.071 C  
HETATM   22  O   UNL     1      -7.041   6.879  64.741  1.00  0.00    -0.055 OA 
BRANCH  21  23
HETATM   23  N   UNL     1      -8.815   8.310  64.496  1.00  0.00    -0.386 N  
HETATM   24  H   UNL     1      -9.085   8.455  63.523  1.00  0.00     0.000 HD 
BRANCH  23  25
HETATM   25  C   UNL     1      -9.050   9.365  65.432  1.00  0.00    -0.226 A  
HETATM   26  C   UNL     1      -8.494   9.379  66.716  1.00  0.00    -0.129 A  
HETATM   27  C   UNL     1      -8.810  10.360  67.672  1.00  0.00    -0.124 A  
HETATM   28  C   UNL     1      -8.243  10.246  69.062  1.00  0.00    -0.139 C  
HETATM   29  C   UNL     1      -9.660  11.394  67.291  1.00  0.00    -0.174 A  
HETATM   30  F   UNL     1      -9.204  10.172  70.025  1.00  0.00    -0.226 F  
HETATM   31  F   UNL     1      -7.443  11.295  69.398  1.00  0.00    -0.115 F  
HETATM   32  F   UNL     1      -7.470   9.136  69.246  1.00  0.00    -0.068 F  
HETATM   33 CL   UNL     1     -10.094  12.664  68.374  1.00  0.00    -0.231 Cl 
HETATM   34  C   UNL     1     -10.185  11.429  65.991  1.00  0.00    -0.289 A  
HETATM   35  C   UNL     1      -9.888  10.420  65.065  1.00  0.00    -0.384 A  
ENDBRANCH  23  25
ENDBRANCH  21  23
ENDBRANCH  19  21
ENDBRANCH  16  19
ENDBRANCH  12  13
ENDBRANCH  10  12
ENDBRANCH   3   6
TORSDOF 7
ENDMDL
MODEL      233
REMARK 921   NORMALIZED FREE ENERGY PREDICTED BY IDOCK:   -4.40 KCAL/MOL
REMARK 922        TOTAL FREE ENERGY PREDICTED BY IDOCK:   -8.04 KCAL/MOL
REMARK 923 INTER-LIGAND FREE ENERGY PREDICTED BY IDOCK:   -7.57 KCAL/MOL
REMARK 924 INTRA-LIGAND FREE ENERGY PREDICTED BY IDOCK:   -0.47 KCAL/MOL
REMARK 927      BINDING AFFINITY PREDICTED BY RF-SCORE:    0.00 PKD
ROOT
HETATM    1  C   UNL     1      -9.151  19.670  68.864  1.00  0.00    -0.226 C  
HETATM    2  N   UNL     1      -9.876  18.430  68.864  1.00  0.00    -0.354 N  
HETATM    3  C   UNL     1      -9.885  17.602  67.763  1.00  0.00    -0.292 C  
HETATM    4  H   UNL     1     -10.396  18.156  69.698  1.00  0.00     0.000 HD 
HETATM    5  O   UNL     1      -9.300  17.860  66.717  1.00  0.00    -0.259 OA 
ENDROOT
BRANCH   3   6
HETATM    6  C   UNL     1     -10.650  16.323  67.933  1.00  0.00    -0.318 A  
HETATM    7  N   UNL     1     -10.562  15.700  69.142  1.00  0.00    -0.222 NA 
HETATM    8  C   UNL     1     -11.206  14.516  69.248  1.00  0.00    -0.281 A  
HETATM    9  C   UNL     1     -11.893  13.906  68.206  1.00  0.00    -0.412 A  
HETATM   10  C   UNL     1     -11.942  14.559  66.980  1.00  0.00    -0.345 A  
HETATM   11  C   UNL     1     -11.358  15.819  66.854  1.00  0.00     0.050 A  
BRANCH  10  12
HETATM   12  O   UNL     1     -12.591  13.912  65.944  1.00  0.00    -0.478 OA 
BRANCH  12  13
HETATM   13  C   UNL     1     -11.931  12.874  65.316  1.00  0.00    -0.419 A  
HETATM   14  C   UNL     1     -11.195  11.925  66.016  1.00  0.00    -0.377 A  
HETATM   15  C   UNL     1     -10.428  10.995  65.324  1.00  0.00    -0.316 A  
HETATM   16  C   UNL     1     -10.466  10.900  63.929  1.00  0.00    -0.289 A  
HETATM   17  C   UNL     1     -11.280  11.797  63.231  1.00  0.00    -0.357 A  
HETATM   18  C   UNL     1     -12.012  12.780  63.925  1.00  0.00    -0.554 A  
BRANCH  16  19
HETATM   19  N   UNL     1      -9.706   9.934  63.216  1.00  0.00    -0.513 N  
HETATM   20  H   UNL     1     -10.142   9.458  62.426  1.00  0.00     0.000 HD 
BRANCH  19  21
HETATM   21  C   UNL     1      -8.396   9.607  63.546  1.00  0.00    -0.172 C  
HETATM   22  O   UNL     1      -7.589  10.431  63.958  1.00  0.00    -0.115 OA 
BRANCH  21  23
HETATM   23  N   UNL     1      -8.080   8.274  63.357  1.00  0.00    -0.243 N  
HETATM   24  H   UNL     1      -7.772   7.976  62.431  1.00  0.00     0.000 HD 
BRANCH  23  25
HETATM   25  C   UNL     1      -8.164   7.294  64.394  1.00  0.00     0.010 A  
HETATM   26  C   UNL     1      -7.989   5.925  64.162  1.00  0.00    -0.122 A  
HETATM   27  C   UNL     1      -8.177   4.953  65.160  1.00  0.00    -0.124 A  
HETATM   28  C   UNL     1      -8.064   3.496  64.800  1.00  0.00    -0.090 C  
HETATM   29  C   UNL     1      -8.484   5.388  66.446  1.00  0.00    -0.114 A  
HETATM   30  F   UNL     1      -9.204   2.794  65.056  1.00  0.00    -0.132 F  
HETATM   31  F   UNL     1      -7.063   2.859  65.469  1.00  0.00    -0.052 F  
HETATM   32  F   UNL     1      -7.803   3.278  63.478  1.00  0.00    -0.070 F  
HETATM   33 CL   UNL     1      -8.711   4.284  67.751  1.00  0.00    -0.111 Cl 
HETATM   34  C   UNL     1      -8.611   6.758  66.713  1.00  0.00    -0.119 A  
HETATM   35  C   UNL     1      -8.457   7.709  65.695  1.00  0.00    -0.152 A  
ENDBRANCH  23  25
ENDBRANCH  21  23
ENDBRANCH  19  21
ENDBRANCH  16  19
ENDBRANCH  12  13
ENDBRANCH  10  12
ENDBRANCH   3   6
TORSDOF 7
ENDMDL
MODEL      234
REMARK 921   NORMALIZED FREE ENERGY PREDICTED BY IDOCK:   -4.39 KCAL/MOL
REMARK 922        TOTAL FREE ENERGY PREDICTED BY IDOCK:   -8.03 KCAL/MOL
REMARK 923 INTER-LIGAND FREE ENERGY PREDICTED BY IDOCK:   -7.30 KCAL/MOL
REMARK 924 INTRA-LIGAND FREE ENERGY PREDICTED BY IDOCK:   -0.73 KCAL/MOL
REMARK 927      BINDING AFFINITY PREDICTED BY RF-SCORE:    0.00 PKD
ROOT
HETATM    1  C   UNL     1      -9.113  20.253  67.331  1.00  0.00    -0.365 C  
HETATM    2  N   UNL     1      -8.755  18.863  67.277  1.00  0.00    -0.275 N  
HETATM    3  C   UNL     1      -9.539  17.895  67.866  1.00  0.00    -0.286 C  
HETATM    4  H   UNL     1      -7.902  18.586  66.792  1.00  0.00     0.000 HD 
HETATM    5  O   UNL     1     -10.572  18.142  68.481  1.00  0.00    -0.296 OA 
ENDROOT
BRANCH   3   6
HETATM    6  C   UNL     1      -9.057  16.487  67.685  1.00  0.00    -0.199 A  
HETATM    7  N   UNL     1      -7.709  16.284  67.693  1.00  0.00    -0.137 NA 
HETATM    8  C   UNL     1      -7.298  15.017  67.461  1.00  0.00    -0.202 A  
HETATM    9  C   UNL     1      -8.153  13.959  67.183  1.00  0.00    -0.103 A  
HETATM   10  C   UNL     1      -9.521  14.207  67.160  1.00  0.00    -0.236 A  
HETATM   11  C   UNL     1      -9.987  15.483  67.472  1.00  0.00    -0.230 A  
BRANCH  10  12
HETATM   12  O   UNL     1     -10.350  13.149  66.833  1.00  0.00    -0.244 OA 
BRANCH  12  13
HETATM   13  C   UNL     1      -9.919  11.872  67.134  1.00  0.00    -0.194 A  
HETATM   14  C   UNL     1      -9.073  11.603  68.204  1.00  0.00    -0.183 A  
HETATM   15  C   UNL     1      -8.549  10.326  68.369  1.00  0.00    -0.125 A  
HETATM   16  C   UNL     1      -8.944   9.257  67.557  1.00  0.00    -0.118 A  
HETATM   17  C   UNL     1      -9.867   9.512  66.538  1.00  0.00    -0.305 A  
HETATM   18  C   UNL     1     -10.354  10.817  66.330  1.00  0.00    -0.306 A  
BRANCH  16  19
HETATM   19  N   UNL     1      -8.435   7.943  67.737  1.00  0.00    -0.125 N  
HETATM   20  H   UNL     1      -7.439   7.781  67.583  1.00  0.00     0.000 HD 
BRANCH  19  21
HETATM   21  C   UNL     1      -9.231   6.868  68.113  1.00  0.00    -0.126 C  
HETATM   22  O   UNL     1      -9.774   6.127  67.304  1.00  0.00    -0.120 OA 
BRANCH  21  23
HETATM   23  N   UNL     1      -9.366   6.716  69.481  1.00  0.00    -0.146 N  
HETATM   24  H   UNL     1      -8.599   6.287  70.000  1.00  0.00     0.000 HD 
BRANCH  23  25
HETATM   25  C   UNL     1     -10.528   7.128  70.205  1.00  0.00    -0.216 A  
HETATM   26  C   UNL     1     -11.055   8.422  70.120  1.00  0.00    -0.183 A  
HETATM   27  C   UNL     1     -12.132   8.859  70.912  1.00  0.00    -0.218 A  
HETATM   28  C   UNL     1     -12.573  10.295  70.829  1.00  0.00    -0.352 C  
HETATM   29  C   UNL     1     -12.734   7.936  71.762  1.00  0.00    -0.329 A  
HETATM   30  F   UNL     1     -12.501  10.946  72.024  1.00  0.00    -0.393 F  
HETATM   31  F   UNL     1     -13.857  10.433  70.394  1.00  0.00    -0.102 F  
HETATM   32  F   UNL     1     -11.825  11.048  69.970  1.00  0.00    -0.299 F  
HETATM   33 CL   UNL     1     -14.077   8.357  72.759  1.00  0.00    -0.129 Cl 
HETATM   34  C   UNL     1     -12.256   6.619  71.822  1.00  0.00    -0.400 A  
HETATM   35  C   UNL     1     -11.157   6.215  71.053  1.00  0.00    -0.359 A  
ENDBRANCH  23  25
ENDBRANCH  21  23
ENDBRANCH  19  21
ENDBRANCH  16  19
ENDBRANCH  12  13
ENDBRANCH  10  12
ENDBRANCH   3   6
TORSDOF 7
ENDMDL
MODEL      235
REMARK 921   NORMALIZED FREE ENERGY PREDICTED BY IDOCK:   -4.39 KCAL/MOL
REMARK 922        TOTAL FREE ENERGY PREDICTED BY IDOCK:   -8.03 KCAL/MOL
REMARK 923 INTER-LIGAND FREE ENERGY PREDICTED BY IDOCK:   -7.08 KCAL/MOL
REMARK 924 INTRA-LIGAND FREE ENERGY PREDICTED BY IDOCK:   -0.95 KCAL/MOL
REMARK 927      BINDING AFFINITY PREDICTED BY RF-SCORE:    0.00 PKD
ROOT
HETATM    1  C   UNL     1      -9.063   1.763  71.167  1.00  0.00    -0.079 C  
HETATM    2  N   UNL     1      -9.543   3.051  70.749  1.00  0.00    -0.156 N  
HETATM    3  C   UNL     1      -8.923   3.756  69.740  1.00  0.00    -0.103 C  
HETATM    4  H   UNL     1     -10.360   3.451  71.209  1.00  0.00     0.000 HD 
HETATM    5  O   UNL     1      -7.928   3.355  69.146  1.00  0.00    -0.050 OA 
ENDROOT
BRANCH   3   6
HETATM    6  C   UNL     1      -9.568   5.063  69.388  1.00  0.00    -0.166 A  
HETATM    7  N   UNL     1     -10.443   5.590  70.291  1.00  0.00    -0.283 NA 
HETATM    8  C   UNL     1     -11.062   6.734  69.921  1.00  0.00    -0.323 A  
HETATM    9  C   UNL     1     -10.885   7.352  68.690  1.00  0.00    -0.073 A  
HETATM   10  C   UNL     1     -10.003   6.774  67.784  1.00  0.00    -0.138 A  
HETATM   11  C   UNL     1      -9.288   5.638  68.160  1.00  0.00    -0.119 A  
BRANCH  10  12
HETATM   12  O   UNL     1      -9.880   7.380  66.547  1.00  0.00    -0.197 OA 
BRANCH  12  13
HETATM   13  C   UNL     1      -9.468   8.698  66.510  1.00  0.00    -0.216 A  
HETATM   14  C   UNL     1      -8.191   9.091  66.892  1.00  0.00    -0.116 A  
HETATM   15  C   UNL     1      -7.880  10.443  66.981  1.00  0.00    -0.112 A  
HETATM   16  C   UNL     1      -8.781  11.435  66.576  1.00  0.00    -0.181 A  
HETATM   17  C   UNL     1     -10.033  11.031  66.104  1.00  0.00    -0.277 A  
HETATM   18  C   UNL     1     -10.374   9.665  66.070  1.00  0.00    -0.160 A  
BRANCH  16  19
HETATM   19  N   UNL     1      -8.460  12.817  66.638  1.00  0.00    -0.419 N  
HETATM   20  H   UNL     1      -8.229  13.303  65.770  1.00  0.00     0.000 HD 
BRANCH  19  21
HETATM   21  C   UNL     1      -8.448  13.539  67.825  1.00  0.00    -0.184 C  
HETATM   22  O   UNL     1      -7.518  13.495  68.620  1.00  0.00    -0.114 OA 
BRANCH  21  23
HETATM   23  N   UNL     1      -9.582  14.302  68.035  1.00  0.00    -0.216 N  
HETATM   24  H   UNL     1     -10.325  13.917  68.619  1.00  0.00     0.000 HD 
BRANCH  23  25
HETATM   25  C   UNL     1      -9.765  15.605  67.475  1.00  0.00    -0.222 A  
HETATM   26  C   UNL     1      -9.314  16.772  68.102  1.00  0.00    -0.234 A  
HETATM   27  C   UNL     1      -9.588  18.058  67.605  1.00  0.00    -0.271 A  
HETATM   28  C   UNL     1      -9.149  19.262  68.394  1.00  0.00    -0.359 C  
HETATM   29  C   UNL     1     -10.278  18.160  66.401  1.00  0.00    -0.399 A  
HETATM   30  F   UNL     1     -10.185  20.075  68.748  1.00  0.00    -0.513 F  
HETATM   31  F   UNL     1      -8.261  20.045  67.721  1.00  0.00    -0.326 F  
HETATM   32  F   UNL     1      -8.528  18.949  69.569  1.00  0.00    -0.062 F  
HETATM   33 CL   UNL     1     -10.646  19.687  65.688  1.00  0.00    -0.557 Cl 
HETATM   34  C   UNL     1     -10.692  17.002  65.728  1.00  0.00    -0.146 A  
HETATM   35  C   UNL     1     -10.443  15.730  66.261  1.00  0.00    -0.315 A  
ENDBRANCH  23  25
ENDBRANCH  21  23
ENDBRANCH  19  21
ENDBRANCH  16  19
ENDBRANCH  12  13
ENDBRANCH  10  12
ENDBRANCH   3   6
TORSDOF 7
ENDMDL
MODEL      236
REMARK 921   NORMALIZED FREE ENERGY PREDICTED BY IDOCK:   -4.38 KCAL/MOL
REMARK 922        TOTAL FREE ENERGY PREDICTED BY IDOCK:   -8.02 KCAL/MOL
REMARK 923 INTER-LIGAND FREE ENERGY PREDICTED BY IDOCK:   -6.46 KCAL/MOL
REMARK 924 INTRA-LIGAND FREE ENERGY PREDICTED BY IDOCK:   -1.56 KCAL/MOL
REMARK 927      BINDING AFFINITY PREDICTED BY RF-SCORE:    0.00 PKD
ROOT
HETATM    1  C   UNL     1     -12.011  15.257  64.012  1.00  0.00     0.000 C  
HETATM    2  N   UNL     1     -11.016  15.417  65.036  1.00  0.00    -0.417 N  
HETATM    3  C   UNL     1     -10.594  16.666  65.439  1.00  0.00    -0.237 C  
HETATM    4  H   UNL     1     -10.614  14.590  65.475  1.00  0.00     0.000 HD 
HETATM    5  O   UNL     1     -11.014  17.712  64.955  1.00  0.00    -0.886 OA 
ENDROOT
BRANCH   3   6
HETATM    6  C   UNL     1      -9.584  16.670  66.548  1.00  0.00    -0.273 A  
HETATM    7  N   UNL     1      -9.762  17.577  67.549  1.00  0.00    -0.272 NA 
HETATM    8  C   UNL     1      -8.802  17.607  68.501  1.00  0.00    -0.285 A  
HETATM    9  C   UNL     1      -7.663  16.813  68.484  1.00  0.00    -0.223 A  
HETATM   10  C   UNL     1      -7.503  15.916  67.434  1.00  0.00    -0.186 A  
HETATM   11  C   UNL     1      -8.509  15.801  66.476  1.00  0.00    -0.335 A  
BRANCH  10  12
HETATM   12  O   UNL     1      -6.337  15.170  67.412  1.00  0.00    -0.297 OA 
BRANCH  12  13
HETATM   13  C   UNL     1      -6.362  13.913  67.984  1.00  0.00    -0.142 A  
HETATM   14  C   UNL     1      -6.417  12.750  67.226  1.00  0.00    -0.073 A  
HETATM   15  C   UNL     1      -6.595  11.522  67.853  1.00  0.00    -0.064 A  
HETATM   16  C   UNL     1      -6.598  11.400  69.247  1.00  0.00    -0.106 A  
HETATM   17  C   UNL     1      -6.450  12.563  70.008  1.00  0.00     0.096 A  
HETATM   18  C   UNL     1      -6.330  13.816  69.377  1.00  0.00    -0.111 A  
BRANCH  16  19
HETATM   19  N   UNL     1      -6.751  10.145  69.895  1.00  0.00    -0.093 N  
HETATM   20  H   UNL     1      -6.176   9.947  70.715  1.00  0.00     0.000 HD 
BRANCH  19  21
HETATM   21  C   UNL     1      -7.648   9.175  69.464  1.00  0.00    -0.079 C  
HETATM   22  O   UNL     1      -7.294   8.136  68.921  1.00  0.00    -0.086 OA 
BRANCH  21  23
HETATM   23  N   UNL     1      -8.975   9.490  69.691  1.00  0.00    -0.173 N  
HETATM   24  H   UNL     1      -9.435   9.092  70.510  1.00  0.00     0.000 HD 
BRANCH  23  25
HETATM   25  C   UNL     1      -9.734  10.347  68.835  1.00  0.00    -0.198 A  
HETATM   26  C   UNL     1     -10.238  11.585  69.252  1.00  0.00     0.049 A  
HETATM   27  C   UNL     1     -11.073  12.378  68.446  1.00  0.00    -0.288 A  
HETATM   28  C   UNL     1     -11.651  13.648  69.008  1.00  0.00    -0.312 C  
HETATM   29  C   UNL     1     -11.348  11.934  67.156  1.00  0.00    -0.331 A  
HETATM   30  F   UNL     1     -13.014  13.663  69.005  1.00  0.00     0.207 F  
HETATM   31  F   UNL     1     -11.254  14.760  68.328  1.00  0.00    -0.246 F  
HETATM   32  F   UNL     1     -11.297  13.882  70.306  1.00  0.00    -0.266 F  
HETATM   33 CL   UNL     1     -12.341  12.839  66.073  1.00  0.00    -0.376 Cl 
HETATM   34  C   UNL     1     -10.810  10.723  66.698  1.00  0.00    -0.228 A  
HETATM   35  C   UNL     1     -10.010   9.929  67.532  1.00  0.00    -0.229 A  
ENDBRANCH  23  25
ENDBRANCH  21  23
ENDBRANCH  19  21
ENDBRANCH  16  19
ENDBRANCH  12  13
ENDBRANCH  10  12
ENDBRANCH   3   6
TORSDOF 7
ENDMDL
MODEL      237
REMARK 921   NORMALIZED FREE ENERGY PREDICTED BY IDOCK:   -4.35 KCAL/MOL
REMARK 922        TOTAL FREE ENERGY PREDICTED BY IDOCK:   -7.98 KCAL/MOL
REMARK 923 INTER-LIGAND FREE ENERGY PREDICTED BY IDOCK:   -7.05 KCAL/MOL
REMARK 924 INTRA-LIGAND FREE ENERGY PREDICTED BY IDOCK:   -0.93 KCAL/MOL
REMARK 927      BINDING AFFINITY PREDICTED BY RF-SCORE:    0.00 PKD
ROOT
HETATM    1  C   UNL     1     -11.792   1.802  73.121  1.00  0.00     0.031 C  
HETATM    2  N   UNL     1     -10.798   2.836  73.042  1.00  0.00    -0.131 N  
HETATM    3  C   UNL     1      -9.963   2.949  71.951  1.00  0.00    -0.143 C  
HETATM    4  H   UNL     1     -10.708   3.501  73.810  1.00  0.00     0.000 HD 
HETATM    5  O   UNL     1      -9.994   2.184  70.993  1.00  0.00    -0.072 OA 
ENDROOT
BRANCH   3   6
HETATM    6  C   UNL     1      -9.009   4.105  71.996  1.00  0.00    -0.119 A  
HETATM    7  N   UNL     1      -7.693   3.835  71.766  1.00  0.00    -0.060 NA 
HETATM    8  C   UNL     1      -6.844   4.882  71.879  1.00  0.00    -0.052 A  
HETATM    9  C   UNL     1      -7.231   6.164  72.247  1.00  0.00    -0.088 A  
HETATM   10  C   UNL     1      -8.579   6.396  72.498  1.00  0.00    -0.123 A  
HETATM   11  C   UNL     1      -9.495   5.362  72.315  1.00  0.00    -0.165 A  
BRANCH  10  12
HETATM   12  O   UNL     1      -8.935   7.669  72.909  1.00  0.00    -0.140 OA 
BRANCH  12  13
HETATM   13  C   UNL     1      -9.792   8.393  72.104  1.00  0.00    -0.302 A  
HETATM   14  C   UNL     1     -11.169   8.394  72.292  1.00  0.00    -0.446 A  
HETATM   15  C   UNL     1     -11.995   9.015  71.362  1.00  0.00    -0.400 A  
HETATM   16  C   UNL     1     -11.476   9.755  70.294  1.00  0.00    -0.255 A  
HETATM   17  C   UNL     1     -10.086   9.829  70.161  1.00  0.00    -0.317 A  
HETATM   18  C   UNL     1      -9.247   9.151  71.066  1.00  0.00    -0.321 A  
BRANCH  16  19
HETATM   19  N   UNL     1     -12.312  10.417  69.356  1.00  0.00    -0.525 N  
HETATM   20  H   UNL     1     -13.319  10.261  69.406  1.00  0.00     0.000 HD 
BRANCH  19  21
HETATM   21  C   UNL     1     -11.821  11.267  68.372  1.00  0.00    -0.261 C  
HETATM   22  O   UNL     1     -11.293  10.860  67.345  1.00  0.00    -0.412 OA 
BRANCH  21  23
HETATM   23  N   UNL     1     -11.971  12.611  68.659  1.00  0.00    -0.282 N  
HETATM   24  H   UNL     1     -12.715  12.890  69.300  1.00  0.00     0.000 HD 
BRANCH  23  25
HETATM   25  C   UNL     1     -11.136  13.630  68.103  1.00  0.00    -0.256 A  
HETATM   26  C   UNL     1      -9.899  13.984  68.656  1.00  0.00    -0.191 A  
HETATM   27  C   UNL     1      -9.129  15.056  68.173  1.00  0.00    -0.178 A  
HETATM   28  C   UNL     1      -7.858  15.431  68.887  1.00  0.00    -0.177 C  
HETATM   29  C   UNL     1      -9.593  15.743  67.055  1.00  0.00    -0.226 A  
HETATM   30  F   UNL     1      -7.863  16.715  69.344  1.00  0.00    -0.236 F  
HETATM   31  F   UNL     1      -6.751  15.306  68.104  1.00  0.00    -0.099 F  
HETATM   32  F   UNL     1      -7.603  14.664  69.987  1.00  0.00    -0.097 F  
HETATM   33 CL   UNL     1      -8.716  17.057  66.364  1.00  0.00    -0.299 Cl 
HETATM   34  C   UNL     1     -10.803  15.369  66.452  1.00  0.00    -0.303 A  
HETATM   35  C   UNL     1     -11.575  14.322  66.973  1.00  0.00    -0.406 A  
ENDBRANCH  23  25
ENDBRANCH  21  23
ENDBRANCH  19  21
ENDBRANCH  16  19
ENDBRANCH  12  13
ENDBRANCH  10  12
ENDBRANCH   3   6
TORSDOF 7
ENDMDL
MODEL      238
REMARK 921   NORMALIZED FREE ENERGY PREDICTED BY IDOCK:   -4.33 KCAL/MOL
REMARK 922        TOTAL FREE ENERGY PREDICTED BY IDOCK:   -7.95 KCAL/MOL
REMARK 923 INTER-LIGAND FREE ENERGY PREDICTED BY IDOCK:   -6.54 KCAL/MOL
REMARK 924 INTRA-LIGAND FREE ENERGY PREDICTED BY IDOCK:   -1.41 KCAL/MOL
REMARK 927      BINDING AFFINITY PREDICTED BY RF-SCORE:    0.00 PKD
ROOT
HETATM    1  C   UNL     1      -7.237   3.494  64.364  1.00  0.00    -0.059 C  
HETATM    2  N   UNL     1      -7.240   3.680  65.788  1.00  0.00    -0.070 N  
HETATM    3  C   UNL     1      -6.224   4.355  66.427  1.00  0.00    -0.032 C  
HETATM    4  H   UNL     1      -8.012   3.304  66.338  1.00  0.00     0.000 HD 
HETATM    5  O   UNL     1      -5.252   4.826  65.845  1.00  0.00    -0.008 OA 
ENDROOT
BRANCH   3   6
HETATM    6  C   UNL     1      -6.392   4.505  67.910  1.00  0.00    -0.037 A  
HETATM    7  N   UNL     1      -5.309   4.930  68.620  1.00  0.00    -0.007 NA 
HETATM    8  C   UNL     1      -5.465   4.993  69.962  1.00  0.00    -0.011 A  
HETATM    9  C   UNL     1      -6.623   4.616  70.629  1.00  0.00    -0.035 A  
HETATM   10  C   UNL     1      -7.700   4.164  69.875  1.00  0.00    -0.052 A  
HETATM   11  C   UNL     1      -7.604   4.160  68.484  1.00  0.00    -0.063 A  
BRANCH  10  12
HETATM   12  O   UNL     1      -8.825   3.748  70.564  1.00  0.00    -0.073 OA 
BRANCH  12  13
HETATM   13  C   UNL     1      -9.874   4.638  70.688  1.00  0.00    -0.226 A  
HETATM   14  C   UNL     1     -10.445   5.274  69.592  1.00  0.00    -0.320 A  
HETATM   15  C   UNL     1     -11.392   6.273  69.786  1.00  0.00    -0.506 A  
HETATM   16  C   UNL     1     -11.888   6.581  71.058  1.00  0.00    -0.330 A  
HETATM   17  C   UNL     1     -11.377   5.874  72.151  1.00  0.00    -0.344 A  
HETATM   18  C   UNL     1     -10.374   4.904  71.964  1.00  0.00    -0.263 A  
BRANCH  16  19
HETATM   19  N   UNL     1     -12.876   7.581  71.263  1.00  0.00    -0.490 N  
HETATM   20  H   UNL     1     -13.806   7.435  70.868  1.00  0.00     0.000 HD 
BRANCH  19  21
HETATM   21  C   UNL     1     -12.635   8.749  71.976  1.00  0.00    -0.385 C  
HETATM   22  O   UNL     1     -13.422   9.202  72.798  1.00  0.00    -0.424 OA 
BRANCH  21  23
HETATM   23  N   UNL     1     -11.433   9.362  71.669  1.00  0.00    -0.389 N  
HETATM   24  H   UNL     1     -10.694   9.360  72.372  1.00  0.00     0.000 HD 
BRANCH  23  25
HETATM   25  C   UNL     1     -11.177   9.998  70.415  1.00  0.00    -0.323 A  
HETATM   26  C   UNL     1      -9.970   9.849  69.721  1.00  0.00    -0.275 A  
HETATM   27  C   UNL     1      -9.677  10.559  68.543  1.00  0.00    -0.170 A  
HETATM   28  C   UNL     1      -8.318  10.414  67.914  1.00  0.00    -0.114 C  
HETATM   29  C   UNL     1     -10.663  11.389  68.018  1.00  0.00    -0.200 A  
HETATM   30  F   UNL     1      -7.647  11.596  67.814  1.00  0.00    -0.100 F  
HETATM   31  F   UNL     1      -8.366   9.893  66.656  1.00  0.00    -0.120 F  
HETATM   32  F   UNL     1      -7.480   9.589  68.607  1.00  0.00    -0.075 F  
HETATM   33 CL   UNL     1     -10.420  12.286  66.565  1.00  0.00    -0.247 Cl 
HETATM   34  C   UNL     1     -11.900  11.511  68.668  1.00  0.00    -0.382 A  
HETATM   35  C   UNL     1     -12.157  10.824  69.862  1.00  0.00    -0.410 A  
ENDBRANCH  23  25
ENDBRANCH  21  23
ENDBRANCH  19  21
ENDBRANCH  16  19
ENDBRANCH  12  13
ENDBRANCH  10  12
ENDBRANCH   3   6
TORSDOF 7
ENDMDL
MODEL      239
REMARK 921   NORMALIZED FREE ENERGY PREDICTED BY IDOCK:   -4.33 KCAL/MOL
REMARK 922        TOTAL FREE ENERGY PREDICTED BY IDOCK:   -7.95 KCAL/MOL
REMARK 923 INTER-LIGAND FREE ENERGY PREDICTED BY IDOCK:   -6.64 KCAL/MOL
REMARK 924 INTRA-LIGAND FREE ENERGY PREDICTED BY IDOCK:   -1.31 KCAL/MOL
REMARK 927      BINDING AFFINITY PREDICTED BY RF-SCORE:    0.00 PKD
ROOT
HETATM    1  C   UNL     1     -10.837   5.739  72.782  1.00  0.00    -0.255 C  
HETATM    2  N   UNL     1     -10.980   5.987  71.374  1.00  0.00    -0.270 N  
HETATM    3  C   UNL     1     -10.053   6.732  70.678  1.00  0.00    -0.187 C  
HETATM    4  H   UNL     1     -11.784   5.603  70.879  1.00  0.00     0.000 HD 
HETATM    5  O   UNL     1      -9.065   7.242  71.197  1.00  0.00    -0.150 OA 
ENDROOT
BRANCH   3   6
HETATM    6  C   UNL     1     -10.316   6.865  69.207  1.00  0.00    -0.198 A  
HETATM    7  N   UNL     1     -10.425   5.713  68.487  1.00  0.00    -0.210 NA 
HETATM    8  C   UNL     1     -10.596   5.860  67.154  1.00  0.00    -0.299 A  
HETATM    9  C   UNL     1     -10.620   7.086  66.502  1.00  0.00    -0.008 A  
HETATM   10  C   UNL     1     -10.482   8.239  67.265  1.00  0.00    -0.303 A  
HETATM   11  C   UNL     1     -10.384   8.132  68.652  1.00  0.00    -0.224 A  
BRANCH  10  12
HETATM   12  O   UNL     1     -10.462   9.446  66.589  1.00  0.00    -0.233 OA 
BRANCH  12  13
HETATM   13  C   UNL     1      -9.423  10.318  66.852  1.00  0.00    -0.169 A  
HETATM   14  C   UNL     1      -9.623  11.561  67.441  1.00  0.00    -0.177 A  
HETATM   15  C   UNL     1      -8.566  12.458  67.543  1.00  0.00    -0.177 A  
HETATM   16  C   UNL     1      -7.262  12.104  67.179  1.00  0.00    -0.117 A  
HETATM   17  C   UNL     1      -7.047  10.819  66.672  1.00  0.00    -0.133 A  
HETATM   18  C   UNL     1      -8.126   9.928  66.512  1.00  0.00    -0.117 A  
BRANCH  16  19
HETATM   19  N   UNL     1      -6.171  13.006  67.305  1.00  0.00    -0.207 N  
HETATM   20  H   UNL     1      -5.497  13.065  66.542  1.00  0.00     0.000 HD 
BRANCH  19  21
HETATM   21  C   UNL     1      -5.980  13.810  68.423  1.00  0.00    -0.099 C  
HETATM   22  O   UNL     1      -5.997  13.374  69.567  1.00  0.00    -0.092 OA 
BRANCH  21  23
HETATM   23  N   UNL     1      -5.781  15.147  68.130  1.00  0.00    -0.124 N  
HETATM   24  H   UNL     1      -4.872  15.434  67.765  1.00  0.00     0.000 HD 
BRANCH  23  25
HETATM   25  C   UNL     1      -6.786  16.147  68.313  1.00  0.00    -0.124 A  
HETATM   26  C   UNL     1      -8.092  16.010  67.826  1.00  0.00    -0.154 A  
HETATM   27  C   UNL     1      -9.048  17.037  67.912  1.00  0.00    -0.232 A  
HETATM   28  C   UNL     1     -10.398  16.843  67.276  1.00  0.00    -0.309 C  
HETATM   29  C   UNL     1      -8.690  18.209  68.572  1.00  0.00    -0.296 A  
HETATM   30  F   UNL     1     -10.681  17.781  66.328  1.00  0.00    -0.324 F  
HETATM   31  F   UNL     1     -11.420  16.884  68.175  1.00  0.00    -0.295 F  
HETATM   32  F   UNL     1     -10.534  15.643  66.639  1.00  0.00    -0.275 F  
HETATM   33 CL   UNL     1      -9.792  19.523  68.757  1.00  0.00    -0.510 Cl 
HETATM   34  C   UNL     1      -7.405  18.346  69.115  1.00  0.00    -0.155 A  
HETATM   35  C   UNL     1      -6.454  17.325  68.984  1.00  0.00    -0.221 A  
ENDBRANCH  23  25
ENDBRANCH  21  23
ENDBRANCH  19  21
ENDBRANCH  16  19
ENDBRANCH  12  13
ENDBRANCH  10  12
ENDBRANCH   3   6
TORSDOF 7
ENDMDL
MODEL      240
REMARK 921   NORMALIZED FREE ENERGY PREDICTED BY IDOCK:   -4.33 KCAL/MOL
REMARK 922        TOTAL FREE ENERGY PREDICTED BY IDOCK:   -7.95 KCAL/MOL
REMARK 923 INTER-LIGAND FREE ENERGY PREDICTED BY IDOCK:   -7.20 KCAL/MOL
REMARK 924 INTRA-LIGAND FREE ENERGY PREDICTED BY IDOCK:   -0.75 KCAL/MOL
REMARK 927      BINDING AFFINITY PREDICTED BY RF-SCORE:    0.00 PKD
ROOT
HETATM    1  C   UNL     1      -7.170   2.187  69.153  1.00  0.00    -0.043 C  
HETATM    2  N   UNL     1      -7.518   3.351  69.920  1.00  0.00    -0.044 N  
HETATM    3  C   UNL     1      -8.101   4.452  69.332  1.00  0.00    -0.060 C  
HETATM    4  H   UNL     1      -7.329   3.362  70.922  1.00  0.00     0.000 HD 
HETATM    5  O   UNL     1      -8.349   4.528  68.133  1.00  0.00    -0.094 OA 
ENDROOT
BRANCH   3   6
HETATM    6  C   UNL     1      -8.446   5.569  70.271  1.00  0.00    -0.121 A  
HETATM    7  N   UNL     1      -7.567   5.827  71.280  1.00  0.00    -0.101 NA 
HETATM    8  C   UNL     1      -7.933   6.794  72.153  1.00  0.00    -0.096 A  
HETATM    9  C   UNL     1      -9.138   7.481  72.095  1.00  0.00    -0.165 A  
HETATM   10  C   UNL     1     -10.021   7.174  71.066  1.00  0.00    -0.188 A  
HETATM   11  C   UNL     1      -9.646   6.240  70.101  1.00  0.00    -0.181 A  
BRANCH  10  12
HETATM   12  O   UNL     1     -11.236   7.836  71.056  1.00  0.00    -0.257 OA 
BRANCH  12  13
HETATM   13  C   UNL     1     -11.298   9.064  70.426  1.00  0.00    -0.210 A  
HETATM   14  C   UNL     1     -11.999  10.140  70.958  1.00  0.00    -0.474 A  
HETATM   15  C   UNL     1     -12.156  11.302  70.211  1.00  0.00    -0.459 A  
HETATM   16  C   UNL     1     -11.522  11.475  68.975  1.00  0.00    -0.291 A  
HETATM   17  C   UNL     1     -10.741  10.424  68.485  1.00  0.00    -0.255 A  
HETATM   18  C   UNL     1     -10.629   9.223  69.211  1.00  0.00    -0.234 A  
BRANCH  16  19
HETATM   19  N   UNL     1     -11.655  12.670  68.219  1.00  0.00    -0.311 N  
HETATM   20  H   UNL     1     -12.588  13.060  68.084  1.00  0.00     0.000 HD 
BRANCH  19  21
HETATM   21  C   UNL     1     -10.572  13.332  67.654  1.00  0.00    -0.236 C  
HETATM   22  O   UNL     1     -10.244  13.193  66.483  1.00  0.00    -0.266 OA 
BRANCH  21  23
HETATM   23  N   UNL     1      -9.889  14.153  68.534  1.00  0.00    -0.230 N  
HETATM   24  H   UNL     1      -9.442  13.727  69.346  1.00  0.00     0.000 HD 
BRANCH  23  25
HETATM   25  C   UNL     1      -9.778  15.567  68.360  1.00  0.00    -0.203 A  
HETATM   26  C   UNL     1      -8.547  16.228  68.275  1.00  0.00    -0.196 A  
HETATM   27  C   UNL     1      -8.437  17.629  68.212  1.00  0.00    -0.271 A  
HETATM   28  C   UNL     1      -7.073  18.262  68.222  1.00  0.00    -0.248 C  
HETATM   29  C   UNL     1      -9.611  18.374  68.165  1.00  0.00    -0.316 A  
HETATM   30  F   UNL     1      -6.889  19.117  69.267  1.00  0.00    -0.311 F  
HETATM   31  F   UNL     1      -6.809  18.975  67.091  1.00  0.00    -0.196 F  
HETATM   32  F   UNL     1      -6.052  17.360  68.318  1.00  0.00    -0.148 F  
HETATM   33 CL   UNL     1      -9.594  20.096  68.062  1.00  0.00    -0.452 Cl 
HETATM   34  C   UNL     1     -10.856  17.729  68.194  1.00  0.00    -0.193 A  
HETATM   35  C   UNL     1     -10.943  16.334  68.296  1.00  0.00    -0.348 A  
ENDBRANCH  23  25
ENDBRANCH  21  23
ENDBRANCH  19  21
ENDBRANCH  16  19
ENDBRANCH  12  13
ENDBRANCH  10  12
ENDBRANCH   3   6
TORSDOF 7
ENDMDL
MODEL      241
REMARK 921   NORMALIZED FREE ENERGY PREDICTED BY IDOCK:   -4.33 KCAL/MOL
REMARK 922        TOTAL FREE ENERGY PREDICTED BY IDOCK:   -7.94 KCAL/MOL
REMARK 923 INTER-LIGAND FREE ENERGY PREDICTED BY IDOCK:   -7.34 KCAL/MOL
REMARK 924 INTRA-LIGAND FREE ENERGY PREDICTED BY IDOCK:   -0.61 KCAL/MOL
REMARK 927      BINDING AFFINITY PREDICTED BY RF-SCORE:    0.00 PKD
ROOT
HETATM    1  C   UNL     1      -6.834  19.056  67.954  1.00  0.00    -0.220 C  
HETATM    2  N   UNL     1      -6.945  17.631  68.102  1.00  0.00    -0.203 N  
HETATM    3  C   UNL     1      -6.183  16.943  69.022  1.00  0.00    -0.187 C  
HETATM    4  H   UNL     1      -7.602  17.118  67.515  1.00  0.00     0.000 HD 
HETATM    5  O   UNL     1      -5.360  17.479  69.756  1.00  0.00    -0.182 OA 
ENDROOT
BRANCH   3   6
HETATM    6  C   UNL     1      -6.445  15.468  69.089  1.00  0.00    -0.128 A  
HETATM    7  N   UNL     1      -5.693  14.741  69.963  1.00  0.00    -0.113 NA 
HETATM    8  C   UNL     1      -5.900  13.405  69.957  1.00  0.00    -0.132 A  
HETATM    9  C   UNL     1      -6.782  12.757  69.101  1.00  0.00    -0.080 A  
HETATM   10  C   UNL     1      -7.515  13.528  68.206  1.00  0.00    -0.122 A  
HETATM   11  C   UNL     1      -7.387  14.916  68.237  1.00  0.00    -0.109 A  
BRANCH  10  12
HETATM   12  O   UNL     1      -8.351  12.857  67.332  1.00  0.00    -0.171 OA 
BRANCH  12  13
HETATM   13  C   UNL     1      -9.505  12.296  67.842  1.00  0.00    -0.200 A  
HETATM   14  C   UNL     1     -10.587  13.063  68.258  1.00  0.00    -0.260 A  
HETATM   15  C   UNL     1     -11.659  12.457  68.904  1.00  0.00    -0.364 A  
HETATM   16  C   UNL     1     -11.745  11.067  69.043  1.00  0.00    -0.333 A  
HETATM   17  C   UNL     1     -10.697  10.291  68.540  1.00  0.00    -0.262 A  
HETATM   18  C   UNL     1      -9.581  10.905  67.939  1.00  0.00    -0.175 A  
BRANCH  16  19
HETATM   19  N   UNL     1     -12.850  10.438  69.677  1.00  0.00    -0.339 N  
HETATM   20  H   UNL     1     -13.707  10.302  69.140  1.00  0.00     0.000 HD 
BRANCH  19  21
HETATM   21  C   UNL     1     -12.817   9.998  70.995  1.00  0.00    -0.365 C  
HETATM   22  O   UNL     1     -12.689  10.758  71.946  1.00  0.00    -0.388 OA 
BRANCH  21  23
HETATM   23  N   UNL     1     -12.929   8.627  71.137  1.00  0.00    -0.503 N  
HETATM   24  H   UNL     1     -13.863   8.222  71.203  1.00  0.00     0.000 HD 
BRANCH  23  25
HETATM   25  C   UNL     1     -11.802   7.751  71.196  1.00  0.00    -0.291 A  
HETATM   26  C   UNL     1     -11.814   6.544  71.906  1.00  0.00    -0.381 A  
HETATM   27  C   UNL     1     -10.673   5.735  72.052  1.00  0.00    -0.285 A  
HETATM   28  C   UNL     1     -10.748   4.504  72.914  1.00  0.00    -0.208 C  
HETATM   29  C   UNL     1      -9.507   6.127  71.402  1.00  0.00    -0.156 A  
HETATM   30  F   UNL     1      -9.859   4.521  73.947  1.00  0.00    -0.133 F  
HETATM   31  F   UNL     1     -10.512   3.355  72.222  1.00  0.00    -0.232 F  
HETATM   32  F   UNL     1     -11.968   4.321  73.500  1.00  0.00    -0.311 F  
HETATM   33 CL   UNL     1      -8.057   5.198  71.493  1.00  0.00    -0.112 Cl 
HETATM   34  C   UNL     1      -9.488   7.304  70.640  1.00  0.00    -0.164 A  
HETATM   35  C   UNL     1     -10.626   8.116  70.539  1.00  0.00    -0.228 A  
ENDBRANCH  23  25
ENDBRANCH  21  23
ENDBRANCH  19  21
ENDBRANCH  16  19
ENDBRANCH  12  13
ENDBRANCH  10  12
ENDBRANCH   3   6
TORSDOF 7
ENDMDL
MODEL      242
REMARK 921   NORMALIZED FREE ENERGY PREDICTED BY IDOCK:   -4.32 KCAL/MOL
REMARK 922        TOTAL FREE ENERGY PREDICTED BY IDOCK:   -7.94 KCAL/MOL
REMARK 923 INTER-LIGAND FREE ENERGY PREDICTED BY IDOCK:   -7.17 KCAL/MOL
REMARK 924 INTRA-LIGAND FREE ENERGY PREDICTED BY IDOCK:   -0.77 KCAL/MOL
REMARK 927      BINDING AFFINITY PREDICTED BY RF-SCORE:    0.00 PKD
ROOT
HETATM    1  C   UNL     1      -6.638  15.585  69.463  1.00  0.00    -0.172 C  
HETATM    2  N   UNL     1      -7.843  14.952  69.003  1.00  0.00    -0.156 N  
HETATM    3  C   UNL     1      -7.812  13.952  68.055  1.00  0.00    -0.154 C  
HETATM    4  H   UNL     1      -8.740  15.247  69.387  1.00  0.00     0.000 HD 
HETATM    5  O   UNL     1      -6.780  13.546  67.531  1.00  0.00    -0.166 OA 
ENDROOT
BRANCH   3   6
HETATM    6  C   UNL     1      -9.146  13.359  67.711  1.00  0.00    -0.202 A  
HETATM    7  N   UNL     1      -9.474  13.286  66.391  1.00  0.00    -0.247 NA 
HETATM    8  C   UNL     1     -10.709  12.810  66.110  1.00  0.00    -0.275 A  
HETATM    9  C   UNL     1     -11.640  12.445  67.074  1.00  0.00    -0.434 A  
HETATM   10  C   UNL     1     -11.280  12.555  68.412  1.00  0.00    -0.272 A  
HETATM   11  C   UNL     1      -9.988  12.967  68.739  1.00  0.00    -0.010 A  
BRANCH  10  12
HETATM   12  O   UNL     1     -12.240  12.231  69.354  1.00  0.00    -0.199 OA 
BRANCH  12  13
HETATM   13  C   UNL     1     -12.051  11.087  70.104  1.00  0.00    -0.356 A  
HETATM   14  C   UNL     1     -11.024  10.187  69.845  1.00  0.00    -0.344 A  
HETATM   15  C   UNL     1     -10.972   8.978  70.530  1.00  0.00    -0.295 A  
HETATM   16  C   UNL     1     -11.859   8.684  71.572  1.00  0.00    -0.306 A  
HETATM   17  C   UNL     1     -12.834   9.633  71.892  1.00  0.00    -0.515 A  
HETATM   18  C   UNL     1     -12.928  10.832  71.160  1.00  0.00    -0.467 A  
BRANCH  16  19
HETATM   19  N   UNL     1     -11.795   7.464  72.297  1.00  0.00    -0.383 N  
HETATM   20  H   UNL     1     -12.568   6.804  72.208  1.00  0.00     0.000 HD 
BRANCH  19  21
HETATM   21  C   UNL     1     -10.728   7.127  73.121  1.00  0.00    -0.346 C  
HETATM   22  O   UNL     1      -9.935   7.955  73.552  1.00  0.00    -0.296 OA 
BRANCH  21  23
HETATM   23  N   UNL     1     -10.633   5.777  73.401  1.00  0.00    -0.242 N  
HETATM   24  H   UNL     1     -11.016   5.436  74.283  1.00  0.00     0.000 HD 
BRANCH  23  25
HETATM   25  C   UNL     1     -10.024   4.834  72.516  1.00  0.00    -0.166 A  
HETATM   26  C   UNL     1      -9.166   5.212  71.476  1.00  0.00    -0.177 A  
HETATM   27  C   UNL     1      -8.653   4.297  70.540  1.00  0.00    -0.109 A  
HETATM   28  C   UNL     1      -7.818   4.802  69.396  1.00  0.00    -0.063 C  
HETATM   29  C   UNL     1      -8.963   2.950  70.707  1.00  0.00    -0.095 A  
HETATM   30  F   UNL     1      -8.342   4.496  68.176  1.00  0.00    -0.092 F  
HETATM   31  F   UNL     1      -6.549   4.306  69.403  1.00  0.00    -0.035 F  
HETATM   32  F   UNL     1      -7.668   6.159  69.387  1.00  0.00    -0.089 F  
HETATM   33 CL   UNL     1      -8.368   1.738  69.633  1.00  0.00    -0.065 Cl 
HETATM   34  C   UNL     1      -9.776   2.542  71.774  1.00  0.00    -0.224 A  
HETATM   35  C   UNL     1     -10.309   3.476  72.672  1.00  0.00    -0.222 A  
ENDBRANCH  23  25
ENDBRANCH  21  23
ENDBRANCH  19  21
ENDBRANCH  16  19
ENDBRANCH  12  13
ENDBRANCH  10  12
ENDBRANCH   3   6
TORSDOF 7
ENDMDL
MODEL      243
REMARK 921   NORMALIZED FREE ENERGY PREDICTED BY IDOCK:   -4.31 KCAL/MOL
REMARK 922        TOTAL FREE ENERGY PREDICTED BY IDOCK:   -7.92 KCAL/MOL
REMARK 923 INTER-LIGAND FREE ENERGY PREDICTED BY IDOCK:   -6.91 KCAL/MOL
REMARK 924 INTRA-LIGAND FREE ENERGY PREDICTED BY IDOCK:   -1.01 KCAL/MOL
REMARK 927      BINDING AFFINITY PREDICTED BY RF-SCORE:    0.00 PKD
ROOT
HETATM    1  C   UNL     1      -5.375  18.918  64.299  1.00  0.00    -0.228 C  
HETATM    2  N   UNL     1      -6.680  18.708  64.863  1.00  0.00     0.126 N  
HETATM    3  C   UNL     1      -6.842  18.162  66.118  1.00  0.00    -0.263 C  
HETATM    4  H   UNL     1      -7.505  18.968  64.322  1.00  0.00     0.000 HD 
HETATM    5  O   UNL     1      -5.906  17.808  66.828  1.00  0.00    -0.135 OA 
ENDROOT
BRANCH   3   6
HETATM    6  C   UNL     1      -8.262  18.046  66.584  1.00  0.00    -0.261 A  
HETATM    7  N   UNL     1      -9.210  18.709  65.864  1.00  0.00    -0.425 NA 
HETATM    8  C   UNL     1     -10.473  18.644  66.344  1.00  0.00    -0.418 A  
HETATM    9  C   UNL     1     -10.828  17.993  67.518  1.00  0.00    -0.252 A  
HETATM   10  C   UNL     1      -9.831  17.348  68.239  1.00  0.00    -0.310 A  
HETATM   11  C   UNL     1      -8.531  17.325  67.736  1.00  0.00    -0.217 A  
BRANCH  10  12
HETATM   12  O   UNL     1     -10.199  16.746  69.430  1.00  0.00    -0.272 OA 
BRANCH  12  13
HETATM   13  C   UNL     1     -10.517  15.403  69.405  1.00  0.00    -0.257 A  
HETATM   14  C   UNL     1      -9.839  14.491  68.605  1.00  0.00    -0.232 A  
HETATM   15  C   UNL     1     -10.298  13.182  68.503  1.00  0.00    -0.245 A  
HETATM   16  C   UNL     1     -11.360  12.712  69.283  1.00  0.00    -0.245 A  
HETATM   17  C   UNL     1     -11.982  13.609  70.156  1.00  0.00    -0.407 A  
HETATM   18  C   UNL     1     -11.559  14.951  70.218  1.00  0.00    -0.332 A  
BRANCH  16  19
HETATM   19  N   UNL     1     -11.817  11.369  69.206  1.00  0.00    -0.325 N  
HETATM   20  H   UNL     1     -12.265  11.055  68.344  1.00  0.00     0.000 HD 
BRANCH  19  21
HETATM   21  C   UNL     1     -11.682  10.462  70.251  1.00  0.00    -0.321 C  
HETATM   22  O   UNL     1     -12.634   9.875  70.749  1.00  0.00    -0.295 OA 
BRANCH  21  23
HETATM   23  N   UNL     1     -10.381  10.291  70.687  1.00  0.00    -0.324 N  
HETATM   24  H   UNL     1     -10.093  10.757  71.548  1.00  0.00     0.000 HD 
BRANCH  23  25
HETATM   25  C   UNL     1      -9.420   9.494  69.990  1.00  0.00    -0.232 A  
HETATM   26  C   UNL     1      -8.809   9.908  68.800  1.00  0.00    -0.136 A  
HETATM   27  C   UNL     1      -7.946   9.081  68.060  1.00  0.00    -0.101 A  
HETATM   28  C   UNL     1      -7.411   9.568  66.741  1.00  0.00    -0.090 C  
HETATM   29  C   UNL     1      -7.640   7.826  68.578  1.00  0.00    -0.105 A  
HETATM   30  F   UNL     1      -7.746   8.758  65.697  1.00  0.00    -0.085 F  
HETATM   31  F   UNL     1      -6.053   9.673  66.724  1.00  0.00    -0.058 F  
HETATM   32  F   UNL     1      -7.866  10.806  66.390  1.00  0.00    -0.123 F  
HETATM   33 CL   UNL     1      -6.574   6.741  67.766  1.00  0.00    -0.056 Cl 
HETATM   34  C   UNL     1      -8.198   7.413  69.796  1.00  0.00    -0.129 A  
HETATM   35  C   UNL     1      -9.087   8.238  70.499  1.00  0.00    -0.154 A  
ENDBRANCH  23  25
ENDBRANCH  21  23
ENDBRANCH  19  21
ENDBRANCH  16  19
ENDBRANCH  12  13
ENDBRANCH  10  12
ENDBRANCH   3   6
TORSDOF 7
ENDMDL
MODEL      244
REMARK 921   NORMALIZED FREE ENERGY PREDICTED BY IDOCK:   -4.31 KCAL/MOL
REMARK 922        TOTAL FREE ENERGY PREDICTED BY IDOCK:   -7.91 KCAL/MOL
REMARK 923 INTER-LIGAND FREE ENERGY PREDICTED BY IDOCK:   -6.25 KCAL/MOL
REMARK 924 INTRA-LIGAND FREE ENERGY PREDICTED BY IDOCK:   -1.66 KCAL/MOL
REMARK 927      BINDING AFFINITY PREDICTED BY RF-SCORE:    0.00 PKD
ROOT
HETATM    1  C   UNL     1     -12.028  14.274  66.474  1.00  0.00    -0.427 C  
HETATM    2  N   UNL     1     -10.744  13.914  67.009  1.00  0.00    -0.282 N  
HETATM    3  C   UNL     1      -9.809  14.871  67.340  1.00  0.00    -0.221 C  
HETATM    4  H   UNL     1     -10.520  12.929  67.148  1.00  0.00     0.000 HD 
HETATM    5  O   UNL     1      -9.991  16.075  67.192  1.00  0.00    -0.241 OA 
ENDROOT
BRANCH   3   6
HETATM    6  C   UNL     1      -8.536  14.341  67.928  1.00  0.00    -0.168 A  
HETATM    7  N   UNL     1      -8.087  14.928  69.073  1.00  0.00    -0.161 NA 
HETATM    8  C   UNL     1      -6.902  14.479  69.547  1.00  0.00    -0.152 A  
HETATM    9  C   UNL     1      -6.129  13.511  68.919  1.00  0.00    -0.089 A  
HETATM   10  C   UNL     1      -6.607  12.951  67.740  1.00  0.00    -0.140 A  
HETATM   11  C   UNL     1      -7.861  13.331  67.263  1.00  0.00    -0.118 A  
BRANCH  10  12
HETATM   12  O   UNL     1      -5.798  12.023  67.107  1.00  0.00    -0.131 OA 
BRANCH  12  13
HETATM   13  C   UNL     1      -6.391  10.879  66.611  1.00  0.00    -0.113 A  
HETATM   14  C   UNL     1      -6.531  10.642  65.248  1.00  0.00    -0.008 A  
HETATM   15  C   UNL     1      -7.270   9.550  64.807  1.00  0.00    -0.112 A  
HETATM   16  C   UNL     1      -7.783   8.600  65.697  1.00  0.00    -0.091 A  
HETATM   17  C   UNL     1      -7.561   8.793  67.064  1.00  0.00    -0.088 A  
HETATM   18  C   UNL     1      -6.865   9.929  67.518  1.00  0.00    -0.081 A  
BRANCH  16  19
HETATM   19  N   UNL     1      -8.515   7.466  65.252  1.00  0.00    -0.286 N  
HETATM   20  H   UNL     1      -8.822   7.435  64.279  1.00  0.00     0.000 HD 
BRANCH  19  21
HETATM   21  C   UNL     1      -8.833   6.398  66.082  1.00  0.00    -0.150 C  
HETATM   22  O   UNL     1      -8.016   5.549  66.415  1.00  0.00    -0.103 OA 
BRANCH  21  23
HETATM   23  N   UNL     1     -10.155   6.370  66.488  1.00  0.00    -0.361 N  
HETATM   24  H   UNL     1     -10.861   6.061  65.820  1.00  0.00     0.000 HD 
BRANCH  23  25
HETATM   25  C   UNL     1     -10.580   6.755  67.798  1.00  0.00    -0.249 A  
HETATM   26  C   UNL     1     -10.680   8.092  68.202  1.00  0.00    -0.093 A  
HETATM   27  C   UNL     1     -10.995   8.467  69.520  1.00  0.00    -0.057 A  
HETATM   28  C   UNL     1     -10.985   9.925  69.893  1.00  0.00    -0.281 C  
HETATM   29  C   UNL     1     -11.284   7.459  70.435  1.00  0.00    -0.262 A  
HETATM   30  F   UNL     1     -10.107  10.213  70.895  1.00  0.00    -0.220 F  
HETATM   31  F   UNL     1     -12.201  10.376  70.308  1.00  0.00    -0.313 F  
HETATM   32  F   UNL     1     -10.632  10.750  68.865  1.00  0.00    -0.174 F  
HETATM   33 CL   UNL     1     -11.706   7.807  72.071  1.00  0.00    -0.324 Cl 
HETATM   34  C   UNL     1     -11.243   6.115  70.037  1.00  0.00    -0.471 A  
HETATM   35  C   UNL     1     -10.889   5.761  68.728  1.00  0.00    -0.285 A  
ENDBRANCH  23  25
ENDBRANCH  21  23
ENDBRANCH  19  21
ENDBRANCH  16  19
ENDBRANCH  12  13
ENDBRANCH  10  12
ENDBRANCH   3   6
TORSDOF 7
ENDMDL
MODEL      245
REMARK 921   NORMALIZED FREE ENERGY PREDICTED BY IDOCK:   -4.29 KCAL/MOL
REMARK 922        TOTAL FREE ENERGY PREDICTED BY IDOCK:   -7.89 KCAL/MOL
REMARK 923 INTER-LIGAND FREE ENERGY PREDICTED BY IDOCK:   -6.75 KCAL/MOL
REMARK 924 INTRA-LIGAND FREE ENERGY PREDICTED BY IDOCK:   -1.14 KCAL/MOL
REMARK 927      BINDING AFFINITY PREDICTED BY RF-SCORE:    0.00 PKD
ROOT
HETATM    1  C   UNL     1      -8.995   6.474  73.700  1.00  0.00    -0.126 C  
HETATM    2  N   UNL     1      -8.225   7.226  72.748  1.00  0.00    -0.105 N  
HETATM    3  C   UNL     1      -8.001   6.755  71.473  1.00  0.00    -0.102 C  
HETATM    4  H   UNL     1      -7.836   8.128  73.022  1.00  0.00     0.000 HD 
HETATM    5  O   UNL     1      -8.419   5.676  71.066  1.00  0.00    -0.119 OA 
ENDROOT
BRANCH   3   6
HETATM    6  C   UNL     1      -7.217   7.673  70.583  1.00  0.00    -0.062 A  
HETATM    7  N   UNL     1      -6.358   8.542  71.187  1.00  0.00    -0.039 NA 
HETATM    8  C   UNL     1      -5.714   9.405  70.369  1.00  0.00    -0.038 A  
HETATM    9  C   UNL     1      -5.912   9.473  68.996  1.00  0.00    -0.042 A  
HETATM   10  C   UNL     1      -6.814   8.587  68.417  1.00  0.00    -0.065 A  
HETATM   11  C   UNL     1      -7.438   7.631  69.217  1.00  0.00    -0.094 A  
BRANCH  10  12
HETATM   12  O   UNL     1      -7.031   8.705  67.056  1.00  0.00    -0.072 OA 
BRANCH  12  13
HETATM   13  C   UNL     1      -8.147   9.401  66.637  1.00  0.00    -0.108 A  
HETATM   14  C   UNL     1      -8.694   9.241  65.369  1.00  0.00    -0.208 A  
HETATM   15  C   UNL     1      -9.722  10.076  64.947  1.00  0.00    -0.377 A  
HETATM   16  C   UNL     1     -10.318  11.005  65.808  1.00  0.00    -0.257 A  
HETATM   17  C   UNL     1      -9.826  11.099  67.113  1.00  0.00    -0.212 A  
HETATM   18  C   UNL     1      -8.745  10.297  67.526  1.00  0.00    -0.125 A  
BRANCH  16  19
HETATM   19  N   UNL     1     -11.387  11.842  65.392  1.00  0.00    -0.308 N  
HETATM   20  H   UNL     1     -12.272  11.790  65.898  1.00  0.00     0.000 HD 
BRANCH  19  21
HETATM   21  C   UNL     1     -11.284  12.730  64.329  1.00  0.00    -0.364 C  
HETATM   22  O   UNL     1     -12.046  12.711  63.370  1.00  0.00    -0.511 OA 
BRANCH  21  23
HETATM   23  N   UNL     1     -10.239  13.629  64.441  1.00  0.00    -0.682 N  
HETATM   24  H   UNL     1      -9.399  13.468  63.885  1.00  0.00     0.000 HD 
BRANCH  23  25
HETATM   25  C   UNL     1     -10.278  14.773  65.298  1.00  0.00    -0.384 A  
HETATM   26  C   UNL     1      -9.759  14.765  66.599  1.00  0.00    -0.281 A  
HETATM   27  C   UNL     1      -9.893  15.854  67.478  1.00  0.00    -0.230 A  
HETATM   28  C   UNL     1      -9.393  15.726  68.891  1.00  0.00    -0.228 C  
HETATM   29  C   UNL     1     -10.509  17.007  67.001  1.00  0.00    -0.279 A  
HETATM   30  F   UNL     1     -10.370  15.912  69.823  1.00  0.00    -0.232 F  
HETATM   31  F   UNL     1      -8.405  16.616  69.189  1.00  0.00    -0.231 F  
HETATM   32  F   UNL     1      -8.863  14.500  69.174  1.00  0.00    -0.162 F  
HETATM   33 CL   UNL     1     -10.704  18.410  67.985  1.00  0.00    -0.339 Cl 
HETATM   34  C   UNL     1     -10.987  17.056  65.684  1.00  0.00     0.051 A  
HETATM   35  C   UNL     1     -10.878  15.945  64.836  1.00  0.00    -0.420 A  
ENDBRANCH  23  25
ENDBRANCH  21  23
ENDBRANCH  19  21
ENDBRANCH  16  19
ENDBRANCH  12  13
ENDBRANCH  10  12
ENDBRANCH   3   6
TORSDOF 7
ENDMDL
MODEL      246
REMARK 921   NORMALIZED FREE ENERGY PREDICTED BY IDOCK:   -4.28 KCAL/MOL
REMARK 922        TOTAL FREE ENERGY PREDICTED BY IDOCK:   -7.88 KCAL/MOL
REMARK 923 INTER-LIGAND FREE ENERGY PREDICTED BY IDOCK:   -7.07 KCAL/MOL
REMARK 924 INTRA-LIGAND FREE ENERGY PREDICTED BY IDOCK:   -0.81 KCAL/MOL
REMARK 927      BINDING AFFINITY PREDICTED BY RF-SCORE:    0.00 PKD
ROOT
HETATM    1  C   UNL     1      -6.694   1.907  68.626  1.00  0.00    -0.029 C  
HETATM    2  N   UNL     1      -7.747   2.882  68.570  1.00  0.00    -0.054 N  
HETATM    3  C   UNL     1      -7.922   3.689  67.466  1.00  0.00    -0.082 C  
HETATM    4  H   UNL     1      -8.379   2.980  69.364  1.00  0.00     0.000 HD 
HETATM    5  O   UNL     1      -7.199   3.647  66.476  1.00  0.00    -0.065 OA 
ENDROOT
BRANCH   3   6
HETATM    6  C   UNL     1      -9.091   4.625  67.540  1.00  0.00    -0.121 A  
HETATM    7  N   UNL     1      -9.841   4.775  66.413  1.00  0.00    -0.195 NA 
HETATM    8  C   UNL     1     -10.848   5.675  66.484  1.00  0.00    -0.165 A  
HETATM    9  C   UNL     1     -11.116   6.457  67.600  1.00  0.00    -0.388 A  
HETATM   10  C   UNL     1     -10.314   6.296  68.724  1.00  0.00    -0.205 A  
HETATM   11  C   UNL     1      -9.316   5.322  68.716  1.00  0.00    -0.157 A  
BRANCH  10  12
HETATM   12  O   UNL     1     -10.568   7.119  69.806  1.00  0.00    -0.221 OA 
BRANCH  12  13
HETATM   13  C   UNL     1     -10.408   8.480  69.635  1.00  0.00    -0.218 A  
HETATM   14  C   UNL     1     -11.384   9.399  70.002  1.00  0.00    -0.172 A  
HETATM   15  C   UNL     1     -11.235  10.740  69.668  1.00  0.00    -0.355 A  
HETATM   16  C   UNL     1     -10.064  11.226  69.075  1.00  0.00    -0.128 A  
HETATM   17  C   UNL     1      -9.044  10.312  68.792  1.00  0.00    -0.159 A  
HETATM   18  C   UNL     1      -9.216   8.944  69.073  1.00  0.00    -0.140 A  
BRANCH  16  19
HETATM   19  N   UNL     1      -9.892  12.599  68.757  1.00  0.00    -0.421 N  
HETATM   20  H   UNL     1      -9.517  13.222  69.473  1.00  0.00     0.000 HD 
BRANCH  19  21
HETATM   21  C   UNL     1     -10.210  13.133  67.514  1.00  0.00    -0.225 C  
HETATM   22  O   UNL     1      -9.728  12.718  66.468  1.00  0.00    -0.244 OA 
BRANCH  21  23
HETATM   23  N   UNL     1     -11.110  14.183  67.563  1.00  0.00    -0.283 N  
HETATM   24  H   UNL     1     -12.040  14.007  67.944  1.00  0.00     0.000 HD 
BRANCH  23  25
HETATM   25  C   UNL     1     -10.801  15.501  67.104  1.00  0.00    -0.316 A  
HETATM   26  C   UNL     1     -10.453  16.544  67.971  1.00  0.00    -0.313 A  
HETATM   27  C   UNL     1     -10.254  17.865  67.532  1.00  0.00    -0.366 A  
HETATM   28  C   UNL     1      -9.978  18.945  68.543  1.00  0.00    -0.406 C  
HETATM   29  C   UNL     1     -10.344  18.119  66.166  1.00  0.00    -0.385 A  
HETATM   30  F   UNL     1     -10.901  19.948  68.517  1.00  0.00    -0.433 F  
HETATM   31  F   UNL     1      -8.764  19.536  68.371  1.00  0.00    -0.351 F  
HETATM   32  F   UNL     1      -9.976  18.497  69.833  1.00  0.00     0.083 F  
HETATM   33 CL   UNL     1     -10.094  19.697  65.515  1.00  0.00    -0.173 Cl 
HETATM   34  C   UNL     1     -10.638  17.078  65.274  1.00  0.00    -0.096 A  
HETATM   35  C   UNL     1     -10.871  15.776  65.738  1.00  0.00    -0.286 A  
ENDBRANCH  23  25
ENDBRANCH  21  23
ENDBRANCH  19  21
ENDBRANCH  16  19
ENDBRANCH  12  13
ENDBRANCH  10  12
ENDBRANCH   3   6
TORSDOF 7
ENDMDL
MODEL      247
REMARK 921   NORMALIZED FREE ENERGY PREDICTED BY IDOCK:   -4.27 KCAL/MOL
REMARK 922        TOTAL FREE ENERGY PREDICTED BY IDOCK:   -7.87 KCAL/MOL
REMARK 923 INTER-LIGAND FREE ENERGY PREDICTED BY IDOCK:   -6.98 KCAL/MOL
REMARK 924 INTRA-LIGAND FREE ENERGY PREDICTED BY IDOCK:   -0.89 KCAL/MOL
REMARK 927      BINDING AFFINITY PREDICTED BY RF-SCORE:    0.00 PKD
ROOT
HETATM    1  C   UNL     1     -13.349   8.347  71.864  1.00  0.00    -0.357 C  
HETATM    2  N   UNL     1     -11.925   8.350  71.672  1.00  0.00    -0.290 N  
HETATM    3  C   UNL     1     -11.324   7.530  70.742  1.00  0.00    -0.280 C  
HETATM    4  H   UNL     1     -11.347   8.972  72.236  1.00  0.00     0.000 HD 
HETATM    5  O   UNL     1     -11.942   6.743  70.033  1.00  0.00    -0.291 OA 
ENDROOT
BRANCH   3   6
HETATM    6  C   UNL     1      -9.836   7.680  70.627  1.00  0.00    -0.182 A  
HETATM    7  N   UNL     1      -9.151   7.979  71.766  1.00  0.00    -0.146 NA 
HETATM    8  C   UNL     1      -7.820   8.175  71.625  1.00  0.00    -0.112 A  
HETATM    9  C   UNL     1      -7.151   8.130  70.409  1.00  0.00    -0.041 A  
HETATM   10  C   UNL     1      -7.886   7.846  69.264  1.00  0.00    -0.115 A  
HETATM   11  C   UNL     1      -9.246   7.560  69.380  1.00  0.00    -0.149 A  
BRANCH  10  12
HETATM   12  O   UNL     1      -7.208   7.854  68.058  1.00  0.00    -0.086 OA 
BRANCH  12  13
HETATM   13  C   UNL     1      -7.566   8.801  67.120  1.00  0.00    -0.088 A  
HETATM   14  C   UNL     1      -7.248  10.146  67.258  1.00  0.00    -0.089 A  
HETATM   15  C   UNL     1      -7.764  11.077  66.364  1.00  0.00    -0.146 A  
HETATM   16  C   UNL     1      -8.505  10.688  65.242  1.00  0.00    -0.150 A  
HETATM   17  C   UNL     1      -8.746   9.324  65.055  1.00  0.00    -0.221 A  
HETATM   18  C   UNL     1      -8.275   8.383  65.991  1.00  0.00    -0.112 A  
BRANCH  16  19
HETATM   19  N   UNL     1      -9.012  11.630  64.308  1.00  0.00    -0.296 N  
HETATM   20  H   UNL     1      -8.467  11.826  63.468  1.00  0.00     0.000 HD 
BRANCH  19  21
HETATM   21  C   UNL     1     -10.218  12.298  64.486  1.00  0.00    -0.296 C  
HETATM   22  O   UNL     1     -11.137  12.238  63.678  1.00  0.00    -0.399 OA 
BRANCH  21  23
HETATM   23  N   UNL     1     -10.285  13.045  65.647  1.00  0.00    -0.286 N  
HETATM   24  H   UNL     1     -10.339  12.552  66.539  1.00  0.00     0.000 HD 
BRANCH  23  25
HETATM   25  C   UNL     1     -10.284  14.475  65.661  1.00  0.00    -0.357 A  
HETATM   26  C   UNL     1      -9.281  15.228  66.282  1.00  0.00    -0.350 A  
HETATM   27  C   UNL     1      -9.335  16.629  66.388  1.00  0.00    -0.309 A  
HETATM   28  C   UNL     1      -8.263  17.352  67.157  1.00  0.00    -0.210 C  
HETATM   29  C   UNL     1     -10.403  17.288  65.786  1.00  0.00    -0.234 A  
HETATM   30  F   UNL     1      -8.754  18.076  68.202  1.00  0.00    -0.243 F  
HETATM   31  F   UNL     1      -7.551  18.222  66.388  1.00  0.00    -0.224 F  
HETATM   32  F   UNL     1      -7.331  16.520  67.709  1.00  0.00    -0.128 F  
HETATM   33 CL   UNL     1     -10.556  19.005  65.833  1.00  0.00    -0.529 Cl 
HETATM   34  C   UNL     1     -11.391  16.557  65.111  1.00  0.00     0.113 A  
HETATM   35  C   UNL     1     -11.338  15.158  65.051  1.00  0.00    -0.381 A  
ENDBRANCH  23  25
ENDBRANCH  21  23
ENDBRANCH  19  21
ENDBRANCH  16  19
ENDBRANCH  12  13
ENDBRANCH  10  12
ENDBRANCH   3   6
TORSDOF 7
ENDMDL
MODEL      248
REMARK 921   NORMALIZED FREE ENERGY PREDICTED BY IDOCK:   -4.25 KCAL/MOL
REMARK 922        TOTAL FREE ENERGY PREDICTED BY IDOCK:   -7.84 KCAL/MOL
REMARK 923 INTER-LIGAND FREE ENERGY PREDICTED BY IDOCK:   -6.79 KCAL/MOL
REMARK 924 INTRA-LIGAND FREE ENERGY PREDICTED BY IDOCK:   -1.05 KCAL/MOL
REMARK 927      BINDING AFFINITY PREDICTED BY RF-SCORE:    0.00 PKD
ROOT
HETATM    1  C   UNL     1     -11.005   4.664  73.257  1.00  0.00    -0.303 C  
HETATM    2  N   UNL     1     -11.703   5.800  72.721  1.00  0.00    -0.513 N  
HETATM    3  C   UNL     1     -11.183   7.073  72.814  1.00  0.00    -0.257 C  
HETATM    4  H   UNL     1     -12.602   5.661  72.261  1.00  0.00     0.000 HD 
HETATM    5  O   UNL     1     -10.116   7.330  73.362  1.00  0.00    -0.251 OA 
ENDROOT
BRANCH   3   6
HETATM    6  C   UNL     1     -12.006   8.146  72.167  1.00  0.00    -0.359 A  
HETATM    7  N   UNL     1     -13.335   7.895  71.997  1.00  0.00    -0.260 NA 
HETATM    8  C   UNL     1     -14.042   8.850  71.352  1.00  0.00    -0.212 A  
HETATM    9  C   UNL     1     -13.489  10.014  70.835  1.00  0.00    -0.179 A  
HETATM   10  C   UNL     1     -12.125  10.226  71.005  1.00  0.00    -0.386 A  
HETATM   11  C   UNL     1     -11.377   9.302  71.734  1.00  0.00    -0.437 A  
BRANCH  10  12
HETATM   12  O   UNL     1     -11.587  11.368  70.440  1.00  0.00    -0.297 OA 
BRANCH  12  13
HETATM   13  C   UNL     1     -10.934  11.246  69.230  1.00  0.00    -0.243 A  
HETATM   14  C   UNL     1      -9.612  10.828  69.135  1.00  0.00    -0.169 A  
HETATM   15  C   UNL     1      -8.958  10.870  67.908  1.00  0.00    -0.141 A  
HETATM   16  C   UNL     1      -9.629  11.205  66.727  1.00  0.00    -0.191 A  
HETATM   17  C   UNL     1     -10.985  11.536  66.813  1.00  0.00    -0.347 A  
HETATM   18  C   UNL     1     -11.635  11.553  68.062  1.00  0.00    -0.370 A  
BRANCH  16  19
HETATM   19  N   UNL     1      -8.976  11.223  65.465  1.00  0.00    -0.323 N  
HETATM   20  H   UNL     1      -8.481  12.069  65.185  1.00  0.00     0.000 HD 
BRANCH  19  21
HETATM   21  C   UNL     1      -8.981  10.138  64.596  1.00  0.00    -0.209 C  
HETATM   22  O   UNL     1      -8.701  10.237  63.408  1.00  0.00    -0.173 OA 
BRANCH  21  23
HETATM   23  N   UNL     1      -9.340   8.941  65.187  1.00  0.00    -0.442 N  
HETATM   24  H   UNL     1     -10.320   8.795  65.430  1.00  0.00     0.000 HD 
BRANCH  23  25
HETATM   25  C   UNL     1      -8.406   7.897  65.474  1.00  0.00    -0.147 A  
HETATM   26  C   UNL     1      -8.149   6.843  64.589  1.00  0.00    -0.082 A  
HETATM   27  C   UNL     1      -7.312   5.762  64.916  1.00  0.00    -0.068 A  
HETATM   28  C   UNL     1      -7.167   4.622  63.945  1.00  0.00    -0.050 C  
HETATM   29  C   UNL     1      -6.664   5.786  66.147  1.00  0.00    -0.057 A  
HETATM   30  F   UNL     1      -7.545   3.422  64.470  1.00  0.00    -0.070 F  
HETATM   31  F   UNL     1      -5.890   4.460  63.500  1.00  0.00    -0.015 F  
HETATM   32  F   UNL     1      -7.921   4.767  62.815  1.00  0.00    -0.061 F  
HETATM   33 CL   UNL     1      -5.596   4.525  66.640  1.00  0.00    -0.013 Cl 
HETATM   34  C   UNL     1      -6.864   6.860  67.027  1.00  0.00    -0.065 A  
HETATM   35  C   UNL     1      -7.734   7.909  66.697  1.00  0.00    -0.098 A  
ENDBRANCH  23  25
ENDBRANCH  21  23
ENDBRANCH  19  21
ENDBRANCH  16  19
ENDBRANCH  12  13
ENDBRANCH  10  12
ENDBRANCH   3   6
TORSDOF 7
ENDMDL
MODEL      249
REMARK 921   NORMALIZED FREE ENERGY PREDICTED BY IDOCK:   -4.25 KCAL/MOL
REMARK 922        TOTAL FREE ENERGY PREDICTED BY IDOCK:   -7.84 KCAL/MOL
REMARK 923 INTER-LIGAND FREE ENERGY PREDICTED BY IDOCK:   -7.03 KCAL/MOL
REMARK 924 INTRA-LIGAND FREE ENERGY PREDICTED BY IDOCK:   -0.81 KCAL/MOL
REMARK 927      BINDING AFFINITY PREDICTED BY RF-SCORE:    0.00 PKD
ROOT
HETATM    1  C   UNL     1      -5.127   8.673  65.256  1.00  0.00    -0.034 C  
HETATM    2  N   UNL     1      -6.223   9.451  64.749  1.00  0.00    -0.074 N  
HETATM    3  C   UNL     1      -7.486   8.915  64.619  1.00  0.00    -0.104 C  
HETATM    4  H   UNL     1      -6.064  10.422  64.481  1.00  0.00     0.000 HD 
HETATM    5  O   UNL     1      -7.761   7.754  64.904  1.00  0.00    -0.095 OA 
ENDROOT
BRANCH   3   6
HETATM    6  C   UNL     1      -8.533   9.864  64.118  1.00  0.00    -0.175 A  
HETATM    7  N   UNL     1      -8.871   9.781  62.801  1.00  0.00    -0.228 NA 
HETATM    8  C   UNL     1      -9.768  10.692  62.359  1.00  0.00    -0.048 A  
HETATM    9  C   UNL     1     -10.309  11.699  63.148  1.00  0.00    -0.383 A  
HETATM   10  C   UNL     1      -9.923  11.768  64.481  1.00  0.00    -0.242 A  
HETATM   11  C   UNL     1      -9.061  10.799  64.993  1.00  0.00    -0.226 A  
BRANCH  10  12
HETATM   12  O   UNL     1     -10.437  12.808  65.235  1.00  0.00    -0.282 OA 
BRANCH  12  13
HETATM   13  C   UNL     1     -10.726  12.563  66.563  1.00  0.00    -0.240 A  
HETATM   14  C   UNL     1     -11.783  11.753  66.960  1.00  0.00    -0.247 A  
HETATM   15  C   UNL     1     -12.121  11.664  68.306  1.00  0.00    -0.067 A  
HETATM   16  C   UNL     1     -11.350  12.274  69.301  1.00  0.00    -0.256 A  
HETATM   17  C   UNL     1     -10.232  13.014  68.904  1.00  0.00    -0.015 A  
HETATM   18  C   UNL     1      -9.921  13.156  67.539  1.00  0.00    -0.223 A  
BRANCH  16  19
HETATM   19  N   UNL     1     -11.673  12.165  70.680  1.00  0.00    -0.400 N  
HETATM   20  H   UNL     1     -11.208  12.789  71.340  1.00  0.00     0.000 HD 
BRANCH  19  21
HETATM   21  C   UNL     1     -12.593  11.247  71.172  1.00  0.00    -0.397 C  
HETATM   22  O   UNL     1     -13.393  11.517  72.059  1.00  0.00    -0.476 OA 
BRANCH  21  23
HETATM   23  N   UNL     1     -12.519   9.999  70.580  1.00  0.00    -0.448 N  
HETATM   24  H   UNL     1     -13.093   9.818  69.757  1.00  0.00     0.000 HD 
BRANCH  23  25
HETATM   25  C   UNL     1     -11.677   8.951  71.066  1.00  0.00    -0.289 A  
HETATM   26  C   UNL     1     -10.727   8.307  70.265  1.00  0.00    -0.237 A  
HETATM   27  C   UNL     1      -9.975   7.205  70.711  1.00  0.00    -0.194 A  
HETATM   28  C   UNL     1      -9.046   6.510  69.754  1.00  0.00    -0.142 C  
HETATM   29  C   UNL     1     -10.143   6.791  72.029  1.00  0.00    -0.182 A  
HETATM   30  F   UNL     1      -9.344   5.191  69.583  1.00  0.00    -0.134 F  
HETATM   31  F   UNL     1      -7.742   6.562  70.146  1.00  0.00    -0.091 F  
HETATM   32  F   UNL     1      -9.060   7.042  68.496  1.00  0.00    -0.132 F  
HETATM   33 CL   UNL     1      -9.255   5.468  72.689  1.00  0.00    -0.140 Cl 
HETATM   34  C   UNL     1     -11.051   7.457  72.866  1.00  0.00    -0.397 A  
HETATM   35  C   UNL     1     -11.819   8.528  72.389  1.00  0.00    -0.437 A  
ENDBRANCH  23  25
ENDBRANCH  21  23
ENDBRANCH  19  21
ENDBRANCH  16  19
ENDBRANCH  12  13
ENDBRANCH  10  12
ENDBRANCH   3   6
TORSDOF 7
ENDMDL
MODEL      250
REMARK 921   NORMALIZED FREE ENERGY PREDICTED BY IDOCK:   -4.24 KCAL/MOL
REMARK 922        TOTAL FREE ENERGY PREDICTED BY IDOCK:   -7.83 KCAL/MOL
REMARK 923 INTER-LIGAND FREE ENERGY PREDICTED BY IDOCK:   -6.52 KCAL/MOL
REMARK 924 INTRA-LIGAND FREE ENERGY PREDICTED BY IDOCK:   -1.31 KCAL/MOL
REMARK 927      BINDING AFFINITY PREDICTED BY RF-SCORE:    0.00 PKD
ROOT
HETATM    1  C   UNL     1     -11.542  15.601  68.506  1.00  0.00    -0.370 C  
HETATM    2  N   UNL     1     -10.805  14.428  68.127  1.00  0.00    -0.239 N  
HETATM    3  C   UNL     1      -9.543  14.518  67.580  1.00  0.00    -0.210 C  
HETATM    4  H   UNL     1     -11.223  13.509  68.266  1.00  0.00     0.000 HD 
HETATM    5  O   UNL     1      -8.972  15.582  67.366  1.00  0.00    -0.184 OA 
ENDROOT
BRANCH   3   6
HETATM    6  C   UNL     1      -8.884  13.205  67.278  1.00  0.00    -0.208 A  
HETATM    7  N   UNL     1      -7.568  13.077  67.608  1.00  0.00    -0.146 NA 
HETATM    8  C   UNL     1      -6.980  11.909  67.264  1.00  0.00    -0.145 A  
HETATM    9  C   UNL     1      -7.621  10.887  66.576  1.00  0.00    -0.142 A  
HETATM   10  C   UNL     1      -8.957  11.061  66.235  1.00  0.00    -0.185 A  
HETATM   11  C   UNL     1      -9.619  12.219  66.641  1.00  0.00    -0.227 A  
BRANCH  10  12
HETATM   12  O   UNL     1      -9.561  10.050  65.508  1.00  0.00    -0.223 OA 
BRANCH  12  13
HETATM   13  C   UNL     1      -9.434   8.756  65.972  1.00  0.00    -0.233 A  
HETATM   14  C   UNL     1      -8.416   7.909  65.550  1.00  0.00    -0.153 A  
HETATM   15  C   UNL     1      -8.424   6.572  65.930  1.00  0.00    -0.147 A  
HETATM   16  C   UNL     1      -9.366   6.069  66.834  1.00  0.00    -0.131 A  
HETATM   17  C   UNL     1     -10.335   6.946  67.329  1.00  0.00    -0.320 A  
HETATM   18  C   UNL     1     -10.367   8.287  66.899  1.00  0.00    -0.391 A  
BRANCH  16  19
HETATM   19  N   UNL     1      -9.365   4.710  67.249  1.00  0.00    -0.134 N  
HETATM   20  H   UNL     1      -9.594   3.990  66.563  1.00  0.00     0.000 HD 
BRANCH  19  21
HETATM   21  C   UNL     1      -9.064   4.316  68.547  1.00  0.00    -0.128 C  
HETATM   22  O   UNL     1      -9.644   3.398  69.115  1.00  0.00    -0.167 OA 
BRANCH  21  23
HETATM   23  N   UNL     1      -8.063   5.058  69.147  1.00  0.00    -0.083 N  
HETATM   24  H   UNL     1      -7.150   5.097  68.692  1.00  0.00     0.000 HD 
BRANCH  23  25
HETATM   25  C   UNL     1      -8.244   5.773  70.371  1.00  0.00    -0.107 A  
HETATM   26  C   UNL     1      -9.432   6.439  70.694  1.00  0.00    -0.176 A  
HETATM   27  C   UNL     1      -9.573   7.230  71.848  1.00  0.00    -0.164 A  
HETATM   28  C   UNL     1     -10.852   7.991  72.068  1.00  0.00    -0.272 C  
HETATM   29  C   UNL     1      -8.501   7.290  72.733  1.00  0.00    -0.110 A  
HETATM   30  F   UNL     1     -10.662   9.337  72.167  1.00  0.00    -0.409 F  
HETATM   31  F   UNL     1     -11.508   7.612  73.200  1.00  0.00    -0.396 F  
HETATM   32  F   UNL     1     -11.761   7.835  71.062  1.00  0.00    -0.277 F  
HETATM   33 CL   UNL     1      -8.573   8.210  74.190  1.00  0.00    -0.275 Cl 
HETATM   34  C   UNL     1      -7.320   6.587  72.456  1.00  0.00    -0.089 A  
HETATM   35  C   UNL     1      -7.187   5.835  71.281  1.00  0.00    -0.074 A  
ENDBRANCH  23  25
ENDBRANCH  21  23
ENDBRANCH  19  21
ENDBRANCH  16  19
ENDBRANCH  12  13
ENDBRANCH  10  12
ENDBRANCH   3   6
TORSDOF 7
ENDMDL
MODEL      251
REMARK 921   NORMALIZED FREE ENERGY PREDICTED BY IDOCK:   -4.24 KCAL/MOL
REMARK 922        TOTAL FREE ENERGY PREDICTED BY IDOCK:   -7.82 KCAL/MOL
REMARK 923 INTER-LIGAND FREE ENERGY PREDICTED BY IDOCK:   -6.61 KCAL/MOL
REMARK 924 INTRA-LIGAND FREE ENERGY PREDICTED BY IDOCK:   -1.21 KCAL/MOL
REMARK 927      BINDING AFFINITY PREDICTED BY RF-SCORE:    0.00 PKD
ROOT
HETATM    1  C   UNL     1      -9.449   4.274  67.734  1.00  0.00    -0.168 C  
HETATM    2  N   UNL     1      -9.028   5.121  66.653  1.00  0.00    -0.114 N  
HETATM    3  C   UNL     1      -8.158   4.670  65.684  1.00  0.00    -0.107 C  
HETATM    4  H   UNL     1      -9.381   6.076  66.601  1.00  0.00     0.000 HD 
HETATM    5  O   UNL     1      -7.675   3.543  65.678  1.00  0.00    -0.080 OA 
ENDROOT
BRANCH   3   6
HETATM    6  C   UNL     1      -7.848   5.657  64.598  1.00  0.00    -0.113 A  
HETATM    7  N   UNL     1      -7.078   5.221  63.561  1.00  0.00    -0.046 NA 
HETATM    8  C   UNL     1      -6.757   6.146  62.629  1.00  0.00    -0.037 A  
HETATM    9  C   UNL     1      -7.126   7.483  62.699  1.00  0.00    -0.081 A  
HETATM   10  C   UNL     1      -7.891   7.898  63.783  1.00  0.00    -0.141 A  
HETATM   11  C   UNL     1      -8.309   6.957  64.723  1.00  0.00     0.014 A  
BRANCH  10  12
HETATM   12  O   UNL     1      -8.207   9.243  63.857  1.00  0.00    -0.145 OA 
BRANCH  12  13
HETATM   13  C   UNL     1      -8.540   9.763  65.092  1.00  0.00    -0.158 A  
HETATM   14  C   UNL     1      -7.584  10.223  65.990  1.00  0.00    -0.128 A  
HETATM   15  C   UNL     1      -7.962  10.593  67.276  1.00  0.00    -0.116 A  
HETATM   16  C   UNL     1      -9.305  10.635  67.666  1.00  0.00    -0.146 A  
HETATM   17  C   UNL     1     -10.273  10.259  66.729  1.00  0.00    -0.286 A  
HETATM   18  C   UNL     1      -9.890   9.826  65.445  1.00  0.00    -0.365 A  
BRANCH  16  19
HETATM   19  N   UNL     1      -9.702  11.038  68.969  1.00  0.00    -0.342 N  
HETATM   20  H   UNL     1      -8.982  11.155  69.683  1.00  0.00     0.000 HD 
BRANCH  19  21
HETATM   21  C   UNL     1     -11.026  11.281  69.315  1.00  0.00    -0.243 C  
HETATM   22  O   UNL     1     -11.815  10.388  69.593  1.00  0.00    -0.241 OA 
BRANCH  21  23
HETATM   23  N   UNL     1     -11.376  12.619  69.307  1.00  0.00    -0.359 N  
HETATM   24  H   UNL     1     -11.708  13.039  70.176  1.00  0.00     0.000 HD 
BRANCH  23  25
HETATM   25  C   UNL     1     -11.296  13.443  68.142  1.00  0.00    -0.287 A  
HETATM   26  C   UNL     1     -10.303  14.414  67.965  1.00  0.00    -0.227 A  
HETATM   27  C   UNL     1     -10.287  15.296  66.870  1.00  0.00    -0.278 A  
HETATM   28  C   UNL     1      -9.239  16.375  66.808  1.00  0.00    -0.237 C  
HETATM   29  C   UNL     1     -11.265  15.142  65.893  1.00  0.00    -0.280 A  
HETATM   30  F   UNL     1      -9.768  17.630  66.758  1.00  0.00    -0.258 F  
HETATM   31  F   UNL     1      -8.422  16.260  65.724  1.00  0.00    -0.336 F  
HETATM   32  F   UNL     1      -8.401  16.386  67.885  1.00  0.00    -0.163 F  
HETATM   33 CL   UNL     1     -11.326  16.152  64.496  1.00  0.00    -0.400 Cl 
HETATM   34  C   UNL     1     -12.238  14.140  66.023  1.00  0.00    -0.464 A  
HETATM   35  C   UNL     1     -12.258  13.296  67.142  1.00  0.00    -0.281 A  
ENDBRANCH  23  25
ENDBRANCH  21  23
ENDBRANCH  19  21
ENDBRANCH  16  19
ENDBRANCH  12  13
ENDBRANCH  10  12
ENDBRANCH   3   6
TORSDOF 7
ENDMDL
MODEL      252
REMARK 921   NORMALIZED FREE ENERGY PREDICTED BY IDOCK:   -4.23 KCAL/MOL
REMARK 922        TOTAL FREE ENERGY PREDICTED BY IDOCK:   -7.81 KCAL/MOL
REMARK 923 INTER-LIGAND FREE ENERGY PREDICTED BY IDOCK:   -6.80 KCAL/MOL
REMARK 924 INTRA-LIGAND FREE ENERGY PREDICTED BY IDOCK:   -1.02 KCAL/MOL
REMARK 927      BINDING AFFINITY PREDICTED BY RF-SCORE:    0.00 PKD
ROOT
HETATM    1  C   UNL     1     -11.230  13.153  68.956  1.00  0.00    -0.258 C  
HETATM    2  N   UNL     1     -10.777  11.982  68.259  1.00  0.00    -0.215 N  
HETATM    3  C   UNL     1     -10.207  12.066  67.007  1.00  0.00    -0.203 C  
HETATM    4  H   UNL     1     -10.878  11.068  68.699  1.00  0.00     0.000 HD 
HETATM    5  O   UNL     1     -10.061  13.122  66.399  1.00  0.00    -0.267 OA 
ENDROOT
BRANCH   3   6
HETATM    6  C   UNL     1      -9.744  10.763  66.428  1.00  0.00    -0.199 A  
HETATM    7  N   UNL     1      -8.942  10.820  65.328  1.00  0.00    -0.191 NA 
HETATM    8  C   UNL     1      -8.593   9.631  64.784  1.00  0.00    -0.179 A  
HETATM    9  C   UNL     1      -9.034   8.401  65.254  1.00  0.00    -0.055 A  
HETATM   10  C   UNL     1      -9.871   8.382  66.364  1.00  0.00    -0.240 A  
HETATM   11  C   UNL     1     -10.188   9.582  66.999  1.00  0.00    -0.321 A  
BRANCH  10  12
HETATM   12  O   UNL     1     -10.336   7.149  66.785  1.00  0.00    -0.253 OA 
BRANCH  12  13
HETATM   13  C   UNL     1      -9.785   6.606  67.929  1.00  0.00    -0.122 A  
HETATM   14  C   UNL     1      -8.535   6.980  68.406  1.00  0.00    -0.123 A  
HETATM   15  C   UNL     1      -7.965   6.294  69.472  1.00  0.00    -0.108 A  
HETATM   16  C   UNL     1      -8.666   5.305  70.170  1.00  0.00    -0.121 A  
HETATM   17  C   UNL     1      -9.962   4.994  69.745  1.00  0.00    -0.319 A  
HETATM   18  C   UNL     1     -10.519   5.645  68.628  1.00  0.00    -0.277 A  
BRANCH  16  19
HETATM   19  N   UNL     1      -8.102   4.618  71.278  1.00  0.00    -0.093 N  
HETATM   20  H   UNL     1      -7.505   3.810  71.098  1.00  0.00     0.000 HD 
BRANCH  19  21
HETATM   21  C   UNL     1      -8.326   4.996  72.597  1.00  0.00    -0.116 C  
HETATM   22  O   UNL     1      -8.192   4.227  73.541  1.00  0.00    -0.089 OA 
BRANCH  21  23
HETATM   23  N   UNL     1      -8.725   6.311  72.748  1.00  0.00    -0.126 N  
HETATM   24  H   UNL     1      -8.050   6.984  73.113  1.00  0.00     0.000 HD 
BRANCH  23  25
HETATM   25  C   UNL     1     -10.036   6.775  72.419  1.00  0.00    -0.170 A  
HETATM   26  C   UNL     1     -10.272   8.003  71.788  1.00  0.00    -0.260 A  
HETATM   27  C   UNL     1     -11.565   8.507  71.562  1.00  0.00    -0.352 A  
HETATM   28  C   UNL     1     -11.727   9.879  70.967  1.00  0.00    -0.382 C  
HETATM   29  C   UNL     1     -12.648   7.711  71.923  1.00  0.00    -0.303 A  
HETATM   30  F   UNL     1     -12.428  10.729  71.769  1.00  0.00    -0.449 F  
HETATM   31  F   UNL     1     -12.372   9.865  69.767  1.00  0.00    -0.082 F  
HETATM   32  F   UNL     1     -10.543  10.514  70.726  1.00  0.00    -0.239 F  
HETATM   33 CL   UNL     1     -14.277   8.219  71.668  1.00  0.00    -0.503 Cl 
HETATM   34  C   UNL     1     -12.435   6.454  72.506  1.00  0.00     0.127 A  
HETATM   35  C   UNL     1     -11.137   5.987  72.759  1.00  0.00    -0.305 A  
ENDBRANCH  23  25
ENDBRANCH  21  23
ENDBRANCH  19  21
ENDBRANCH  16  19
ENDBRANCH  12  13
ENDBRANCH  10  12
ENDBRANCH   3   6
TORSDOF 7
ENDMDL
MODEL      253
REMARK 921   NORMALIZED FREE ENERGY PREDICTED BY IDOCK:   -4.22 KCAL/MOL
REMARK 922        TOTAL FREE ENERGY PREDICTED BY IDOCK:   -7.79 KCAL/MOL
REMARK 923 INTER-LIGAND FREE ENERGY PREDICTED BY IDOCK:   -6.94 KCAL/MOL
REMARK 924 INTRA-LIGAND FREE ENERGY PREDICTED BY IDOCK:   -0.85 KCAL/MOL
REMARK 927      BINDING AFFINITY PREDICTED BY RF-SCORE:    0.00 PKD
ROOT
HETATM    1  C   UNL     1      -9.373  18.707  68.546  1.00  0.00    -0.346 C  
HETATM    2  N   UNL     1     -10.121  17.713  69.263  1.00  0.00    -0.222 N  
HETATM    3  C   UNL     1     -10.593  16.578  68.638  1.00  0.00    -0.316 C  
HETATM    4  H   UNL     1     -10.308  17.848  70.256  1.00  0.00     0.000 HD 
HETATM    5  O   UNL     1     -10.427  16.344  67.446  1.00  0.00    -0.301 OA 
ENDROOT
BRANCH   3   6
HETATM    6  C   UNL     1     -11.317  15.614  69.529  1.00  0.00    -0.327 A  
HETATM    7  N   UNL     1     -11.780  16.092  70.719  1.00  0.00    -0.395 NA 
HETATM    8  C   UNL     1     -12.370  15.187  71.533  1.00  0.00    -0.344 A  
HETATM    9  C   UNL     1     -12.482  13.834  71.243  1.00  0.00    -0.428 A  
HETATM   10  C   UNL     1     -11.977  13.377  70.031  1.00  0.00    -0.337 A  
HETATM   11  C   UNL     1     -11.433  14.293  69.131  1.00  0.00    -0.330 A  
BRANCH  10  12
HETATM   12  O   UNL     1     -12.057  12.018  69.784  1.00  0.00    -0.294 OA 
BRANCH  12  13
HETATM   13  C   UNL     1     -11.277  11.498  68.770  1.00  0.00    -0.249 A  
HETATM   14  C   UNL     1     -10.072  10.849  69.014  1.00  0.00    -0.212 A  
HETATM   15  C   UNL     1      -9.255  10.481  67.951  1.00  0.00    -0.143 A  
HETATM   16  C   UNL     1      -9.664  10.633  66.621  1.00  0.00    -0.184 A  
HETATM   17  C   UNL     1     -10.918  11.203  66.380  1.00  0.00    -0.248 A  
HETATM   18  C   UNL     1     -11.722  11.632  67.453  1.00  0.00    -0.278 A  
BRANCH  16  19
HETATM   19  N   UNL     1      -8.848  10.234  65.529  1.00  0.00    -0.164 N  
HETATM   20  H   UNL     1      -8.535  10.946  64.869  1.00  0.00     0.000 HD 
BRANCH  19  21
HETATM   21  C   UNL     1      -8.455   8.917  65.319  1.00  0.00    -0.169 C  
HETATM   22  O   UNL     1      -7.382   8.616  64.811  1.00  0.00    -0.086 OA 
BRANCH  21  23
HETATM   23  N   UNL     1      -9.386   7.978  65.724  1.00  0.00    -0.413 N  
HETATM   24  H   UNL     1     -10.360   8.113  65.452  1.00  0.00     0.000 HD 
BRANCH  23  25
HETATM   25  C   UNL     1      -9.051   6.828  66.503  1.00  0.00    -0.151 A  
HETATM   26  C   UNL     1      -8.931   5.546  65.954  1.00  0.00    -0.158 A  
HETATM   27  C   UNL     1      -8.707   4.399  66.736  1.00  0.00    -0.112 A  
HETATM   28  C   UNL     1      -8.690   3.048  66.076  1.00  0.00    -0.135 C  
HETATM   29  C   UNL     1      -8.531   4.568  68.107  1.00  0.00    -0.094 A  
HETATM   30  F   UNL     1      -9.633   2.198  66.574  1.00  0.00    -0.022 F  
HETATM   31  F   UNL     1      -7.493   2.409  66.202  1.00  0.00    -0.062 F  
HETATM   32  F   UNL     1      -8.928   3.093  64.732  1.00  0.00    -0.112 F  
HETATM   33 CL   UNL     1      -8.226   3.235  69.158  1.00  0.00    -0.072 Cl 
HETATM   34  C   UNL     1      -8.592   5.851  68.671  1.00  0.00    -0.110 A  
HETATM   35  C   UNL     1      -8.855   6.976  67.878  1.00  0.00    -0.124 A  
ENDBRANCH  23  25
ENDBRANCH  21  23
ENDBRANCH  19  21
ENDBRANCH  16  19
ENDBRANCH  12  13
ENDBRANCH  10  12
ENDBRANCH   3   6
TORSDOF 7
ENDMDL
MODEL      254
REMARK 921   NORMALIZED FREE ENERGY PREDICTED BY IDOCK:   -4.21 KCAL/MOL
REMARK 922        TOTAL FREE ENERGY PREDICTED BY IDOCK:   -7.77 KCAL/MOL
REMARK 923 INTER-LIGAND FREE ENERGY PREDICTED BY IDOCK:   -6.67 KCAL/MOL
REMARK 924 INTRA-LIGAND FREE ENERGY PREDICTED BY IDOCK:   -1.11 KCAL/MOL
REMARK 927      BINDING AFFINITY PREDICTED BY RF-SCORE:    0.00 PKD
ROOT
HETATM    1  C   UNL     1     -13.695  15.207  71.348  1.00  0.00    -0.495 C  
HETATM    2  N   UNL     1     -12.887  14.826  70.224  1.00  0.00    -0.567 N  
HETATM    3  C   UNL     1     -11.788  15.567  69.844  1.00  0.00    -0.362 C  
HETATM    4  H   UNL     1     -13.130  13.989  69.694  1.00  0.00     0.000 HD 
HETATM    5  O   UNL     1     -11.433  16.593  70.415  1.00  0.00    -0.128 OA 
ENDROOT
BRANCH   3   6
HETATM    6  C   UNL     1     -11.021  15.017  68.679  1.00  0.00    -0.257 A  
HETATM    7  N   UNL     1     -11.195  15.628  67.474  1.00  0.00    -0.290 NA 
HETATM    8  C   UNL     1     -10.544  15.073  66.426  1.00  0.00    -0.310 A  
HETATM    9  C   UNL     1      -9.769  13.924  66.511  1.00  0.00    -0.303 A  
HETATM   10  C   UNL     1      -9.633  13.313  67.752  1.00  0.00    -0.214 A  
HETATM   11  C   UNL     1     -10.224  13.901  68.870  1.00  0.00    -0.135 A  
BRANCH  10  12
HETATM   12  O   UNL     1      -8.896  12.143  67.804  1.00  0.00    -0.157 OA 
BRANCH  12  13
HETATM   13  C   UNL     1      -9.476  11.038  68.393  1.00  0.00    -0.182 A  
HETATM   14  C   UNL     1      -8.802  10.241  69.310  1.00  0.00    -0.186 A  
HETATM   15  C   UNL     1      -9.378   9.056  69.755  1.00  0.00    -0.176 A  
HETATM   16  C   UNL     1     -10.683   8.693  69.401  1.00  0.00    -0.158 A  
HETATM   17  C   UNL     1     -11.394   9.545  68.551  1.00  0.00     0.188 A  
HETATM   18  C   UNL     1     -10.791  10.715  68.050  1.00  0.00    -0.309 A  
BRANCH  16  19
HETATM   19  N   UNL     1     -11.289   7.499  69.874  1.00  0.00    -0.461 N  
HETATM   20  H   UNL     1     -11.491   6.756  69.204  1.00  0.00     0.000 HD 
BRANCH  19  21
HETATM   21  C   UNL     1     -11.621   7.295  71.208  1.00  0.00    -0.286 C  
HETATM   22  O   UNL     1     -12.240   8.117  71.872  1.00  0.00    -0.299 OA 
BRANCH  21  23
HETATM   23  N   UNL     1     -11.182   6.089  71.723  1.00  0.00    -0.277 N  
HETATM   24  H   UNL     1     -11.771   5.609  72.403  1.00  0.00     0.000 HD 
BRANCH  23  25
HETATM   25  C   UNL     1      -9.942   5.483  71.349  1.00  0.00    -0.186 A  
HETATM   26  C   UNL     1      -9.852   4.467  70.390  1.00  0.00    -0.302 A  
HETATM   27  C   UNL     1      -8.649   3.798  70.101  1.00  0.00    -0.107 A  
HETATM   28  C   UNL     1      -8.660   2.651  69.127  1.00  0.00    -0.073 C  
HETATM   29  C   UNL     1      -7.494   4.220  70.752  1.00  0.00    -0.051 A  
HETATM   30  F   UNL     1      -8.220   1.483  69.674  1.00  0.00    -0.049 F  
HETATM   31  F   UNL     1      -7.885   2.877  68.030  1.00  0.00    -0.059 F  
HETATM   32  F   UNL     1      -9.900   2.366  68.633  1.00  0.00    -0.216 F  
HETATM   33 CL   UNL     1      -5.961   3.487  70.455  1.00  0.00    -0.017 Cl 
HETATM   34  C   UNL     1      -7.552   5.273  71.677  1.00  0.00    -0.103 A  
HETATM   35  C   UNL     1      -8.768   5.900  71.979  1.00  0.00    -0.137 A  
ENDBRANCH  23  25
ENDBRANCH  21  23
ENDBRANCH  19  21
ENDBRANCH  16  19
ENDBRANCH  12  13
ENDBRANCH  10  12
ENDBRANCH   3   6
TORSDOF 7
ENDMDL
MODEL      255
REMARK 921   NORMALIZED FREE ENERGY PREDICTED BY IDOCK:   -4.20 KCAL/MOL
REMARK 922        TOTAL FREE ENERGY PREDICTED BY IDOCK:   -7.77 KCAL/MOL
REMARK 923 INTER-LIGAND FREE ENERGY PREDICTED BY IDOCK:   -6.84 KCAL/MOL
REMARK 924 INTRA-LIGAND FREE ENERGY PREDICTED BY IDOCK:   -0.93 KCAL/MOL
REMARK 927      BINDING AFFINITY PREDICTED BY RF-SCORE:    0.00 PKD
ROOT
HETATM    1  C   UNL     1     -12.464  12.123  63.099  1.00  0.00    -0.243 C  
HETATM    2  N   UNL     1     -11.483  12.879  63.827  1.00  0.00    -0.469 N  
HETATM    3  C   UNL     1     -11.842  13.718  64.860  1.00  0.00    -0.375 C  
HETATM    4  H   UNL     1     -10.499  12.794  63.574  1.00  0.00     0.000 HD 
HETATM    5  O   UNL     1     -13.002  13.891  65.219  1.00  0.00    -0.747 OA 
ENDROOT
BRANCH   3   6
HETATM    6  C   UNL     1     -10.701  14.404  65.550  1.00  0.00    -0.336 A  
HETATM    7  N   UNL     1     -10.627  15.759  65.434  1.00  0.00    -0.398 NA 
HETATM    8  C   UNL     1      -9.553  16.347  66.008  1.00  0.00    -0.319 A  
HETATM    9  C   UNL     1      -8.536  15.653  66.651  1.00  0.00    -0.330 A  
HETATM   10  C   UNL     1      -8.633  14.269  66.730  1.00  0.00    -0.084 A  
HETATM   11  C   UNL     1      -9.764  13.634  66.219  1.00  0.00    -0.295 A  
BRANCH  10  12
HETATM   12  O   UNL     1      -7.586  13.595  67.333  1.00  0.00    -0.167 OA 
BRANCH  12  13
HETATM   13  C   UNL     1      -7.662  12.218  67.411  1.00  0.00    -0.165 A  
HETATM   14  C   UNL     1      -8.427  11.567  68.371  1.00  0.00    -0.159 A  
HETATM   15  C   UNL     1      -8.347  10.185  68.501  1.00  0.00    -0.116 A  
HETATM   16  C   UNL     1      -7.606   9.403  67.608  1.00  0.00    -0.088 A  
HETATM   17  C   UNL     1      -6.910  10.054  66.586  1.00  0.00    -0.082 A  
HETATM   18  C   UNL     1      -6.940  11.459  66.487  1.00  0.00    -0.062 A  
BRANCH  16  19
HETATM   19  N   UNL     1      -7.541   7.988  67.717  1.00  0.00    -0.100 N  
HETATM   20  H   UNL     1      -6.901   7.580  68.399  1.00  0.00     0.000 HD 
BRANCH  19  21
HETATM   21  C   UNL     1      -8.311   7.133  66.937  1.00  0.00    -0.118 C  
HETATM   22  O   UNL     1      -8.275   7.136  65.713  1.00  0.00    -0.119 OA 
BRANCH  21  23
HETATM   23  N   UNL     1      -9.129   6.287  67.663  1.00  0.00    -0.118 N  
HETATM   24  H   UNL     1      -9.450   5.425  67.221  1.00  0.00     0.000 HD 
BRANCH  23  25
HETATM   25  C   UNL     1      -9.547   6.560  69.002  1.00  0.00    -0.132 A  
HETATM   26  C   UNL     1      -9.029   5.884  70.113  1.00  0.00    -0.148 A  
HETATM   27  C   UNL     1      -9.517   6.077  71.417  1.00  0.00    -0.172 A  
HETATM   28  C   UNL     1      -8.971   5.237  72.540  1.00  0.00    -0.130 C  
HETATM   29  C   UNL     1     -10.510   7.033  71.609  1.00  0.00    -0.199 A  
HETATM   30  F   UNL     1      -9.930   4.504  73.174  1.00  0.00    -0.151 F  
HETATM   31  F   UNL     1      -8.353   5.975  73.504  1.00  0.00    -0.115 F  
HETATM   32  F   UNL     1      -8.037   4.326  72.137  1.00  0.00    -0.083 F  
HETATM   33 CL   UNL     1     -11.163   7.369  73.169  1.00  0.00    -0.352 Cl 
HETATM   34  C   UNL     1     -11.005   7.761  70.517  1.00  0.00    -0.251 A  
HETATM   35  C   UNL     1     -10.532   7.525  69.219  1.00  0.00    -0.216 A  
ENDBRANCH  23  25
ENDBRANCH  21  23
ENDBRANCH  19  21
ENDBRANCH  16  19
ENDBRANCH  12  13
ENDBRANCH  10  12
ENDBRANCH   3   6
TORSDOF 7
ENDMDL
MODEL      256
REMARK 921   NORMALIZED FREE ENERGY PREDICTED BY IDOCK:   -4.19 KCAL/MOL
REMARK 922        TOTAL FREE ENERGY PREDICTED BY IDOCK:   -7.75 KCAL/MOL
REMARK 923 INTER-LIGAND FREE ENERGY PREDICTED BY IDOCK:   -6.26 KCAL/MOL
REMARK 924 INTRA-LIGAND FREE ENERGY PREDICTED BY IDOCK:   -1.49 KCAL/MOL
REMARK 927      BINDING AFFINITY PREDICTED BY RF-SCORE:    0.00 PKD
ROOT
HETATM    1  C   UNL     1     -11.726  15.701  68.032  1.00  0.00    -0.153 C  
HETATM    2  N   UNL     1     -10.298  15.595  67.913  1.00  0.00    -0.254 N  
HETATM    3  C   UNL     1      -9.488  15.514  69.025  1.00  0.00    -0.242 C  
HETATM    4  H   UNL     1      -9.874  15.580  66.986  1.00  0.00     0.000 HD 
HETATM    5  O   UNL     1      -9.913  15.539  70.176  1.00  0.00    -0.275 OA 
ENDROOT
BRANCH   3   6
HETATM    6  C   UNL     1      -8.024  15.363  68.738  1.00  0.00    -0.158 A  
HETATM    7  N   UNL     1      -7.436  16.329  67.977  1.00  0.00    -0.133 NA 
HETATM    8  C   UNL     1      -6.132  16.136  67.676  1.00  0.00    -0.151 A  
HETATM    9  C   UNL     1      -5.401  15.018  68.057  1.00  0.00    -0.131 A  
HETATM   10  C   UNL     1      -6.040  14.041  68.812  1.00  0.00    -0.086 A  
HETATM   11  C   UNL     1      -7.362  14.242  69.209  1.00  0.00    -0.053 A  
BRANCH  10  12
HETATM   12  O   UNL     1      -5.307  12.914  69.139  1.00  0.00    -0.068 OA 
BRANCH  12  13
HETATM   13  C   UNL     1      -5.920  11.683  69.008  1.00  0.00    -0.053 A  
HETATM   14  C   UNL     1      -6.658  11.105  70.034  1.00  0.00    -0.105 A  
HETATM   15  C   UNL     1      -7.123   9.801  69.903  1.00  0.00    -0.108 A  
HETATM   16  C   UNL     1      -6.976   9.083  68.711  1.00  0.00    -0.062 A  
HETATM   17  C   UNL     1      -6.312   9.703  67.648  1.00  0.00    -0.057 A  
HETATM   18  C   UNL     1      -5.788  11.001  67.797  1.00  0.00    -0.046 A  
BRANCH  16  19
HETATM   19  N   UNL     1      -7.473   7.760  68.560  1.00  0.00    -0.101 N  
HETATM   20  H   UNL     1      -7.003   7.004  69.058  1.00  0.00     0.000 HD 
BRANCH  19  21
HETATM   21  C   UNL     1      -8.570   7.450  67.764  1.00  0.00    -0.120 C  
HETATM   22  O   UNL     1      -8.652   6.411  67.121  1.00  0.00    -0.111 OA 
BRANCH  21  23
HETATM   23  N   UNL     1      -9.553   8.422  67.753  1.00  0.00    -0.152 N  
HETATM   24  H   UNL     1     -10.170   8.498  68.562  1.00  0.00     0.000 HD 
BRANCH  23  25
HETATM   25  C   UNL     1      -9.749   9.326  66.662  1.00  0.00    -0.219 A  
HETATM   26  C   UNL     1     -10.496  10.504  66.777  1.00  0.00    -0.302 A  
HETATM   27  C   UNL     1     -10.779  11.337  65.680  1.00  0.00    -0.279 A  
HETATM   28  C   UNL     1     -11.672  12.532  65.873  1.00  0.00    -0.426 C  
HETATM   29  C   UNL     1     -10.229  11.001  64.447  1.00  0.00    -0.346 A  
HETATM   30  F   UNL     1     -12.783  12.501  65.084  1.00  0.00    -0.535 F  
HETATM   31  F   UNL     1     -11.046  13.713  65.606  1.00  0.00    -0.293 F  
HETATM   32  F   UNL     1     -12.145  12.661  67.147  1.00  0.00    -0.429 F  
HETATM   33 CL   UNL     1     -10.489  11.964  63.040  1.00  0.00    -0.292 Cl 
HETATM   34  C   UNL     1      -9.432   9.854  64.321  1.00  0.00    -0.280 A  
HETATM   35  C   UNL     1      -9.195   9.016  65.419  1.00  0.00    -0.241 A  
ENDBRANCH  23  25
ENDBRANCH  21  23
ENDBRANCH  19  21
ENDBRANCH  16  19
ENDBRANCH  12  13
ENDBRANCH  10  12
ENDBRANCH   3   6
TORSDOF 7
ENDMDL
MODEL      257
REMARK 921   NORMALIZED FREE ENERGY PREDICTED BY IDOCK:   -4.18 KCAL/MOL
REMARK 922        TOTAL FREE ENERGY PREDICTED BY IDOCK:   -7.74 KCAL/MOL
REMARK 923 INTER-LIGAND FREE ENERGY PREDICTED BY IDOCK:   -6.49 KCAL/MOL
REMARK 924 INTRA-LIGAND FREE ENERGY PREDICTED BY IDOCK:   -1.25 KCAL/MOL
REMARK 927      BINDING AFFINITY PREDICTED BY RF-SCORE:    0.00 PKD
ROOT
HETATM    1  C   UNL     1     -12.463  13.586  64.734  1.00  0.00    -0.355 C  
HETATM    2  N   UNL     1     -11.473  14.440  65.330  1.00  0.00    -0.338 N  
HETATM    3  C   UNL     1     -11.256  15.720  64.868  1.00  0.00    -0.350 C  
HETATM    4  H   UNL     1     -10.919  14.091  66.111  1.00  0.00     0.000 HD 
HETATM    5  O   UNL     1     -11.867  16.212  63.925  1.00  0.00    -0.921 OA 
ENDROOT
BRANCH   3   6
HETATM    6  C   UNL     1     -10.221  16.502  65.620  1.00  0.00    -0.292 A  
HETATM    7  N   UNL     1     -10.479  17.821  65.847  1.00  0.00    -0.531 NA 
HETATM    8  C   UNL     1      -9.502  18.520  66.468  1.00  0.00    -0.320 A  
HETATM    9  C   UNL     1      -8.273  17.985  66.833  1.00  0.00    -0.259 A  
HETATM   10  C   UNL     1      -8.035  16.642  66.564  1.00  0.00    -0.307 A  
HETATM   11  C   UNL     1      -9.048  15.870  65.997  1.00  0.00    -0.363 A  
BRANCH  10  12
HETATM   12  O   UNL     1      -6.787  16.143  66.893  1.00  0.00    -0.200 OA 
BRANCH  12  13
HETATM   13  C   UNL     1      -6.730  14.974  67.626  1.00  0.00    -0.177 A  
HETATM   14  C   UNL     1      -5.961  13.885  67.234  1.00  0.00     0.463 A  
HETATM   15  C   UNL     1      -6.059  12.682  67.924  1.00  0.00    -0.108 A  
HETATM   16  C   UNL     1      -6.824  12.563  69.090  1.00  0.00    -0.062 A  
HETATM   17  C   UNL     1      -7.525  13.688  69.534  1.00  0.00     0.398 A  
HETATM   18  C   UNL     1      -7.475  14.891  68.804  1.00  0.00    -0.132 A  
BRANCH  16  19
HETATM   19  N   UNL     1      -6.908  11.345  69.818  1.00  0.00    -0.315 N  
HETATM   20  H   UNL     1      -6.358  11.249  70.672  1.00  0.00     0.000 HD 
BRANCH  19  21
HETATM   21  C   UNL     1      -7.705  10.279  69.419  1.00  0.00    -0.146 C  
HETATM   22  O   UNL     1      -8.843  10.106  69.837  1.00  0.00    -0.174 OA 
BRANCH  21  23
HETATM   23  N   UNL     1      -7.097   9.423  68.518  1.00  0.00    -0.070 N  
HETATM   24  H   UNL     1      -6.366   8.799  68.861  1.00  0.00     0.000 HD 
BRANCH  23  25
HETATM   25  C   UNL     1      -7.442   9.370  67.132  1.00  0.00    -0.091 A  
HETATM   26  C   UNL     1      -8.292  10.302  66.525  1.00  0.00    -0.126 A  
HETATM   27  C   UNL     1      -8.715  10.189  65.189  1.00  0.00    -0.189 A  
HETATM   28  C   UNL     1      -9.708  11.180  64.644  1.00  0.00    -0.262 C  
HETATM   29  C   UNL     1      -8.207   9.139  64.429  1.00  0.00    -0.158 A  
HETATM   30  F   UNL     1     -10.854  10.595  64.194  1.00  0.00    -0.394 F  
HETATM   31  F   UNL     1      -9.215  11.908  63.604  1.00  0.00    -0.120 F  
HETATM   32  F   UNL     1     -10.117  12.104  65.562  1.00  0.00    -0.242 F  
HETATM   33 CL   UNL     1      -8.640   8.919  62.774  1.00  0.00    -0.197 Cl 
HETATM   34  C   UNL     1      -7.311   8.225  65.002  1.00  0.00    -0.086 A  
HETATM   35  C   UNL     1      -6.932   8.334  66.347  1.00  0.00    -0.067 A  
ENDBRANCH  23  25
ENDBRANCH  21  23
ENDBRANCH  19  21
ENDBRANCH  16  19
ENDBRANCH  12  13
ENDBRANCH  10  12
ENDBRANCH   3   6
TORSDOF 7
ENDMDL
MODEL      258
REMARK 921   NORMALIZED FREE ENERGY PREDICTED BY IDOCK:   -4.18 KCAL/MOL
REMARK 922        TOTAL FREE ENERGY PREDICTED BY IDOCK:   -7.74 KCAL/MOL
REMARK 923 INTER-LIGAND FREE ENERGY PREDICTED BY IDOCK:   -8.24 KCAL/MOL
REMARK 924 INTRA-LIGAND FREE ENERGY PREDICTED BY IDOCK:    0.50 KCAL/MOL
REMARK 927      BINDING AFFINITY PREDICTED BY RF-SCORE:    0.00 PKD
ROOT
HETATM    1  C   UNL     1      -6.431   6.544  73.365  1.00  0.00    -0.065 C  
HETATM    2  N   UNL     1      -7.215   7.103  72.299  1.00  0.00    -0.072 N  
HETATM    3  C   UNL     1      -8.362   7.823  72.551  1.00  0.00    -0.129 C  
HETATM    4  H   UNL     1      -6.915   6.964  71.334  1.00  0.00     0.000 HD 
HETATM    5  O   UNL     1      -8.801   8.024  73.678  1.00  0.00    -0.255 OA 
ENDROOT
BRANCH   3   6
HETATM    6  C   UNL     1      -9.045   8.379  71.337  1.00  0.00    -0.186 A  
HETATM    7  N   UNL     1      -8.511   8.066  70.123  1.00  0.00    -0.126 NA 
HETATM    8  C   UNL     1      -9.104   8.634  69.049  1.00  0.00    -0.145 A  
HETATM    9  C   UNL     1     -10.168   9.523  69.125  1.00  0.00    -0.209 A  
HETATM   10  C   UNL     1     -10.672   9.838  70.382  1.00  0.00    -0.308 A  
HETATM   11  C   UNL     1     -10.138   9.212  71.508  1.00  0.00    -0.381 A  
BRANCH  10  12
HETATM   12  O   UNL     1     -11.700  10.763  70.437  1.00  0.00    -0.302 OA 
BRANCH  12  13
HETATM   13  C   UNL     1     -11.728  11.757  69.480  1.00  0.00    -0.343 A  
HETATM   14  C   UNL     1     -11.851  13.102  69.805  1.00  0.00    -0.386 A  
HETATM   15  C   UNL     1     -12.028  14.046  68.798  1.00  0.00    -0.382 A  
HETATM   16  C   UNL     1     -11.965  13.698  67.444  1.00  0.00    -0.376 A  
HETATM   17  C   UNL     1     -11.749  12.356  67.120  1.00  0.00    -0.415 A  
HETATM   18  C   UNL     1     -11.629  11.389  68.136  1.00  0.00    -0.364 A  
BRANCH  16  19
HETATM   19  N   UNL     1     -12.117  14.660  66.410  1.00  0.00    -0.282 N  
HETATM   20  H   UNL     1     -12.895  15.318  66.466  1.00  0.00     0.000 HD 
BRANCH  19  21
HETATM   21  C   UNL     1     -11.253  14.747  65.324  1.00  0.00    -0.366 C  
HETATM   22  O   UNL     1     -10.686  13.772  64.846  1.00  0.00    -0.351 OA 
BRANCH  21  23
HETATM   23  N   UNL     1     -11.081  16.030  64.839  1.00  0.00    -0.421 N  
HETATM   24  H   UNL     1     -11.493  16.267  63.936  1.00  0.00     0.000 HD 
BRANCH  23  25
HETATM   25  C   UNL     1     -10.353  17.042  65.540  1.00  0.00    -0.143 A  
HETATM   26  C   UNL     1      -9.143  16.790  66.197  1.00  0.00    -0.288 A  
HETATM   27  C   UNL     1      -8.483  17.757  66.975  1.00  0.00    -0.245 A  
HETATM   28  C   UNL     1      -7.239  17.374  67.728  1.00  0.00    -0.168 C  
HETATM   29  C   UNL     1      -9.031  19.036  67.030  1.00  0.00    -0.294 A  
HETATM   30  F   UNL     1      -7.350  17.559  69.074  1.00  0.00    -0.239 F  
HETATM   31  F   UNL     1      -6.141  18.077  67.334  1.00  0.00    -0.144 F  
HETATM   32  F   UNL     1      -6.892  16.062  67.579  1.00  0.00    -0.132 F  
HETATM   33 CL   UNL     1      -8.292  20.306  67.934  1.00  0.00    -0.258 Cl 
HETATM   34  C   UNL     1     -10.214  19.325  66.335  1.00  0.00    -0.533 A  
HETATM   35  C   UNL     1     -10.877  18.335  65.596  1.00  0.00     0.068 A  
ENDBRANCH  23  25
ENDBRANCH  21  23
ENDBRANCH  19  21
ENDBRANCH  16  19
ENDBRANCH  12  13
ENDBRANCH  10  12
ENDBRANCH   3   6
TORSDOF 7
ENDMDL
MODEL      259
REMARK 921   NORMALIZED FREE ENERGY PREDICTED BY IDOCK:   -4.17 KCAL/MOL
REMARK 922        TOTAL FREE ENERGY PREDICTED BY IDOCK:   -7.72 KCAL/MOL
REMARK 923 INTER-LIGAND FREE ENERGY PREDICTED BY IDOCK:   -5.95 KCAL/MOL
REMARK 924 INTRA-LIGAND FREE ENERGY PREDICTED BY IDOCK:   -1.76 KCAL/MOL
REMARK 927      BINDING AFFINITY PREDICTED BY RF-SCORE:    0.00 PKD
ROOT
HETATM    1  C   UNL     1      -9.371  10.507  63.325  1.00  0.00    -0.314 C  
HETATM    2  N   UNL     1      -9.063   9.136  63.623  1.00  0.00    -0.399 N  
HETATM    3  C   UNL     1      -8.392   8.783  64.774  1.00  0.00    -0.168 C  
HETATM    4  H   UNL     1      -9.346   8.407  62.968  1.00  0.00     0.000 HD 
HETATM    5  O   UNL     1      -8.003   9.596  65.606  1.00  0.00    -0.109 OA 
ENDROOT
BRANCH   3   6
HETATM    6  C   UNL     1      -8.183   7.311  64.965  1.00  0.00    -0.098 A  
HETATM    7  N   UNL     1      -7.320   6.688  64.113  1.00  0.00    -0.071 NA 
HETATM    8  C   UNL     1      -7.200   5.350  64.262  1.00  0.00    -0.055 A  
HETATM    9  C   UNL     1      -7.923   4.600  65.182  1.00  0.00    -0.095 A  
HETATM   10  C   UNL     1      -8.812   5.265  66.018  1.00  0.00    -0.141 A  
HETATM   11  C   UNL     1      -8.905   6.655  65.948  1.00  0.00    -0.126 A  
BRANCH  10  12
HETATM   12  O   UNL     1      -9.555   4.493  66.893  1.00  0.00    -0.161 OA 
BRANCH  12  13
HETATM   13  C   UNL     1      -9.586   4.869  68.221  1.00  0.00    -0.145 A  
HETATM   14  C   UNL     1     -10.671   5.531  68.784  1.00  0.00    -0.195 A  
HETATM   15  C   UNL     1     -10.587   6.021  70.083  1.00  0.00    -0.341 A  
HETATM   16  C   UNL     1      -9.479   5.760  70.898  1.00  0.00    -0.165 A  
HETATM   17  C   UNL     1      -8.428   5.014  70.358  1.00  0.00    -0.105 A  
HETATM   18  C   UNL     1      -8.483   4.568  69.024  1.00  0.00    -0.090 A  
BRANCH  16  19
HETATM   19  N   UNL     1      -9.397   6.233  72.235  1.00  0.00    -0.146 N  
HETATM   20  H   UNL     1      -9.593   5.580  72.995  1.00  0.00     0.000 HD 
BRANCH  19  21
HETATM   21  C   UNL     1      -9.063   7.543  72.556  1.00  0.00    -0.146 C  
HETATM   22  O   UNL     1      -9.568   8.148  73.493  1.00  0.00    -0.222 OA 
BRANCH  21  23
HETATM   23  N   UNL     1      -8.120   8.108  71.716  1.00  0.00    -0.116 N  
HETATM   24  H   UNL     1      -7.155   7.784  71.782  1.00  0.00     0.000 HD 
BRANCH  23  25
HETATM   25  C   UNL     1      -8.432   9.124  70.760  1.00  0.00    -0.212 A  
HETATM   26  C   UNL     1      -9.738   9.569  70.522  1.00  0.00    -0.325 A  
HETATM   27  C   UNL     1     -10.055  10.490  69.508  1.00  0.00    -0.208 A  
HETATM   28  C   UNL     1     -11.497  10.839  69.255  1.00  0.00    -0.298 C  
HETATM   29  C   UNL     1      -9.010  11.027  68.762  1.00  0.00    -0.149 A  
HETATM   30  F   UNL     1     -11.900  10.553  67.984  1.00  0.00    -0.328 F  
HETATM   31  F   UNL     1     -11.768  12.159  69.455  1.00  0.00    -0.312 F  
HETATM   32  F   UNL     1     -12.371  10.170  70.063  1.00  0.00    -0.276 F  
HETATM   33 CL   UNL     1      -9.283  12.183  67.511  1.00  0.00    -0.177 Cl 
HETATM   34  C   UNL     1      -7.688  10.637  69.021  1.00  0.00    -0.130 A  
HETATM   35  C   UNL     1      -7.397   9.687  70.011  1.00  0.00    -0.130 A  
ENDBRANCH  23  25
ENDBRANCH  21  23
ENDBRANCH  19  21
ENDBRANCH  16  19
ENDBRANCH  12  13
ENDBRANCH  10  12
ENDBRANCH   3   6
TORSDOF 7
ENDMDL
MODEL      260
REMARK 921   NORMALIZED FREE ENERGY PREDICTED BY IDOCK:   -4.16 KCAL/MOL
REMARK 922        TOTAL FREE ENERGY PREDICTED BY IDOCK:   -7.71 KCAL/MOL
REMARK 923 INTER-LIGAND FREE ENERGY PREDICTED BY IDOCK:   -7.09 KCAL/MOL
REMARK 924 INTRA-LIGAND FREE ENERGY PREDICTED BY IDOCK:   -0.62 KCAL/MOL
REMARK 927      BINDING AFFINITY PREDICTED BY RF-SCORE:    0.00 PKD
ROOT
HETATM    1  C   UNL     1      -6.408   5.690  72.662  1.00  0.00    -0.053 C  
HETATM    2  N   UNL     1      -7.214   6.370  71.686  1.00  0.00    -0.085 N  
HETATM    3  C   UNL     1      -8.339   7.077  72.050  1.00  0.00    -0.105 C  
HETATM    4  H   UNL     1      -6.946   6.330  70.703  1.00  0.00     0.000 HD 
HETATM    5  O   UNL     1      -8.740   7.165  73.206  1.00  0.00    -0.125 OA 
ENDROOT
BRANCH   3   6
HETATM    6  C   UNL     1      -9.049   7.769  70.924  1.00  0.00    -0.148 A  
HETATM    7  N   UNL     1      -8.532   7.613  69.673  1.00  0.00    -0.133 NA 
HETATM    8  C   UNL     1      -9.149   8.300  68.685  1.00  0.00    -0.140 A  
HETATM    9  C   UNL     1     -10.220   9.162  68.887  1.00  0.00    -0.221 A  
HETATM   10  C   UNL     1     -10.705   9.316  70.181  1.00  0.00    -0.235 A  
HETATM   11  C   UNL     1     -10.146   8.563  71.213  1.00  0.00    -0.286 A  
BRANCH  10  12
HETATM   12  O   UNL     1     -11.740  10.215  70.366  1.00  0.00    -0.271 OA 
BRANCH  12  13
HETATM   13  C   UNL     1     -11.764  11.345  69.573  1.00  0.00    -0.348 A  
HETATM   14  C   UNL     1     -11.939  12.621  70.098  1.00  0.00    -0.375 A  
HETATM   15  C   UNL     1     -12.108  13.705  69.243  1.00  0.00    -0.360 A  
HETATM   16  C   UNL     1     -11.986  13.575  67.855  1.00  0.00    -0.337 A  
HETATM   17  C   UNL     1     -11.718  12.305  67.336  1.00  0.00    -0.405 A  
HETATM   18  C   UNL     1     -11.606  11.194  68.194  1.00  0.00    -0.350 A  
BRANCH  16  19
HETATM   19  N   UNL     1     -12.129  14.682  66.977  1.00  0.00    -0.464 N  
HETATM   20  H   UNL     1     -12.945  15.286  67.084  1.00  0.00     0.000 HD 
BRANCH  19  21
HETATM   21  C   UNL     1     -11.210  14.981  65.979  1.00  0.00    -0.310 C  
HETATM   22  O   UNL     1     -11.274  14.507  64.852  1.00  0.00    -0.354 OA 
BRANCH  21  23
HETATM   23  N   UNL     1     -10.208  15.850  66.374  1.00  0.00    -0.287 N  
HETATM   24  H   UNL     1     -10.205  16.794  65.987  1.00  0.00     0.000 HD 
BRANCH  23  25
HETATM   25  C   UNL     1      -9.178  15.490  67.297  1.00  0.00    -0.209 A  
HETATM   26  C   UNL     1      -8.524  14.252  67.261  1.00  0.00    -0.226 A  
HETATM   27  C   UNL     1      -7.587  13.857  68.232  1.00  0.00    -0.130 A  
HETATM   28  C   UNL     1      -7.005  12.471  68.174  1.00  0.00    -0.089 C  
HETATM   29  C   UNL     1      -7.254  14.771  69.227  1.00  0.00    -0.167 A  
HETATM   30  F   UNL     1      -7.249  11.742  69.299  1.00  0.00    -0.110 F  
HETATM   31  F   UNL     1      -5.654  12.469  68.001  1.00  0.00    -0.056 F  
HETATM   32  F   UNL     1      -7.496  11.715  67.149  1.00  0.00    -0.113 F  
HETATM   33 CL   UNL     1      -6.099  14.402  70.454  1.00  0.00    -0.169 Cl 
HETATM   34  C   UNL     1      -7.856  16.037  69.250  1.00  0.00    -0.222 A  
HETATM   35  C   UNL     1      -8.816  16.397  68.294  1.00  0.00    -0.202 A  
ENDBRANCH  23  25
ENDBRANCH  21  23
ENDBRANCH  19  21
ENDBRANCH  16  19
ENDBRANCH  12  13
ENDBRANCH  10  12
ENDBRANCH   3   6
TORSDOF 7
ENDMDL
MODEL      261
REMARK 921   NORMALIZED FREE ENERGY PREDICTED BY IDOCK:   -4.15 KCAL/MOL
REMARK 922        TOTAL FREE ENERGY PREDICTED BY IDOCK:   -7.70 KCAL/MOL
REMARK 923 INTER-LIGAND FREE ENERGY PREDICTED BY IDOCK:   -7.16 KCAL/MOL
REMARK 924 INTRA-LIGAND FREE ENERGY PREDICTED BY IDOCK:   -0.54 KCAL/MOL
REMARK 927      BINDING AFFINITY PREDICTED BY RF-SCORE:    0.00 PKD
ROOT
HETATM    1  C   UNL     1      -7.653  17.198  66.242  1.00  0.00    -0.317 C  
HETATM    2  N   UNL     1      -8.596  16.130  66.055  1.00  0.00    -0.298 N  
HETATM    3  C   UNL     1      -9.914  16.382  65.741  1.00  0.00    -0.302 C  
HETATM    4  H   UNL     1      -8.284  15.165  66.156  1.00  0.00     0.000 HD 
HETATM    5  O   UNL     1     -10.376  17.511  65.615  1.00  0.00    -0.601 OA 
ENDROOT
BRANCH   3   6
HETATM    6  C   UNL     1     -10.764  15.164  65.534  1.00  0.00    -0.365 A  
HETATM    7  N   UNL     1     -11.396  15.043  64.332  1.00  0.00    -0.257 NA 
HETATM    8  C   UNL     1     -12.209  13.971  64.194  1.00  0.00    -0.396 A  
HETATM    9  C   UNL     1     -12.455  13.045  65.200  1.00  0.00    -0.552 A  
HETATM   10  C   UNL     1     -11.812  13.214  66.421  1.00  0.00    -0.400 A  
HETATM   11  C   UNL     1     -10.905  14.262  66.575  1.00  0.00    -0.304 A  
BRANCH  10  12
HETATM   12  O   UNL     1     -12.109  12.307  67.423  1.00  0.00    -0.533 OA 
BRANCH  12  13
HETATM   13  C   UNL     1     -11.086  11.510  67.898  1.00  0.00    -0.256 A  
HETATM   14  C   UNL     1     -10.047  12.013  68.672  1.00  0.00    -0.170 A  
HETATM   15  C   UNL     1      -8.966  11.199  68.994  1.00  0.00    -0.027 A  
HETATM   16  C   UNL     1      -8.944   9.839  68.665  1.00  0.00    -0.130 A  
HETATM   17  C   UNL     1     -10.035   9.315  67.966  1.00  0.00    -0.216 A  
HETATM   18  C   UNL     1     -11.104  10.149  67.585  1.00  0.00    -0.275 A  
BRANCH  16  19
HETATM   19  N   UNL     1      -7.856   8.995  69.015  1.00  0.00    -0.089 N  
HETATM   20  H   UNL     1      -7.078   8.907  68.361  1.00  0.00     0.000 HD 
BRANCH  19  21
HETATM   21  C   UNL     1      -7.804   8.283  70.207  1.00  0.00    -0.092 C  
HETATM   22  O   UNL     1      -8.343   8.670  71.237  1.00  0.00    -0.139 OA 
BRANCH  21  23
HETATM   23  N   UNL     1      -7.082   7.106  70.133  1.00  0.00    -0.065 N  
HETATM   24  H   UNL     1      -6.280   6.989  70.753  1.00  0.00     0.000 HD 
BRANCH  23  25
HETATM   25  C   UNL     1      -7.402   6.046  69.229  1.00  0.00    -0.083 A  
HETATM   26  C   UNL     1      -8.343   6.182  68.201  1.00  0.00    -0.114 A  
HETATM   27  C   UNL     1      -8.736   5.109  67.382  1.00  0.00    -0.103 A  
HETATM   28  C   UNL     1      -9.826   5.319  66.366  1.00  0.00    -0.186 C  
HETATM   29  C   UNL     1      -8.106   3.882  67.565  1.00  0.00    -0.090 A  
HETATM   30  F   UNL     1     -10.895   4.494  66.551  1.00  0.00    -0.219 F  
HETATM   31  F   UNL     1      -9.405   5.119  65.086  1.00  0.00    -0.160 F  
HETATM   32  F   UNL     1     -10.346   6.581  66.375  1.00  0.00    -0.229 F  
HETATM   33 CL   UNL     1      -8.492   2.506  66.600  1.00  0.00    -0.096 Cl 
HETATM   34  C   UNL     1      -7.121   3.738  68.553  1.00  0.00    -0.051 A  
HETATM   35  C   UNL     1      -6.772   4.810  69.385  1.00  0.00    -0.045 A  
ENDBRANCH  23  25
ENDBRANCH  21  23
ENDBRANCH  19  21
ENDBRANCH  16  19
ENDBRANCH  12  13
ENDBRANCH  10  12
ENDBRANCH   3   6
TORSDOF 7
ENDMDL
MODEL      262
REMARK 921   NORMALIZED FREE ENERGY PREDICTED BY IDOCK:   -4.11 KCAL/MOL
REMARK 922        TOTAL FREE ENERGY PREDICTED BY IDOCK:   -7.65 KCAL/MOL
REMARK 923 INTER-LIGAND FREE ENERGY PREDICTED BY IDOCK:   -5.74 KCAL/MOL
REMARK 924 INTRA-LIGAND FREE ENERGY PREDICTED BY IDOCK:   -1.91 KCAL/MOL
REMARK 927      BINDING AFFINITY PREDICTED BY RF-SCORE:    0.00 PKD
ROOT
HETATM    1  C   UNL     1      -8.099   9.520  63.465  1.00  0.00    -0.151 C  
HETATM    2  N   UNL     1      -7.865   8.411  64.347  1.00  0.00    -0.134 N  
HETATM    3  C   UNL     1      -7.035   8.525  65.441  1.00  0.00    -0.078 C  
HETATM    4  H   UNL     1      -8.322   7.519  64.159  1.00  0.00     0.000 HD 
HETATM    5  O   UNL     1      -6.435   9.555  65.732  1.00  0.00    -0.070 OA 
ENDROOT
BRANCH   3   6
HETATM    6  C   UNL     1      -6.927   7.294  66.290  1.00  0.00    -0.066 A  
HETATM    7  N   UNL     1      -5.673   6.846  66.581  1.00  0.00    -0.018 NA 
HETATM    8  C   UNL     1      -5.602   5.697  67.290  1.00  0.00    -0.012 A  
HETATM    9  C   UNL     1      -6.708   4.955  67.686  1.00  0.00    -0.055 A  
HETATM   10  C   UNL     1      -7.971   5.430  67.351  1.00  0.00    -0.101 A  
HETATM   11  C   UNL     1      -8.087   6.651  66.688  1.00  0.00    -0.110 A  
BRANCH  10  12
HETATM   12  O   UNL     1      -9.055   4.651  67.712  1.00  0.00    -0.110 OA 
BRANCH  12  13
HETATM   13  C   UNL     1      -9.818   5.062  68.788  1.00  0.00    -0.168 A  
HETATM   14  C   UNL     1     -10.921   5.896  68.645  1.00  0.00    -0.289 A  
HETATM   15  C   UNL     1     -11.559   6.402  69.772  1.00  0.00    -0.397 A  
HETATM   16  C   UNL     1     -11.201   5.999  71.063  1.00  0.00    -0.263 A  
HETATM   17  C   UNL     1     -10.149   5.088  71.200  1.00  0.00    -0.293 A  
HETATM   18  C   UNL     1      -9.461   4.620  70.064  1.00  0.00    -0.242 A  
BRANCH  16  19
HETATM   19  N   UNL     1     -11.865   6.490  72.219  1.00  0.00    -0.426 N  
HETATM   20  H   UNL     1     -12.352   5.824  72.821  1.00  0.00     0.000 HD 
BRANCH  19  21
HETATM   21  C   UNL     1     -11.883   7.835  72.568  1.00  0.00    -0.302 C  
HETATM   22  O   UNL     1     -12.915   8.440  72.829  1.00  0.00    -0.195 OA 
BRANCH  21  23
HETATM   23  N   UNL     1     -10.636   8.432  72.583  1.00  0.00    -0.305 N  
HETATM   24  H   UNL     1     -10.107   8.428  73.455  1.00  0.00     0.000 HD 
BRANCH  23  25
HETATM   25  C   UNL     1     -10.052   9.056  71.437  1.00  0.00    -0.329 A  
HETATM   26  C   UNL     1      -8.677   9.029  71.175  1.00  0.00    -0.266 A  
HETATM   27  C   UNL     1      -8.092   9.732  70.108  1.00  0.00    -0.202 A  
HETATM   28  C   UNL     1      -6.595   9.729  69.956  1.00  0.00    -0.081 C  
HETATM   29  C   UNL     1      -8.933  10.424  69.241  1.00  0.00    -0.163 A  
HETATM   30  F   UNL     1      -6.051  10.978  69.997  1.00  0.00    -0.068 F  
HETATM   31  F   UNL     1      -6.179   9.168  68.786  1.00  0.00    -0.043 F  
HETATM   32  F   UNL     1      -5.948   9.029  70.934  1.00  0.00    -0.032 F  
HETATM   33 CL   UNL     1      -8.324  11.299  67.885  1.00  0.00    -0.127 Cl 
HETATM   34  C   UNL     1     -10.319  10.419  69.453  1.00  0.00    -0.259 A  
HETATM   35  C   UNL     1     -10.879   9.744  70.547  1.00  0.00    -0.387 A  
ENDBRANCH  23  25
ENDBRANCH  21  23
ENDBRANCH  19  21
ENDBRANCH  16  19
ENDBRANCH  12  13
ENDBRANCH  10  12
ENDBRANCH   3   6
TORSDOF 7
ENDMDL
MODEL      263
REMARK 921   NORMALIZED FREE ENERGY PREDICTED BY IDOCK:   -4.11 KCAL/MOL
REMARK 922        TOTAL FREE ENERGY PREDICTED BY IDOCK:   -7.64 KCAL/MOL
REMARK 923 INTER-LIGAND FREE ENERGY PREDICTED BY IDOCK:   -7.13 KCAL/MOL
REMARK 924 INTRA-LIGAND FREE ENERGY PREDICTED BY IDOCK:   -0.52 KCAL/MOL
REMARK 927      BINDING AFFINITY PREDICTED BY RF-SCORE:    0.00 PKD
ROOT
HETATM    1  C   UNL     1      -5.197  18.127  64.617  1.00  0.00     0.065 C  
HETATM    2  N   UNL     1      -6.536  18.238  65.125  1.00  0.00    -0.043 N  
HETATM    3  C   UNL     1      -6.827  19.022  66.221  1.00  0.00    -0.219 C  
HETATM    4  H   UNL     1      -7.288  17.725  64.665  1.00  0.00     0.000 HD 
HETATM    5  O   UNL     1      -5.982  19.659  66.841  1.00  0.00    -0.174 OA 
ENDROOT
BRANCH   3   6
HETATM    6  C   UNL     1      -8.276  19.070  66.603  1.00  0.00    -0.291 A  
HETATM    7  N   UNL     1      -8.993  20.154  66.192  1.00  0.00    -0.263 NA 
HETATM    8  C   UNL     1     -10.279  20.208  66.606  1.00  0.00    -0.427 A  
HETATM    9  C   UNL     1     -10.870  19.265  67.437  1.00  0.00    -0.554 A  
HETATM   10  C   UNL     1     -10.102  18.185  67.857  1.00  0.00    -0.357 A  
HETATM   11  C   UNL     1      -8.796  18.054  67.387  1.00  0.00    -0.245 A  
BRANCH  10  12
HETATM   12  O   UNL     1     -10.696  17.284  68.723  1.00  0.00    -0.325 OA 
BRANCH  12  13
HETATM   13  C   UNL     1     -10.411  15.943  68.557  1.00  0.00    -0.241 A  
HETATM   14  C   UNL     1      -9.239  15.366  69.030  1.00  0.00    -0.235 A  
HETATM   15  C   UNL     1      -8.933  14.050  68.704  1.00  0.00    -0.104 A  
HETATM   16  C   UNL     1      -9.834  13.236  68.008  1.00  0.00    -0.230 A  
HETATM   17  C   UNL     1     -11.053  13.793  67.613  1.00  0.00    -0.292 A  
HETATM   18  C   UNL     1     -11.341  15.143  67.890  1.00  0.00    -0.346 A  
BRANCH  16  19
HETATM   19  N   UNL     1      -9.541  11.881  67.694  1.00  0.00    -0.182 N  
HETATM   20  H   UNL     1      -8.833  11.395  68.245  1.00  0.00     0.000 HD 
BRANCH  19  21
HETATM   21  C   UNL     1     -10.176  11.187  66.671  1.00  0.00    -0.232 C  
HETATM   22  O   UNL     1     -10.047  11.481  65.489  1.00  0.00    -0.223 OA 
BRANCH  21  23
HETATM   23  N   UNL     1     -10.973  10.144  67.105  1.00  0.00    -0.195 N  
HETATM   24  H   UNL     1     -11.976  10.191  66.920  1.00  0.00     0.000 HD 
BRANCH  23  25
HETATM   25  C   UNL     1     -10.463   9.004  67.800  1.00  0.00    -0.245 A  
HETATM   26  C   UNL     1     -10.105   7.816  67.151  1.00  0.00    -0.328 A  
HETATM   27  C   UNL     1      -9.706   6.660  67.845  1.00  0.00    -0.130 A  
HETATM   28  C   UNL     1      -9.433   5.396  67.076  1.00  0.00    -0.132 C  
HETATM   29  C   UNL     1      -9.600   6.734  69.231  1.00  0.00    -0.144 A  
HETATM   30  F   UNL     1     -10.225   4.356  67.460  1.00  0.00    -0.193 F  
HETATM   31  F   UNL     1      -8.147   4.965  67.200  1.00  0.00    -0.103 F  
HETATM   32  F   UNL     1      -9.638   5.520  65.732  1.00  0.00    -0.173 F  
HETATM   33 CL   UNL     1      -9.095   5.385  70.179  1.00  0.00    -0.155 Cl 
HETATM   34  C   UNL     1      -9.901   7.931  69.897  1.00  0.00    -0.182 A  
HETATM   35  C   UNL     1     -10.335   9.060  69.189  1.00  0.00    -0.229 A  
ENDBRANCH  23  25
ENDBRANCH  21  23
ENDBRANCH  19  21
ENDBRANCH  16  19
ENDBRANCH  12  13
ENDBRANCH  10  12
ENDBRANCH   3   6
TORSDOF 7
ENDMDL
MODEL      264
REMARK 921   NORMALIZED FREE ENERGY PREDICTED BY IDOCK:   -4.09 KCAL/MOL
REMARK 922        TOTAL FREE ENERGY PREDICTED BY IDOCK:   -7.62 KCAL/MOL
REMARK 923 INTER-LIGAND FREE ENERGY PREDICTED BY IDOCK:   -6.95 KCAL/MOL
REMARK 924 INTRA-LIGAND FREE ENERGY PREDICTED BY IDOCK:   -0.67 KCAL/MOL
REMARK 927      BINDING AFFINITY PREDICTED BY RF-SCORE:    0.00 PKD
ROOT
HETATM    1  C   UNL     1      -8.721  10.334  62.978  1.00  0.00    -0.208 C  
HETATM    2  N   UNL     1      -9.250  11.130  64.051  1.00  0.00    -0.359 N  
HETATM    3  C   UNL     1     -10.427  11.833  63.912  1.00  0.00    -0.390 C  
HETATM    4  H   UNL     1      -8.743  11.176  64.934  1.00  0.00     0.000 HD 
HETATM    5  O   UNL     1     -11.091  11.845  62.881  1.00  0.00    -0.081 OA 
ENDROOT
BRANCH   3   6
HETATM    6  C   UNL     1     -10.871  12.580  65.134  1.00  0.00    -0.288 A  
HETATM    7  N   UNL     1     -11.597  13.717  64.940  1.00  0.00    -0.332 NA 
HETATM    8  C   UNL     1     -11.927  14.409  66.054  1.00  0.00    -0.367 A  
HETATM    9  C   UNL     1     -11.539  14.050  67.338  1.00  0.00    -0.397 A  
HETATM   10  C   UNL     1     -10.778  12.897  67.496  1.00  0.00    -0.226 A  
HETATM   11  C   UNL     1     -10.484  12.115  66.380  1.00  0.00    -0.261 A  
BRANCH  10  12
HETATM   12  O   UNL     1     -10.362  12.585  68.778  1.00  0.00    -0.204 OA 
BRANCH  12  13
HETATM   13  C   UNL     1     -10.667  11.332  69.271  1.00  0.00    -0.179 A  
HETATM   14  C   UNL     1      -9.804  10.250  69.144  1.00  0.00    -0.228 A  
HETATM   15  C   UNL     1     -10.225   8.979  69.520  1.00  0.00    -0.205 A  
HETATM   16  C   UNL     1     -11.459   8.767  70.145  1.00  0.00    -0.020 A  
HETATM   17  C   UNL     1     -12.287   9.874  70.355  1.00  0.00    -0.148 A  
HETATM   18  C   UNL     1     -11.890  11.153  69.921  1.00  0.00    -0.439 A  
BRANCH  16  19
HETATM   19  N   UNL     1     -11.885   7.476  70.558  1.00  0.00    -0.494 N  
HETATM   20  H   UNL     1     -11.824   6.707  69.891  1.00  0.00     0.000 HD 
BRANCH  19  21
HETATM   21  C   UNL     1     -12.380   7.214  71.830  1.00  0.00    -0.317 C  
HETATM   22  O   UNL     1     -13.554   7.380  72.134  1.00  0.00    -0.142 OA 
BRANCH  21  23
HETATM   23  N   UNL     1     -11.428   6.761  72.725  1.00  0.00    -0.460 N  
HETATM   24  H   UNL     1     -11.745   6.348  73.603  1.00  0.00     0.000 HD 
BRANCH  23  25
HETATM   25  C   UNL     1     -10.022   6.844  72.483  1.00  0.00    -0.169 A  
HETATM   26  C   UNL     1      -9.386   6.141  71.452  1.00  0.00    -0.163 A  
HETATM   27  C   UNL     1      -7.991   6.138  71.280  1.00  0.00    -0.113 A  
HETATM   28  C   UNL     1      -7.382   5.276  70.208  1.00  0.00    -0.067 C  
HETATM   29  C   UNL     1      -7.226   6.927  72.135  1.00  0.00    -0.082 A  
HETATM   30  F   UNL     1      -6.497   4.362  70.696  1.00  0.00    -0.025 F  
HETATM   31  F   UNL     1      -6.709   5.995  69.266  1.00  0.00    -0.049 F  
HETATM   32  F   UNL     1      -8.298   4.545  69.509  1.00  0.00    -0.071 F  
HETATM   33 CL   UNL     1      -5.509   7.018  71.999  1.00  0.00    -0.036 Cl 
HETATM   34  C   UNL     1      -7.847   7.682  73.140  1.00  0.00    -0.142 A  
HETATM   35  C   UNL     1      -9.237   7.640  73.318  1.00  0.00    -0.285 A  
ENDBRANCH  23  25
ENDBRANCH  21  23
ENDBRANCH  19  21
ENDBRANCH  16  19
ENDBRANCH  12  13
ENDBRANCH  10  12
ENDBRANCH   3   6
TORSDOF 7
ENDMDL
MODEL      265
REMARK 921   NORMALIZED FREE ENERGY PREDICTED BY IDOCK:   -4.09 KCAL/MOL
REMARK 922        TOTAL FREE ENERGY PREDICTED BY IDOCK:   -7.61 KCAL/MOL
REMARK 923 INTER-LIGAND FREE ENERGY PREDICTED BY IDOCK:   -6.52 KCAL/MOL
REMARK 924 INTRA-LIGAND FREE ENERGY PREDICTED BY IDOCK:   -1.10 KCAL/MOL
REMARK 927      BINDING AFFINITY PREDICTED BY RF-SCORE:    0.00 PKD
ROOT
HETATM    1  C   UNL     1      -9.087  11.126  62.710  1.00  0.00    -0.323 C  
HETATM    2  N   UNL     1      -9.534  11.338  64.059  1.00  0.00    -0.342 N  
HETATM    3  C   UNL     1     -10.579  12.189  64.345  1.00  0.00    -0.323 C  
HETATM    4  H   UNL     1      -9.068  10.847  64.821  1.00  0.00     0.000 HD 
HETATM    5  O   UNL     1     -11.185  12.828  63.491  1.00  0.00    -0.450 OA 
ENDROOT
BRANCH   3   6
HETATM    6  C   UNL     1     -10.957  12.270  65.794  1.00  0.00    -0.301 A  
HETATM    7  N   UNL     1     -11.977  13.110  66.125  1.00  0.00    -0.406 NA 
HETATM    8  C   UNL     1     -12.254  13.217  67.445  1.00  0.00    -0.140 A  
HETATM    9  C   UNL     1     -11.544  12.566  68.445  1.00  0.00    -0.368 A  
HETATM   10  C   UNL     1     -10.494  11.735  68.071  1.00  0.00    -0.199 A  
HETATM   11  C   UNL     1     -10.229  11.538  66.717  1.00  0.00    -0.254 A  
BRANCH  10  12
HETATM   12  O   UNL     1      -9.771  11.134  69.086  1.00  0.00    -0.149 OA 
BRANCH  12  13
HETATM   13  C   UNL     1      -9.998   9.796  69.338  1.00  0.00    -0.205 A  
HETATM   14  C   UNL     1     -10.392   8.906  68.346  1.00  0.00    -0.237 A  
HETATM   15  C   UNL     1     -10.754   7.607  68.683  1.00  0.00    -0.095 A  
HETATM   16  C   UNL     1     -10.618   7.119  69.987  1.00  0.00    -0.232 A  
HETATM   17  C   UNL     1     -10.132   7.991  70.967  1.00  0.00    -0.213 A  
HETATM   18  C   UNL     1      -9.822   9.325  70.641  1.00  0.00    -0.332 A  
BRANCH  16  19
HETATM   19  N   UNL     1     -10.959   5.785  70.335  1.00  0.00    -0.291 N  
HETATM   20  H   UNL     1     -11.913   5.465  70.163  1.00  0.00     0.000 HD 
BRANCH  19  21
HETATM   21  C   UNL     1     -10.053   4.894  70.898  1.00  0.00    -0.222 C  
HETATM   22  O   UNL     1     -10.301   4.237  71.901  1.00  0.00    -0.160 OA 
BRANCH  21  23
HETATM   23  N   UNL     1      -8.842   4.824  70.234  1.00  0.00    -0.099 N  
HETATM   24  H   UNL     1      -8.027   5.265  70.661  1.00  0.00     0.000 HD 
BRANCH  23  25
HETATM   25  C   UNL     1      -8.674   4.163  68.977  1.00  0.00    -0.087 A  
HETATM   26  C   UNL     1      -8.747   4.833  67.750  1.00  0.00    -0.107 A  
HETATM   27  C   UNL     1      -8.689   4.167  66.514  1.00  0.00    -0.115 A  
HETATM   28  C   UNL     1      -8.874   4.953  65.244  1.00  0.00    -0.152 C  
HETATM   29  C   UNL     1      -8.483   2.791  66.522  1.00  0.00    -0.103 A  
HETATM   30  F   UNL     1      -9.928   4.520  64.496  1.00  0.00    -0.161 F  
HETATM   31  F   UNL     1      -7.783   4.911  64.429  1.00  0.00    -0.073 F  
HETATM   32  F   UNL     1      -9.110   6.281  65.453  1.00  0.00    -0.119 F  
HETATM   33 CL   UNL     1      -8.371   1.877  65.063  1.00  0.00    -0.081 Cl 
HETATM   34  C   UNL     1      -8.353   2.107  67.739  1.00  0.00    -0.081 A  
HETATM   35  C   UNL     1      -8.452   2.785  68.962  1.00  0.00    -0.100 A  
ENDBRANCH  23  25
ENDBRANCH  21  23
ENDBRANCH  19  21
ENDBRANCH  16  19
ENDBRANCH  12  13
ENDBRANCH  10  12
ENDBRANCH   3   6
TORSDOF 7
ENDMDL
MODEL      266
REMARK 921   NORMALIZED FREE ENERGY PREDICTED BY IDOCK:   -4.09 KCAL/MOL
REMARK 922        TOTAL FREE ENERGY PREDICTED BY IDOCK:   -7.61 KCAL/MOL
REMARK 923 INTER-LIGAND FREE ENERGY PREDICTED BY IDOCK:   -6.34 KCAL/MOL
REMARK 924 INTRA-LIGAND FREE ENERGY PREDICTED BY IDOCK:   -1.28 KCAL/MOL
REMARK 927      BINDING AFFINITY PREDICTED BY RF-SCORE:    0.00 PKD
ROOT
HETATM    1  C   UNL     1     -13.885  14.987  71.883  1.00  0.00    -0.474 C  
HETATM    2  N   UNL     1     -13.079  14.743  70.719  1.00  0.00    -0.484 N  
HETATM    3  C   UNL     1     -11.984  15.527  70.425  1.00  0.00    -0.367 C  
HETATM    4  H   UNL     1     -13.321  13.973  70.096  1.00  0.00     0.000 HD 
HETATM    5  O   UNL     1     -11.631  16.481  71.111  1.00  0.00    -0.330 OA 
ENDROOT
BRANCH   3   6
HETATM    6  C   UNL     1     -11.218  15.120  69.202  1.00  0.00    -0.279 A  
HETATM    7  N   UNL     1     -11.423  15.847  68.068  1.00  0.00    -0.292 NA 
HETATM    8  C   UNL     1     -10.773  15.419  66.962  1.00  0.00    -0.321 A  
HETATM    9  C   UNL     1      -9.968  14.288  66.920  1.00  0.00    -0.263 A  
HETATM   10  C   UNL     1      -9.801  13.557  68.090  1.00  0.00    -0.237 A  
HETATM   11  C   UNL     1     -10.392  14.011  69.269  1.00  0.00     0.018 A  
BRANCH  10  12
HETATM   12  O   UNL     1      -9.034  12.407  68.014  1.00  0.00    -0.181 OA 
BRANCH  12  13
HETATM   13  C   UNL     1      -9.566  11.240  68.524  1.00  0.00    -0.198 A  
HETATM   14  C   UNL     1      -8.923  10.494  69.506  1.00  0.00    -0.054 A  
HETATM   15  C   UNL     1      -9.427   9.251  69.873  1.00  0.00    -0.214 A  
HETATM   16  C   UNL     1     -10.641   8.771  69.371  1.00  0.00    -0.209 A  
HETATM   17  C   UNL     1     -11.332   9.566  68.452  1.00  0.00     0.196 A  
HETATM   18  C   UNL     1     -10.796  10.798  68.032  1.00  0.00    -0.302 A  
BRANCH  16  19
HETATM   19  N   UNL     1     -11.176   7.514  69.762  1.00  0.00    -0.446 N  
HETATM   20  H   UNL     1     -11.146   6.742  69.095  1.00  0.00     0.000 HD 
BRANCH  19  21
HETATM   21  C   UNL     1     -11.740   7.288  71.012  1.00  0.00    -0.307 C  
HETATM   22  O   UNL     1     -12.547   8.052  71.526  1.00  0.00    -0.305 OA 
BRANCH  21  23
HETATM   23  N   UNL     1     -11.301   6.131  71.629  1.00  0.00    -0.287 N  
HETATM   24  H   UNL     1     -11.973   5.583  72.166  1.00  0.00     0.000 HD 
BRANCH  23  25
HETATM   25  C   UNL     1      -9.951   5.665  71.553  1.00  0.00    -0.180 A  
HETATM   26  C   UNL     1      -8.851   6.470  71.873  1.00  0.00    -0.134 A  
HETATM   27  C   UNL     1      -7.522   6.048  71.695  1.00  0.00    -0.094 A  
HETATM   28  C   UNL     1      -6.399   7.011  71.972  1.00  0.00    -0.044 C  
HETATM   29  C   UNL     1      -7.304   4.749  71.246  1.00  0.00    -0.068 A  
HETATM   30  F   UNL     1      -5.607   7.233  70.885  1.00  0.00    -0.026 F  
HETATM   31  F   UNL     1      -5.573   6.592  72.970  1.00  0.00    -0.035 F  
HETATM   32  F   UNL     1      -6.825   8.249  72.359  1.00  0.00    -0.068 F  
HETATM   33 CL   UNL     1      -5.714   4.119  71.017  1.00  0.00    -0.012 Cl 
HETATM   34  C   UNL     1      -8.391   3.907  70.971  1.00  0.00    -0.085 A  
HETATM   35  C   UNL     1      -9.709   4.361  71.118  1.00  0.00    -0.256 A  
ENDBRANCH  23  25
ENDBRANCH  21  23
ENDBRANCH  19  21
ENDBRANCH  16  19
ENDBRANCH  12  13
ENDBRANCH  10  12
ENDBRANCH   3   6
TORSDOF 7
ENDMDL
MODEL      267
REMARK 921   NORMALIZED FREE ENERGY PREDICTED BY IDOCK:   -4.09 KCAL/MOL
REMARK 922        TOTAL FREE ENERGY PREDICTED BY IDOCK:   -7.61 KCAL/MOL
REMARK 923 INTER-LIGAND FREE ENERGY PREDICTED BY IDOCK:   -6.20 KCAL/MOL
REMARK 924 INTRA-LIGAND FREE ENERGY PREDICTED BY IDOCK:   -1.41 KCAL/MOL
REMARK 927      BINDING AFFINITY PREDICTED BY RF-SCORE:    0.00 PKD
ROOT
HETATM    1  C   UNL     1     -12.465  15.305  68.868  1.00  0.00     0.181 C  
HETATM    2  N   UNL     1     -11.079  15.562  68.591  1.00  0.00    -0.279 N  
HETATM    3  C   UNL     1     -10.147  15.648  69.603  1.00  0.00    -0.291 C  
HETATM    4  H   UNL     1     -10.778  15.683  67.624  1.00  0.00     0.000 HD 
HETATM    5  O   UNL     1     -10.426  15.530  70.791  1.00  0.00    -0.213 OA 
ENDROOT
BRANCH   3   6
HETATM    6  C   UNL     1      -8.736  15.876  69.151  1.00  0.00    -0.256 A  
HETATM    7  N   UNL     1      -8.451  17.081  68.581  1.00  0.00    -0.259 NA 
HETATM    8  C   UNL     1      -7.188  17.237  68.122  1.00  0.00    -0.196 A  
HETATM    9  C   UNL     1      -6.216  16.247  68.164  1.00  0.00    -0.131 A  
HETATM   10  C   UNL     1      -6.549  15.022  68.731  1.00  0.00    -0.094 A  
HETATM   11  C   UNL     1      -7.816  14.850  69.287  1.00  0.00    -0.158 A  
BRANCH  10  12
HETATM   12  O   UNL     1      -5.580  14.035  68.719  1.00  0.00    -0.077 OA 
BRANCH  12  13
HETATM   13  C   UNL     1      -5.985  12.733  68.504  1.00  0.00    -0.062 A  
HETATM   14  C   UNL     1      -5.995  11.778  69.514  1.00  0.00    -0.092 A  
HETATM   15  C   UNL     1      -6.265  10.448  69.209  1.00  0.00    -0.046 A  
HETATM   16  C   UNL     1      -6.652  10.052  67.924  1.00  0.00    -0.063 A  
HETATM   17  C   UNL     1      -6.731  11.031  66.930  1.00  0.00    -0.120 A  
HETATM   18  C   UNL     1      -6.400  12.369  67.221  1.00  0.00    -0.142 A  
BRANCH  16  19
HETATM   19  N   UNL     1      -6.957   8.700  67.610  1.00  0.00    -0.074 N  
HETATM   20  H   UNL     1      -6.194   8.025  67.570  1.00  0.00     0.000 HD 
BRANCH  19  21
HETATM   21  C   UNL     1      -8.249   8.255  67.356  1.00  0.00    -0.121 C  
HETATM   22  O   UNL     1      -8.760   8.295  66.244  1.00  0.00    -0.134 OA 
BRANCH  21  23
HETATM   23  N   UNL     1      -8.912   7.775  68.471  1.00  0.00    -0.134 N  
HETATM   24  H   UNL     1      -8.720   6.821  68.776  1.00  0.00     0.000 HD 
BRANCH  23  25
HETATM   25  C   UNL     1      -9.853   8.551  69.217  1.00  0.00    -0.185 A  
HETATM   26  C   UNL     1     -10.727   7.988  70.155  1.00  0.00    -0.244 A  
HETATM   27  C   UNL     1     -11.725   8.732  70.809  1.00  0.00    -0.253 A  
HETATM   28  C   UNL     1     -12.686   8.029  71.729  1.00  0.00    -0.329 C  
HETATM   29  C   UNL     1     -11.790  10.099  70.557  1.00  0.00    -0.321 A  
HETATM   30  F   UNL     1     -13.987   8.168  71.349  1.00  0.00    -0.370 F  
HETATM   31  F   UNL     1     -12.612   8.472  73.015  1.00  0.00    -0.381 F  
HETATM   32  F   UNL     1     -12.481   6.682  71.806  1.00  0.00    -0.361 F  
HETATM   33 CL   UNL     1     -12.958  11.113  71.323  1.00  0.00    -0.487 Cl 
HETATM   34  C   UNL     1     -10.889  10.694  69.662  1.00  0.00    -0.318 A  
HETATM   35  C   UNL     1      -9.927   9.926  68.991  1.00  0.00    -0.193 A  
ENDBRANCH  23  25
ENDBRANCH  21  23
ENDBRANCH  19  21
ENDBRANCH  16  19
ENDBRANCH  12  13
ENDBRANCH  10  12
ENDBRANCH   3   6
TORSDOF 7
ENDMDL
MODEL      268
REMARK 921   NORMALIZED FREE ENERGY PREDICTED BY IDOCK:   -4.09 KCAL/MOL
REMARK 922        TOTAL FREE ENERGY PREDICTED BY IDOCK:   -7.60 KCAL/MOL
REMARK 923 INTER-LIGAND FREE ENERGY PREDICTED BY IDOCK:   -6.80 KCAL/MOL
REMARK 924 INTRA-LIGAND FREE ENERGY PREDICTED BY IDOCK:   -0.81 KCAL/MOL
REMARK 927      BINDING AFFINITY PREDICTED BY RF-SCORE:    0.00 PKD
ROOT
HETATM    1  C   UNL     1     -10.791   3.079  63.350  1.00  0.00    -0.216 C  
HETATM    2  N   UNL     1     -10.000   4.120  63.946  1.00  0.00    -0.313 N  
HETATM    3  C   UNL     1      -8.754   3.862  64.475  1.00  0.00    -0.120 C  
HETATM    4  H   UNL     1     -10.369   5.070  63.980  1.00  0.00     0.000 HD 
HETATM    5  O   UNL     1      -8.242   2.748  64.490  1.00  0.00    -0.085 OA 
ENDROOT
BRANCH   3   6
HETATM    6  C   UNL     1      -8.034   5.059  65.022  1.00  0.00    -0.101 A  
HETATM    7  N   UNL     1      -7.075   4.832  65.963  1.00  0.00    -0.073 NA 
HETATM    8  C   UNL     1      -6.488   5.931  66.489  1.00  0.00    -0.047 A  
HETATM    9  C   UNL     1      -6.835   7.234  66.158  1.00  0.00    -0.057 A  
HETATM   10  C   UNL     1      -7.835   7.428  65.212  1.00  0.00    -0.121 A  
HETATM   11  C   UNL     1      -8.409   6.320  64.590  1.00  0.00    -0.026 A  
BRANCH  10  12
HETATM   12  O   UNL     1      -8.198   8.734  64.934  1.00  0.00    -0.141 OA 
BRANCH  12  13
HETATM   13  C   UNL     1      -8.622   9.525  65.983  1.00  0.00    -0.133 A  
HETATM   14  C   UNL     1      -9.736   9.210  66.752  1.00  0.00    -0.271 A  
HETATM   15  C   UNL     1     -10.207  10.117  67.694  1.00  0.00    -0.246 A  
HETATM   16  C   UNL     1      -9.520  11.301  67.985  1.00  0.00    -0.173 A  
HETATM   17  C   UNL     1      -8.348  11.571  67.273  1.00  0.00    -0.154 A  
HETATM   18  C   UNL     1      -7.900  10.684  66.276  1.00  0.00    -0.150 A  
BRANCH  16  19
HETATM   19  N   UNL     1      -9.980  12.220  68.966  1.00  0.00    -0.417 N  
HETATM   20  H   UNL     1      -9.641  12.121  69.923  1.00  0.00     0.000 HD 
BRANCH  19  21
HETATM   21  C   UNL     1     -10.869  13.249  68.681  1.00  0.00    -0.259 C  
HETATM   22  O   UNL     1     -11.795  13.127  67.888  1.00  0.00    -0.342 OA 
BRANCH  21  23
HETATM   23  N   UNL     1     -10.611  14.425  69.361  1.00  0.00    -0.401 N  
HETATM   24  H   UNL     1     -10.743  14.439  70.373  1.00  0.00     0.000 HD 
BRANCH  23  25
HETATM   25  C   UNL     1     -10.170  15.622  68.716  1.00  0.00    -0.215 A  
HETATM   26  C   UNL     1      -8.926  16.210  68.975  1.00  0.00    -0.247 A  
HETATM   27  C   UNL     1      -8.537  17.443  68.423  1.00  0.00    -0.270 A  
HETATM   28  C   UNL     1      -7.222  18.051  68.831  1.00  0.00    -0.259 C  
HETATM   29  C   UNL     1      -9.405  18.061  67.529  1.00  0.00    -0.257 A  
HETATM   30  F   UNL     1      -7.358  19.283  69.398  1.00  0.00    -0.365 F  
HETATM   31  F   UNL     1      -6.359  18.202  67.788  1.00  0.00    -0.170 F  
HETATM   32  F   UNL     1      -6.540  17.310  69.752  1.00  0.00    -0.244 F  
HETATM   33 CL   UNL     1      -9.018  19.563  66.773  1.00  0.00    -0.358 Cl 
HETATM   34  C   UNL     1     -10.633  17.463  67.213  1.00  0.00    -0.284 A  
HETATM   35  C   UNL     1     -11.019  16.252  67.805  1.00  0.00    -0.281 A  
ENDBRANCH  23  25
ENDBRANCH  21  23
ENDBRANCH  19  21
ENDBRANCH  16  19
ENDBRANCH  12  13
ENDBRANCH  10  12
ENDBRANCH   3   6
TORSDOF 7
ENDMDL
MODEL      269
REMARK 921   NORMALIZED FREE ENERGY PREDICTED BY IDOCK:   -4.06 KCAL/MOL
REMARK 922        TOTAL FREE ENERGY PREDICTED BY IDOCK:   -7.56 KCAL/MOL
REMARK 923 INTER-LIGAND FREE ENERGY PREDICTED BY IDOCK:   -6.98 KCAL/MOL
REMARK 924 INTRA-LIGAND FREE ENERGY PREDICTED BY IDOCK:   -0.58 KCAL/MOL
REMARK 927      BINDING AFFINITY PREDICTED BY RF-SCORE:    0.00 PKD
ROOT
HETATM    1  C   UNL     1      -6.346   2.817  69.379  1.00  0.00    -0.029 C  
HETATM    2  N   UNL     1      -7.532   3.611  69.539  1.00  0.00    -0.052 N  
HETATM    3  C   UNL     1      -7.485   4.988  69.510  1.00  0.00    -0.057 C  
HETATM    4  H   UNL     1      -8.429   3.146  69.676  1.00  0.00     0.000 HD 
HETATM    5  O   UNL     1      -6.448   5.627  69.364  1.00  0.00    -0.041 OA 
ENDROOT
BRANCH   3   6
HETATM    6  C   UNL     1      -8.811   5.675  69.647  1.00  0.00    -0.116 A  
HETATM    7  N   UNL     1      -9.637   5.243  70.641  1.00  0.00    -0.166 NA 
HETATM    8  C   UNL     1     -10.853   5.832  70.701  1.00  0.00    -0.267 A  
HETATM    9  C   UNL     1     -11.300   6.790  69.801  1.00  0.00    -0.350 A  
HETATM   10  C   UNL     1     -10.440   7.189  68.784  1.00  0.00    -0.202 A  
HETATM   11  C   UNL     1      -9.150   6.663  68.737  1.00  0.00    -0.131 A  
BRANCH  10  12
HETATM   12  O   UNL     1     -10.924   8.110  67.872  1.00  0.00    -0.031 OA 
BRANCH  12  13
HETATM   13  C   UNL     1     -10.728   9.450  68.139  1.00  0.00    -0.178 A  
HETATM   14  C   UNL     1     -11.350  10.098  69.199  1.00  0.00    -0.198 A  
HETATM   15  C   UNL     1     -11.238  11.478  69.331  1.00  0.00    -0.324 A  
HETATM   16  C   UNL     1     -10.410  12.233  68.492  1.00  0.00    -0.223 A  
HETATM   17  C   UNL     1      -9.713  11.564  67.482  1.00  0.00    -0.189 A  
HETATM   18  C   UNL     1      -9.870  10.175  67.308  1.00  0.00    -0.226 A  
BRANCH  16  19
HETATM   19  N   UNL     1     -10.269  13.639  68.637  1.00  0.00    -0.305 N  
HETATM   20  H   UNL     1      -9.650  13.994  69.367  1.00  0.00     0.000 HD 
BRANCH  19  21
HETATM   21  C   UNL     1     -10.934  14.554  67.829  1.00  0.00    -0.275 C  
HETATM   22  O   UNL     1     -12.125  14.807  67.954  1.00  0.00    -0.288 OA 
BRANCH  21  23
HETATM   23  N   UNL     1     -10.136  15.143  66.866  1.00  0.00    -0.252 N  
HETATM   24  H   UNL     1      -9.843  14.579  66.067  1.00  0.00     0.000 HD 
BRANCH  23  25
HETATM   25  C   UNL     1      -9.701  16.503  66.933  1.00  0.00    -0.251 A  
HETATM   26  C   UNL     1      -8.504  16.947  66.359  1.00  0.00    -0.325 A  
HETATM   27  C   UNL     1      -8.024  18.259  66.517  1.00  0.00    -0.294 A  
HETATM   28  C   UNL     1      -6.680  18.626  65.949  1.00  0.00    -0.267 C  
HETATM   29  C   UNL     1      -8.816  19.164  67.217  1.00  0.00    -0.289 A  
HETATM   30  F   UNL     1      -5.805  19.071  66.895  1.00  0.00    -0.158 F  
HETATM   31  F   UNL     1      -6.750  19.602  65.002  1.00  0.00    -0.285 F  
HETATM   32  F   UNL     1      -6.042  17.584  65.339  1.00  0.00    -0.124 F  
HETATM   33 CL   UNL     1      -8.337  20.805  67.450  1.00  0.00    -0.303 Cl 
HETATM   34  C   UNL     1     -10.045  18.755  67.754  1.00  0.00    -0.417 A  
HETATM   35  C   UNL     1     -10.486  17.431  67.618  1.00  0.00    -0.368 A  
ENDBRANCH  23  25
ENDBRANCH  21  23
ENDBRANCH  19  21
ENDBRANCH  16  19
ENDBRANCH  12  13
ENDBRANCH  10  12
ENDBRANCH   3   6
TORSDOF 7
ENDMDL
MODEL      270
REMARK 921   NORMALIZED FREE ENERGY PREDICTED BY IDOCK:   -4.06 KCAL/MOL
REMARK 922        TOTAL FREE ENERGY PREDICTED BY IDOCK:   -7.56 KCAL/MOL
REMARK 923 INTER-LIGAND FREE ENERGY PREDICTED BY IDOCK:   -7.41 KCAL/MOL
REMARK 924 INTRA-LIGAND FREE ENERGY PREDICTED BY IDOCK:   -0.15 KCAL/MOL
REMARK 927      BINDING AFFINITY PREDICTED BY RF-SCORE:    0.00 PKD
ROOT
HETATM    1  C   UNL     1      -6.887  20.251  64.898  1.00  0.00    -0.191 C  
HETATM    2  N   UNL     1      -6.488  19.713  66.169  1.00  0.00    -0.190 N  
HETATM    3  C   UNL     1      -6.849  20.322  67.352  1.00  0.00    -0.255 C  
HETATM    4  H   UNL     1      -5.927  18.863  66.197  1.00  0.00     0.000 HD 
HETATM    5  O   UNL     1      -7.509  21.354  67.408  1.00  0.00    -0.446 OA 
ENDROOT
BRANCH   3   6
HETATM    6  C   UNL     1      -6.395  19.617  68.595  1.00  0.00    -0.269 A  
HETATM    7  N   UNL     1      -5.698  20.351  69.508  1.00  0.00    -0.313 NA 
HETATM    8  C   UNL     1      -5.243  19.677  70.589  1.00  0.00    -0.228 A  
HETATM    9  C   UNL     1      -5.409  18.312  70.783  1.00  0.00    -0.254 A  
HETATM   10  C   UNL     1      -6.105  17.591  69.819  1.00  0.00    -0.222 A  
HETATM   11  C   UNL     1      -6.658  18.264  68.731  1.00  0.00    -0.242 A  
BRANCH  10  12
HETATM   12  O   UNL     1      -6.217  16.225  70.010  1.00  0.00    -0.191 OA 
BRANCH  12  13
HETATM   13  C   UNL     1      -7.113  15.533  69.220  1.00  0.00    -0.186 A  
HETATM   14  C   UNL     1      -8.489  15.620  69.401  1.00  0.00    -0.244 A  
HETATM   15  C   UNL     1      -9.337  14.787  68.681  1.00  0.00    -0.198 A  
HETATM   16  C   UNL     1      -8.857  13.937  67.678  1.00  0.00    -0.191 A  
HETATM   17  C   UNL     1      -7.481  13.919  67.435  1.00  0.00    -0.147 A  
HETATM   18  C   UNL     1      -6.612  14.717  68.203  1.00  0.00    -0.138 A  
BRANCH  16  19
HETATM   19  N   UNL     1      -9.720  13.102  66.918  1.00  0.00    -0.237 N  
HETATM   20  H   UNL     1      -9.905  13.350  65.945  1.00  0.00     0.000 HD 
BRANCH  19  21
HETATM   21  C   UNL     1     -10.325  11.965  67.439  1.00  0.00    -0.207 C  
HETATM   22  O   UNL     1     -10.767  11.909  68.579  1.00  0.00    -0.208 OA 
BRANCH  21  23
HETATM   23  N   UNL     1     -10.372  10.897  66.561  1.00  0.00    -0.240 N  
HETATM   24  H   UNL     1     -10.498  11.091  65.568  1.00  0.00     0.000 HD 
BRANCH  23  25
HETATM   25  C   UNL     1     -10.252   9.534  66.978  1.00  0.00    -0.255 A  
HETATM   26  C   UNL     1     -10.734   9.071  68.208  1.00  0.00    -0.155 A  
HETATM   27  C   UNL     1     -10.522   7.758  68.663  1.00  0.00    -0.199 A  
HETATM   28  C   UNL     1     -10.989   7.370  70.040  1.00  0.00    -0.248 C  
HETATM   29  C   UNL     1      -9.862   6.872  67.816  1.00  0.00    -0.136 A  
HETATM   30  F   UNL     1      -9.978   6.934  70.843  1.00  0.00    -0.186 F  
HETATM   31  F   UNL     1     -11.922   6.378  70.025  1.00  0.00    -0.479 F  
HETATM   32  F   UNL     1     -11.571   8.395  70.728  1.00  0.00    -0.274 F  
HETATM   33 CL   UNL     1      -9.570   5.231  68.262  1.00  0.00    -0.155 Cl 
HETATM   34  C   UNL     1      -9.419   7.300  66.557  1.00  0.00    -0.218 A  
HETATM   35  C   UNL     1      -9.607   8.625  66.138  1.00  0.00    -0.305 A  
ENDBRANCH  23  25
ENDBRANCH  21  23
ENDBRANCH  19  21
ENDBRANCH  16  19
ENDBRANCH  12  13
ENDBRANCH  10  12
ENDBRANCH   3   6
TORSDOF 7
ENDMDL
MODEL      271
REMARK 921   NORMALIZED FREE ENERGY PREDICTED BY IDOCK:   -4.05 KCAL/MOL
REMARK 922        TOTAL FREE ENERGY PREDICTED BY IDOCK:   -7.55 KCAL/MOL
REMARK 923 INTER-LIGAND FREE ENERGY PREDICTED BY IDOCK:   -6.27 KCAL/MOL
REMARK 924 INTRA-LIGAND FREE ENERGY PREDICTED BY IDOCK:   -1.28 KCAL/MOL
REMARK 927      BINDING AFFINITY PREDICTED BY RF-SCORE:    0.00 PKD
ROOT
HETATM    1  C   UNL     1      -5.245   7.714  70.333  1.00  0.00    -0.023 C  
HETATM    2  N   UNL     1      -5.751   7.930  69.006  1.00  0.00    -0.033 N  
HETATM    3  C   UNL     1      -6.801   8.791  68.768  1.00  0.00    -0.062 C  
HETATM    4  H   UNL     1      -5.324   7.437  68.223  1.00  0.00     0.000 HD 
HETATM    5  O   UNL     1      -7.380   9.412  69.652  1.00  0.00    -0.065 OA 
ENDROOT
BRANCH   3   6
HETATM    6  C   UNL     1      -7.185   8.944  67.327  1.00  0.00    -0.083 A  
HETATM    7  N   UNL     1      -6.179   8.916  66.407  1.00  0.00    -0.063 NA 
HETATM    8  C   UNL     1      -6.543   9.123  65.122  1.00  0.00    -0.072 A  
HETATM    9  C   UNL     1      -7.843   9.397  64.714  1.00  0.00    -0.118 A  
HETATM   10  C   UNL     1      -8.839   9.442  65.683  1.00  0.00    -0.174 A  
HETATM   11  C   UNL     1      -8.516   9.155  67.008  1.00  0.00    -0.123 A  
BRANCH  10  12
HETATM   12  O   UNL     1     -10.117   9.764  65.260  1.00  0.00    -0.286 OA 
BRANCH  12  13
HETATM   13  C   UNL     1     -10.539  11.070  65.413  1.00  0.00    -0.202 A  
HETATM   14  C   UNL     1     -10.911  11.594  66.646  1.00  0.00    -0.349 A  
HETATM   15  C   UNL     1     -11.473  12.864  66.718  1.00  0.00    -0.391 A  
HETATM   16  C   UNL     1     -11.566  13.693  65.594  1.00  0.00    -0.328 A  
HETATM   17  C   UNL     1     -11.106  13.196  64.371  1.00  0.00    -0.407 A  
HETATM   18  C   UNL     1     -10.592  11.888  64.283  1.00  0.00    -0.381 A  
BRANCH  16  19
HETATM   19  N   UNL     1     -12.113  15.002  65.665  1.00  0.00     0.003 N  
HETATM   20  H   UNL     1     -12.976  15.142  66.190  1.00  0.00     0.000 HD 
BRANCH  19  21
HETATM   21  C   UNL     1     -11.525  16.102  65.051  1.00  0.00     0.013 C  
HETATM   22  O   UNL     1     -11.467  16.232  63.834  1.00  0.00    -0.940 OA 
BRANCH  21  23
HETATM   23  N   UNL     1     -11.000  17.029  65.932  1.00  0.00     0.014 N  
HETATM   24  H   UNL     1     -11.428  17.954  65.975  1.00  0.00     0.000 HD 
BRANCH  23  25
HETATM   25  C   UNL     1      -9.888  16.755  66.787  1.00  0.00    -0.276 A  
HETATM   26  C   UNL     1      -9.195  15.539  66.766  1.00  0.00    -0.272 A  
HETATM   27  C   UNL     1      -8.171  15.230  67.679  1.00  0.00    -0.175 A  
HETATM   28  C   UNL     1      -7.545  13.862  67.650  1.00  0.00    -0.178 C  
HETATM   29  C   UNL     1      -7.793  16.209  68.593  1.00  0.00    -0.188 A  
HETATM   30  F   UNL     1      -7.674  13.191  68.829  1.00  0.00    -0.125 F  
HETATM   31  F   UNL     1      -6.213  13.892  67.368  1.00  0.00    -0.164 F  
HETATM   32  F   UNL     1      -8.088  13.033  66.710  1.00  0.00    -0.123 F  
HETATM   33 CL   UNL     1      -6.533  15.947  69.741  1.00  0.00    -0.182 Cl 
HETATM   34  C   UNL     1      -8.437  17.455  68.595  1.00  0.00    -0.257 A  
HETATM   35  C   UNL     1      -9.482  17.728  67.702  1.00  0.00    -0.255 A  
ENDBRANCH  23  25
ENDBRANCH  21  23
ENDBRANCH  19  21
ENDBRANCH  16  19
ENDBRANCH  12  13
ENDBRANCH  10  12
ENDBRANCH   3   6
TORSDOF 7
ENDMDL
MODEL      272
REMARK 921   NORMALIZED FREE ENERGY PREDICTED BY IDOCK:   -4.03 KCAL/MOL
REMARK 922        TOTAL FREE ENERGY PREDICTED BY IDOCK:   -7.53 KCAL/MOL
REMARK 923 INTER-LIGAND FREE ENERGY PREDICTED BY IDOCK:   -6.23 KCAL/MOL
REMARK 924 INTRA-LIGAND FREE ENERGY PREDICTED BY IDOCK:   -1.30 KCAL/MOL
REMARK 927      BINDING AFFINITY PREDICTED BY RF-SCORE:    0.00 PKD
ROOT
HETATM    1  C   UNL     1     -12.507  13.451  65.403  1.00  0.00    -0.494 C  
HETATM    2  N   UNL     1     -11.566  12.457  65.841  1.00  0.00    -0.379 N  
HETATM    3  C   UNL     1     -10.541  12.030  65.026  1.00  0.00    -0.289 C  
HETATM    4  H   UNL     1     -11.658  12.060  66.776  1.00  0.00     0.000 HD 
HETATM    5  O   UNL     1     -10.366  12.443  63.884  1.00  0.00    -0.384 OA 
ENDROOT
BRANCH   3   6
HETATM    6  C   UNL     1      -9.615  11.022  65.641  1.00  0.00    -0.226 A  
HETATM    7  N   UNL     1      -9.093  11.321  66.863  1.00  0.00    -0.163 NA 
HETATM    8  C   UNL     1      -8.209  10.429  67.366  1.00  0.00    -0.117 A  
HETATM    9  C   UNL     1      -7.793   9.285  66.698  1.00  0.00    -0.104 A  
HETATM   10  C   UNL     1      -8.329   9.024  65.442  1.00  0.00    -0.144 A  
HETATM   11  C   UNL     1      -9.301   9.879  64.925  1.00  0.00    -0.329 A  
BRANCH  10  12
HETATM   12  O   UNL     1      -7.864   7.904  64.776  1.00  0.00    -0.110 OA 
BRANCH  12  13
HETATM   13  C   UNL     1      -7.915   6.692  65.435  1.00  0.00    -0.121 A  
HETATM   14  C   UNL     1      -6.780   6.070  65.943  1.00  0.00    -0.052 A  
HETATM   15  C   UNL     1      -6.867   4.783  66.460  1.00  0.00    -0.058 A  
HETATM   16  C   UNL     1      -8.095   4.127  66.600  1.00  0.00    -0.101 A  
HETATM   17  C   UNL     1      -9.248   4.793  66.172  1.00  0.00    -0.144 A  
HETATM   18  C   UNL     1      -9.156   6.073  65.593  1.00  0.00    -0.033 A  
BRANCH  16  19
HETATM   19  N   UNL     1      -8.196   2.822  67.153  1.00  0.00    -0.079 N  
HETATM   20  H   UNL     1      -7.777   2.043  66.644  1.00  0.00     0.000 HD 
BRANCH  19  21
HETATM   21  C   UNL     1      -8.840   2.558  68.356  1.00  0.00    -0.111 C  
HETATM   22  O   UNL     1      -9.750   1.744  68.459  1.00  0.00    -0.163 OA 
BRANCH  21  23
HETATM   23  N   UNL     1      -8.372   3.302  69.424  1.00  0.00    -0.058 N  
HETATM   24  H   UNL     1      -7.411   3.155  69.733  1.00  0.00     0.000 HD 
BRANCH  23  25
HETATM   25  C   UNL     1      -9.169   4.268  70.115  1.00  0.00    -0.135 A  
HETATM   26  C   UNL     1      -9.754   4.017  71.362  1.00  0.00    -0.253 A  
HETATM   27  C   UNL     1     -10.623   4.925  71.991  1.00  0.00    -0.210 A  
HETATM   28  C   UNL     1     -11.286   4.535  73.284  1.00  0.00    -0.270 C  
HETATM   29  C   UNL     1     -10.850   6.150  71.370  1.00  0.00    -0.265 A  
HETATM   30  F   UNL     1     -12.647   4.551  73.212  1.00  0.00    -0.198 F  
HETATM   31  F   UNL     1     -10.948   5.350  74.322  1.00  0.00    -0.274 F  
HETATM   32  F   UNL     1     -10.968   3.276  73.703  1.00  0.00    -0.251 F  
HETATM   33 CL   UNL     1     -11.879   7.348  72.064  1.00  0.00    -0.320 Cl 
HETATM   34  C   UNL     1     -10.231   6.443  70.146  1.00  0.00    -0.229 A  
HETATM   35  C   UNL     1      -9.398   5.508  69.517  1.00  0.00    -0.167 A  
ENDBRANCH  23  25
ENDBRANCH  21  23
ENDBRANCH  19  21
ENDBRANCH  16  19
ENDBRANCH  12  13
ENDBRANCH  10  12
ENDBRANCH   3   6
TORSDOF 7
ENDMDL
MODEL      273
REMARK 921   NORMALIZED FREE ENERGY PREDICTED BY IDOCK:   -4.02 KCAL/MOL
REMARK 922        TOTAL FREE ENERGY PREDICTED BY IDOCK:   -7.51 KCAL/MOL
REMARK 923 INTER-LIGAND FREE ENERGY PREDICTED BY IDOCK:   -7.12 KCAL/MOL
REMARK 924 INTRA-LIGAND FREE ENERGY PREDICTED BY IDOCK:   -0.39 KCAL/MOL
REMARK 927      BINDING AFFINITY PREDICTED BY RF-SCORE:    0.00 PKD
ROOT
HETATM    1  C   UNL     1      -5.132  18.222  64.930  1.00  0.00    -0.100 C  
HETATM    2  N   UNL     1      -6.478  18.305  65.425  1.00  0.00    -0.236 N  
HETATM    3  C   UNL     1      -6.758  18.856  66.657  1.00  0.00    -0.194 C  
HETATM    4  H   UNL     1      -7.243  17.950  64.853  1.00  0.00     0.000 HD 
HETATM    5  O   UNL     1      -5.898  19.293  67.415  1.00  0.00    -0.181 OA 
ENDROOT
BRANCH   3   6
HETATM    6  C   UNL     1      -8.213  18.913  67.015  1.00  0.00    -0.270 A  
HETATM    7  N   UNL     1      -8.957  19.900  66.442  1.00  0.00    -0.366 NA 
HETATM    8  C   UNL     1     -10.250  19.972  66.832  1.00  0.00    -0.462 A  
HETATM    9  C   UNL     1     -10.823  19.142  67.787  1.00  0.00    -0.398 A  
HETATM   10  C   UNL     1     -10.028  18.161  68.367  1.00  0.00    -0.380 A  
HETATM   11  C   UNL     1      -8.712  18.005  67.934  1.00  0.00    -0.258 A  
BRANCH  10  12
HETATM   12  O   UNL     1     -10.606  17.378  69.350  1.00  0.00    -0.269 OA 
BRANCH  12  13
HETATM   13  C   UNL     1     -10.566  16.007  69.192  1.00  0.00    -0.260 A  
HETATM   14  C   UNL     1      -9.409  15.333  68.818  1.00  0.00    -0.210 A  
HETATM   15  C   UNL     1      -9.461  13.975  68.525  1.00  0.00    -0.191 A  
HETATM   16  C   UNL     1     -10.628  13.225  68.714  1.00  0.00    -0.201 A  
HETATM   17  C   UNL     1     -11.767  13.889  69.179  1.00  0.00    -0.382 A  
HETATM   18  C   UNL     1     -11.734  15.276  69.419  1.00  0.00    -0.361 A  
BRANCH  16  19
HETATM   19  N   UNL     1     -10.683  11.832  68.443  1.00  0.00    -0.209 N  
HETATM   20  H   UNL     1     -10.099  11.457  67.695  1.00  0.00     0.000 HD 
BRANCH  19  21
HETATM   21  C   UNL     1     -11.495  10.955  69.153  1.00  0.00    -0.303 C  
HETATM   22  O   UNL     1     -12.576  10.562  68.733  1.00  0.00    -0.032 OA 
BRANCH  21  23
HETATM   23  N   UNL     1     -10.981  10.574  70.379  1.00  0.00    -0.436 N  
HETATM   24  H   UNL     1     -11.226  11.128  71.200  1.00  0.00     0.000 HD 
BRANCH  23  25
HETATM   25  C   UNL     1     -10.123   9.444  70.553  1.00  0.00    -0.275 A  
HETATM   26  C   UNL     1      -8.734   9.514  70.399  1.00  0.00    -0.265 A  
HETATM   27  C   UNL     1      -7.902   8.382  70.464  1.00  0.00    -0.089 A  
HETATM   28  C   UNL     1      -6.430   8.532  70.190  1.00  0.00    -0.038 C  
HETATM   29  C   UNL     1      -8.490   7.157  70.763  1.00  0.00    -0.133 A  
HETATM   30  F   UNL     1      -6.002   7.768  69.145  1.00  0.00    -0.030 F  
HETATM   31  F   UNL     1      -5.653   8.194  71.256  1.00  0.00    -0.033 F  
HETATM   32  F   UNL     1      -6.061   9.807  69.871  1.00  0.00    -0.037 F  
HETATM   33 CL   UNL     1      -7.562   5.708  70.892  1.00  0.00    -0.089 Cl 
HETATM   34  C   UNL     1      -9.873   7.073  70.975  1.00  0.00    -0.185 A  
HETATM   35  C   UNL     1     -10.689   8.207  70.867  1.00  0.00    -0.246 A  
ENDBRANCH  23  25
ENDBRANCH  21  23
ENDBRANCH  19  21
ENDBRANCH  16  19
ENDBRANCH  12  13
ENDBRANCH  10  12
ENDBRANCH   3   6
TORSDOF 7
ENDMDL
MODEL      274
REMARK 921   NORMALIZED FREE ENERGY PREDICTED BY IDOCK:   -4.00 KCAL/MOL
REMARK 922        TOTAL FREE ENERGY PREDICTED BY IDOCK:   -7.48 KCAL/MOL
REMARK 923 INTER-LIGAND FREE ENERGY PREDICTED BY IDOCK:   -7.17 KCAL/MOL
REMARK 924 INTRA-LIGAND FREE ENERGY PREDICTED BY IDOCK:   -0.31 KCAL/MOL
REMARK 927      BINDING AFFINITY PREDICTED BY RF-SCORE:    0.00 PKD
ROOT
HETATM    1  C   UNL     1      -5.126  18.209  64.920  1.00  0.00    -0.049 C  
HETATM    2  N   UNL     1      -6.505  18.356  65.296  1.00  0.00    -0.229 N  
HETATM    3  C   UNL     1      -6.865  18.886  66.516  1.00  0.00    -0.203 C  
HETATM    4  H   UNL     1      -7.233  18.062  64.647  1.00  0.00     0.000 HD 
HETATM    5  O   UNL     1      -6.054  19.251  67.362  1.00  0.00    -0.189 OA 
ENDROOT
BRANCH   3   6
HETATM    6  C   UNL     1      -8.341  19.017  66.744  1.00  0.00    -0.288 A  
HETATM    7  N   UNL     1      -8.969  20.081  66.170  1.00  0.00    -0.326 NA 
HETATM    8  C   UNL     1     -10.286  20.214  66.446  1.00  0.00    -0.389 A  
HETATM    9  C   UNL     1     -10.994  19.370  67.292  1.00  0.00    -0.454 A  
HETATM   10  C   UNL     1     -10.316  18.308  67.879  1.00  0.00    -0.399 A  
HETATM   11  C   UNL     1      -8.976  18.092  67.557  1.00  0.00    -0.257 A  
BRANCH  10  12
HETATM   12  O   UNL     1     -11.029  17.509  68.755  1.00  0.00    -0.118 OA 
BRANCH  12  13
HETATM   13  C   UNL     1     -10.980  16.141  68.569  1.00  0.00    -0.338 A  
HETATM   14  C   UNL     1     -10.435  15.562  67.429  1.00  0.00    -0.281 A  
HETATM   15  C   UNL     1     -10.550  14.192  67.226  1.00  0.00    -0.277 A  
HETATM   16  C   UNL     1     -11.094  13.345  68.198  1.00  0.00    -0.258 A  
HETATM   17  C   UNL     1     -11.558  13.921  69.385  1.00  0.00    -0.350 A  
HETATM   18  C   UNL     1     -11.498  15.316  69.569  1.00  0.00    -0.318 A  
BRANCH  16  19
HETATM   19  N   UNL     1     -11.189  11.940  68.010  1.00  0.00    -0.237 N  
HETATM   20  H   UNL     1     -11.945  11.577  67.429  1.00  0.00     0.000 HD 
BRANCH  19  21
HETATM   21  C   UNL     1     -10.299  11.038  68.581  1.00  0.00    -0.193 C  
HETATM   22  O   UNL     1     -10.533  10.445  69.627  1.00  0.00    -0.231 OA 
BRANCH  21  23
HETATM   23  N   UNL     1      -9.123  10.878  67.872  1.00  0.00    -0.146 N  
HETATM   24  H   UNL     1      -8.252  11.192  68.300  1.00  0.00     0.000 HD 
BRANCH  23  25
HETATM   25  C   UNL     1      -9.067  10.294  66.568  1.00  0.00    -0.148 A  
HETATM   26  C   UNL     1      -8.543   9.018  66.329  1.00  0.00    -0.140 A  
HETATM   27  C   UNL     1      -8.390   8.488  65.036  1.00  0.00    -0.175 A  
HETATM   28  C   UNL     1      -7.728   7.148  64.862  1.00  0.00    -0.117 C  
HETATM   29  C   UNL     1      -8.845   9.246  63.961  1.00  0.00    -0.133 A  
HETATM   30  F   UNL     1      -6.612   7.201  64.081  1.00  0.00    -0.041 F  
HETATM   31  F   UNL     1      -8.548   6.219  64.297  1.00  0.00    -0.061 F  
HETATM   32  F   UNL     1      -7.312   6.588  66.036  1.00  0.00    -0.072 F  
HETATM   33 CL   UNL     1      -8.730   8.682  62.335  1.00  0.00    -0.164 Cl 
HETATM   34  C   UNL     1      -9.423  10.504  64.182  1.00  0.00    -0.342 A  
HETATM   35  C   UNL     1      -9.530  11.031  65.477  1.00  0.00    -0.250 A  
ENDBRANCH  23  25
ENDBRANCH  21  23
ENDBRANCH  19  21
ENDBRANCH  16  19
ENDBRANCH  12  13
ENDBRANCH  10  12
ENDBRANCH   3   6
TORSDOF 7
ENDMDL
MODEL      275
REMARK 921   NORMALIZED FREE ENERGY PREDICTED BY IDOCK:   -3.98 KCAL/MOL
REMARK 922        TOTAL FREE ENERGY PREDICTED BY IDOCK:   -7.46 KCAL/MOL
REMARK 923 INTER-LIGAND FREE ENERGY PREDICTED BY IDOCK:   -7.48 KCAL/MOL
REMARK 924 INTRA-LIGAND FREE ENERGY PREDICTED BY IDOCK:    0.02 KCAL/MOL
REMARK 927      BINDING AFFINITY PREDICTED BY RF-SCORE:    0.00 PKD
ROOT
HETATM    1  C   UNL     1      -6.359  20.585  65.676  1.00  0.00    -0.236 C  
HETATM    2  N   UNL     1      -6.600  19.241  66.120  1.00  0.00    -0.200 N  
HETATM    3  C   UNL     1      -7.870  18.801  66.425  1.00  0.00    -0.278 C  
HETATM    4  H   UNL     1      -5.815  18.597  66.211  1.00  0.00     0.000 HD 
HETATM    5  O   UNL     1      -8.867  19.512  66.358  1.00  0.00    -0.339 OA 
ENDROOT
BRANCH   3   6
HETATM    6  C   UNL     1      -7.966  17.361  66.831  1.00  0.00    -0.227 A  
HETATM    7  N   UNL     1      -6.888  16.819  67.465  1.00  0.00    -0.135 NA 
HETATM    8  C   UNL     1      -6.972  15.502  67.760  1.00  0.00    -0.164 A  
HETATM    9  C   UNL     1      -8.050  14.695  67.422  1.00  0.00    -0.216 A  
HETATM   10  C   UNL     1      -9.122  15.276  66.754  1.00  0.00    -0.256 A  
HETATM   11  C   UNL     1      -9.106  16.647  66.503  1.00  0.00    -0.303 A  
BRANCH  10  12
HETATM   12  O   UNL     1     -10.163  14.443  66.385  1.00  0.00    -0.274 OA 
BRANCH  12  13
HETATM   13  C   UNL     1     -10.247  13.205  66.990  1.00  0.00    -0.250 A  
HETATM   14  C   UNL     1     -11.085  12.958  68.071  1.00  0.00    -0.283 A  
HETATM   15  C   UNL     1     -11.018  11.739  68.737  1.00  0.00    -0.281 A  
HETATM   16  C   UNL     1     -10.212  10.692  68.276  1.00  0.00    -0.166 A  
HETATM   17  C   UNL     1      -9.438  10.913  67.133  1.00  0.00    -0.178 A  
HETATM   18  C   UNL     1      -9.459  12.166  66.491  1.00  0.00    -0.235 A  
BRANCH  16  19
HETATM   19  N   UNL     1     -10.158   9.434  68.934  1.00  0.00    -0.183 N  
HETATM   20  H   UNL     1      -9.502   8.732  68.590  1.00  0.00     0.000 HD 
BRANCH  19  21
HETATM   21  C   UNL     1     -10.957   9.117  70.026  1.00  0.00    -0.220 C  
HETATM   22  O   UNL     1     -11.000   9.802  71.040  1.00  0.00    -0.320 OA 
BRANCH  21  23
HETATM   23  N   UNL     1     -11.689   7.954  69.872  1.00  0.00    -0.346 N  
HETATM   24  H   UNL     1     -12.694   7.987  70.043  1.00  0.00     0.000 HD 
BRANCH  23  25
HETATM   25  C   UNL     1     -11.107   6.707  69.484  1.00  0.00    -0.322 A  
HETATM   26  C   UNL     1     -10.689   5.743  70.410  1.00  0.00    -0.372 A  
HETATM   27  C   UNL     1     -10.020   4.566  70.034  1.00  0.00    -0.280 A  
HETATM   28  C   UNL     1      -9.518   3.630  71.101  1.00  0.00    -0.164 C  
HETATM   29  C   UNL     1      -9.832   4.327  68.676  1.00  0.00    -0.048 A  
HETATM   30  F   UNL     1      -8.170   3.435  71.047  1.00  0.00    -0.061 F  
HETATM   31  F   UNL     1     -10.087   2.395  71.036  1.00  0.00    -0.188 F  
HETATM   32  F   UNL     1      -9.762   4.068  72.370  1.00  0.00    -0.164 F  
HETATM   33 CL   UNL     1      -9.046   2.903  68.102  1.00  0.00    -0.202 Cl 
HETATM   34  C   UNL     1     -10.291   5.253  67.729  1.00  0.00    -0.196 A  
HETATM   35  C   UNL     1     -10.922   6.439  68.127  1.00  0.00    -0.393 A  
ENDBRANCH  23  25
ENDBRANCH  21  23
ENDBRANCH  19  21
ENDBRANCH  16  19
ENDBRANCH  12  13
ENDBRANCH  10  12
ENDBRANCH   3   6
TORSDOF 7
ENDMDL
MODEL      276
REMARK 921   NORMALIZED FREE ENERGY PREDICTED BY IDOCK:   -3.96 KCAL/MOL
REMARK 922        TOTAL FREE ENERGY PREDICTED BY IDOCK:   -7.43 KCAL/MOL
REMARK 923 INTER-LIGAND FREE ENERGY PREDICTED BY IDOCK:   -6.80 KCAL/MOL
REMARK 924 INTRA-LIGAND FREE ENERGY PREDICTED BY IDOCK:   -0.63 KCAL/MOL
REMARK 927      BINDING AFFINITY PREDICTED BY RF-SCORE:    0.00 PKD
ROOT
HETATM    1  C   UNL     1     -12.221   1.486  73.484  1.00  0.00    -0.135 C  
HETATM    2  N   UNL     1     -11.010   2.234  73.679  1.00  0.00    -0.177 N  
HETATM    3  C   UNL     1     -10.173   2.534  72.626  1.00  0.00    -0.161 C  
HETATM    4  H   UNL     1     -10.765   2.551  74.617  1.00  0.00     0.000 HD 
HETATM    5  O   UNL     1     -10.385   2.181  71.471  1.00  0.00     0.036 OA 
ENDROOT
BRANCH   3   6
HETATM    6  C   UNL     1      -8.972   3.359  72.982  1.00  0.00    -0.087 A  
HETATM    7  N   UNL     1      -7.773   2.716  73.054  1.00  0.00    -0.049 NA 
HETATM    8  C   UNL     1      -6.718   3.467  73.442  1.00  0.00    -0.035 A  
HETATM    9  C   UNL     1      -6.805   4.807  73.799  1.00  0.00    -0.070 A  
HETATM   10  C   UNL     1      -8.048   5.425  73.736  1.00  0.00    -0.112 A  
HETATM   11  C   UNL     1      -9.145   4.704  73.266  1.00  0.00    -0.118 A  
BRANCH  10  12
HETATM   12  O   UNL     1      -8.120   6.745  74.142  1.00  0.00    -0.115 OA 
BRANCH  12  13
HETATM   13  C   UNL     1      -8.838   7.626  73.358  1.00  0.00    -0.216 A  
HETATM   14  C   UNL     1     -10.223   7.728  73.427  1.00  0.00    -0.315 A  
HETATM   15  C   UNL     1     -10.907   8.517  72.510  1.00  0.00    -0.304 A  
HETATM   16  C   UNL     1     -10.233   9.320  71.582  1.00  0.00    -0.201 A  
HETATM   17  C   UNL     1      -8.836   9.285  71.576  1.00  0.00     0.133 A  
HETATM   18  C   UNL     1      -8.141   8.441  72.464  1.00  0.00    -0.177 A  
BRANCH  16  19
HETATM   19  N   UNL     1     -10.924  10.151  70.660  1.00  0.00    -0.343 N  
HETATM   20  H   UNL     1     -11.291  11.044  70.989  1.00  0.00     0.000 HD 
BRANCH  19  21
HETATM   21  C   UNL     1     -11.122   9.803  69.329  1.00  0.00    -0.149 C  
HETATM   22  O   UNL     1     -10.456   8.948  68.759  1.00  0.00    -0.217 OA 
BRANCH  21  23
HETATM   23  N   UNL     1     -12.129  10.514  68.702  1.00  0.00    -0.401 N  
HETATM   24  H   UNL     1     -13.093  10.206  68.830  1.00  0.00     0.000 HD 
BRANCH  23  25
HETATM   25  C   UNL     1     -11.885  11.661  67.883  1.00  0.00    -0.203 A  
HETATM   26  C   UNL     1     -11.853  11.602  66.485  1.00  0.00     0.128 A  
HETATM   27  C   UNL     1     -11.508  12.706  65.685  1.00  0.00    -0.387 A  
HETATM   28  C   UNL     1     -11.402  12.530  64.194  1.00  0.00    -0.380 C  
HETATM   29  C   UNL     1     -11.257  13.919  66.318  1.00  0.00    -0.309 A  
HETATM   30  F   UNL     1     -10.166  12.835  63.707  1.00  0.00    -0.409 F  
HETATM   31  F   UNL     1     -12.287  13.302  63.504  1.00  0.00    -0.515 F  
HETATM   32  F   UNL     1     -11.642  11.253  63.776  1.00  0.00    -0.450 F  
HETATM   33 CL   UNL     1     -10.849  15.342  65.433  1.00  0.00    -0.378 Cl 
HETATM   34  C   UNL     1     -11.337  14.013  67.715  1.00  0.00    -0.328 A  
HETATM   35  C   UNL     1     -11.644  12.891  68.497  1.00  0.00    -0.358 A  
ENDBRANCH  23  25
ENDBRANCH  21  23
ENDBRANCH  19  21
ENDBRANCH  16  19
ENDBRANCH  12  13
ENDBRANCH  10  12
ENDBRANCH   3   6
TORSDOF 7
ENDMDL
MODEL      277
REMARK 921   NORMALIZED FREE ENERGY PREDICTED BY IDOCK:   -3.96 KCAL/MOL
REMARK 922        TOTAL FREE ENERGY PREDICTED BY IDOCK:   -7.42 KCAL/MOL
REMARK 923 INTER-LIGAND FREE ENERGY PREDICTED BY IDOCK:   -7.35 KCAL/MOL
REMARK 924 INTRA-LIGAND FREE ENERGY PREDICTED BY IDOCK:   -0.08 KCAL/MOL
REMARK 927      BINDING AFFINITY PREDICTED BY RF-SCORE:    0.00 PKD
ROOT
HETATM    1  C   UNL     1      -8.791   2.287  71.435  1.00  0.00    -0.072 C  
HETATM    2  N   UNL     1      -9.370   3.503  70.935  1.00  0.00    -0.133 N  
HETATM    3  C   UNL     1      -8.586   4.527  70.450  1.00  0.00    -0.078 C  
HETATM    4  H   UNL     1     -10.384   3.611  70.939  1.00  0.00     0.000 HD 
HETATM    5  O   UNL     1      -7.360   4.486  70.422  1.00  0.00    -0.048 OA 
ENDROOT
BRANCH   3   6
HETATM    6  C   UNL     1      -9.339   5.712  69.923  1.00  0.00    -0.147 A  
HETATM    7  N   UNL     1     -10.572   5.951  70.451  1.00  0.00    -0.263 NA 
HETATM    8  C   UNL     1     -11.258   6.985  69.912  1.00  0.00    -0.246 A  
HETATM    9  C   UNL     1     -10.798   7.759  68.855  1.00  0.00    -0.022 A  
HETATM   10  C   UNL     1      -9.545   7.471  68.325  1.00  0.00    -0.152 A  
HETATM   11  C   UNL     1      -8.775   6.464  68.906  1.00  0.00    -0.126 A  
BRANCH  10  12
HETATM   12  O   UNL     1      -9.128   8.223  67.242  1.00  0.00    -0.134 OA 
BRANCH  12  13
HETATM   13  C   UNL     1      -9.405   9.576  67.249  1.00  0.00    -0.134 A  
HETATM   14  C   UNL     1     -10.682  10.077  67.023  1.00  0.00    -0.248 A  
HETATM   15  C   UNL     1     -10.876  11.447  66.889  1.00  0.00    -0.335 A  
HETATM   16  C   UNL     1      -9.837  12.362  67.097  1.00  0.00    -0.205 A  
HETATM   17  C   UNL     1      -8.572  11.858  67.416  1.00  0.00    -0.164 A  
HETATM   18  C   UNL     1      -8.359  10.468  67.493  1.00  0.00    -0.118 A  
BRANCH  16  19
HETATM   19  N   UNL     1     -10.032  13.765  66.990  1.00  0.00    -0.246 N  
HETATM   20  H   UNL     1      -9.901  14.340  67.822  1.00  0.00     0.000 HD 
BRANCH  19  21
HETATM   21  C   UNL     1     -10.395  14.390  65.803  1.00  0.00    -0.326 C  
HETATM   22  O   UNL     1     -11.386  14.070  65.159  1.00  0.00    -0.309 OA 
BRANCH  21  23
HETATM   23  N   UNL     1      -9.532  15.395  65.406  1.00  0.00    -0.295 N  
HETATM   24  H   UNL     1      -9.310  15.480  64.414  1.00  0.00     0.000 HD 
BRANCH  23  25
HETATM   25  C   UNL     1      -8.935  16.320  66.318  1.00  0.00    -0.331 A  
HETATM   26  C   UNL     1      -9.474  17.586  66.578  1.00  0.00    -0.285 A  
HETATM   27  C   UNL     1      -8.831  18.535  67.391  1.00  0.00    -0.276 A  
HETATM   28  C   UNL     1      -9.431  19.907  67.538  1.00  0.00    -0.359 C  
HETATM   29  C   UNL     1      -7.642  18.164  68.013  1.00  0.00    -0.242 A  
HETATM   30  F   UNL     1      -8.594  20.902  67.131  1.00  0.00    -0.380 F  
HETATM   31  F   UNL     1      -9.779  20.200  68.822  1.00  0.00    -0.377 F  
HETATM   32  F   UNL     1     -10.573  20.085  66.812  1.00  0.00    -0.534 F  
HETATM   33 CL   UNL     1      -6.782  19.241  69.051  1.00  0.00    -0.337 Cl 
HETATM   34  C   UNL     1      -7.112  16.882  67.810  1.00  0.00    -0.156 A  
HETATM   35  C   UNL     1      -7.750  15.964  66.964  1.00  0.00    -0.268 A  
ENDBRANCH  23  25
ENDBRANCH  21  23
ENDBRANCH  19  21
ENDBRANCH  16  19
ENDBRANCH  12  13
ENDBRANCH  10  12
ENDBRANCH   3   6
TORSDOF 7
ENDMDL
MODEL      278
REMARK 921   NORMALIZED FREE ENERGY PREDICTED BY IDOCK:   -3.95 KCAL/MOL
REMARK 922        TOTAL FREE ENERGY PREDICTED BY IDOCK:   -7.42 KCAL/MOL
REMARK 923 INTER-LIGAND FREE ENERGY PREDICTED BY IDOCK:   -6.77 KCAL/MOL
REMARK 924 INTRA-LIGAND FREE ENERGY PREDICTED BY IDOCK:   -0.65 KCAL/MOL
REMARK 927      BINDING AFFINITY PREDICTED BY RF-SCORE:    0.00 PKD
ROOT
HETATM    1  C   UNL     1      -9.528   2.890  71.572  1.00  0.00    -0.146 C  
HETATM    2  N   UNL     1      -9.717   3.931  70.600  1.00  0.00    -0.188 N  
HETATM    3  C   UNL     1      -8.711   4.822  70.296  1.00  0.00    -0.093 C  
HETATM    4  H   UNL     1     -10.615   4.012  70.124  1.00  0.00     0.000 HD 
HETATM    5  O   UNL     1      -7.607   4.806  70.831  1.00  0.00    -0.065 OA 
ENDROOT
BRANCH   3   6
HETATM    6  C   UNL     1      -9.046   5.823  69.230  1.00  0.00    -0.118 A  
HETATM    7  N   UNL     1     -10.290   5.753  68.680  1.00  0.00    -0.200 NA 
HETATM    8  C   UNL     1     -10.545   6.621  67.675  1.00  0.00    -0.263 A  
HETATM    9  C   UNL     1      -9.615   7.519  67.167  1.00  0.00    -0.207 A  
HETATM   10  C   UNL     1      -8.347   7.546  67.737  1.00  0.00    -0.119 A  
HETATM   11  C   UNL     1      -8.072   6.721  68.827  1.00  0.00    -0.120 A  
BRANCH  10  12
HETATM   12  O   UNL     1      -7.423   8.414  67.183  1.00  0.00    -0.087 OA 
BRANCH  12  13
HETATM   13  C   UNL     1      -7.867   9.655  66.772  1.00  0.00    -0.102 A  
HETATM   14  C   UNL     1      -7.571  10.822  67.467  1.00  0.00    -0.094 A  
HETATM   15  C   UNL     1      -8.168  12.021  67.096  1.00  0.00    -0.181 A  
HETATM   16  C   UNL     1      -8.974  12.120  65.956  1.00  0.00     0.020 A  
HETATM   17  C   UNL     1      -9.196  10.962  65.205  1.00  0.00    -0.236 A  
HETATM   18  C   UNL     1      -8.641   9.734  65.612  1.00  0.00    -0.154 A  
BRANCH  16  19
HETATM   19  N   UNL     1      -9.566  13.348  65.554  1.00  0.00    -0.504 N  
HETATM   20  H   UNL     1      -9.006  14.199  65.606  1.00  0.00     0.000 HD 
BRANCH  19  21
HETATM   21  C   UNL     1     -10.874  13.442  65.093  1.00  0.00    -0.313 C  
HETATM   22  O   UNL     1     -11.236  12.976  64.020  1.00  0.00    -0.377 OA 
BRANCH  21  23
HETATM   23  N   UNL     1     -11.727  14.118  65.946  1.00  0.00    -0.353 N  
HETATM   24  H   UNL     1     -12.378  14.794  65.546  1.00  0.00     0.000 HD 
BRANCH  23  25
HETATM   25  C   UNL     1     -11.742  13.917  67.361  1.00  0.00    -0.389 A  
HETATM   26  C   UNL     1     -11.775  12.645  67.947  1.00  0.00    -0.412 A  
HETATM   27  C   UNL     1     -11.898  12.449  69.334  1.00  0.00    -0.365 A  
HETATM   28  C   UNL     1     -12.025  11.050  69.872  1.00  0.00    -0.351 C  
HETATM   29  C   UNL     1     -11.918  13.574  70.154  1.00  0.00    -0.329 A  
HETATM   30  F   UNL     1     -13.177  10.850  70.573  1.00  0.00    -0.307 F  
HETATM   31  F   UNL     1     -11.004  10.706  70.706  1.00  0.00    -0.343 F  
HETATM   32  F   UNL     1     -12.030  10.090  68.902  1.00  0.00    -0.068 F  
HETATM   33 CL   UNL     1     -12.040  13.449  71.870  1.00  0.00     0.388 Cl 
HETATM   34  C   UNL     1     -11.831  14.856  69.591  1.00  0.00    -0.356 A  
HETATM   35  C   UNL     1     -11.748  15.030  68.203  1.00  0.00    -0.335 A  
ENDBRANCH  23  25
ENDBRANCH  21  23
ENDBRANCH  19  21
ENDBRANCH  16  19
ENDBRANCH  12  13
ENDBRANCH  10  12
ENDBRANCH   3   6
TORSDOF 7
ENDMDL
MODEL      279
REMARK 921   NORMALIZED FREE ENERGY PREDICTED BY IDOCK:   -3.95 KCAL/MOL
REMARK 922        TOTAL FREE ENERGY PREDICTED BY IDOCK:   -7.42 KCAL/MOL
REMARK 923 INTER-LIGAND FREE ENERGY PREDICTED BY IDOCK:   -5.81 KCAL/MOL
REMARK 924 INTRA-LIGAND FREE ENERGY PREDICTED BY IDOCK:   -1.61 KCAL/MOL
REMARK 927      BINDING AFFINITY PREDICTED BY RF-SCORE:    0.00 PKD
ROOT
HETATM    1  C   UNL     1      -6.040   2.932  64.374  1.00  0.00    -0.018 C  
HETATM    2  N   UNL     1      -6.078   4.356  64.555  1.00  0.00    -0.025 N  
HETATM    3  C   UNL     1      -7.272   5.037  64.656  1.00  0.00    -0.062 C  
HETATM    4  H   UNL     1      -5.202   4.876  64.610  1.00  0.00     0.000 HD 
HETATM    5  O   UNL     1      -8.369   4.493  64.585  1.00  0.00    -0.107 OA 
ENDROOT
BRANCH   3   6
HETATM    6  C   UNL     1      -7.147   6.513  64.887  1.00  0.00    -0.057 A  
HETATM    7  N   UNL     1      -5.947   6.973  65.342  1.00  0.00    -0.036 NA 
HETATM    8  C   UNL     1      -5.881   8.297  65.607  1.00  0.00    -0.044 A  
HETATM    9  C   UNL     1      -6.952   9.172  65.482  1.00  0.00    -0.081 A  
HETATM   10  C   UNL     1      -8.167   8.663  65.038  1.00  0.00    -0.157 A  
HETATM   11  C   UNL     1      -8.254   7.319  64.679  1.00  0.00    -0.030 A  
BRANCH  10  12
HETATM   12  O   UNL     1      -9.233   9.543  64.966  1.00  0.00    -0.230 OA 
BRANCH  12  13
HETATM   13  C   UNL     1      -9.750  10.031  66.150  1.00  0.00    -0.227 A  
HETATM   14  C   UNL     1      -9.747  11.385  66.464  1.00  0.00    -0.226 A  
HETATM   15  C   UNL     1     -10.138  11.804  67.730  1.00  0.00    -0.199 A  
HETATM   16  C   UNL     1     -10.658  10.911  68.674  1.00  0.00    -0.195 A  
HETATM   17  C   UNL     1     -10.746   9.561  68.322  1.00  0.00    -0.241 A  
HETATM   18  C   UNL     1     -10.294   9.124  67.062  1.00  0.00    -0.333 A  
BRANCH  16  19
HETATM   19  N   UNL     1     -11.087  11.336  69.960  1.00  0.00    -0.477 N  
HETATM   20  H   UNL     1     -10.631  12.145  70.383  1.00  0.00     0.000 HD 
BRANCH  19  21
HETATM   21  C   UNL     1     -12.099  10.699  70.669  1.00  0.00    -0.365 C  
HETATM   22  O   UNL     1     -13.270  10.710  70.310  1.00  0.00    -0.156 OA 
BRANCH  21  23
HETATM   23  N   UNL     1     -11.671  10.064  71.820  1.00  0.00    -0.179 N  
HETATM   24  H   UNL     1     -11.680  10.587  72.695  1.00  0.00     0.000 HD 
BRANCH  23  25
HETATM   25  C   UNL     1     -11.215   8.709  71.843  1.00  0.00    -0.343 A  
HETATM   26  C   UNL     1      -9.895   8.357  72.151  1.00  0.00    -0.372 A  
HETATM   27  C   UNL     1      -9.420   7.036  72.070  1.00  0.00    -0.149 A  
HETATM   28  C   UNL     1      -7.963   6.759  72.323  1.00  0.00    -0.095 C  
HETATM   29  C   UNL     1     -10.328   6.036  71.734  1.00  0.00    -0.215 A  
HETATM   30  F   UNL     1      -7.339   6.176  71.261  1.00  0.00    -0.073 F  
HETATM   31  F   UNL     1      -7.755   5.937  73.389  1.00  0.00    -0.098 F  
HETATM   32  F   UNL     1      -7.233   7.881  72.592  1.00  0.00    -0.070 F  
HETATM   33 CL   UNL     1      -9.860   4.378  71.630  1.00  0.00    -0.245 Cl 
HETATM   34  C   UNL     1     -11.668   6.359  71.475  1.00  0.00    -0.369 A  
HETATM   35  C   UNL     1     -12.111   7.688  71.524  1.00  0.00    -0.338 A  
ENDBRANCH  23  25
ENDBRANCH  21  23
ENDBRANCH  19  21
ENDBRANCH  16  19
ENDBRANCH  12  13
ENDBRANCH  10  12
ENDBRANCH   3   6
TORSDOF 7
ENDMDL
MODEL      280
REMARK 921   NORMALIZED FREE ENERGY PREDICTED BY IDOCK:   -3.95 KCAL/MOL
REMARK 922        TOTAL FREE ENERGY PREDICTED BY IDOCK:   -7.41 KCAL/MOL
REMARK 923 INTER-LIGAND FREE ENERGY PREDICTED BY IDOCK:   -6.19 KCAL/MOL
REMARK 924 INTRA-LIGAND FREE ENERGY PREDICTED BY IDOCK:   -1.22 KCAL/MOL
REMARK 927      BINDING AFFINITY PREDICTED BY RF-SCORE:    0.00 PKD
ROOT
HETATM    1  C   UNL     1      -6.377   3.819  64.909  1.00  0.00    -0.027 C  
HETATM    2  N   UNL     1      -6.434   5.253  64.965  1.00  0.00    -0.038 N  
HETATM    3  C   UNL     1      -7.611   5.916  65.238  1.00  0.00    -0.086 C  
HETATM    4  H   UNL     1      -5.585   5.793  64.799  1.00  0.00     0.000 HD 
HETATM    5  O   UNL     1      -8.679   5.345  65.436  1.00  0.00    -0.150 OA 
ENDROOT
BRANCH   3   6
HETATM    6  C   UNL     1      -7.500   7.409  65.307  1.00  0.00    -0.085 A  
HETATM    7  N   UNL     1      -6.275   7.931  65.595  1.00  0.00    -0.038 NA 
HETATM    8  C   UNL     1      -6.215   9.276  65.717  1.00  0.00    -0.056 A  
HETATM    9  C   UNL     1      -7.315  10.118  65.609  1.00  0.00    -0.144 A  
HETATM   10  C   UNL     1      -8.554   9.549  65.339  1.00  0.00    -0.155 A  
HETATM   11  C   UNL     1      -8.642   8.173  65.128  1.00  0.00    -0.097 A  
BRANCH  10  12
HETATM   12  O   UNL     1      -9.643  10.401  65.283  1.00  0.00    -0.216 OA 
BRANCH  12  13
HETATM   13  C   UNL     1     -10.353  10.620  66.447  1.00  0.00    -0.231 A  
HETATM   14  C   UNL     1     -10.848  11.871  66.794  1.00  0.00    -0.307 A  
HETATM   15  C   UNL     1     -11.421  12.068  68.046  1.00  0.00    -0.392 A  
HETATM   16  C   UNL     1     -11.629  11.008  68.935  1.00  0.00    -0.314 A  
HETATM   17  C   UNL     1     -11.213   9.732  68.545  1.00  0.00    -0.069 A  
HETATM   18  C   UNL     1     -10.578   9.539  67.303  1.00  0.00    -0.317 A  
BRANCH  16  19
HETATM   19  N   UNL     1     -12.239  11.195  70.205  1.00  0.00    -0.329 N  
HETATM   20  H   UNL     1     -12.347  12.146  70.558  1.00  0.00     0.000 HD 
BRANCH  19  21
HETATM   21  C   UNL     1     -12.696  10.141  70.987  1.00  0.00    -0.386 C  
HETATM   22  O   UNL     1     -13.723   9.524  70.738  1.00  0.00    -0.118 OA 
BRANCH  21  23
HETATM   23  N   UNL     1     -11.895   9.859  72.079  1.00  0.00    -0.033 N  
HETATM   24  H   UNL     1     -11.977  10.451  72.906  1.00  0.00     0.000 HD 
BRANCH  23  25
HETATM   25  C   UNL     1     -10.959   8.779  72.106  1.00  0.00    -0.334 A  
HETATM   26  C   UNL     1     -11.318   7.470  72.447  1.00  0.00    -0.360 A  
HETATM   27  C   UNL     1     -10.379   6.432  72.577  1.00  0.00    -0.212 A  
HETATM   28  C   UNL     1     -10.838   5.077  73.043  1.00  0.00    -0.273 C  
HETATM   29  C   UNL     1      -9.048   6.715  72.285  1.00  0.00    -0.137 A  
HETATM   30  F   UNL     1     -10.221   4.669  74.188  1.00  0.00    -0.163 F  
HETATM   31  F   UNL     1     -10.625   4.097  72.122  1.00  0.00    -0.237 F  
HETATM   32  F   UNL     1     -12.174   5.018  73.321  1.00  0.00    -0.319 F  
HETATM   33 CL   UNL     1      -7.817   5.511  72.388  1.00  0.00    -0.102 Cl 
HETATM   34  C   UNL     1      -8.674   8.006  71.889  1.00  0.00    -0.184 A  
HETATM   35  C   UNL     1      -9.621   9.037  71.803  1.00  0.00    -0.278 A  
ENDBRANCH  23  25
ENDBRANCH  21  23
ENDBRANCH  19  21
ENDBRANCH  16  19
ENDBRANCH  12  13
ENDBRANCH  10  12
ENDBRANCH   3   6
TORSDOF 7
ENDMDL
MODEL      281
REMARK 921   NORMALIZED FREE ENERGY PREDICTED BY IDOCK:   -3.94 KCAL/MOL
REMARK 922        TOTAL FREE ENERGY PREDICTED BY IDOCK:   -7.40 KCAL/MOL
REMARK 923 INTER-LIGAND FREE ENERGY PREDICTED BY IDOCK:   -6.75 KCAL/MOL
REMARK 924 INTRA-LIGAND FREE ENERGY PREDICTED BY IDOCK:   -0.65 KCAL/MOL
REMARK 927      BINDING AFFINITY PREDICTED BY RF-SCORE:    0.00 PKD
ROOT
HETATM    1  C   UNL     1     -13.031   9.688  70.743  1.00  0.00    -0.087 C  
HETATM    2  N   UNL     1     -11.973   8.717  70.764  1.00  0.00    -0.460 N  
HETATM    3  C   UNL     1     -12.188   7.429  71.206  1.00  0.00    -0.341 C  
HETATM    4  H   UNL     1     -11.043   8.985  70.445  1.00  0.00     0.000 HD 
HETATM    5  O   UNL     1     -13.271   7.027  71.621  1.00  0.00    -0.374 OA 
ENDROOT
BRANCH   3   6
HETATM    6  C   UNL     1     -10.998   6.520  71.126  1.00  0.00    -0.266 A  
HETATM    7  N   UNL     1     -10.916   5.519  72.046  1.00  0.00    -0.236 NA 
HETATM    8  C   UNL     1      -9.801   4.755  71.995  1.00  0.00    -0.176 A  
HETATM    9  C   UNL     1      -8.754   4.964  71.107  1.00  0.00    -0.143 A  
HETATM   10  C   UNL     1      -8.861   6.011  70.199  1.00  0.00    -0.143 A  
HETATM   11  C   UNL     1     -10.030   6.771  70.168  1.00  0.00    -0.191 A  
BRANCH  10  12
HETATM   12  O   UNL     1      -7.785   6.230  69.357  1.00  0.00    -0.096 OA 
BRANCH  12  13
HETATM   13  C   UNL     1      -7.815   7.347  68.546  1.00  0.00    -0.122 A  
HETATM   14  C   UNL     1      -7.395   8.598  68.983  1.00  0.00    -0.077 A  
HETATM   15  C   UNL     1      -7.589   9.715  68.178  1.00  0.00    -0.082 A  
HETATM   16  C   UNL     1      -8.090   9.607  66.876  1.00  0.00    -0.113 A  
HETATM   17  C   UNL     1      -8.426   8.334  66.405  1.00  0.00    -0.125 A  
HETATM   18  C   UNL     1      -8.287   7.208  67.239  1.00  0.00    -0.119 A  
BRANCH  16  19
HETATM   19  N   UNL     1      -8.266  10.740  66.037  1.00  0.00    -0.162 N  
HETATM   20  H   UNL     1      -7.622  10.873  65.257  1.00  0.00     0.000 HD 
BRANCH  19  21
HETATM   21  C   UNL     1      -9.275  11.676  66.231  1.00  0.00    -0.217 C  
HETATM   22  O   UNL     1     -10.366  11.388  66.706  1.00  0.00    -0.218 OA 
BRANCH  21  23
HETATM   23  N   UNL     1      -8.943  12.957  65.830  1.00  0.00    -0.214 N  
HETATM   24  H   UNL     1      -8.524  13.083  64.908  1.00  0.00     0.000 HD 
BRANCH  23  25
HETATM   25  C   UNL     1      -9.159  14.113  66.643  1.00  0.00    -0.216 A  
HETATM   26  C   UNL     1      -9.922  14.085  67.816  1.00  0.00    -0.236 A  
HETATM   27  C   UNL     1     -10.223  15.242  68.557  1.00  0.00    -0.224 A  
HETATM   28  C   UNL     1     -11.131  15.137  69.752  1.00  0.00    -0.278 C  
HETATM   29  C   UNL     1      -9.677  16.449  68.132  1.00  0.00    -0.229 A  
HETATM   30  F   UNL     1     -12.247  15.912  69.644  1.00  0.00    -0.354 F  
HETATM   31  F   UNL     1     -10.523  15.499  70.915  1.00  0.00    -0.325 F  
HETATM   32  F   UNL     1     -11.598  13.873  69.974  1.00  0.00    -0.304 F  
HETATM   33 CL   UNL     1      -9.960  17.925  68.979  1.00  0.00    -0.318 Cl 
HETATM   34  C   UNL     1      -8.865  16.491  66.990  1.00  0.00    -0.217 A  
HETATM   35  C   UNL     1      -8.609  15.332  66.244  1.00  0.00    -0.087 A  
ENDBRANCH  23  25
ENDBRANCH  21  23
ENDBRANCH  19  21
ENDBRANCH  16  19
ENDBRANCH  12  13
ENDBRANCH  10  12
ENDBRANCH   3   6
TORSDOF 7
ENDMDL
MODEL      282
REMARK 921   NORMALIZED FREE ENERGY PREDICTED BY IDOCK:   -3.94 KCAL/MOL
REMARK 922        TOTAL FREE ENERGY PREDICTED BY IDOCK:   -7.39 KCAL/MOL
REMARK 923 INTER-LIGAND FREE ENERGY PREDICTED BY IDOCK:   -6.29 KCAL/MOL
REMARK 924 INTRA-LIGAND FREE ENERGY PREDICTED BY IDOCK:   -1.11 KCAL/MOL
REMARK 927      BINDING AFFINITY PREDICTED BY RF-SCORE:    0.00 PKD
ROOT
HETATM    1  C   UNL     1      -9.420   3.327  68.113  1.00  0.00    -0.155 C  
HETATM    2  N   UNL     1      -9.066   4.344  67.163  1.00  0.00    -0.124 N  
HETATM    3  C   UNL     1      -8.868   4.048  65.832  1.00  0.00    -0.123 C  
HETATM    4  H   UNL     1      -8.958   5.307  67.481  1.00  0.00     0.000 HD 
HETATM    5  O   UNL     1      -8.963   2.916  65.369  1.00  0.00    -0.134 OA 
ENDROOT
BRANCH   3   6
HETATM    6  C   UNL     1      -8.548   5.224  64.958  1.00  0.00    -0.150 A  
HETATM    7  N   UNL     1      -8.683   5.056  63.613  1.00  0.00    -0.118 NA 
HETATM    8  C   UNL     1      -8.324   6.108  62.843  1.00  0.00     0.025 A  
HETATM    9  C   UNL     1      -7.801   7.294  63.340  1.00  0.00    -0.110 A  
HETATM   10  C   UNL     1      -7.654   7.422  64.717  1.00  0.00    -0.103 A  
HETATM   11  C   UNL     1      -8.087   6.389  65.548  1.00  0.00    -0.130 A  
BRANCH  10  12
HETATM   12  O   UNL     1      -7.086   8.593  65.186  1.00  0.00    -0.083 OA 
BRANCH  12  13
HETATM   13  C   UNL     1      -7.864   9.419  65.974  1.00  0.00    -0.099 A  
HETATM   14  C   UNL     1      -7.683   9.526  67.348  1.00  0.00    -0.095 A  
HETATM   15  C   UNL     1      -8.590  10.252  68.112  1.00  0.00    -0.119 A  
HETATM   16  C   UNL     1      -9.624  10.989  67.525  1.00  0.00    -0.164 A  
HETATM   17  C   UNL     1      -9.748  10.953  66.133  1.00  0.00    -0.252 A  
HETATM   18  C   UNL     1      -8.868  10.171  65.361  1.00  0.00    -0.196 A  
BRANCH  16  19
HETATM   19  N   UNL     1     -10.538  11.756  68.297  1.00  0.00    -0.203 N  
HETATM   20  H   UNL     1     -10.990  11.314  69.098  1.00  0.00     0.000 HD 
BRANCH  19  21
HETATM   21  C   UNL     1     -10.844  13.081  68.011  1.00  0.00    -0.242 C  
HETATM   22  O   UNL     1     -11.672  13.405  67.169  1.00  0.00    -0.337 OA 
BRANCH  21  23
HETATM   23  N   UNL     1     -10.123  14.001  68.750  1.00  0.00    -0.328 N  
HETATM   24  H   UNL     1     -10.130  13.918  69.767  1.00  0.00     0.000 HD 
BRANCH  23  25
HETATM   25  C   UNL     1      -9.368  15.062  68.160  1.00  0.00    -0.187 A  
HETATM   26  C   UNL     1      -9.854  16.370  68.052  1.00  0.00    -0.238 A  
HETATM   27  C   UNL     1      -9.158  17.388  67.376  1.00  0.00    -0.236 A  
HETATM   28  C   UNL     1      -9.797  18.741  67.222  1.00  0.00    -0.317 C  
HETATM   29  C   UNL     1      -7.902  17.086  66.857  1.00  0.00    -0.213 A  
HETATM   30  F   UNL     1      -9.949  19.114  65.920  1.00  0.00    -0.384 F  
HETATM   31  F   UNL     1      -9.088  19.736  67.825  1.00  0.00    -0.349 F  
HETATM   32  F   UNL     1     -11.048  18.819  67.762  1.00  0.00    -0.414 F  
HETATM   33 CL   UNL     1      -6.950  18.264  66.032  1.00  0.00    -0.298 Cl 
HETATM   34  C   UNL     1      -7.373  15.796  67.002  1.00  0.00    -0.226 A  
HETATM   35  C   UNL     1      -8.101  14.785  67.645  1.00  0.00    -0.183 A  
ENDBRANCH  23  25
ENDBRANCH  21  23
ENDBRANCH  19  21
ENDBRANCH  16  19
ENDBRANCH  12  13
ENDBRANCH  10  12
ENDBRANCH   3   6
TORSDOF 7
ENDMDL
MODEL      283
REMARK 921   NORMALIZED FREE ENERGY PREDICTED BY IDOCK:   -3.93 KCAL/MOL
REMARK 922        TOTAL FREE ENERGY PREDICTED BY IDOCK:   -7.39 KCAL/MOL
REMARK 923 INTER-LIGAND FREE ENERGY PREDICTED BY IDOCK:   -5.60 KCAL/MOL
REMARK 924 INTRA-LIGAND FREE ENERGY PREDICTED BY IDOCK:   -1.79 KCAL/MOL
REMARK 927      BINDING AFFINITY PREDICTED BY RF-SCORE:    0.00 PKD
ROOT
HETATM    1  C   UNL     1     -12.579  15.454  68.850  1.00  0.00     0.408 C  
HETATM    2  N   UNL     1     -11.213  15.544  68.414  1.00  0.00    -0.323 N  
HETATM    3  C   UNL     1     -10.169  15.536  69.314  1.00  0.00    -0.252 C  
HETATM    4  H   UNL     1     -11.011  15.615  67.417  1.00  0.00     0.000 HD 
HETATM    5  O   UNL     1     -10.323  15.468  70.529  1.00  0.00    -0.260 OA 
ENDROOT
BRANCH   3   6
HETATM    6  C   UNL     1      -8.801  15.591  68.703  1.00  0.00    -0.193 A  
HETATM    7  N   UNL     1      -8.651  16.347  67.579  1.00  0.00    -0.172 NA 
HETATM    8  C   UNL     1      -7.424  16.327  67.009  1.00  0.00    -0.222 A  
HETATM    9  C   UNL     1      -6.361  15.565  67.475  1.00  0.00    -0.165 A  
HETATM   10  C   UNL     1      -6.557  14.787  68.611  1.00  0.00    -0.084 A  
HETATM   11  C   UNL     1      -7.784  14.843  69.272  1.00  0.00    -0.166 A  
BRANCH  10  12
HETATM   12  O   UNL     1      -5.499  14.000  69.029  1.00  0.00    -0.082 OA 
BRANCH  12  13
HETATM   13  C   UNL     1      -5.746  12.665  69.282  1.00  0.00    -0.081 A  
HETATM   14  C   UNL     1      -5.689  12.125  70.561  1.00  0.00    -0.160 A  
HETATM   15  C   UNL     1      -5.795  10.750  70.738  1.00  0.00    -0.081 A  
HETATM   16  C   UNL     1      -6.082   9.890  69.672  1.00  0.00    -0.042 A  
HETATM   17  C   UNL     1      -6.230  10.448  68.399  1.00  0.00    -0.047 A  
HETATM   18  C   UNL     1      -6.064  11.833  68.206  1.00  0.00    -0.049 A  
BRANCH  16  19
HETATM   19  N   UNL     1      -6.219   8.487  69.849  1.00  0.00    -0.031 N  
HETATM   20  H   UNL     1      -5.503   7.991  70.380  1.00  0.00     0.000 HD 
BRANCH  19  21
HETATM   21  C   UNL     1      -7.284   7.760  69.331  1.00  0.00    -0.080 C  
HETATM   22  O   UNL     1      -7.367   7.452  68.149  1.00  0.00    -0.094 OA 
BRANCH  21  23
HETATM   23  N   UNL     1      -8.248   7.425  70.265  1.00  0.00    -0.130 N  
HETATM   24  H   UNL     1      -8.128   6.563  70.798  1.00  0.00     0.000 HD 
BRANCH  23  25
HETATM   25  C   UNL     1      -9.404   8.226  70.521  1.00  0.00    -0.159 A  
HETATM   26  C   UNL     1      -9.830   9.242  69.656  1.00  0.00    -0.196 A  
HETATM   27  C   UNL     1     -10.902  10.099  69.959  1.00  0.00    -0.361 A  
HETATM   28  C   UNL     1     -11.232  11.227  69.020  1.00  0.00    -0.258 C  
HETATM   29  C   UNL     1     -11.604   9.875  71.140  1.00  0.00    -0.389 A  
HETATM   30  F   UNL     1     -11.160  12.453  69.611  1.00  0.00    -0.240 F  
HETATM   31  F   UNL     1     -12.484  11.130  68.491  1.00  0.00    -0.261 F  
HETATM   32  F   UNL     1     -10.397  11.303  67.942  1.00  0.00    -0.180 F  
HETATM   33 CL   UNL     1     -12.951  10.851  71.599  1.00  0.00    -0.569 Cl 
HETATM   34  C   UNL     1     -11.228   8.829  71.995  1.00  0.00    -0.443 A  
HETATM   35  C   UNL     1     -10.131   8.010  71.692  1.00  0.00    -0.238 A  
ENDBRANCH  23  25
ENDBRANCH  21  23
ENDBRANCH  19  21
ENDBRANCH  16  19
ENDBRANCH  12  13
ENDBRANCH  10  12
ENDBRANCH   3   6
TORSDOF 7
ENDMDL
MODEL      284
REMARK 921   NORMALIZED FREE ENERGY PREDICTED BY IDOCK:   -3.92 KCAL/MOL
REMARK 922        TOTAL FREE ENERGY PREDICTED BY IDOCK:   -7.38 KCAL/MOL
REMARK 923 INTER-LIGAND FREE ENERGY PREDICTED BY IDOCK:   -6.29 KCAL/MOL
REMARK 924 INTRA-LIGAND FREE ENERGY PREDICTED BY IDOCK:   -1.09 KCAL/MOL
REMARK 927      BINDING AFFINITY PREDICTED BY RF-SCORE:    0.00 PKD
ROOT
HETATM    1  C   UNL     1      -7.365  19.644  67.794  1.00  0.00    -0.271 C  
HETATM    2  N   UNL     1      -6.798  18.387  68.197  1.00  0.00    -0.223 N  
HETATM    3  C   UNL     1      -7.547  17.231  68.208  1.00  0.00    -0.227 C  
HETATM    4  H   UNL     1      -5.819  18.349  68.480  1.00  0.00     0.000 HD 
HETATM    5  O   UNL     1      -8.733  17.189  67.896  1.00  0.00    -0.214 OA 
ENDROOT
BRANCH   3   6
HETATM    6  C   UNL     1      -6.803  15.993  68.610  1.00  0.00    -0.131 A  
HETATM    7  N   UNL     1      -6.461  15.870  69.923  1.00  0.00    -0.154 NA 
HETATM    8  C   UNL     1      -5.732  14.778  70.248  1.00  0.00    -0.139 A  
HETATM    9  C   UNL     1      -5.295  13.832  69.330  1.00  0.00    -0.078 A  
HETATM   10  C   UNL     1      -5.643  14.002  67.995  1.00  0.00    -0.124 A  
HETATM   11  C   UNL     1      -6.460  15.072  67.633  1.00  0.00    -0.175 A  
BRANCH  10  12
HETATM   12  O   UNL     1      -5.157  13.073  67.091  1.00  0.00    -0.329 OA 
BRANCH  12  13
HETATM   13  C   UNL     1      -5.806  11.858  67.000  1.00  0.00    -0.153 A  
HETATM   14  C   UNL     1      -6.927  11.552  67.763  1.00  0.00    -0.078 A  
HETATM   15  C   UNL     1      -7.448  10.263  67.744  1.00  0.00    -0.088 A  
HETATM   16  C   UNL     1      -6.952   9.281  66.879  1.00  0.00    -0.081 A  
HETATM   17  C   UNL     1      -5.882   9.619  66.045  1.00  0.00    -0.061 A  
HETATM   18  C   UNL     1      -5.313  10.906  66.105  1.00  0.00    -0.121 A  
BRANCH  16  19
HETATM   19  N   UNL     1      -7.496   7.969  66.833  1.00  0.00    -0.090 N  
HETATM   20  H   UNL     1      -7.152   7.275  67.496  1.00  0.00     0.000 HD 
BRANCH  19  21
HETATM   21  C   UNL     1      -8.478   7.589  65.925  1.00  0.00    -0.147 C  
HETATM   22  O   UNL     1      -8.228   7.272  64.769  1.00  0.00    -0.124 OA 
BRANCH  21  23
HETATM   23  N   UNL     1      -9.762   7.612  66.438  1.00  0.00    -0.393 N  
HETATM   24  H   UNL     1     -10.387   6.837  66.214  1.00  0.00     0.000 HD 
BRANCH  23  25
HETATM   25  C   UNL     1     -10.256   8.667  67.266  1.00  0.00    -0.268 A  
HETATM   26  C   UNL     1     -10.559   9.942  66.772  1.00  0.00    -0.214 A  
HETATM   27  C   UNL     1     -10.942  11.009  67.604  1.00  0.00    -0.332 A  
HETATM   28  C   UNL     1     -11.153  12.372  67.003  1.00  0.00    -0.278 C  
HETATM   29  C   UNL     1     -11.090  10.756  68.964  1.00  0.00    -0.253 A  
HETATM   30  F   UNL     1     -10.341  13.325  67.542  1.00  0.00    -0.222 F  
HETATM   31  F   UNL     1     -12.429  12.827  67.152  1.00  0.00    -0.267 F  
HETATM   32  F   UNL     1     -10.914  12.420  65.660  1.00  0.00    -0.288 F  
HETATM   33 CL   UNL     1     -11.580  11.985  70.071  1.00  0.00    -0.325 Cl 
HETATM   34  C   UNL     1     -10.846   9.473  69.472  1.00  0.00    -0.243 A  
HETATM   35  C   UNL     1     -10.426   8.432  68.632  1.00  0.00    -0.197 A  
ENDBRANCH  23  25
ENDBRANCH  21  23
ENDBRANCH  19  21
ENDBRANCH  16  19
ENDBRANCH  12  13
ENDBRANCH  10  12
ENDBRANCH   3   6
TORSDOF 7
ENDMDL
MODEL      285
REMARK 921   NORMALIZED FREE ENERGY PREDICTED BY IDOCK:   -3.91 KCAL/MOL
REMARK 922        TOTAL FREE ENERGY PREDICTED BY IDOCK:   -7.36 KCAL/MOL
REMARK 923 INTER-LIGAND FREE ENERGY PREDICTED BY IDOCK:   -6.59 KCAL/MOL
REMARK 924 INTRA-LIGAND FREE ENERGY PREDICTED BY IDOCK:   -0.77 KCAL/MOL
REMARK 927      BINDING AFFINITY PREDICTED BY RF-SCORE:    0.00 PKD
ROOT
HETATM    1  C   UNL     1     -13.596  15.159  70.708  1.00  0.00    -0.245 C  
HETATM    2  N   UNL     1     -12.697  15.037  69.595  1.00  0.00    -0.599 N  
HETATM    3  C   UNL     1     -11.572  15.826  69.490  1.00  0.00    -0.363 C  
HETATM    4  H   UNL     1     -12.896  14.353  68.866  1.00  0.00     0.000 HD 
HETATM    5  O   UNL     1     -11.267  16.683  70.312  1.00  0.00    -0.262 OA 
ENDROOT
BRANCH   3   6
HETATM    6  C   UNL     1     -10.710  15.550  68.294  1.00  0.00    -0.271 A  
HETATM    7  N   UNL     1     -10.775  16.437  67.261  1.00  0.00    -0.296 NA 
HETATM    8  C   UNL     1     -10.040  16.131  66.168  1.00  0.00    -0.338 A  
HETATM    9  C   UNL     1      -9.283  14.975  66.037  1.00  0.00    -0.245 A  
HETATM   10  C   UNL     1      -9.259  14.080  67.101  1.00  0.00    -0.235 A  
HETATM   11  C   UNL     1      -9.941  14.399  68.275  1.00  0.00    -0.232 A  
BRANCH  10  12
HETATM   12  O   UNL     1      -8.537  12.913  66.930  1.00  0.00    -0.195 OA 
BRANCH  12  13
HETATM   13  C   UNL     1      -9.084  11.738  67.407  1.00  0.00    -0.175 A  
HETATM   14  C   UNL     1      -8.304  10.698  67.898  1.00  0.00    -0.120 A  
HETATM   15  C   UNL     1      -8.895   9.481  68.223  1.00  0.00    -0.124 A  
HETATM   16  C   UNL     1     -10.283   9.304  68.188  1.00  0.00    -0.205 A  
HETATM   17  C   UNL     1     -11.073  10.384  67.781  1.00  0.00    -0.365 A  
HETATM   18  C   UNL     1     -10.474  11.598  67.394  1.00  0.00    -0.239 A  
BRANCH  16  19
HETATM   19  N   UNL     1     -10.897   8.074  68.544  1.00  0.00    -0.417 N  
HETATM   20  H   UNL     1     -11.395   7.551  67.824  1.00  0.00     0.000 HD 
BRANCH  19  21
HETATM   21  C   UNL     1     -10.849   7.549  69.830  1.00  0.00    -0.240 C  
HETATM   22  O   UNL     1     -11.282   8.145  70.808  1.00  0.00    -0.257 OA 
BRANCH  21  23
HETATM   23  N   UNL     1     -10.259   6.301  69.911  1.00  0.00    -0.176 N  
HETATM   24  H   UNL     1     -10.581   5.658  70.634  1.00  0.00     0.000 HD 
BRANCH  23  25
HETATM   25  C   UNL     1      -9.219   5.867  69.031  1.00  0.00    -0.124 A  
HETATM   26  C   UNL     1      -9.460   5.070  67.905  1.00  0.00    -0.164 A  
HETATM   27  C   UNL     1      -8.427   4.556  67.102  1.00  0.00    -0.104 A  
HETATM   28  C   UNL     1      -8.768   3.626  65.969  1.00  0.00    -0.120 C  
HETATM   29  C   UNL     1      -7.119   4.918  67.408  1.00  0.00    -0.066 A  
HETATM   30  F   UNL     1      -8.172   2.406  66.082  1.00  0.00    -0.079 F  
HETATM   31  F   UNL     1      -8.408   4.117  64.751  1.00  0.00    -0.097 F  
HETATM   32  F   UNL     1     -10.103   3.360  65.864  1.00  0.00    -0.055 F  
HETATM   33 CL   UNL     1      -5.778   4.365  66.475  1.00  0.00    -0.018 Cl 
HETATM   34  C   UNL     1      -6.859   5.760  68.499  1.00  0.00    -0.063 A  
HETATM   35  C   UNL     1      -7.901   6.231  69.310  1.00  0.00    -0.105 A  
ENDBRANCH  23  25
ENDBRANCH  21  23
ENDBRANCH  19  21
ENDBRANCH  16  19
ENDBRANCH  12  13
ENDBRANCH  10  12
ENDBRANCH   3   6
TORSDOF 7
ENDMDL
MODEL      286
REMARK 921   NORMALIZED FREE ENERGY PREDICTED BY IDOCK:   -3.89 KCAL/MOL
REMARK 922        TOTAL FREE ENERGY PREDICTED BY IDOCK:   -7.33 KCAL/MOL
REMARK 923 INTER-LIGAND FREE ENERGY PREDICTED BY IDOCK:   -5.99 KCAL/MOL
REMARK 924 INTRA-LIGAND FREE ENERGY PREDICTED BY IDOCK:   -1.34 KCAL/MOL
REMARK 927      BINDING AFFINITY PREDICTED BY RF-SCORE:    0.00 PKD
ROOT
HETATM    1  C   UNL     1     -12.496  13.634  63.711  1.00  0.00    -0.197 C  
HETATM    2  N   UNL     1     -11.807  12.737  64.598  1.00  0.00    -0.353 N  
HETATM    3  C   UNL     1     -11.892  12.873  65.966  1.00  0.00    -0.430 C  
HETATM    4  H   UNL     1     -11.244  11.983  64.206  1.00  0.00     0.000 HD 
HETATM    5  O   UNL     1     -12.534  13.759  66.520  1.00  0.00    -0.404 OA 
ENDROOT
BRANCH   3   6
HETATM    6  C   UNL     1     -11.154  11.834  66.757  1.00  0.00    -0.306 A  
HETATM    7  N   UNL     1     -11.169  11.957  68.114  1.00  0.00    -0.237 NA 
HETATM    8  C   UNL     1     -10.442  11.047  68.801  1.00  0.00    -0.198 A  
HETATM    9  C   UNL     1      -9.672  10.055  68.207  1.00  0.00    -0.155 A  
HETATM   10  C   UNL     1      -9.661   9.975  66.819  1.00  0.00    -0.181 A  
HETATM   11  C   UNL     1     -10.461  10.845  66.079  1.00  0.00    -0.287 A  
BRANCH  10  12
HETATM   12  O   UNL     1      -8.850   9.011  66.248  1.00  0.00    -0.136 OA 
BRANCH  12  13
HETATM   13  C   UNL     1      -9.026   7.700  66.644  1.00  0.00    -0.156 A  
HETATM   14  C   UNL     1      -7.966   6.809  66.768  1.00  0.00    -0.108 A  
HETATM   15  C   UNL     1      -8.216   5.465  67.021  1.00  0.00    -0.104 A  
HETATM   16  C   UNL     1      -9.507   4.992  67.280  1.00  0.00    -0.136 A  
HETATM   17  C   UNL     1     -10.562   5.909  67.246  1.00  0.00    -0.365 A  
HETATM   18  C   UNL     1     -10.320   7.260  66.931  1.00  0.00    -0.358 A  
BRANCH  16  19
HETATM   19  N   UNL     1      -9.768   3.625  67.568  1.00  0.00    -0.220 N  
HETATM   20  H   UNL     1     -10.405   3.112  66.959  1.00  0.00     0.000 HD 
BRANCH  19  21
HETATM   21  C   UNL     1      -9.193   2.955  68.641  1.00  0.00    -0.173 C  
HETATM   22  O   UNL     1      -8.283   2.145  68.509  1.00  0.00    -0.056 OA 
BRANCH  21  23
HETATM   23  N   UNL     1      -9.745   3.272  69.868  1.00  0.00    -0.092 N  
HETATM   24  H   UNL     1     -10.461   2.654  70.252  1.00  0.00     0.000 HD 
BRANCH  23  25
HETATM   25  C   UNL     1      -9.364   4.424  70.625  1.00  0.00    -0.152 A  
HETATM   26  C   UNL     1      -8.035   4.705  70.961  1.00  0.00    -0.082 A  
HETATM   27  C   UNL     1      -7.671   5.778  71.795  1.00  0.00    -0.101 A  
HETATM   28  C   UNL     1      -6.228   5.951  72.186  1.00  0.00    -0.041 C  
HETATM   29  C   UNL     1      -8.678   6.628  72.242  1.00  0.00    -0.132 A  
HETATM   30  F   UNL     1      -6.032   5.911  73.534  1.00  0.00    -0.051 F  
HETATM   31  F   UNL     1      -5.699   7.130  71.756  1.00  0.00    -0.035 F  
HETATM   32  F   UNL     1      -5.406   4.986  71.679  1.00  0.00    -0.004 F  
HETATM   33 CL   UNL     1      -8.342   7.988  73.249  1.00  0.00    -0.246 Cl 
HETATM   34  C   UNL     1     -10.011   6.395  71.873  1.00  0.00    -0.193 A  
HETATM   35  C   UNL     1     -10.356   5.298  71.072  1.00  0.00    -0.298 A  
ENDBRANCH  23  25
ENDBRANCH  21  23
ENDBRANCH  19  21
ENDBRANCH  16  19
ENDBRANCH  12  13
ENDBRANCH  10  12
ENDBRANCH   3   6
TORSDOF 7
ENDMDL
MODEL      287
REMARK 921   NORMALIZED FREE ENERGY PREDICTED BY IDOCK:   -3.87 KCAL/MOL
REMARK 922        TOTAL FREE ENERGY PREDICTED BY IDOCK:   -7.30 KCAL/MOL
REMARK 923 INTER-LIGAND FREE ENERGY PREDICTED BY IDOCK:   -7.41 KCAL/MOL
REMARK 924 INTRA-LIGAND FREE ENERGY PREDICTED BY IDOCK:    0.11 KCAL/MOL
REMARK 927      BINDING AFFINITY PREDICTED BY RF-SCORE:    0.00 PKD
ROOT
HETATM    1  C   UNL     1     -12.649  14.081  65.048  1.00  0.00    -0.390 C  
HETATM    2  N   UNL     1     -11.563  14.860  65.575  1.00  0.00    -0.308 N  
HETATM    3  C   UNL     1     -11.153  16.026  64.964  1.00  0.00    -0.336 C  
HETATM    4  H   UNL     1     -11.086  14.545  66.418  1.00  0.00     0.000 HD 
HETATM    5  O   UNL     1     -11.662  16.469  63.940  1.00  0.00    -1.148 OA 
ENDROOT
BRANCH   3   6
HETATM    6  C   UNL     1     -10.038  16.750  65.657  1.00  0.00    -0.189 A  
HETATM    7  N   UNL     1     -10.173  18.096  65.817  1.00  0.00    -0.597 NA 
HETATM    8  C   UNL     1      -9.125  18.736  66.383  1.00  0.00    -0.300 A  
HETATM    9  C   UNL     1      -7.942  18.112  66.758  1.00  0.00    -0.262 A  
HETATM   10  C   UNL     1      -7.829  16.741  66.559  1.00  0.00    -0.303 A  
HETATM   11  C   UNL     1      -8.918  16.035  66.050  1.00  0.00    -0.345 A  
BRANCH  10  12
HETATM   12  O   UNL     1      -6.625  16.150  66.895  1.00  0.00    -0.255 OA 
BRANCH  12  13
HETATM   13  C   UNL     1      -6.657  14.890  67.459  1.00  0.00    -0.112 A  
HETATM   14  C   UNL     1      -5.505  14.150  67.699  1.00  0.00     0.057 A  
HETATM   15  C   UNL     1      -5.605  12.830  68.125  1.00  0.00    -0.080 A  
HETATM   16  C   UNL     1      -6.839  12.250  68.443  1.00  0.00    -0.075 A  
HETATM   17  C   UNL     1      -7.990  13.029  68.288  1.00  0.00    -0.151 A  
HETATM   18  C   UNL     1      -7.898  14.346  67.799  1.00  0.00    -0.169 A  
BRANCH  16  19
HETATM   19  N   UNL     1      -6.947  10.912  68.906  1.00  0.00    -0.076 N  
HETATM   20  H   UNL     1      -7.063  10.166  68.219  1.00  0.00     0.000 HD 
BRANCH  19  21
HETATM   21  C   UNL     1      -6.903  10.571  70.252  1.00  0.00    -0.090 C  
HETATM   22  O   UNL     1      -6.084  11.043  71.031  1.00  0.00    -0.365 OA 
BRANCH  21  23
HETATM   23  N   UNL     1      -7.855   9.643  70.633  1.00  0.00    -0.126 N  
HETATM   24  H   UNL     1      -8.536   9.911  71.344  1.00  0.00     0.000 HD 
BRANCH  23  25
HETATM   25  C   UNL     1      -7.932   8.327  70.080  1.00  0.00    -0.104 A  
HETATM   26  C   UNL     1      -9.147   7.697  69.785  1.00  0.00    -0.147 A  
HETATM   27  C   UNL     1      -9.226   6.364  69.343  1.00  0.00    -0.143 A  
HETATM   28  C   UNL     1     -10.577   5.733  69.144  1.00  0.00    -0.294 C  
HETATM   29  C   UNL     1      -8.035   5.676  69.127  1.00  0.00    -0.096 A  
HETATM   30  F   UNL     1     -10.765   4.623  69.913  1.00  0.00    -0.182 F  
HETATM   31  F   UNL     1     -10.800   5.349  67.856  1.00  0.00    -0.242 F  
HETATM   32  F   UNL     1     -11.618   6.560  69.454  1.00  0.00    -0.402 F  
HETATM   33 CL   UNL     1      -8.014   4.047  68.561  1.00  0.00    -0.072 Cl 
HETATM   34  C   UNL     1      -6.806   6.307  69.363  1.00  0.00    -0.065 A  
HETATM   35  C   UNL     1      -6.750   7.623  69.841  1.00  0.00    -0.046 A  
ENDBRANCH  23  25
ENDBRANCH  21  23
ENDBRANCH  19  21
ENDBRANCH  16  19
ENDBRANCH  12  13
ENDBRANCH  10  12
ENDBRANCH   3   6
TORSDOF 7
ENDMDL
MODEL      288
REMARK 921   NORMALIZED FREE ENERGY PREDICTED BY IDOCK:   -3.82 KCAL/MOL
REMARK 922        TOTAL FREE ENERGY PREDICTED BY IDOCK:   -7.23 KCAL/MOL
REMARK 923 INTER-LIGAND FREE ENERGY PREDICTED BY IDOCK:   -5.90 KCAL/MOL
REMARK 924 INTRA-LIGAND FREE ENERGY PREDICTED BY IDOCK:   -1.32 KCAL/MOL
REMARK 927      BINDING AFFINITY PREDICTED BY RF-SCORE:    0.00 PKD
ROOT
HETATM    1  C   UNL     1      -6.285  19.238  66.007  1.00  0.00    -0.184 C  
HETATM    2  N   UNL     1      -7.263  18.189  65.933  1.00  0.00    -0.266 N  
HETATM    3  C   UNL     1      -7.074  16.983  66.573  1.00  0.00    -0.271 C  
HETATM    4  H   UNL     1      -8.116  18.339  65.396  1.00  0.00     0.000 HD 
HETATM    5  O   UNL     1      -6.072  16.713  67.227  1.00  0.00    -0.133 OA 
ENDROOT
BRANCH   3   6
HETATM    6  C   UNL     1      -8.203  16.006  66.439  1.00  0.00    -0.274 A  
HETATM    7  N   UNL     1      -9.243  16.363  65.634  1.00  0.00    -0.438 NA 
HETATM    8  C   UNL     1     -10.279  15.495  65.582  1.00  0.00    -0.376 A  
HETATM    9  C   UNL     1     -10.349  14.320  66.319  1.00  0.00    -0.297 A  
HETATM   10  C   UNL     1      -9.281  14.000  67.148  1.00  0.00    -0.235 A  
HETATM   11  C   UNL     1      -8.160  14.829  67.168  1.00  0.00    -0.226 A  
BRANCH  10  12
HETATM   12  O   UNL     1      -9.393  12.850  67.909  1.00  0.00    -0.193 OA 
BRANCH  12  13
HETATM   13  C   UNL     1      -9.509  11.644  67.245  1.00  0.00    -0.168 A  
HETATM   14  C   UNL     1     -10.353  10.630  67.683  1.00  0.00    -0.246 A  
HETATM   15  C   UNL     1     -10.318   9.384  67.067  1.00  0.00    -0.322 A  
HETATM   16  C   UNL     1      -9.540   9.147  65.929  1.00  0.00    -0.273 A  
HETATM   17  C   UNL     1      -8.761  10.198  65.435  1.00  0.00    -0.176 A  
HETATM   18  C   UNL     1      -8.748  11.444  66.092  1.00  0.00    -0.153 A  
BRANCH  16  19
HETATM   19  N   UNL     1      -9.519   7.885  65.277  1.00  0.00     0.002 N  
HETATM   20  H   UNL     1     -10.385   7.534  64.868  1.00  0.00     0.000 HD 
BRANCH  19  21
HETATM   21  C   UNL     1      -8.372   7.107  65.170  1.00  0.00    -0.076 C  
HETATM   22  O   UNL     1      -7.603   7.182  64.220  1.00  0.00    -0.097 OA 
BRANCH  21  23
HETATM   23  N   UNL     1      -8.182   6.233  66.225  1.00  0.00    -0.113 N  
HETATM   24  H   UNL     1      -8.242   5.231  66.041  1.00  0.00     0.000 HD 
BRANCH  23  25
HETATM   25  C   UNL     1      -7.907   6.663  67.560  1.00  0.00    -0.111 A  
HETATM   26  C   UNL     1      -8.798   6.465  68.621  1.00  0.00    -0.120 A  
HETATM   27  C   UNL     1      -8.575   6.982  69.909  1.00  0.00    -0.141 A  
HETATM   28  C   UNL     1      -9.632   6.808  70.966  1.00  0.00    -0.170 C  
HETATM   29  C   UNL     1      -7.382   7.658  70.144  1.00  0.00    -0.076 A  
HETATM   30  F   UNL     1     -10.088   7.991  71.465  1.00  0.00    -0.190 F  
HETATM   31  F   UNL     1      -9.200   6.082  72.035  1.00  0.00    -0.145 F  
HETATM   32  F   UNL     1     -10.746   6.156  70.523  1.00  0.00    -0.260 F  
HETATM   33 CL   UNL     1      -6.994   8.312  71.693  1.00  0.00    -0.072 Cl 
HETATM   34  C   UNL     1      -6.450   7.820  69.109  1.00  0.00    -0.036 A  
HETATM   35  C   UNL     1      -6.709   7.331  67.822  1.00  0.00    -0.065 A  
ENDBRANCH  23  25
ENDBRANCH  21  23
ENDBRANCH  19  21
ENDBRANCH  16  19
ENDBRANCH  12  13
ENDBRANCH  10  12
ENDBRANCH   3   6
TORSDOF 7
ENDMDL
MODEL      289
REMARK 921   NORMALIZED FREE ENERGY PREDICTED BY IDOCK:   -3.81 KCAL/MOL
REMARK 922        TOTAL FREE ENERGY PREDICTED BY IDOCK:   -7.22 KCAL/MOL
REMARK 923 INTER-LIGAND FREE ENERGY PREDICTED BY IDOCK:   -6.40 KCAL/MOL
REMARK 924 INTRA-LIGAND FREE ENERGY PREDICTED BY IDOCK:   -0.81 KCAL/MOL
REMARK 927      BINDING AFFINITY PREDICTED BY RF-SCORE:    0.00 PKD
ROOT
HETATM    1  C   UNL     1     -11.953   1.498  73.542  1.00  0.00    -0.186 C  
HETATM    2  N   UNL     1     -11.005   2.552  73.774  1.00  0.00    -0.195 N  
HETATM    3  C   UNL     1      -9.718   2.481  73.287  1.00  0.00    -0.098 C  
HETATM    4  H   UNL     1     -11.291   3.371  74.310  1.00  0.00     0.000 HD 
HETATM    5  O   UNL     1      -9.288   1.528  72.645  1.00  0.00    -0.071 OA 
ENDROOT
BRANCH   3   6
HETATM    6  C   UNL     1      -8.862   3.678  73.573  1.00  0.00    -0.092 A  
HETATM    7  N   UNL     1      -7.557   3.449  73.893  1.00  0.00    -0.060 NA 
HETATM    8  C   UNL     1      -6.823   4.539  74.212  1.00  0.00    -0.066 A  
HETATM    9  C   UNL     1      -7.330   5.830  74.270  1.00  0.00    -0.088 A  
HETATM   10  C   UNL     1      -8.672   6.024  73.961  1.00  0.00    -0.119 A  
HETATM   11  C   UNL     1      -9.441   4.936  73.550  1.00  0.00    -0.139 A  
BRANCH  10  12
HETATM   12  O   UNL     1      -9.167   7.311  74.072  1.00  0.00    -0.221 OA 
BRANCH  12  13
HETATM   13  C   UNL     1      -9.453   7.997  72.908  1.00  0.00    -0.277 A  
HETATM   14  C   UNL     1     -10.754   8.269  72.503  1.00  0.00    -0.411 A  
HETATM   15  C   UNL     1     -10.989   8.825  71.250  1.00  0.00    -0.345 A  
HETATM   16  C   UNL     1      -9.941   9.240  70.421  1.00  0.00    -0.237 A  
HETATM   17  C   UNL     1      -8.631   9.048  70.871  1.00  0.00    -0.263 A  
HETATM   18  C   UNL     1      -8.389   8.430  72.113  1.00  0.00    -0.225 A  
BRANCH  16  19
HETATM   19  N   UNL     1     -10.172   9.835  69.151  1.00  0.00    -0.188 N  
HETATM   20  H   UNL     1     -10.901  10.545  69.071  1.00  0.00     0.000 HD 
BRANCH  19  21
HETATM   21  C   UNL     1      -9.450   9.495  68.013  1.00  0.00    -0.132 C  
HETATM   22  O   UNL     1      -8.857   8.430  67.896  1.00  0.00    -0.137 OA 
BRANCH  21  23
HETATM   23  N   UNL     1      -9.450  10.468  67.031  1.00  0.00    -0.161 N  
HETATM   24  H   UNL     1      -9.559  10.177  66.060  1.00  0.00     0.000 HD 
BRANCH  23  25
HETATM   25  C   UNL     1      -9.305  11.863  67.310  1.00  0.00    -0.177 A  
HETATM   26  C   UNL     1     -10.333  12.790  67.102  1.00  0.00    -0.237 A  
HETATM   27  C   UNL     1     -10.156  14.174  67.275  1.00  0.00    -0.256 A  
HETATM   28  C   UNL     1     -11.284  15.110  66.934  1.00  0.00    -0.292 C  
HETATM   29  C   UNL     1      -8.923  14.622  67.738  1.00  0.00    -0.181 A  
HETATM   30  F   UNL     1     -10.953  16.020  65.975  1.00  0.00    -0.308 F  
HETATM   31  F   UNL     1     -11.724  15.826  68.007  1.00  0.00    -0.343 F  
HETATM   32  F   UNL     1     -12.393  14.476  66.453  1.00  0.00    -0.416 F  
HETATM   33 CL   UNL     1      -8.604  16.296  68.009  1.00  0.00    -0.174 Cl 
HETATM   34  C   UNL     1      -7.896  13.705  68.005  1.00  0.00    -0.150 A  
HETATM   35  C   UNL     1      -8.081  12.333  67.789  1.00  0.00    -0.155 A  
ENDBRANCH  23  25
ENDBRANCH  21  23
ENDBRANCH  19  21
ENDBRANCH  16  19
ENDBRANCH  12  13
ENDBRANCH  10  12
ENDBRANCH   3   6
TORSDOF 7
ENDMDL
MODEL      290
REMARK 921   NORMALIZED FREE ENERGY PREDICTED BY IDOCK:   -3.80 KCAL/MOL
REMARK 922        TOTAL FREE ENERGY PREDICTED BY IDOCK:   -7.20 KCAL/MOL
REMARK 923 INTER-LIGAND FREE ENERGY PREDICTED BY IDOCK:   -5.20 KCAL/MOL
REMARK 924 INTRA-LIGAND FREE ENERGY PREDICTED BY IDOCK:   -2.00 KCAL/MOL
REMARK 927      BINDING AFFINITY PREDICTED BY RF-SCORE:    0.00 PKD
ROOT
HETATM    1  C   UNL     1     -12.832  13.403  65.209  1.00  0.00    -0.334 C  
HETATM    2  N   UNL     1     -11.775  12.502  65.573  1.00  0.00    -0.390 N  
HETATM    3  C   UNL     1     -10.762  12.188  64.693  1.00  0.00    -0.304 C  
HETATM    4  H   UNL     1     -11.773  12.084  66.504  1.00  0.00     0.000 HD 
HETATM    5  O   UNL     1     -10.694  12.633  63.552  1.00  0.00    -0.417 OA 
ENDROOT
BRANCH   3   6
HETATM    6  C   UNL     1      -9.708  11.268  65.235  1.00  0.00    -0.239 A  
HETATM    7  N   UNL     1      -8.898  11.758  66.215  1.00  0.00    -0.178 NA 
HETATM    8  C   UNL     1      -7.914  10.933  66.640  1.00  0.00    -0.148 A  
HETATM    9  C   UNL     1      -7.673   9.671  66.111  1.00  0.00    -0.102 A  
HETATM   10  C   UNL     1      -8.504   9.214  65.095  1.00  0.00    -0.167 A  
HETATM   11  C   UNL     1      -9.578  10.004  64.686  1.00  0.00    -0.363 A  
BRANCH  10  12
HETATM   12  O   UNL     1      -8.216   7.975  64.551  1.00  0.00    -0.148 OA 
BRANCH  12  13
HETATM   13  C   UNL     1      -8.223   6.881  65.394  1.00  0.00    -0.134 A  
HETATM   14  C   UNL     1      -7.095   6.097  65.606  1.00  0.00    -0.072 A  
HETATM   15  C   UNL     1      -7.197   4.921  66.342  1.00  0.00    -0.077 A  
HETATM   16  C   UNL     1      -8.384   4.557  66.988  1.00  0.00    -0.105 A  
HETATM   17  C   UNL     1      -9.493   5.397  66.847  1.00  0.00    -0.138 A  
HETATM   18  C   UNL     1      -9.410   6.557  66.054  1.00  0.00    -0.039 A  
BRANCH  16  19
HETATM   19  N   UNL     1      -8.489   3.372  67.765  1.00  0.00    -0.092 N  
HETATM   20  H   UNL     1      -8.370   2.472  67.299  1.00  0.00     0.000 HD 
BRANCH  19  21
HETATM   21  C   UNL     1      -8.746   3.383  69.130  1.00  0.00    -0.090 C  
HETATM   22  O   UNL     1      -9.769   2.920  69.618  1.00  0.00    -0.072 OA 
BRANCH  21  23
HETATM   23  N   UNL     1      -7.751   3.973  69.889  1.00  0.00    -0.052 N  
HETATM   24  H   UNL     1      -7.077   3.369  70.358  1.00  0.00     0.000 HD 
BRANCH  23  25
HETATM   25  C   UNL     1      -7.623   5.388  70.048  1.00  0.00    -0.069 A  
HETATM   26  C   UNL     1      -8.717   6.229  70.285  1.00  0.00    -0.142 A  
HETATM   27  C   UNL     1      -8.605   7.629  70.334  1.00  0.00    -0.138 A  
HETATM   28  C   UNL     1      -9.847   8.463  70.495  1.00  0.00    -0.184 C  
HETATM   29  C   UNL     1      -7.336   8.188  70.209  1.00  0.00    -0.059 A  
HETATM   30  F   UNL     1     -10.039   9.338  69.468  1.00  0.00    -0.174 F  
HETATM   31  F   UNL     1      -9.843   9.207  71.637  1.00  0.00    -0.344 F  
HETATM   32  F   UNL     1     -10.995   7.727  70.554  1.00  0.00    -0.229 F  
HETATM   33 CL   UNL     1      -7.079   9.892  70.279  1.00  0.00    -0.141 Cl 
HETATM   34  C   UNL     1      -6.218   7.361  70.025  1.00  0.00    -0.027 A  
HETATM   35  C   UNL     1      -6.358   5.968  69.940  1.00  0.00    -0.031 A  
ENDBRANCH  23  25
ENDBRANCH  21  23
ENDBRANCH  19  21
ENDBRANCH  16  19
ENDBRANCH  12  13
ENDBRANCH  10  12
ENDBRANCH   3   6
TORSDOF 7
ENDMDL
MODEL      291
REMARK 921   NORMALIZED FREE ENERGY PREDICTED BY IDOCK:   -3.80 KCAL/MOL
REMARK 922        TOTAL FREE ENERGY PREDICTED BY IDOCK:   -7.20 KCAL/MOL
REMARK 923 INTER-LIGAND FREE ENERGY PREDICTED BY IDOCK:   -6.41 KCAL/MOL
REMARK 924 INTRA-LIGAND FREE ENERGY PREDICTED BY IDOCK:   -0.79 KCAL/MOL
REMARK 927      BINDING AFFINITY PREDICTED BY RF-SCORE:    0.00 PKD
ROOT
HETATM    1  C   UNL     1      -6.872  19.771  69.250  1.00  0.00    -0.335 C  
HETATM    2  N   UNL     1      -6.425  18.416  69.416  1.00  0.00    -0.261 N  
HETATM    3  C   UNL     1      -7.072  17.365  68.804  1.00  0.00    -0.246 C  
HETATM    4  H   UNL     1      -5.611  18.228  70.001  1.00  0.00     0.000 HD 
HETATM    5  O   UNL     1      -8.065  17.500  68.097  1.00  0.00    -0.232 OA 
ENDROOT
BRANCH   3   6
HETATM    6  C   UNL     1      -6.459  16.016  69.038  1.00  0.00    -0.146 A  
HETATM    7  N   UNL     1      -5.919  15.782  70.267  1.00  0.00    -0.138 NA 
HETATM    8  C   UNL     1      -5.314  14.584  70.431  1.00  0.00    -0.113 A  
HETATM    9  C   UNL     1      -5.184  13.632  69.428  1.00  0.00    -0.082 A  
HETATM   10  C   UNL     1      -5.726  13.915  68.180  1.00  0.00    -0.123 A  
HETATM   11  C   UNL     1      -6.427  15.106  67.994  1.00  0.00    -0.156 A  
BRANCH  10  12
HETATM   12  O   UNL     1      -5.543  12.973  67.183  1.00  0.00    -0.349 OA 
BRANCH  12  13
HETATM   13  C   UNL     1      -6.387  11.880  67.163  1.00  0.00    -0.151 A  
HETATM   14  C   UNL     1      -7.769  12.003  67.240  1.00  0.00    -0.168 A  
HETATM   15  C   UNL     1      -8.560  10.867  67.370  1.00  0.00    -0.127 A  
HETATM   16  C   UNL     1      -8.016   9.579  67.302  1.00  0.00    -0.106 A  
HETATM   17  C   UNL     1      -6.634   9.458  67.132  1.00  0.00    -0.071 A  
HETATM   18  C   UNL     1      -5.823  10.607  67.060  1.00  0.00    -0.054 A  
BRANCH  16  19
HETATM   19  N   UNL     1      -8.820   8.413  67.406  1.00  0.00    -0.134 N  
HETATM   20  H   UNL     1      -8.867   7.931  68.304  1.00  0.00     0.000 HD 
BRANCH  19  21
HETATM   21  C   UNL     1      -9.547   7.898  66.339  1.00  0.00    -0.181 C  
HETATM   22  O   UNL     1      -9.485   8.360  65.207  1.00  0.00     0.145 OA 
BRANCH  21  23
HETATM   23  N   UNL     1     -10.356   6.826  66.671  1.00  0.00    -0.443 N  
HETATM   24  H   UNL     1     -10.935   6.411  65.941  1.00  0.00     0.000 HD 
BRANCH  23  25
HETATM   25  C   UNL     1     -10.422   6.271  67.987  1.00  0.00    -0.224 A  
HETATM   26  C   UNL     1     -11.249   6.790  68.990  1.00  0.00    -0.214 A  
HETATM   27  C   UNL     1     -11.234   6.313  70.312  1.00  0.00    -0.455 A  
HETATM   28  C   UNL     1     -12.084   6.993  71.351  1.00  0.00    -0.355 C  
HETATM   29  C   UNL     1     -10.407   5.233  70.607  1.00  0.00    -0.254 A  
HETATM   30  F   UNL     1     -11.358   7.488  72.393  1.00  0.00    -0.264 F  
HETATM   31  F   UNL     1     -13.021   6.167  71.894  1.00  0.00    -0.269 F  
HETATM   32  F   UNL     1     -12.786   8.059  70.870  1.00  0.00    -0.213 F  
HETATM   33 CL   UNL     1     -10.328   4.551  72.190  1.00  0.00    -0.253 Cl 
HETATM   34  C   UNL     1      -9.610   4.662  69.604  1.00  0.00    -0.262 A  
HETATM   35  C   UNL     1      -9.611   5.179  68.301  1.00  0.00    -0.178 A  
ENDBRANCH  23  25
ENDBRANCH  21  23
ENDBRANCH  19  21
ENDBRANCH  16  19
ENDBRANCH  12  13
ENDBRANCH  10  12
ENDBRANCH   3   6
TORSDOF 7
ENDMDL
MODEL      292
REMARK 921   NORMALIZED FREE ENERGY PREDICTED BY IDOCK:   -3.79 KCAL/MOL
REMARK 922        TOTAL FREE ENERGY PREDICTED BY IDOCK:   -7.19 KCAL/MOL
REMARK 923 INTER-LIGAND FREE ENERGY PREDICTED BY IDOCK:   -5.63 KCAL/MOL
REMARK 924 INTRA-LIGAND FREE ENERGY PREDICTED BY IDOCK:   -1.56 KCAL/MOL
REMARK 927      BINDING AFFINITY PREDICTED BY RF-SCORE:    0.00 PKD
ROOT
HETATM    1  C   UNL     1      -7.569  19.275  67.502  1.00  0.00    -0.237 C  
HETATM    2  N   UNL     1      -7.503  17.855  67.713  1.00  0.00    -0.203 N  
HETATM    3  C   UNL     1      -6.713  17.311  68.702  1.00  0.00    -0.192 C  
HETATM    4  H   UNL     1      -8.054  17.236  67.118  1.00  0.00     0.000 HD 
HETATM    5  O   UNL     1      -6.010  17.980  69.451  1.00  0.00    -0.219 OA 
ENDROOT
BRANCH   3   6
HETATM    6  C   UNL     1      -6.785  15.818  68.826  1.00  0.00    -0.119 A  
HETATM    7  N   UNL     1      -5.936  15.225  69.712  1.00  0.00    -0.127 NA 
HETATM    8  C   UNL     1      -5.973  13.874  69.757  1.00  0.00    -0.124 A  
HETATM    9  C   UNL     1      -6.777  13.089  68.941  1.00  0.00    -0.096 A  
HETATM   10  C   UNL     1      -7.613  13.727  68.032  1.00  0.00    -0.145 A  
HETATM   11  C   UNL     1      -7.660  15.121  68.011  1.00  0.00    -0.127 A  
BRANCH  10  12
HETATM   12  O   UNL     1      -8.368  12.925  67.196  1.00  0.00    -0.184 OA 
BRANCH  12  13
HETATM   13  C   UNL     1      -9.265  12.049  67.776  1.00  0.00    -0.190 A  
HETATM   14  C   UNL     1     -10.408  12.482  68.438  1.00  0.00    -0.237 A  
HETATM   15  C   UNL     1     -11.194  11.570  69.134  1.00  0.00    -0.337 A  
HETATM   16  C   UNL     1     -10.939  10.195  69.091  1.00  0.00    -0.230 A  
HETATM   17  C   UNL     1      -9.840   9.754  68.348  1.00  0.00    -0.168 A  
HETATM   18  C   UNL     1      -9.007  10.679  67.691  1.00  0.00    -0.139 A  
BRANCH  16  19
HETATM   19  N   UNL     1     -11.753   9.254  69.776  1.00  0.00    -0.419 N  
HETATM   20  H   UNL     1     -12.636   8.971  69.350  1.00  0.00     0.000 HD 
BRANCH  19  21
HETATM   21  C   UNL     1     -11.402   8.700  71.001  1.00  0.00    -0.274 C  
HETATM   22  O   UNL     1     -11.176   9.376  71.997  1.00  0.00    -0.287 OA 
BRANCH  21  23
HETATM   23  N   UNL     1     -11.317   7.319  70.995  1.00  0.00    -0.266 N  
HETATM   24  H   UNL     1     -12.027   6.788  71.499  1.00  0.00     0.000 HD 
BRANCH  23  25
HETATM   25  C   UNL     1     -10.284   6.601  70.317  1.00  0.00    -0.188 A  
HETATM   26  C   UNL     1      -8.933   6.960  70.395  1.00  0.00    -0.152 A  
HETATM   27  C   UNL     1      -7.930   6.320  69.644  1.00  0.00    -0.112 A  
HETATM   28  C   UNL     1      -6.517   6.832  69.713  1.00  0.00    -0.044 C  
HETATM   29  C   UNL     1      -8.300   5.242  68.846  1.00  0.00    -0.092 A  
HETATM   30  F   UNL     1      -6.030   7.218  68.500  1.00  0.00    -0.023 F  
HETATM   31  F   UNL     1      -5.641   5.912  70.204  1.00  0.00    -0.010 F  
HETATM   32  F   UNL     1      -6.372   7.926  70.517  1.00  0.00    -0.036 F  
HETATM   33 CL   UNL     1      -7.150   4.369  67.903  1.00  0.00    -0.063 Cl 
HETATM   34  C   UNL     1      -9.640   4.831  68.795  1.00  0.00    -0.227 A  
HETATM   35  C   UNL     1     -10.630   5.507  69.522  1.00  0.00    -0.366 A  
ENDBRANCH  23  25
ENDBRANCH  21  23
ENDBRANCH  19  21
ENDBRANCH  16  19
ENDBRANCH  12  13
ENDBRANCH  10  12
ENDBRANCH   3   6
TORSDOF 7
ENDMDL
MODEL      293
REMARK 921   NORMALIZED FREE ENERGY PREDICTED BY IDOCK:   -3.79 KCAL/MOL
REMARK 922        TOTAL FREE ENERGY PREDICTED BY IDOCK:   -7.19 KCAL/MOL
REMARK 923 INTER-LIGAND FREE ENERGY PREDICTED BY IDOCK:   -6.65 KCAL/MOL
REMARK 924 INTRA-LIGAND FREE ENERGY PREDICTED BY IDOCK:   -0.54 KCAL/MOL
REMARK 927      BINDING AFFINITY PREDICTED BY RF-SCORE:    0.00 PKD
ROOT
HETATM    1  C   UNL     1      -6.388  20.900  64.683  1.00  0.00    -0.248 C  
HETATM    2  N   UNL     1      -6.581  19.639  65.344  1.00  0.00    -0.267 N  
HETATM    3  C   UNL     1      -7.835  19.212  65.724  1.00  0.00    -0.012 C  
HETATM    4  H   UNL     1      -5.773  19.048  65.536  1.00  0.00     0.000 HD 
HETATM    5  O   UNL     1      -8.857  19.866  65.544  1.00  0.00    -0.233 OA 
ENDROOT
BRANCH   3   6
HETATM    6  C   UNL     1      -7.880  17.855  66.362  1.00  0.00    -0.272 A  
HETATM    7  N   UNL     1      -6.896  17.555  67.256  1.00  0.00    -0.161 NA 
HETATM    8  C   UNL     1      -6.919  16.303  67.766  1.00  0.00    -0.136 A  
HETATM    9  C   UNL     1      -7.841  15.330  67.402  1.00  0.00    -0.220 A  
HETATM   10  C   UNL     1      -8.816  15.665  66.469  1.00  0.00    -0.310 A  
HETATM   11  C   UNL     1      -8.873  16.969  65.980  1.00  0.00    -0.170 A  
BRANCH  10  12
HETATM   12  O   UNL     1      -9.694  14.666  66.086  1.00  0.00    -0.290 OA 
BRANCH  12  13
HETATM   13  C   UNL     1      -9.608  13.447  66.729  1.00  0.00    -0.262 A  
HETATM   14  C   UNL     1      -9.882  13.297  68.083  1.00  0.00    -0.231 A  
HETATM   15  C   UNL     1      -9.632  12.082  68.711  1.00  0.00     0.004 A  
HETATM   16  C   UNL     1      -9.223  10.952  67.993  1.00  0.00    -0.156 A  
HETATM   17  C   UNL     1      -9.037  11.083  66.614  1.00  0.00    -0.177 A  
HETATM   18  C   UNL     1      -9.231  12.328  65.984  1.00  0.00    -0.086 A  
BRANCH  16  19
HETATM   19  N   UNL     1      -8.993   9.700  68.622  1.00  0.00    -0.127 N  
HETATM   20  H   UNL     1      -9.571   8.904  68.350  1.00  0.00     0.000 HD 
BRANCH  19  21
HETATM   21  C   UNL     1      -8.015   9.508  69.591  1.00  0.00    -0.120 C  
HETATM   22  O   UNL     1      -6.820   9.457  69.330  1.00  0.00    -0.048 OA 
BRANCH  21  23
HETATM   23  N   UNL     1      -8.511   9.368  70.875  1.00  0.00    -0.149 N  
HETATM   24  H   UNL     1      -8.028   9.845  71.636  1.00  0.00     0.000 HD 
BRANCH  23  25
HETATM   25  C   UNL     1      -9.666   8.586  71.188  1.00  0.00    -0.201 A  
HETATM   26  C   UNL     1     -10.952   9.134  71.278  1.00  0.00    -0.400 A  
HETATM   27  C   UNL     1     -12.070   8.387  71.690  1.00  0.00    -0.359 A  
HETATM   28  C   UNL     1     -13.397   9.077  71.855  1.00  0.00    -0.417 C  
HETATM   29  C   UNL     1     -11.891   7.032  71.950  1.00  0.00    -0.305 A  
HETATM   30  F   UNL     1     -13.896   8.979  73.120  1.00  0.00    -0.389 F  
HETATM   31  F   UNL     1     -14.358   8.587  71.024  1.00  0.00    -0.369 F  
HETATM   32  F   UNL     1     -13.352  10.417  71.596  1.00  0.00    -0.437 F  
HETATM   33 CL   UNL     1     -13.197   6.016  72.437  1.00  0.00     0.320 Cl 
HETATM   34  C   UNL     1     -10.622   6.451  71.812  1.00  0.00    -0.256 A  
HETATM   35  C   UNL     1      -9.513   7.222  71.438  1.00  0.00    -0.165 A  
ENDBRANCH  23  25
ENDBRANCH  21  23
ENDBRANCH  19  21
ENDBRANCH  16  19
ENDBRANCH  12  13
ENDBRANCH  10  12
ENDBRANCH   3   6
TORSDOF 7
ENDMDL
MODEL      294
REMARK 921   NORMALIZED FREE ENERGY PREDICTED BY IDOCK:   -3.76 KCAL/MOL
REMARK 922        TOTAL FREE ENERGY PREDICTED BY IDOCK:   -7.15 KCAL/MOL
REMARK 923 INTER-LIGAND FREE ENERGY PREDICTED BY IDOCK:   -6.57 KCAL/MOL
REMARK 924 INTRA-LIGAND FREE ENERGY PREDICTED BY IDOCK:   -0.57 KCAL/MOL
REMARK 927      BINDING AFFINITY PREDICTED BY RF-SCORE:    0.00 PKD
ROOT
HETATM    1  C   UNL     1      -6.052   6.936  66.734  1.00  0.00    -0.037 C  
HETATM    2  N   UNL     1      -6.613   7.913  65.842  1.00  0.00    -0.048 N  
HETATM    3  C   UNL     1      -7.862   7.744  65.284  1.00  0.00    -0.117 C  
HETATM    4  H   UNL     1      -6.076   8.750  65.617  1.00  0.00     0.000 HD 
HETATM    5  O   UNL     1      -8.567   6.762  65.489  1.00  0.00    -0.147 OA 
ENDROOT
BRANCH   3   6
HETATM    6  C   UNL     1      -8.327   8.870  64.410  1.00  0.00    -0.168 A  
HETATM    7  N   UNL     1      -7.987   8.817  63.091  1.00  0.00    -0.151 NA 
HETATM    8  C   UNL     1      -8.360   9.876  62.338  1.00  0.00    -0.142 A  
HETATM    9  C   UNL     1      -9.012  10.996  62.838  1.00  0.00    -0.292 A  
HETATM   10  C   UNL     1      -9.321  11.027  64.193  1.00  0.00    -0.210 A  
HETATM   11  C   UNL     1      -9.024   9.920  64.986  1.00  0.00    -0.239 A  
BRANCH  10  12
HETATM   12  O   UNL     1      -9.928  12.173  64.677  1.00  0.00    -0.260 OA 
BRANCH  12  13
HETATM   13  C   UNL     1     -10.391  12.159  65.978  1.00  0.00    -0.237 A  
HETATM   14  C   UNL     1     -11.617  11.604  66.327  1.00  0.00    -0.120 A  
HETATM   15  C   UNL     1     -12.102  11.754  67.622  1.00  0.00     0.106 A  
HETATM   16  C   UNL     1     -11.335  12.345  68.632  1.00  0.00    -0.288 A  
HETATM   17  C   UNL     1     -10.063  12.820  68.298  1.00  0.00    -0.237 A  
HETATM   18  C   UNL     1      -9.593  12.724  66.974  1.00  0.00    -0.229 A  
BRANCH  16  19
HETATM   19  N   UNL     1     -11.811  12.476  69.964  1.00  0.00    -0.478 N  
HETATM   20  H   UNL     1     -11.585  13.326  70.481  1.00  0.00     0.000 HD 
BRANCH  19  21
HETATM   21  C   UNL     1     -12.573  11.500  70.595  1.00  0.00    -0.248 C  
HETATM   22  O   UNL     1     -13.230  11.718  71.604  1.00  0.00    -0.411 OA 
BRANCH  21  23
HETATM   23  N   UNL     1     -12.514  10.258  69.990  1.00  0.00    -0.533 N  
HETATM   24  H   UNL     1     -13.293   9.969  69.398  1.00  0.00     0.000 HD 
BRANCH  23  25
HETATM   25  C   UNL     1     -11.415   9.358  70.153  1.00  0.00    -0.138 A  
HETATM   26  C   UNL     1     -11.084   8.779  71.384  1.00  0.00    -0.361 A  
HETATM   27  C   UNL     1      -9.942   7.980  71.567  1.00  0.00    -0.225 A  
HETATM   28  C   UNL     1      -9.606   7.478  72.945  1.00  0.00    -0.195 C  
HETATM   29  C   UNL     1      -9.153   7.704  70.455  1.00  0.00    -0.152 A  
HETATM   30  F   UNL     1      -8.381   7.888  73.379  1.00  0.00    -0.169 F  
HETATM   31  F   UNL     1      -9.610   6.119  73.032  1.00  0.00    -0.149 F  
HETATM   32  F   UNL     1     -10.480   7.897  73.907  1.00  0.00    -0.233 F  
HETATM   33 CL   UNL     1      -7.743   6.716  70.560  1.00  0.00    -0.102 Cl 
HETATM   34  C   UNL     1      -9.497   8.229  69.201  1.00  0.00    -0.155 A  
HETATM   35  C   UNL     1     -10.618   9.055  69.048  1.00  0.00    -0.209 A  
ENDBRANCH  23  25
ENDBRANCH  21  23
ENDBRANCH  19  21
ENDBRANCH  16  19
ENDBRANCH  12  13
ENDBRANCH  10  12
ENDBRANCH   3   6
TORSDOF 7
ENDMDL
MODEL      295
REMARK 921   NORMALIZED FREE ENERGY PREDICTED BY IDOCK:   -3.76 KCAL/MOL
REMARK 922        TOTAL FREE ENERGY PREDICTED BY IDOCK:   -7.15 KCAL/MOL
REMARK 923 INTER-LIGAND FREE ENERGY PREDICTED BY IDOCK:   -5.93 KCAL/MOL
REMARK 924 INTRA-LIGAND FREE ENERGY PREDICTED BY IDOCK:   -1.21 KCAL/MOL
REMARK 927      BINDING AFFINITY PREDICTED BY RF-SCORE:    0.00 PKD
ROOT
HETATM    1  C   UNL     1      -6.274  14.774  70.727  1.00  0.00    -0.025 C  
HETATM    2  N   UNL     1      -7.188  14.270  69.739  1.00  0.00    -0.371 N  
HETATM    3  C   UNL     1      -6.909  13.131  69.016  1.00  0.00    -0.090 C  
HETATM    4  H   UNL     1      -8.062  14.766  69.570  1.00  0.00     0.000 HD 
HETATM    5  O   UNL     1      -5.876  12.483  69.146  1.00  0.00    -0.071 OA 
ENDROOT
BRANCH   3   6
HETATM    6  C   UNL     1      -7.979  12.707  68.056  1.00  0.00    -0.155 A  
HETATM    7  N   UNL     1      -9.181  13.345  68.141  1.00  0.00    -0.211 NA 
HETATM    8  C   UNL     1     -10.150  12.899  67.310  1.00  0.00    -0.231 A  
HETATM    9  C   UNL     1      -9.997  11.831  66.436  1.00  0.00    -0.237 A  
HETATM   10  C   UNL     1      -8.765  11.188  66.393  1.00  0.00    -0.177 A  
HETATM   11  C   UNL     1      -7.717  11.669  67.177  1.00  0.00    -0.159 A  
BRANCH  10  12
HETATM   12  O   UNL     1      -8.650  10.097  65.550  1.00  0.00    -0.139 OA 
BRANCH  12  13
HETATM   13  C   UNL     1      -8.459   8.855  66.122  1.00  0.00    -0.125 A  
HETATM   14  C   UNL     1      -8.538   8.645  67.494  1.00  0.00    -0.135 A  
HETATM   15  C   UNL     1      -8.187   7.410  68.028  1.00  0.00    -0.124 A  
HETATM   16  C   UNL     1      -7.870   6.318  67.212  1.00  0.00    -0.108 A  
HETATM   17  C   UNL     1      -7.881   6.508  65.827  1.00  0.00    -0.104 A  
HETATM   18  C   UNL     1      -8.177   7.773  65.285  1.00  0.00    -0.142 A  
BRANCH  16  19
HETATM   19  N   UNL     1      -7.538   5.045  67.748  1.00  0.00    -0.083 N  
HETATM   20  H   UNL     1      -6.642   4.936  68.225  1.00  0.00     0.000 HD 
BRANCH  19  21
HETATM   21  C   UNL     1      -8.377   3.942  67.654  1.00  0.00    -0.094 C  
HETATM   22  O   UNL     1      -8.005   2.858  67.221  1.00  0.00    -0.076 OA 
BRANCH  21  23
HETATM   23  N   UNL     1      -9.672   4.178  68.078  1.00  0.00    -0.133 N  
HETATM   24  H   UNL     1     -10.423   4.139  67.389  1.00  0.00     0.000 HD 
BRANCH  23  25
HETATM   25  C   UNL     1     -10.010   4.474  69.436  1.00  0.00    -0.142 A  
HETATM   26  C   UNL     1     -10.727   5.617  69.808  1.00  0.00    -0.401 A  
HETATM   27  C   UNL     1     -10.966   5.963  71.150  1.00  0.00    -0.327 A  
HETATM   28  C   UNL     1     -11.661   7.260  71.464  1.00  0.00    -0.275 C  
HETATM   29  C   UNL     1     -10.524   5.088  72.138  1.00  0.00    -0.210 A  
HETATM   30  F   UNL     1     -10.912   8.091  72.242  1.00  0.00    -0.275 F  
HETATM   31  F   UNL     1     -12.843   7.085  72.117  1.00  0.00    -0.304 F  
HETATM   32  F   UNL     1     -11.972   7.995  70.357  1.00  0.00    -0.185 F  
HETATM   33 CL   UNL     1     -10.785   5.400  73.814  1.00  0.00    -0.324 Cl 
HETATM   34  C   UNL     1      -9.851   3.910  71.785  1.00  0.00    -0.249 A  
HETATM   35  C   UNL     1      -9.589   3.603  70.443  1.00  0.00    -0.254 A  
ENDBRANCH  23  25
ENDBRANCH  21  23
ENDBRANCH  19  21
ENDBRANCH  16  19
ENDBRANCH  12  13
ENDBRANCH  10  12
ENDBRANCH   3   6
TORSDOF 7
ENDMDL
MODEL      296
REMARK 921   NORMALIZED FREE ENERGY PREDICTED BY IDOCK:   -3.69 KCAL/MOL
REMARK 922        TOTAL FREE ENERGY PREDICTED BY IDOCK:   -7.04 KCAL/MOL
REMARK 923 INTER-LIGAND FREE ENERGY PREDICTED BY IDOCK:   -6.61 KCAL/MOL
REMARK 924 INTRA-LIGAND FREE ENERGY PREDICTED BY IDOCK:   -0.43 KCAL/MOL
REMARK 927      BINDING AFFINITY PREDICTED BY RF-SCORE:    0.00 PKD
ROOT
HETATM    1  C   UNL     1      -8.088  18.800  68.486  1.00  0.00    -0.346 C  
HETATM    2  N   UNL     1      -8.931  17.751  67.985  1.00  0.00    -0.256 N  
HETATM    3  C   UNL     1      -9.184  17.614  66.637  1.00  0.00    -0.271 C  
HETATM    4  H   UNL     1      -9.351  17.092  68.640  1.00  0.00     0.000 HD 
HETATM    5  O   UNL     1      -8.732  18.369  65.783  1.00  0.00    -0.443 OA 
ENDROOT
BRANCH   3   6
HETATM    6  C   UNL     1     -10.046  16.443  66.266  1.00  0.00    -0.331 A  
HETATM    7  N   UNL     1     -10.563  16.426  65.006  1.00  0.00    -0.685 NA 
HETATM    8  C   UNL     1     -11.391  15.396  64.718  1.00  0.00    -0.376 A  
HETATM    9  C   UNL     1     -11.758  14.413  65.628  1.00  0.00    -0.356 A  
HETATM   10  C   UNL     1     -11.230  14.477  66.913  1.00  0.00    -0.336 A  
HETATM   11  C   UNL     1     -10.312  15.479  67.224  1.00  0.00    -0.267 A  
BRANCH  10  12
HETATM   12  O   UNL     1     -11.647  13.516  67.816  1.00  0.00    -0.299 OA 
BRANCH  12  13
HETATM   13  C   UNL     1     -10.898  12.360  67.924  1.00  0.00    -0.222 A  
HETATM   14  C   UNL     1     -11.439  11.098  67.709  1.00  0.00    -0.349 A  
HETATM   15  C   UNL     1     -10.681   9.964  67.980  1.00  0.00    -0.296 A  
HETATM   16  C   UNL     1      -9.335  10.049  68.351  1.00  0.00    -0.138 A  
HETATM   17  C   UNL     1      -8.767  11.321  68.477  1.00  0.00    -0.156 A  
HETATM   18  C   UNL     1      -9.548  12.472  68.262  1.00  0.00    -0.209 A  
BRANCH  16  19
HETATM   19  N   UNL     1      -8.546   8.895  68.602  1.00  0.00    -0.132 N  
HETATM   20  H   UNL     1      -7.855   8.931  69.352  1.00  0.00     0.000 HD 
BRANCH  19  21
HETATM   21  C   UNL     1      -8.673   7.718  67.873  1.00  0.00    -0.124 C  
HETATM   22  O   UNL     1      -9.644   6.978  67.969  1.00  0.00    -0.129 OA 
BRANCH  21  23
HETATM   23  N   UNL     1      -7.602   7.450  67.040  1.00  0.00    -0.104 N  
HETATM   24  H   UNL     1      -6.757   8.012  67.141  1.00  0.00     0.000 HD 
BRANCH  23  25
HETATM   25  C   UNL     1      -7.621   6.424  66.045  1.00  0.00    -0.087 A  
HETATM   26  C   UNL     1      -7.635   5.060  66.360  1.00  0.00    -0.088 A  
HETATM   27  C   UNL     1      -7.546   4.052  65.384  1.00  0.00    -0.082 A  
HETATM   28  C   UNL     1      -7.469   2.613  65.815  1.00  0.00    -0.072 C  
HETATM   29  C   UNL     1      -7.512   4.439  64.047  1.00  0.00    -0.063 A  
HETATM   30  F   UNL     1      -6.338   1.987  65.384  1.00  0.00    -0.021 F  
HETATM   31  F   UNL     1      -8.516   1.866  65.366  1.00  0.00    -0.084 F  
HETATM   32  F   UNL     1      -7.471   2.448  67.170  1.00  0.00    -0.057 F  
HETATM   33 CL   UNL     1      -7.428   3.286  62.767  1.00  0.00    -0.052 Cl 
HETATM   34  C   UNL     1      -7.552   5.798  63.707  1.00  0.00    -0.080 A  
HETATM   35  C   UNL     1      -7.602   6.789  64.697  1.00  0.00    -0.105 A  
ENDBRANCH  23  25
ENDBRANCH  21  23
ENDBRANCH  19  21
ENDBRANCH  16  19
ENDBRANCH  12  13
ENDBRANCH  10  12
ENDBRANCH   3   6
TORSDOF 7
ENDMDL
MODEL      297
REMARK 921   NORMALIZED FREE ENERGY PREDICTED BY IDOCK:   -3.67 KCAL/MOL
REMARK 922        TOTAL FREE ENERGY PREDICTED BY IDOCK:   -7.02 KCAL/MOL
REMARK 923 INTER-LIGAND FREE ENERGY PREDICTED BY IDOCK:   -6.19 KCAL/MOL
REMARK 924 INTRA-LIGAND FREE ENERGY PREDICTED BY IDOCK:   -0.83 KCAL/MOL
REMARK 927      BINDING AFFINITY PREDICTED BY RF-SCORE:    0.00 PKD
ROOT
HETATM    1  C   UNL     1     -11.741  15.496  72.904  1.00  0.00    -0.413 C  
HETATM    2  N   UNL     1     -11.275  15.101  71.603  1.00  0.00    -0.562 N  
HETATM    3  C   UNL     1     -12.047  15.284  70.477  1.00  0.00    -0.354 C  
HETATM    4  H   UNL     1     -10.353  14.675  71.512  1.00  0.00     0.000 HD 
HETATM    5  O   UNL     1     -13.171  15.774  70.499  1.00  0.00    -0.449 OA 
ENDROOT
BRANCH   3   6
HETATM    6  C   UNL     1     -11.406  14.862  69.189  1.00  0.00    -0.292 A  
HETATM    7  N   UNL     1     -12.233  14.460  68.183  1.00  0.00    -0.201 NA 
HETATM    8  C   UNL     1     -11.629  14.020  67.056  1.00  0.00    -0.371 A  
HETATM    9  C   UNL     1     -10.253  13.922  66.898  1.00  0.00    -0.257 A  
HETATM   10  C   UNL     1      -9.439  14.318  67.954  1.00  0.00    -0.212 A  
HETATM   11  C   UNL     1     -10.024  14.851  69.102  1.00  0.00    -0.213 A  
BRANCH  10  12
HETATM   12  O   UNL     1      -8.074  14.166  67.792  1.00  0.00    -0.138 OA 
BRANCH  12  13
HETATM   13  C   UNL     1      -7.463  13.096  68.416  1.00  0.00    -0.124 A  
HETATM   14  C   UNL     1      -7.810  11.778  68.146  1.00  0.00    -0.135 A  
HETATM   15  C   UNL     1      -7.272  10.749  68.912  1.00  0.00    -0.088 A  
HETATM   16  C   UNL     1      -6.289  10.986  69.878  1.00  0.00    -0.137 A  
HETATM   17  C   UNL     1      -5.875  12.306  70.084  1.00  0.00    -0.161 A  
HETATM   18  C   UNL     1      -6.460  13.357  69.352  1.00  0.00    -0.100 A  
BRANCH  16  19
HETATM   19  N   UNL     1      -5.715   9.938  70.646  1.00  0.00    -0.063 N  
HETATM   20  H   UNL     1      -4.902  10.147  71.226  1.00  0.00     0.000 HD 
BRANCH  19  21
HETATM   21  C   UNL     1      -6.210   8.639  70.643  1.00  0.00    -0.037 C  
HETATM   22  O   UNL     1      -5.683   7.728  70.017  1.00  0.00    -0.023 OA 
BRANCH  21  23
HETATM   23  N   UNL     1      -7.356   8.469  71.398  1.00  0.00    -0.087 N  
HETATM   24  H   UNL     1      -8.010   9.249  71.470  1.00  0.00     0.000 HD 
BRANCH  23  25
HETATM   25  C   UNL     1      -7.670   7.254  72.083  1.00  0.00    -0.089 A  
HETATM   26  C   UNL     1      -8.876   6.568  71.898  1.00  0.00    -0.134 A  
HETATM   27  C   UNL     1      -9.230   5.433  72.650  1.00  0.00    -0.145 A  
HETATM   28  C   UNL     1     -10.587   4.815  72.456  1.00  0.00    -0.200 C  
HETATM   29  C   UNL     1      -8.303   4.942  73.565  1.00  0.00    -0.106 A  
HETATM   30  F   UNL     1     -11.329   4.787  73.600  1.00  0.00    -0.355 F  
HETATM   31  F   UNL     1     -10.527   3.530  72.007  1.00  0.00    -0.216 F  
HETATM   32  F   UNL     1     -11.363   5.473  71.546  1.00  0.00    -0.289 F  
HETATM   33 CL   UNL     1      -8.622   3.542  74.522  1.00  0.00    -0.083 Cl 
HETATM   34  C   UNL     1      -7.066   5.582  73.727  1.00  0.00    -0.086 A  
HETATM   35  C   UNL     1      -6.750   6.735  72.995  1.00  0.00    -0.067 A  
ENDBRANCH  23  25
ENDBRANCH  21  23
ENDBRANCH  19  21
ENDBRANCH  16  19
ENDBRANCH  12  13
ENDBRANCH  10  12
ENDBRANCH   3   6
TORSDOF 7
ENDMDL
MODEL      298
REMARK 921   NORMALIZED FREE ENERGY PREDICTED BY IDOCK:   -3.66 KCAL/MOL
REMARK 922        TOTAL FREE ENERGY PREDICTED BY IDOCK:   -7.01 KCAL/MOL
REMARK 923 INTER-LIGAND FREE ENERGY PREDICTED BY IDOCK:   -5.93 KCAL/MOL
REMARK 924 INTRA-LIGAND FREE ENERGY PREDICTED BY IDOCK:   -1.08 KCAL/MOL
REMARK 927      BINDING AFFINITY PREDICTED BY RF-SCORE:    0.00 PKD
ROOT
HETATM    1  C   UNL     1      -5.450   7.387  63.177  1.00  0.00    -0.037 C  
HETATM    2  N   UNL     1      -6.113   7.553  64.441  1.00  0.00    -0.038 N  
HETATM    3  C   UNL     1      -7.438   7.213  64.607  1.00  0.00    -0.098 C  
HETATM    4  H   UNL     1      -5.593   7.931  65.232  1.00  0.00     0.000 HD 
HETATM    5  O   UNL     1      -8.141   6.766  63.707  1.00  0.00    -0.092 OA 
ENDROOT
BRANCH   3   6
HETATM    6  C   UNL     1      -7.976   7.403  65.994  1.00  0.00    -0.115 A  
HETATM    7  N   UNL     1      -7.300   6.801  67.012  1.00  0.00    -0.081 NA 
HETATM    8  C   UNL     1      -7.842   6.931  68.244  1.00  0.00    -0.118 A  
HETATM    9  C   UNL     1      -9.036   7.591  68.505  1.00  0.00    -0.128 A  
HETATM   10  C   UNL     1      -9.711   8.173  67.438  1.00  0.00    -0.170 A  
HETATM   11  C   UNL     1      -9.144   8.128  66.165  1.00  0.00    -0.232 A  
BRANCH  10  12
HETATM   12  O   UNL     1     -10.922   8.783  67.713  1.00  0.00    -0.093 OA 
BRANCH  12  13
HETATM   13  C   UNL     1     -10.901   9.992  68.379  1.00  0.00    -0.235 A  
HETATM   14  C   UNL     1     -11.543  10.185  69.596  1.00  0.00    -0.216 A  
HETATM   15  C   UNL     1     -11.619  11.460  70.146  1.00  0.00    -0.368 A  
HETATM   16  C   UNL     1     -10.957  12.551  69.570  1.00  0.00     0.093 A  
HETATM   17  C   UNL     1     -10.234  12.334  68.394  1.00  0.00    -0.220 A  
HETATM   18  C   UNL     1     -10.205  11.057  67.802  1.00  0.00    -0.210 A  
BRANCH  16  19
HETATM   19  N   UNL     1     -11.006  13.851  70.141  1.00  0.00    -0.370 N  
HETATM   20  H   UNL     1     -10.249  14.140  70.761  1.00  0.00     0.000 HD 
BRANCH  19  21
HETATM   21  C   UNL     1     -12.038  14.748  69.892  1.00  0.00    -0.332 C  
HETATM   22  O   UNL     1     -12.944  14.957  70.689  1.00  0.00    -0.363 OA 
BRANCH  21  23
HETATM   23  N   UNL     1     -11.959  15.375  68.662  1.00  0.00    -0.553 N  
HETATM   24  H   UNL     1     -12.673  15.164  67.964  1.00  0.00     0.000 HD 
BRANCH  23  25
HETATM   25  C   UNL     1     -10.926  16.302  68.319  1.00  0.00    -0.348 A  
HETATM   26  C   UNL     1      -9.661  15.900  67.876  1.00  0.00    -0.215 A  
HETATM   27  C   UNL     1      -8.612  16.807  67.642  1.00  0.00    -0.211 A  
HETATM   28  C   UNL     1      -7.254  16.282  67.262  1.00  0.00    -0.188 C  
HETATM   29  C   UNL     1      -8.876  18.165  67.796  1.00  0.00    -0.256 A  
HETATM   30  F   UNL     1      -6.276  16.647  68.137  1.00  0.00    -0.119 F  
HETATM   31  F   UNL     1      -6.846  16.704  66.032  1.00  0.00    -0.132 F  
HETATM   32  F   UNL     1      -7.191  14.919  67.208  1.00  0.00    -0.197 F  
HETATM   33 CL   UNL     1      -7.671  19.366  67.511  1.00  0.00    -0.281 Cl 
HETATM   34  C   UNL     1     -10.153  18.593  68.187  1.00  0.00    -0.418 A  
HETATM   35  C   UNL     1     -11.174  17.669  68.452  1.00  0.00     0.411 A  
ENDBRANCH  23  25
ENDBRANCH  21  23
ENDBRANCH  19  21
ENDBRANCH  16  19
ENDBRANCH  12  13
ENDBRANCH  10  12
ENDBRANCH   3   6
TORSDOF 7
ENDMDL
MODEL      299
REMARK 921   NORMALIZED FREE ENERGY PREDICTED BY IDOCK:   -3.65 KCAL/MOL
REMARK 922        TOTAL FREE ENERGY PREDICTED BY IDOCK:   -6.99 KCAL/MOL
REMARK 923 INTER-LIGAND FREE ENERGY PREDICTED BY IDOCK:   -6.37 KCAL/MOL
REMARK 924 INTRA-LIGAND FREE ENERGY PREDICTED BY IDOCK:   -0.61 KCAL/MOL
REMARK 927      BINDING AFFINITY PREDICTED BY RF-SCORE:    0.00 PKD
ROOT
HETATM    1  C   UNL     1     -10.752   2.979  63.130  1.00  0.00    -0.230 C  
HETATM    2  N   UNL     1     -10.779   4.051  64.085  1.00  0.00    -0.463 N  
HETATM    3  C   UNL     1      -9.880   4.108  65.128  1.00  0.00    -0.205 C  
HETATM    4  H   UNL     1     -11.479   4.787  63.990  1.00  0.00     0.000 HD 
HETATM    5  O   UNL     1      -9.016   3.259  65.324  1.00  0.00    -0.130 OA 
ENDROOT
BRANCH   3   6
HETATM    6  C   UNL     1     -10.006   5.311  66.014  1.00  0.00    -0.124 A  
HETATM    7  N   UNL     1     -11.030   5.317  66.913  1.00  0.00     0.023 NA 
HETATM    8  C   UNL     1     -11.164   6.440  67.654  1.00  0.00    -0.166 A  
HETATM    9  C   UNL     1     -10.360   7.565  67.516  1.00  0.00    -0.321 A  
HETATM   10  C   UNL     1      -9.340   7.532  66.572  1.00  0.00    -0.181 A  
HETATM   11  C   UNL     1      -9.122   6.363  65.845  1.00  0.00    -0.074 A  
BRANCH  10  12
HETATM   12  O   UNL     1      -8.584   8.680  66.418  1.00  0.00    -0.110 OA 
BRANCH  12  13
HETATM   13  C   UNL     1      -9.247   9.890  66.362  1.00  0.00    -0.158 A  
HETATM   14  C   UNL     1      -8.812  11.012  67.056  1.00  0.00    -0.143 A  
HETATM   15  C   UNL     1      -9.600  12.157  67.086  1.00  0.00    -0.195 A  
HETATM   16  C   UNL     1     -10.774  12.264  66.333  1.00  0.00    -0.251 A  
HETATM   17  C   UNL     1     -11.162  11.164  65.562  1.00  0.00     0.021 A  
HETATM   18  C   UNL     1     -10.398   9.981  65.576  1.00  0.00    -0.146 A  
BRANCH  16  19
HETATM   19  N   UNL     1     -11.570  13.440  66.336  1.00  0.00    -0.331 N  
HETATM   20  H   UNL     1     -12.057  13.702  65.478  1.00  0.00     0.000 HD 
BRANCH  19  21
HETATM   21  C   UNL     1     -11.717  14.251  67.455  1.00  0.00    -0.394 C  
HETATM   22  O   UNL     1     -12.236  13.863  68.494  1.00  0.00    -0.342 OA 
BRANCH  21  23
HETATM   23  N   UNL     1     -11.238  15.538  67.288  1.00  0.00    -0.276 N  
HETATM   24  H   UNL     1     -11.728  16.159  66.644  1.00  0.00     0.000 HD 
BRANCH  23  25
HETATM   25  C   UNL     1     -10.088  16.040  67.974  1.00  0.00    -0.240 A  
HETATM   26  C   UNL     1      -9.884  17.404  68.216  1.00  0.00    -0.310 A  
HETATM   27  C   UNL     1      -8.705  17.907  68.794  1.00  0.00    -0.206 A  
HETATM   28  C   UNL     1      -8.527  19.395  68.928  1.00  0.00    -0.292 C  
HETATM   29  C   UNL     1      -7.737  16.994  69.200  1.00  0.00    -0.114 A  
HETATM   30  F   UNL     1      -7.427  19.862  68.272  1.00  0.00    -0.321 F  
HETATM   31  F   UNL     1      -8.403  19.801  70.222  1.00  0.00     0.287 F  
HETATM   32  F   UNL     1      -9.571  20.118  68.428  1.00  0.00    -0.404 F  
HETATM   33 CL   UNL     1      -6.264  17.498  69.943  1.00  0.00    -0.188 Cl 
HETATM   34  C   UNL     1      -7.944  15.619  69.017  1.00  0.00    -0.208 A  
HETATM   35  C   UNL     1      -9.111  15.142  68.403  1.00  0.00    -0.185 A  
ENDBRANCH  23  25
ENDBRANCH  21  23
ENDBRANCH  19  21
ENDBRANCH  16  19
ENDBRANCH  12  13
ENDBRANCH  10  12
ENDBRANCH   3   6
TORSDOF 7
ENDMDL
MODEL      300
REMARK 921   NORMALIZED FREE ENERGY PREDICTED BY IDOCK:   -3.63 KCAL/MOL
REMARK 922        TOTAL FREE ENERGY PREDICTED BY IDOCK:   -6.97 KCAL/MOL
REMARK 923 INTER-LIGAND FREE ENERGY PREDICTED BY IDOCK:   -6.04 KCAL/MOL
REMARK 924 INTRA-LIGAND FREE ENERGY PREDICTED BY IDOCK:   -0.93 KCAL/MOL
REMARK 927      BINDING AFFINITY PREDICTED BY RF-SCORE:    0.00 PKD
ROOT
HETATM    1  C   UNL     1      -5.787   2.120  62.352  1.00  0.00    -0.008 C  
HETATM    2  N   UNL     1      -5.678   3.362  63.065  1.00  0.00    -0.012 N  
HETATM    3  C   UNL     1      -6.715   4.269  63.092  1.00  0.00    -0.035 C  
HETATM    4  H   UNL     1      -4.815   3.577  63.562  1.00  0.00     0.000 HD 
HETATM    5  O   UNL     1      -7.781   4.096  62.511  1.00  0.00    -0.058 OA 
ENDROOT
BRANCH   3   6
HETATM    6  C   UNL     1      -6.466   5.498  63.915  1.00  0.00    -0.033 A  
HETATM    7  N   UNL     1      -5.460   5.440  64.832  1.00  0.00    -0.013 NA 
HETATM    8  C   UNL     1      -5.299   6.536  65.607  1.00  0.00    -0.018 A  
HETATM    9  C   UNL     1      -6.111   7.661  65.544  1.00  0.00    -0.038 A  
HETATM   10  C   UNL     1      -7.143   7.675  64.613  1.00  0.00    -0.065 A  
HETATM   11  C   UNL     1      -7.291   6.596  63.743  1.00  0.00    -0.072 A  
BRANCH  10  12
HETATM   12  O   UNL     1      -7.969   8.786  64.601  1.00  0.00    -0.119 OA 
BRANCH  12  13
HETATM   13  C   UNL     1      -8.520   9.195  65.799  1.00  0.00    -0.141 A  
HETATM   14  C   UNL     1      -8.091  10.336  66.466  1.00  0.00    -0.121 A  
HETATM   15  C   UNL     1      -8.573  10.617  67.740  1.00  0.00    -0.123 A  
HETATM   16  C   UNL     1      -9.580   9.847  68.332  1.00  0.00    -0.148 A  
HETATM   17  C   UNL     1     -10.076   8.753  67.618  1.00  0.00    -0.273 A  
HETATM   18  C   UNL     1      -9.548   8.430  66.354  1.00  0.00    -0.307 A  
BRANCH  16  19
HETATM   19  N   UNL     1     -10.099  10.144  69.622  1.00  0.00    -0.229 N  
HETATM   20  H   UNL     1      -9.459  10.494  70.335  1.00  0.00     0.000 HD 
BRANCH  19  21
HETATM   21  C   UNL     1     -11.438   9.979  69.955  1.00  0.00    -0.248 C  
HETATM   22  O   UNL     1     -11.834   9.086  70.694  1.00  0.00    -0.255 OA 
BRANCH  21  23
HETATM   23  N   UNL     1     -12.284  10.904  69.371  1.00  0.00    -0.481 N  
HETATM   24  H   UNL     1     -13.290  10.738  69.418  1.00  0.00     0.000 HD 
BRANCH  23  25
HETATM   25  C   UNL     1     -11.820  12.080  68.705  1.00  0.00    -0.311 A  
HETATM   26  C   UNL     1     -11.322  13.195  69.390  1.00  0.00    -0.276 A  
HETATM   27  C   UNL     1     -10.966  14.391  68.742  1.00  0.00    -0.264 A  
HETATM   28  C   UNL     1     -10.533  15.574  69.564  1.00  0.00    -0.263 C  
HETATM   29  C   UNL     1     -11.053  14.432  67.353  1.00  0.00    -0.308 A  
HETATM   30  F   UNL     1     -11.320  16.671  69.377  1.00  0.00    -0.274 F  
HETATM   31  F   UNL     1      -9.257  15.968  69.298  1.00  0.00    -0.218 F  
HETATM   32  F   UNL     1     -10.560  15.344  70.909  1.00  0.00    -0.345 F  
HETATM   33 CL   UNL     1     -10.618  15.838  66.454  1.00  0.00    -0.309 Cl 
HETATM   34  C   UNL     1     -11.497  13.307  66.643  1.00  0.00    -0.384 A  
HETATM   35  C   UNL     1     -11.884  12.138  67.311  1.00  0.00    -0.293 A  
ENDBRANCH  23  25
ENDBRANCH  21  23
ENDBRANCH  19  21
ENDBRANCH  16  19
ENDBRANCH  12  13
ENDBRANCH  10  12
ENDBRANCH   3   6
TORSDOF 7
ENDMDL
MODEL      301
REMARK 921   NORMALIZED FREE ENERGY PREDICTED BY IDOCK:   -3.62 KCAL/MOL
REMARK 922        TOTAL FREE ENERGY PREDICTED BY IDOCK:   -6.96 KCAL/MOL
REMARK 923 INTER-LIGAND FREE ENERGY PREDICTED BY IDOCK:   -6.74 KCAL/MOL
REMARK 924 INTRA-LIGAND FREE ENERGY PREDICTED BY IDOCK:   -0.21 KCAL/MOL
REMARK 927      BINDING AFFINITY PREDICTED BY RF-SCORE:    0.00 PKD
ROOT
HETATM    1  C   UNL     1      -6.088   1.991  69.532  1.00  0.00    -0.024 C  
HETATM    2  N   UNL     1      -7.233   2.811  69.244  1.00  0.00    -0.044 N  
HETATM    3  C   UNL     1      -7.251   3.666  68.164  1.00  0.00    -0.051 C  
HETATM    4  H   UNL     1      -8.050   2.758  69.852  1.00  0.00     0.000 HD 
HETATM    5  O   UNL     1      -6.308   3.802  67.392  1.00  0.00    -0.035 OA 
ENDROOT
BRANCH   3   6
HETATM    6  C   UNL     1      -8.533   4.420  67.970  1.00  0.00    -0.094 A  
HETATM    7  N   UNL     1      -8.938   4.641  66.688  1.00  0.00    -0.111 NA 
HETATM    8  C   UNL     1     -10.060   5.381  66.538  1.00  0.00    -0.216 A  
HETATM    9  C   UNL     1     -10.769   5.943  67.592  1.00  0.00    -0.352 A  
HETATM   10  C   UNL     1     -10.313   5.717  68.886  1.00  0.00    -0.225 A  
HETATM   11  C   UNL     1      -9.205   4.894  69.084  1.00  0.00    -0.166 A  
BRANCH  10  12
HETATM   12  O   UNL     1     -11.007   6.326  69.916  1.00  0.00    -0.296 OA 
BRANCH  12  13
HETATM   13  C   UNL     1     -10.970   7.704  69.996  1.00  0.00    -0.228 A  
HETATM   14  C   UNL     1     -11.702   8.417  70.938  1.00  0.00    -0.269 A  
HETATM   15  C   UNL     1     -11.747   9.805  70.875  1.00  0.00    -0.429 A  
HETATM   16  C   UNL     1     -10.973  10.527  69.959  1.00  0.00    -0.286 A  
HETATM   17  C   UNL     1     -10.166   9.808  69.072  1.00  0.00    -0.214 A  
HETATM   18  C   UNL     1     -10.163   8.401  69.093  1.00  0.00    -0.217 A  
BRANCH  16  19
HETATM   19  N   UNL     1     -10.992  11.946  69.907  1.00  0.00    -0.421 N  
HETATM   20  H   UNL     1     -10.473  12.467  70.615  1.00  0.00     0.000 HD 
BRANCH  19  21
HETATM   21  C   UNL     1     -11.684  12.659  68.935  1.00  0.00    -0.325 C  
HETATM   22  O   UNL     1     -12.240  12.121  67.986  1.00  0.00    -0.419 OA 
BRANCH  21  23
HETATM   23  N   UNL     1     -11.680  14.028  69.127  1.00  0.00    -0.309 N  
HETATM   24  H   UNL     1     -12.478  14.454  69.597  1.00  0.00     0.000 HD 
BRANCH  23  25
HETATM   25  C   UNL     1     -10.612  14.876  68.697  1.00  0.00    -0.251 A  
HETATM   26  C   UNL     1      -9.263  14.530  68.840  1.00  0.00    -0.118 A  
HETATM   27  C   UNL     1      -8.214  15.408  68.517  1.00  0.00    -0.145 A  
HETATM   28  C   UNL     1      -6.794  14.994  68.794  1.00  0.00    -0.105 C  
HETATM   29  C   UNL     1      -8.542  16.644  67.968  1.00  0.00    -0.193 A  
HETATM   30  F   UNL     1      -6.145  15.843  69.640  1.00  0.00    -0.130 F  
HETATM   31  F   UNL     1      -6.032  14.919  67.667  1.00  0.00    -0.147 F  
HETATM   32  F   UNL     1      -6.688  13.764  69.376  1.00  0.00    -0.106 F  
HETATM   33 CL   UNL     1      -7.334  17.789  67.511  1.00  0.00    -0.203 Cl 
HETATM   34  C   UNL     1      -9.886  16.990  67.765  1.00  0.00    -0.271 A  
HETATM   35  C   UNL     1     -10.918  16.115  68.131  1.00  0.00    -0.341 A  
ENDBRANCH  23  25
ENDBRANCH  21  23
ENDBRANCH  19  21
ENDBRANCH  16  19
ENDBRANCH  12  13
ENDBRANCH  10  12
ENDBRANCH   3   6
TORSDOF 7
ENDMDL
MODEL      302
REMARK 921   NORMALIZED FREE ENERGY PREDICTED BY IDOCK:   -3.61 KCAL/MOL
REMARK 922        TOTAL FREE ENERGY PREDICTED BY IDOCK:   -6.93 KCAL/MOL
REMARK 923 INTER-LIGAND FREE ENERGY PREDICTED BY IDOCK:   -6.24 KCAL/MOL
REMARK 924 INTRA-LIGAND FREE ENERGY PREDICTED BY IDOCK:   -0.69 KCAL/MOL
REMARK 927      BINDING AFFINITY PREDICTED BY RF-SCORE:    0.00 PKD
ROOT
HETATM    1  C   UNL     1     -12.767  14.622  64.862  1.00  0.00    -0.044 C  
HETATM    2  N   UNL     1     -11.476  14.640  65.493  1.00  0.00    -0.340 N  
HETATM    3  C   UNL     1     -11.171  13.788  66.532  1.00  0.00    -0.312 C  
HETATM    4  H   UNL     1     -10.769  15.298  65.164  1.00  0.00     0.000 HD 
HETATM    5  O   UNL     1     -11.965  12.978  66.998  1.00  0.00    -0.383 OA 
ENDROOT
BRANCH   3   6
HETATM    6  C   UNL     1      -9.770  13.897  67.055  1.00  0.00    -0.250 A  
HETATM    7  N   UNL     1      -9.060  15.008  66.710  1.00  0.00    -0.245 NA 
HETATM    8  C   UNL     1      -7.778  15.050  67.138  1.00  0.00    -0.167 A  
HETATM    9  C   UNL     1      -7.160  14.031  67.851  1.00  0.00    -0.166 A  
HETATM   10  C   UNL     1      -7.908  12.902  68.165  1.00  0.00    -0.147 A  
HETATM   11  C   UNL     1      -9.255  12.856  67.810  1.00  0.00    -0.200 A  
BRANCH  10  12
HETATM   12  O   UNL     1      -7.258  11.879  68.834  1.00  0.00    -0.109 OA 
BRANCH  12  13
HETATM   13  C   UNL     1      -7.487  10.584  68.414  1.00  0.00    -0.092 A  
HETATM   14  C   UNL     1      -8.738   9.984  68.493  1.00  0.00    -0.123 A  
HETATM   15  C   UNL     1      -8.878   8.632  68.200  1.00  0.00    -0.142 A  
HETATM   16  C   UNL     1      -7.814   7.871  67.704  1.00  0.00    -0.122 A  
HETATM   17  C   UNL     1      -6.577   8.502  67.537  1.00  0.00    -0.058 A  
HETATM   18  C   UNL     1      -6.416   9.856  67.890  1.00  0.00    -0.059 A  
BRANCH  16  19
HETATM   19  N   UNL     1      -7.956   6.497  67.375  1.00  0.00    -0.112 N  
HETATM   20  H   UNL     1      -7.363   5.818  67.854  1.00  0.00     0.000 HD 
BRANCH  19  21
HETATM   21  C   UNL     1      -8.865   6.034  66.431  1.00  0.00    -0.136 C  
HETATM   22  O   UNL     1      -8.650   6.072  65.226  1.00  0.00    -0.151 OA 
BRANCH  21  23
HETATM   23  N   UNL     1     -10.038   5.538  66.971  1.00  0.00    -0.171 N  
HETATM   24  H   UNL     1     -10.851   5.446  66.361  1.00  0.00     0.000 HD 
BRANCH  23  25
HETATM   25  C   UNL     1     -10.167   5.150  68.340  1.00  0.00    -0.105 A  
HETATM   26  C   UNL     1     -10.850   5.922  69.288  1.00  0.00    -0.414 A  
HETATM   27  C   UNL     1     -10.886   5.594  70.654  1.00  0.00    -0.304 A  
HETATM   28  C   UNL     1     -11.560   6.531  71.620  1.00  0.00    -0.308 C  
HETATM   29  C   UNL     1     -10.271   4.413  71.059  1.00  0.00    -0.051 A  
HETATM   30  F   UNL     1     -10.722   6.986  72.594  1.00  0.00    -0.220 F  
HETATM   31  F   UNL     1     -12.620   5.964  72.259  1.00  0.00    -0.346 F  
HETATM   32  F   UNL     1     -12.061   7.656  71.030  1.00  0.00    -0.311 F  
HETATM   33 CL   UNL     1     -10.276   3.901  72.706  1.00  0.00    -0.221 Cl 
HETATM   34  C   UNL     1      -9.628   3.596  70.118  1.00  0.00    -0.242 A  
HETATM   35  C   UNL     1      -9.571   3.962  68.766  1.00  0.00    -0.187 A  
ENDBRANCH  23  25
ENDBRANCH  21  23
ENDBRANCH  19  21
ENDBRANCH  16  19
ENDBRANCH  12  13
ENDBRANCH  10  12
ENDBRANCH   3   6
TORSDOF 7
ENDMDL
MODEL      303
REMARK 921   NORMALIZED FREE ENERGY PREDICTED BY IDOCK:   -3.58 KCAL/MOL
REMARK 922        TOTAL FREE ENERGY PREDICTED BY IDOCK:   -6.90 KCAL/MOL
REMARK 923 INTER-LIGAND FREE ENERGY PREDICTED BY IDOCK:   -6.25 KCAL/MOL
REMARK 924 INTRA-LIGAND FREE ENERGY PREDICTED BY IDOCK:   -0.65 KCAL/MOL
REMARK 927      BINDING AFFINITY PREDICTED BY RF-SCORE:    0.00 PKD
ROOT
HETATM    1  C   UNL     1     -12.299   6.379  71.383  1.00  0.00    -0.060 C  
HETATM    2  N   UNL     1     -11.093   6.045  70.678  1.00  0.00    -0.310 N  
HETATM    3  C   UNL     1     -10.656   6.792  69.606  1.00  0.00    -0.233 C  
HETATM    4  H   UNL     1     -10.547   5.238  70.978  1.00  0.00     0.000 HD 
HETATM    5  O   UNL     1     -11.258   7.768  69.170  1.00  0.00     0.076 OA 
ENDROOT
BRANCH   3   6
HETATM    6  C   UNL     1      -9.358   6.344  69.004  1.00  0.00    -0.127 A  
HETATM    7  N   UNL     1      -9.198   5.008  68.789  1.00  0.00    -0.116 NA 
HETATM    8  C   UNL     1      -7.995   4.622  68.309  1.00  0.00    -0.084 A  
HETATM    9  C   UNL     1      -6.936   5.490  68.073  1.00  0.00    -0.065 A  
HETATM   10  C   UNL     1      -7.126   6.843  68.325  1.00  0.00    -0.086 A  
HETATM   11  C   UNL     1      -8.379   7.289  68.746  1.00  0.00    -0.129 A  
BRANCH  10  12
HETATM   12  O   UNL     1      -6.043   7.682  68.129  1.00  0.00    -0.037 OA 
BRANCH  12  13
HETATM   13  C   UNL     1      -6.296   9.013  67.862  1.00  0.00    -0.056 A  
HETATM   14  C   UNL     1      -6.370   9.973  68.865  1.00  0.00    -0.044 A  
HETATM   15  C   UNL     1      -6.777  11.267  68.557  1.00  0.00    -0.063 A  
HETATM   16  C   UNL     1      -7.001  11.674  67.237  1.00  0.00    -0.131 A  
HETATM   17  C   UNL     1      -6.836  10.728  66.221  1.00  0.00    -0.135 A  
HETATM   18  C   UNL     1      -6.482   9.402  66.534  1.00  0.00    -0.067 A  
BRANCH  16  19
HETATM   19  N   UNL     1      -7.390  13.001  66.911  1.00  0.00    -0.312 N  
HETATM   20  H   UNL     1      -6.817  13.529  66.252  1.00  0.00     0.000 HD 
BRANCH  19  21
HETATM   21  C   UNL     1      -8.516  13.613  67.449  1.00  0.00    -0.201 C  
HETATM   22  O   UNL     1      -9.621  13.087  67.451  1.00  0.00    -0.201 OA 
BRANCH  21  23
HETATM   23  N   UNL     1      -8.280  14.872  67.970  1.00  0.00    -0.133 N  
HETATM   24  H   UNL     1      -7.679  14.953  68.790  1.00  0.00     0.000 HD 
BRANCH  23  25
HETATM   25  C   UNL     1      -8.839  16.066  67.417  1.00  0.00    -0.184 A  
HETATM   26  C   UNL     1      -8.619  17.334  67.969  1.00  0.00    -0.234 A  
HETATM   27  C   UNL     1      -9.254  18.493  67.489  1.00  0.00    -0.288 A  
HETATM   28  C   UNL     1      -9.038  19.801  68.202  1.00  0.00    -0.314 C  
HETATM   29  C   UNL     1     -10.080  18.373  66.375  1.00  0.00    -0.403 A  
HETATM   30  F   UNL     1     -10.194  20.353  68.665  1.00  0.00    -0.490 F  
HETATM   31  F   UNL     1      -8.450  20.745  67.416  1.00  0.00    -0.392 F  
HETATM   32  F   UNL     1      -8.230  19.698  69.298  1.00  0.00    -0.379 F  
HETATM   33 CL   UNL     1     -10.888  19.733  65.689  1.00  0.00    -0.476 Cl 
HETATM   34  C   UNL     1     -10.270  17.121  65.773  1.00  0.00    -0.234 A  
HETATM   35  C   UNL     1      -9.659  15.971  66.291  1.00  0.00    -0.336 A  
ENDBRANCH  23  25
ENDBRANCH  21  23
ENDBRANCH  19  21
ENDBRANCH  16  19
ENDBRANCH  12  13
ENDBRANCH  10  12
ENDBRANCH   3   6
TORSDOF 7
ENDMDL
MODEL      304
REMARK 921   NORMALIZED FREE ENERGY PREDICTED BY IDOCK:   -3.58 KCAL/MOL
REMARK 922        TOTAL FREE ENERGY PREDICTED BY IDOCK:   -6.89 KCAL/MOL
REMARK 923 INTER-LIGAND FREE ENERGY PREDICTED BY IDOCK:   -5.35 KCAL/MOL
REMARK 924 INTRA-LIGAND FREE ENERGY PREDICTED BY IDOCK:   -1.54 KCAL/MOL
REMARK 927      BINDING AFFINITY PREDICTED BY RF-SCORE:    0.00 PKD
ROOT
HETATM    1  C   UNL     1     -11.877  14.366  66.387  1.00  0.00    -0.388 C  
HETATM    2  N   UNL     1     -10.556  14.362  66.951  1.00  0.00    -0.276 N  
HETATM    3  C   UNL     1      -9.930  15.532  67.324  1.00  0.00    -0.238 C  
HETATM    4  H   UNL     1     -10.070  13.475  67.080  1.00  0.00     0.000 HD 
HETATM    5  O   UNL     1     -10.435  16.642  67.191  1.00  0.00    -0.312 OA 
ENDROOT
BRANCH   3   6
HETATM    6  C   UNL     1      -8.572  15.361  67.938  1.00  0.00    -0.155 A  
HETATM    7  N   UNL     1      -8.231  16.217  68.942  1.00  0.00    -0.221 NA 
HETATM    8  C   UNL     1      -6.977  16.087  69.433  1.00  0.00    -0.216 A  
HETATM    9  C   UNL     1      -6.041  15.182  68.949  1.00  0.00    -0.093 A  
HETATM   10  C   UNL     1      -6.417  14.341  67.908  1.00  0.00    -0.165 A  
HETATM   11  C   UNL     1      -7.725  14.391  67.428  1.00  0.00    -0.207 A  
BRANCH  10  12
HETATM   12  O   UNL     1      -5.454  13.481  67.411  1.00  0.00    -0.349 OA 
BRANCH  12  13
HETATM   13  C   UNL     1      -5.513  12.154  67.789  1.00  0.00    -0.076 A  
HETATM   14  C   UNL     1      -5.696  11.125  66.873  1.00  0.00    -0.090 A  
HETATM   15  C   UNL     1      -5.901   9.825  67.322  1.00  0.00    -0.051 A  
HETATM   16  C   UNL     1      -5.808   9.491  68.678  1.00  0.00    -0.040 A  
HETATM   17  C   UNL     1      -5.533  10.515  69.589  1.00  0.00    -0.038 A  
HETATM   18  C   UNL     1      -5.384  11.843  69.144  1.00  0.00    -0.051 A  
BRANCH  16  19
HETATM   19  N   UNL     1      -5.989   8.161  69.142  1.00  0.00    -0.037 N  
HETATM   20  H   UNL     1      -5.744   7.390  68.520  1.00  0.00     0.000 HD 
BRANCH  19  21
HETATM   21  C   UNL     1      -6.484   7.862  70.406  1.00  0.00    -0.037 C  
HETATM   22  O   UNL     1      -5.789   7.878  71.414  1.00  0.00    -0.034 OA 
BRANCH  21  23
HETATM   23  N   UNL     1      -7.827   7.531  70.424  1.00  0.00    -0.095 N  
HETATM   24  H   UNL     1      -8.092   6.598  70.739  1.00  0.00     0.000 HD 
BRANCH  23  25
HETATM   25  C   UNL     1      -8.861   8.433  70.023  1.00  0.00    -0.137 A  
HETATM   26  C   UNL     1      -9.096   8.773  68.685  1.00  0.00    -0.141 A  
HETATM   27  C   UNL     1     -10.041   9.740  68.300  1.00  0.00    -0.189 A  
HETATM   28  C   UNL     1     -10.160  10.117  66.848  1.00  0.00    -0.223 C  
HETATM   29  C   UNL     1     -10.817  10.327  69.295  1.00  0.00    -0.238 A  
HETATM   30  F   UNL     1      -9.932  11.441  66.620  1.00  0.00    -0.212 F  
HETATM   31  F   UNL     1     -11.389   9.844  66.327  1.00  0.00     0.221 F  
HETATM   32  F   UNL     1      -9.278   9.460  66.039  1.00  0.00    -0.175 F  
HETATM   33 CL   UNL     1     -12.023  11.506  68.933  1.00  0.00    -0.392 Cl 
HETATM   34  C   UNL     1     -10.636   9.961  70.636  1.00  0.00    -0.341 A  
HETATM   35  C   UNL     1      -9.662   9.023  71.002  1.00  0.00    -0.348 A  
ENDBRANCH  23  25
ENDBRANCH  21  23
ENDBRANCH  19  21
ENDBRANCH  16  19
ENDBRANCH  12  13
ENDBRANCH  10  12
ENDBRANCH   3   6
TORSDOF 7
ENDMDL
MODEL      305
REMARK 921   NORMALIZED FREE ENERGY PREDICTED BY IDOCK:   -3.57 KCAL/MOL
REMARK 922        TOTAL FREE ENERGY PREDICTED BY IDOCK:   -6.87 KCAL/MOL
REMARK 923 INTER-LIGAND FREE ENERGY PREDICTED BY IDOCK:   -6.05 KCAL/MOL
REMARK 924 INTRA-LIGAND FREE ENERGY PREDICTED BY IDOCK:   -0.82 KCAL/MOL
REMARK 927      BINDING AFFINITY PREDICTED BY RF-SCORE:    0.00 PKD
ROOT
HETATM    1  C   UNL     1      -9.943   3.689  63.002  1.00  0.00    -0.153 C  
HETATM    2  N   UNL     1      -9.758   3.410  64.399  1.00  0.00    -0.160 N  
HETATM    3  C   UNL     1      -9.502   4.417  65.305  1.00  0.00    -0.171 C  
HETATM    4  H   UNL     1      -9.819   2.447  64.728  1.00  0.00     0.000 HD 
HETATM    5  O   UNL     1      -9.398   5.598  64.993  1.00  0.00     0.120 OA 
ENDROOT
BRANCH   3   6
HETATM    6  C   UNL     1      -9.377   3.973  66.732  1.00  0.00    -0.183 A  
HETATM    7  N   UNL     1      -9.337   2.632  66.966  1.00  0.00    -0.105 NA 
HETATM    8  C   UNL     1      -9.292   2.256  68.265  1.00  0.00    -0.211 A  
HETATM    9  C   UNL     1      -9.328   3.142  69.334  1.00  0.00    -0.225 A  
HETATM   10  C   UNL     1      -9.394   4.503  69.057  1.00  0.00    -0.148 A  
HETATM   11  C   UNL     1      -9.362   4.932  67.731  1.00  0.00    -0.154 A  
BRANCH  10  12
HETATM   12  O   UNL     1      -9.477   5.364  70.137  1.00  0.00    -0.149 OA 
BRANCH  12  13
HETATM   13  C   UNL     1      -9.194   6.699  69.924  1.00  0.00    -0.146 A  
HETATM   14  C   UNL     1     -10.188   7.655  69.754  1.00  0.00    -0.210 A  
HETATM   15  C   UNL     1      -9.848   8.953  69.391  1.00  0.00    -0.183 A  
HETATM   16  C   UNL     1      -8.514   9.369  69.307  1.00  0.00    -0.141 A  
HETATM   17  C   UNL     1      -7.515   8.426  69.569  1.00  0.00    -0.088 A  
HETATM   18  C   UNL     1      -7.855   7.096  69.878  1.00  0.00    -0.113 A  
BRANCH  16  19
HETATM   19  N   UNL     1      -8.158  10.700  68.964  1.00  0.00    -0.141 N  
HETATM   20  H   UNL     1      -8.805  11.454  69.198  1.00  0.00     0.000 HD 
BRANCH  19  21
HETATM   21  C   UNL     1      -6.967  11.024  68.324  1.00  0.00    -0.069 C  
HETATM   22  O   UNL     1      -5.890  11.067  68.905  1.00  0.00    -0.040 OA 
BRANCH  21  23
HETATM   23  N   UNL     1      -7.107  11.305  66.977  1.00  0.00    -0.121 N  
HETATM   24  H   UNL     1      -6.269  11.321  66.395  1.00  0.00     0.000 HD 
BRANCH  23  25
HETATM   25  C   UNL     1      -8.368  11.573  66.359  1.00  0.00    -0.118 A  
HETATM   26  C   UNL     1      -9.170  12.665  66.713  1.00  0.00    -0.225 A  
HETATM   27  C   UNL     1     -10.456  12.869  66.183  1.00  0.00    -0.283 A  
HETATM   28  C   UNL     1     -11.290  14.013  66.692  1.00  0.00    -0.335 C  
HETATM   29  C   UNL     1     -10.913  11.978  65.216  1.00  0.00    -0.308 A  
HETATM   30  F   UNL     1     -12.474  13.611  67.235  1.00  0.00    -0.370 F  
HETATM   31  F   UNL     1     -11.601  14.917  65.721  1.00  0.00    -0.346 F  
HETATM   32  F   UNL     1     -10.680  14.741  67.672  1.00  0.00    -0.255 F  
HETATM   33 CL   UNL     1     -12.464  12.148  64.480  1.00  0.00    -0.431 Cl 
HETATM   34  C   UNL     1     -10.103  10.909  64.806  1.00  0.00    -0.383 A  
HETATM   35  C   UNL     1      -8.840  10.702  65.376  1.00  0.00    -0.204 A  
ENDBRANCH  23  25
ENDBRANCH  21  23
ENDBRANCH  19  21
ENDBRANCH  16  19
ENDBRANCH  12  13
ENDBRANCH  10  12
ENDBRANCH   3   6
TORSDOF 7
ENDMDL
MODEL      306
REMARK 921   NORMALIZED FREE ENERGY PREDICTED BY IDOCK:   -3.54 KCAL/MOL
REMARK 922        TOTAL FREE ENERGY PREDICTED BY IDOCK:   -6.83 KCAL/MOL
REMARK 923 INTER-LIGAND FREE ENERGY PREDICTED BY IDOCK:   -5.41 KCAL/MOL
REMARK 924 INTRA-LIGAND FREE ENERGY PREDICTED BY IDOCK:   -1.42 KCAL/MOL
REMARK 927      BINDING AFFINITY PREDICTED BY RF-SCORE:    0.00 PKD
ROOT
HETATM    1  C   UNL     1      -6.066   2.932  64.255  1.00  0.00    -0.022 C  
HETATM    2  N   UNL     1      -6.044   4.347  64.011  1.00  0.00    -0.018 N  
HETATM    3  C   UNL     1      -7.200   5.049  63.744  1.00  0.00    -0.050 C  
HETATM    4  H   UNL     1      -5.154   4.844  64.036  1.00  0.00     0.000 HD 
HETATM    5  O   UNL     1      -8.308   4.528  63.680  1.00  0.00    -0.097 OA 
ENDROOT
BRANCH   3   6
HETATM    6  C   UNL     1      -7.020   6.525  63.555  1.00  0.00    -0.051 A  
HETATM    7  N   UNL     1      -5.747   7.010  63.611  1.00  0.00    -0.036 NA 
HETATM    8  C   UNL     1      -5.617   8.352  63.505  1.00  0.00    -0.067 A  
HETATM    9  C   UNL     1      -6.686   9.232  63.390  1.00  0.00    -0.091 A  
HETATM   10  C   UNL     1      -7.971   8.704  63.360  1.00  0.00    -0.160 A  
HETATM   11  C   UNL     1      -8.141   7.320  63.387  1.00  0.00    -0.003 A  
BRANCH  10  12
HETATM   12  O   UNL     1      -9.022   9.601  63.293  1.00  0.00    -0.239 OA 
BRANCH  12  13
HETATM   13  C   UNL     1      -9.408  10.234  64.458  1.00  0.00    -0.276 A  
HETATM   14  C   UNL     1      -9.315  11.611  64.625  1.00  0.00     0.021 A  
HETATM   15  C   UNL     1      -9.572  12.178  65.868  1.00  0.00    -0.226 A  
HETATM   16  C   UNL     1     -10.045  11.415  66.942  1.00  0.00    -0.214 A  
HETATM   17  C   UNL     1     -10.226  10.043  66.743  1.00  0.00    -0.295 A  
HETATM   18  C   UNL     1      -9.909   9.456  65.504  1.00  0.00    -0.231 A  
BRANCH  16  19
HETATM   19  N   UNL     1     -10.337  11.991  68.207  1.00  0.00    -0.198 N  
HETATM   20  H   UNL     1      -9.731  12.734  68.556  1.00  0.00     0.000 HD 
BRANCH  19  21
HETATM   21  C   UNL     1     -11.411  11.589  68.992  1.00  0.00    -0.291 C  
HETATM   22  O   UNL     1     -12.577  11.717  68.640  1.00  0.00    -0.103 OA 
BRANCH  21  23
HETATM   23  N   UNL     1     -11.049  11.043  70.210  1.00  0.00    -0.466 N  
HETATM   24  H   UNL     1     -10.919  11.670  71.003  1.00  0.00     0.000 HD 
BRANCH  23  25
HETATM   25  C   UNL     1     -10.847   9.642  70.411  1.00  0.00    -0.295 A  
HETATM   26  C   UNL     1      -9.944   8.888  69.652  1.00  0.00    -0.193 A  
HETATM   27  C   UNL     1      -9.824   7.492  69.777  1.00  0.00    -0.180 A  
HETATM   28  C   UNL     1      -8.900   6.746  68.853  1.00  0.00    -0.128 C  
HETATM   29  C   UNL     1     -10.590   6.855  70.748  1.00  0.00    -0.220 A  
HETATM   30  F   UNL     1      -9.538   5.798  68.111  1.00  0.00    -0.111 F  
HETATM   31  F   UNL     1      -7.894   6.105  69.511  1.00  0.00    -0.091 F  
HETATM   32  F   UNL     1      -8.274   7.548  67.942  1.00  0.00    -0.117 F  
HETATM   33 CL   UNL     1     -10.504   5.152  71.005  1.00  0.00    -0.274 Cl 
HETATM   34  C   UNL     1     -11.461   7.599  71.558  1.00  0.00    -0.295 A  
HETATM   35  C   UNL     1     -11.594   8.984  71.390  1.00  0.00    -0.396 A  
ENDBRANCH  23  25
ENDBRANCH  21  23
ENDBRANCH  19  21
ENDBRANCH  16  19
ENDBRANCH  12  13
ENDBRANCH  10  12
ENDBRANCH   3   6
TORSDOF 7
ENDMDL
MODEL      307
REMARK 921   NORMALIZED FREE ENERGY PREDICTED BY IDOCK:   -3.53 KCAL/MOL
REMARK 922        TOTAL FREE ENERGY PREDICTED BY IDOCK:   -6.82 KCAL/MOL
REMARK 923 INTER-LIGAND FREE ENERGY PREDICTED BY IDOCK:   -6.00 KCAL/MOL
REMARK 924 INTRA-LIGAND FREE ENERGY PREDICTED BY IDOCK:   -0.82 KCAL/MOL
REMARK 927      BINDING AFFINITY PREDICTED BY RF-SCORE:    0.00 PKD
ROOT
HETATM    1  C   UNL     1     -12.218   7.185  72.214  1.00  0.00    -0.143 C  
HETATM    2  N   UNL     1     -11.610   6.748  70.989  1.00  0.00    -0.319 N  
HETATM    3  C   UNL     1     -11.215   7.646  70.021  1.00  0.00    -0.134 C  
HETATM    4  H   UNL     1     -11.467   5.751  70.831  1.00  0.00     0.000 HD 
HETATM    5  O   UNL     1     -11.362   8.860  70.123  1.00  0.00    -0.217 OA 
ENDROOT
BRANCH   3   6
HETATM    6  C   UNL     1     -10.555   7.039  68.819  1.00  0.00    -0.212 A  
HETATM    7  N   UNL     1     -10.939   5.780  68.468  1.00  0.00    -0.196 NA 
HETATM    8  C   UNL     1     -10.282   5.229  67.421  1.00  0.00    -0.191 A  
HETATM    9  C   UNL     1      -9.243   5.849  66.740  1.00  0.00    -0.139 A  
HETATM   10  C   UNL     1      -8.862   7.124  67.142  1.00  0.00    -0.121 A  
HETATM   11  C   UNL     1      -9.568   7.756  68.165  1.00  0.00    -0.161 A  
BRANCH  10  12
HETATM   12  O   UNL     1      -7.793   7.703  66.480  1.00  0.00    -0.100 OA 
BRANCH  12  13
HETATM   13  C   UNL     1      -7.655   9.075  66.550  1.00  0.00    -0.089 A  
HETATM   14  C   UNL     1      -6.642   9.686  67.279  1.00  0.00    -0.070 A  
HETATM   15  C   UNL     1      -6.640  11.067  67.441  1.00  0.00    -0.069 A  
HETATM   16  C   UNL     1      -7.566  11.887  66.785  1.00  0.00    -0.034 A  
HETATM   17  C   UNL     1      -8.529  11.274  65.977  1.00  0.00    -0.102 A  
HETATM   18  C   UNL     1      -8.571   9.872  65.859  1.00  0.00    -0.149 A  
BRANCH  16  19
HETATM   19  N   UNL     1      -7.554  13.301  66.922  1.00  0.00    -0.326 N  
HETATM   20  H   UNL     1      -7.262  13.865  66.124  1.00  0.00     0.000 HD 
BRANCH  19  21
HETATM   21  C   UNL     1      -7.922  13.950  68.094  1.00  0.00    -0.148 C  
HETATM   22  O   UNL     1      -9.039  13.852  68.587  1.00  0.00    -0.172 OA 
BRANCH  21  23
HETATM   23  N   UNL     1      -6.921  14.727  68.649  1.00  0.00    -0.104 N  
HETATM   24  H   UNL     1      -6.120  14.257  69.070  1.00  0.00     0.000 HD 
BRANCH  23  25
HETATM   25  C   UNL     1      -6.954  16.156  68.660  1.00  0.00    -0.141 A  
HETATM   26  C   UNL     1      -7.804  16.903  67.837  1.00  0.00    -0.180 A  
HETATM   27  C   UNL     1      -7.761  18.307  67.771  1.00  0.00    -0.239 A  
HETATM   28  C   UNL     1      -8.643  19.026  66.786  1.00  0.00    -0.304 C  
HETATM   29  C   UNL     1      -6.878  18.974  68.615  1.00  0.00    -0.281 A  
HETATM   30  F   UNL     1      -7.941  19.784  65.896  1.00  0.00    -0.322 F  
HETATM   31  F   UNL     1      -9.535  19.864  67.384  1.00  0.00    -0.378 F  
HETATM   32  F   UNL     1      -9.401  18.190  66.019  1.00  0.00    -0.274 F  
HETATM   33 CL   UNL     1      -6.760  20.694  68.636  1.00  0.00    -0.206 Cl 
HETATM   34  C   UNL     1      -6.056  18.247  69.488  1.00  0.00    -0.255 A  
HETATM   35  C   UNL     1      -6.087  16.846  69.510  1.00  0.00    -0.224 A  
ENDBRANCH  23  25
ENDBRANCH  21  23
ENDBRANCH  19  21
ENDBRANCH  16  19
ENDBRANCH  12  13
ENDBRANCH  10  12
ENDBRANCH   3   6
TORSDOF 7
ENDMDL
MODEL      308
REMARK 921   NORMALIZED FREE ENERGY PREDICTED BY IDOCK:   -3.50 KCAL/MOL
REMARK 922        TOTAL FREE ENERGY PREDICTED BY IDOCK:   -6.78 KCAL/MOL
REMARK 923 INTER-LIGAND FREE ENERGY PREDICTED BY IDOCK:   -6.47 KCAL/MOL
REMARK 924 INTRA-LIGAND FREE ENERGY PREDICTED BY IDOCK:   -0.30 KCAL/MOL
REMARK 927      BINDING AFFINITY PREDICTED BY RF-SCORE:    0.00 PKD
ROOT
HETATM    1  C   UNL     1      -6.444  20.889  64.645  1.00  0.00    -0.205 C  
HETATM    2  N   UNL     1      -6.627  19.604  65.262  1.00  0.00    -0.275 N  
HETATM    3  C   UNL     1      -7.822  19.254  65.852  1.00  0.00    -0.176 C  
HETATM    4  H   UNL     1      -5.856  18.937  65.263  1.00  0.00     0.000 HD 
HETATM    5  O   UNL     1      -8.794  20.000  65.908  1.00  0.00    -0.310 OA 
ENDROOT
BRANCH   3   6
HETATM    6  C   UNL     1      -7.873  17.864  66.413  1.00  0.00    -0.272 A  
HETATM    7  N   UNL     1      -6.702  17.331  66.863  1.00  0.00    -0.174 NA 
HETATM    8  C   UNL     1      -6.761  16.053  67.301  1.00  0.00    -0.197 A  
HETATM    9  C   UNL     1      -7.909  15.272  67.275  1.00  0.00    -0.240 A  
HETATM   10  C   UNL     1      -9.080  15.841  66.787  1.00  0.00    -0.249 A  
HETATM   11  C   UNL     1      -9.077  17.181  66.400  1.00  0.00    -0.285 A  
BRANCH  10  12
HETATM   12  O   UNL     1     -10.200  15.031  66.726  1.00  0.00    -0.252 OA 
BRANCH  12  13
HETATM   13  C   UNL     1     -10.008  13.663  66.701  1.00  0.00    -0.283 A  
HETATM   14  C   UNL     1      -9.432  12.972  67.761  1.00  0.00    -0.209 A  
HETATM   15  C   UNL     1      -9.124  11.623  67.622  1.00  0.00    -0.174 A  
HETATM   16  C   UNL     1      -9.487  10.898  66.482  1.00  0.00    -0.185 A  
HETATM   17  C   UNL     1     -10.149  11.577  65.455  1.00  0.00    -0.286 A  
HETATM   18  C   UNL     1     -10.410  12.956  65.567  1.00  0.00    -0.304 A  
BRANCH  16  19
HETATM   19  N   UNL     1      -9.200   9.513  66.345  1.00  0.00    -0.157 N  
HETATM   20  H   UNL     1      -9.979   8.854  66.325  1.00  0.00     0.000 HD 
BRANCH  19  21
HETATM   21  C   UNL     1      -7.907   9.015  66.235  1.00  0.00    -0.099 C  
HETATM   22  O   UNL     1      -7.024   9.591  65.613  1.00  0.00    -0.087 OA 
BRANCH  21  23
HETATM   23  N   UNL     1      -7.709   7.808  66.879  1.00  0.00    -0.101 N  
HETATM   24  H   UNL     1      -6.915   7.233  66.598  1.00  0.00     0.000 HD 
BRANCH  23  25
HETATM   25  C   UNL     1      -8.563   7.325  67.919  1.00  0.00    -0.120 A  
HETATM   26  C   UNL     1      -8.686   7.964  69.159  1.00  0.00    -0.138 A  
HETATM   27  C   UNL     1      -9.442   7.432  70.218  1.00  0.00    -0.165 A  
HETATM   28  C   UNL     1      -9.441   8.133  71.549  1.00  0.00    -0.171 C  
HETATM   29  C   UNL     1     -10.149   6.255  69.989  1.00  0.00    -0.175 A  
HETATM   30  F   UNL     1      -8.988   7.347  72.566  1.00  0.00    -0.138 F  
HETATM   31  F   UNL     1     -10.677   8.567  71.923  1.00  0.00    -0.294 F  
HETATM   32  F   UNL     1      -8.650   9.245  71.581  1.00  0.00    -0.196 F  
HETATM   33 CL   UNL     1     -11.127   5.527  71.210  1.00  0.00    -0.203 Cl 
HETATM   34  C   UNL     1     -10.083   5.627  68.737  1.00  0.00    -0.245 A  
HETATM   35  C   UNL     1      -9.292   6.154  67.707  1.00  0.00    -0.109 A  
ENDBRANCH  23  25
ENDBRANCH  21  23
ENDBRANCH  19  21
ENDBRANCH  16  19
ENDBRANCH  12  13
ENDBRANCH  10  12
ENDBRANCH   3   6
TORSDOF 7
ENDMDL
MODEL      309
REMARK 921   NORMALIZED FREE ENERGY PREDICTED BY IDOCK:   -3.48 KCAL/MOL
REMARK 922        TOTAL FREE ENERGY PREDICTED BY IDOCK:   -6.76 KCAL/MOL
REMARK 923 INTER-LIGAND FREE ENERGY PREDICTED BY IDOCK:   -6.32 KCAL/MOL
REMARK 924 INTRA-LIGAND FREE ENERGY PREDICTED BY IDOCK:   -0.44 KCAL/MOL
REMARK 927      BINDING AFFINITY PREDICTED BY RF-SCORE:    0.00 PKD
ROOT
HETATM    1  C   UNL     1     -10.377   8.668  72.204  1.00  0.00    -0.333 C  
HETATM    2  N   UNL     1     -10.093   7.332  71.760  1.00  0.00    -0.179 N  
HETATM    3  C   UNL     1     -10.431   6.234  72.520  1.00  0.00    -0.203 C  
HETATM    4  H   UNL     1      -9.631   7.193  70.861  1.00  0.00     0.000 HD 
HETATM    5  O   UNL     1     -10.975   6.311  73.617  1.00  0.00    -0.184 OA 
ENDROOT
BRANCH   3   6
HETATM    6  C   UNL     1     -10.110   4.906  71.901  1.00  0.00    -0.199 A  
HETATM    7  N   UNL     1      -9.935   3.851  72.746  1.00  0.00    -0.145 NA 
HETATM    8  C   UNL     1      -9.580   2.680  72.169  1.00  0.00    -0.125 A  
HETATM    9  C   UNL     1      -9.351   2.520  70.808  1.00  0.00    -0.213 A  
HETATM   10  C   UNL     1      -9.516   3.624  69.980  1.00  0.00    -0.190 A  
HETATM   11  C   UNL     1      -9.958   4.828  70.527  1.00  0.00    -0.306 A  
BRANCH  10  12
HETATM   12  O   UNL     1      -9.236   3.453  68.636  1.00  0.00    -0.140 OA 
BRANCH  12  13
HETATM   13  C   UNL     1      -9.228   4.574  67.829  1.00  0.00    -0.131 A  
HETATM   14  C   UNL     1     -10.360   5.014  67.152  1.00  0.00    -0.217 A  
HETATM   15  C   UNL     1     -10.258   6.054  66.236  1.00  0.00    -0.049 A  
HETATM   16  C   UNL     1      -9.066   6.765  66.056  1.00  0.00    -0.072 A  
HETATM   17  C   UNL     1      -7.952   6.378  66.807  1.00  0.00    -0.109 A  
HETATM   18  C   UNL     1      -8.035   5.286  67.692  1.00  0.00    -0.100 A  
BRANCH  16  19
HETATM   19  N   UNL     1      -8.962   7.847  65.142  1.00  0.00    -0.376 N  
HETATM   20  H   UNL     1      -8.593   7.663  64.209  1.00  0.00     0.000 HD 
BRANCH  19  21
HETATM   21  C   UNL     1      -9.339   9.146  65.461  1.00  0.00    -0.221 C  
HETATM   22  O   UNL     1      -9.539   9.517  66.611  1.00  0.00    -0.164 OA 
BRANCH  21  23
HETATM   23  N   UNL     1      -9.482   9.979  64.367  1.00  0.00    -0.297 N  
HETATM   24  H   UNL     1      -9.380   9.577  63.435  1.00  0.00     0.000 HD 
BRANCH  23  25
HETATM   25  C   UNL     1      -9.763  11.377  64.477  1.00  0.00    -0.233 A  
HETATM   26  C   UNL     1      -9.211  12.186  65.476  1.00  0.00     0.099 A  
HETATM   27  C   UNL     1      -9.571  13.535  65.649  1.00  0.00    -0.016 A  
HETATM   28  C   UNL     1      -9.004  14.306  66.810  1.00  0.00    -0.227 C  
HETATM   29  C   UNL     1     -10.464  14.094  64.740  1.00  0.00    -0.408 A  
HETATM   30  F   UNL     1      -9.963  14.798  67.644  1.00  0.00    -0.221 F  
HETATM   31  F   UNL     1      -8.249  15.372  66.422  1.00  0.00    -0.281 F  
HETATM   32  F   UNL     1      -8.184  13.564  67.611  1.00  0.00    -0.131 F  
HETATM   33 CL   UNL     1     -10.955  15.744  64.842  1.00  0.00    -0.463 Cl 
HETATM   34  C   UNL     1     -10.987  13.315  63.698  1.00  0.00     0.024 A  
HETATM   35  C   UNL     1     -10.645  11.962  63.566  1.00  0.00    -0.507 A  
ENDBRANCH  23  25
ENDBRANCH  21  23
ENDBRANCH  19  21
ENDBRANCH  16  19
ENDBRANCH  12  13
ENDBRANCH  10  12
ENDBRANCH   3   6
TORSDOF 7
ENDMDL
MODEL      310
REMARK 921   NORMALIZED FREE ENERGY PREDICTED BY IDOCK:   -3.48 KCAL/MOL
REMARK 922        TOTAL FREE ENERGY PREDICTED BY IDOCK:   -6.75 KCAL/MOL
REMARK 923 INTER-LIGAND FREE ENERGY PREDICTED BY IDOCK:   -6.45 KCAL/MOL
REMARK 924 INTRA-LIGAND FREE ENERGY PREDICTED BY IDOCK:   -0.30 KCAL/MOL
REMARK 927      BINDING AFFINITY PREDICTED BY RF-SCORE:    0.00 PKD
ROOT
HETATM    1  C   UNL     1      -7.354   1.851  65.557  1.00  0.00    -0.057 C  
HETATM    2  N   UNL     1      -7.230   2.694  66.713  1.00  0.00    -0.053 N  
HETATM    3  C   UNL     1      -6.317   3.725  66.757  1.00  0.00    -0.040 C  
HETATM    4  H   UNL     1      -7.831   2.526  67.520  1.00  0.00     0.000 HD 
HETATM    5  O   UNL     1      -5.547   3.987  65.839  1.00  0.00    -0.016 OA 
ENDROOT
BRANCH   3   6
HETATM    6  C   UNL     1      -6.338   4.542  68.014  1.00  0.00    -0.037 A  
HETATM    7  N   UNL     1      -5.271   5.358  68.244  1.00  0.00    -0.003 NA 
HETATM    8  C   UNL     1      -5.282   6.034  69.416  1.00  0.00    -0.004 A  
HETATM    9  C   UNL     1      -6.273   5.906  70.380  1.00  0.00    -0.031 A  
HETATM   10  C   UNL     1      -7.334   5.046  70.122  1.00  0.00    -0.059 A  
HETATM   11  C   UNL     1      -7.399   4.392  68.892  1.00  0.00    -0.056 A  
BRANCH  10  12
HETATM   12  O   UNL     1      -8.285   4.897  71.116  1.00  0.00    -0.103 OA 
BRANCH  12  13
HETATM   13  C   UNL     1      -9.437   5.653  71.027  1.00  0.00    -0.166 A  
HETATM   14  C   UNL     1     -10.229   5.674  69.885  1.00  0.00    -0.320 A  
HETATM   15  C   UNL     1     -11.291   6.567  69.794  1.00  0.00    -0.456 A  
HETATM   16  C   UNL     1     -11.672   7.371  70.874  1.00  0.00    -0.296 A  
HETATM   17  C   UNL     1     -10.929   7.280  72.055  1.00  0.00    -0.271 A  
HETATM   18  C   UNL     1      -9.816   6.421  72.131  1.00  0.00    -0.170 A  
BRANCH  16  19
HETATM   19  N   UNL     1     -12.773   8.266  70.799  1.00  0.00    -0.454 N  
HETATM   20  H   UNL     1     -13.713   7.876  70.734  1.00  0.00     0.000 HD 
BRANCH  19  21
HETATM   21  C   UNL     1     -12.627   9.648  70.811  1.00  0.00    -0.143 C  
HETATM   22  O   UNL     1     -13.413  10.395  71.380  1.00  0.00    -0.300 OA 
BRANCH  21  23
HETATM   23  N   UNL     1     -11.524  10.107  70.114  1.00  0.00    -0.279 N  
HETATM   24  H   UNL     1     -10.718   9.488  70.020  1.00  0.00     0.000 HD 
BRANCH  23  25
HETATM   25  C   UNL     1     -11.458  11.405  69.519  1.00  0.00    -0.312 A  
HETATM   26  C   UNL     1     -10.984  11.621  68.220  1.00  0.00    -0.273 A  
HETATM   27  C   UNL     1     -10.818  12.907  67.674  1.00  0.00    -0.252 A  
HETATM   28  C   UNL     1     -10.209  13.053  66.306  1.00  0.00    -0.288 C  
HETATM   29  C   UNL     1     -11.209  13.998  68.443  1.00  0.00    -0.266 A  
HETATM   30  F   UNL     1      -9.071  13.803  66.305  1.00  0.00    -0.236 F  
HETATM   31  F   UNL     1     -11.053  13.636  65.408  1.00  0.00    -0.292 F  
HETATM   32  F   UNL     1      -9.851  11.865  65.737  1.00  0.00    -0.227 F  
HETATM   33 CL   UNL     1     -11.074  15.617  67.863  1.00  0.00    -0.322 Cl 
HETATM   34  C   UNL     1     -11.738  13.801  69.727  1.00  0.00    -0.367 A  
HETATM   35  C   UNL     1     -11.859  12.513  70.267  1.00  0.00    -0.305 A  
ENDBRANCH  23  25
ENDBRANCH  21  23
ENDBRANCH  19  21
ENDBRANCH  16  19
ENDBRANCH  12  13
ENDBRANCH  10  12
ENDBRANCH   3   6
TORSDOF 7
ENDMDL
MODEL      311
REMARK 921   NORMALIZED FREE ENERGY PREDICTED BY IDOCK:   -3.48 KCAL/MOL
REMARK 922        TOTAL FREE ENERGY PREDICTED BY IDOCK:   -6.75 KCAL/MOL
REMARK 923 INTER-LIGAND FREE ENERGY PREDICTED BY IDOCK:   -6.01 KCAL/MOL
REMARK 924 INTRA-LIGAND FREE ENERGY PREDICTED BY IDOCK:   -0.74 KCAL/MOL
REMARK 927      BINDING AFFINITY PREDICTED BY RF-SCORE:    0.00 PKD
ROOT
HETATM    1  C   UNL     1     -11.048   4.566  65.674  1.00  0.00     0.382 C  
HETATM    2  N   UNL     1     -10.698   5.317  66.847  1.00  0.00    -0.359 N  
HETATM    3  C   UNL     1      -9.686   4.907  67.688  1.00  0.00    -0.159 C  
HETATM    4  H   UNL     1     -11.210   6.171  67.063  1.00  0.00     0.000 HD 
HETATM    5  O   UNL     1      -9.030   3.886  67.510  1.00  0.00    -0.115 OA 
ENDROOT
BRANCH   3   6
HETATM    6  C   UNL     1      -9.410   5.819  68.845  1.00  0.00    -0.123 A  
HETATM    7  N   UNL     1      -9.779   5.384  70.083  1.00  0.00    -0.175 NA 
HETATM    8  C   UNL     1      -9.582   6.252  71.101  1.00  0.00    -0.175 A  
HETATM    9  C   UNL     1      -9.079   7.537  70.943  1.00  0.00    -0.153 A  
HETATM   10  C   UNL     1      -8.735   7.956  69.663  1.00  0.00    -0.134 A  
HETATM   11  C   UNL     1      -8.850   7.062  68.599  1.00  0.00    -0.128 A  
BRANCH  10  12
HETATM   12  O   UNL     1      -8.281   9.255  69.523  1.00  0.00    -0.106 OA 
BRANCH  12  13
HETATM   13  C   UNL     1      -8.972  10.094  68.671  1.00  0.00    -0.136 A  
HETATM   14  C   UNL     1     -10.169  10.701  69.030  1.00  0.00    -0.231 A  
HETATM   15  C   UNL     1     -10.898  11.411  68.083  1.00  0.00    -0.259 A  
HETATM   16  C   UNL     1     -10.404  11.642  66.794  1.00  0.00    -0.222 A  
HETATM   17  C   UNL     1      -9.155  11.107  66.465  1.00  0.00    -0.193 A  
HETATM   18  C   UNL     1      -8.441  10.337  67.402  1.00  0.00    -0.125 A  
BRANCH  16  19
HETATM   19  N   UNL     1     -11.130  12.391  65.829  1.00  0.00    -0.303 N  
HETATM   20  H   UNL     1     -12.131  12.218  65.731  1.00  0.00     0.000 HD 
BRANCH  19  21
HETATM   21  C   UNL     1     -10.538  13.347  65.012  1.00  0.00    -0.358 C  
HETATM   22  O   UNL     1     -10.892  13.545  63.857  1.00  0.00    -0.209 OA 
BRANCH  21  23
HETATM   23  N   UNL     1      -9.508  14.046  65.613  1.00  0.00    -0.524 N  
HETATM   24  H   UNL     1      -8.595  13.596  65.688  1.00  0.00     0.000 HD 
BRANCH  23  25
HETATM   25  C   UNL     1      -9.659  15.368  66.136  1.00  0.00    -0.329 A  
HETATM   26  C   UNL     1      -8.600  16.085  66.707  1.00  0.00    -0.292 A  
HETATM   27  C   UNL     1      -8.771  17.340  67.317  1.00  0.00    -0.221 A  
HETATM   28  C   UNL     1      -7.599  17.997  67.992  1.00  0.00    -0.244 C  
HETATM   29  C   UNL     1     -10.039  17.914  67.285  1.00  0.00    -0.343 A  
HETATM   30  F   UNL     1      -7.814  18.243  69.316  1.00  0.00    -0.208 F  
HETATM   31  F   UNL     1      -7.261  19.191  67.430  1.00  0.00    -0.212 F  
HETATM   32  F   UNL     1      -6.456  17.251  67.952  1.00  0.00    -0.141 F  
HETATM   33 CL   UNL     1     -10.357  19.460  67.980  1.00  0.00    -0.520 Cl 
HETATM   34  C   UNL     1     -11.102  17.237  66.670  1.00  0.00     0.391 A  
HETATM   35  C   UNL     1     -10.918  15.969  66.102  1.00  0.00    -0.083 A  
ENDBRANCH  23  25
ENDBRANCH  21  23
ENDBRANCH  19  21
ENDBRANCH  16  19
ENDBRANCH  12  13
ENDBRANCH  10  12
ENDBRANCH   3   6
TORSDOF 7
ENDMDL
MODEL      312
REMARK 921   NORMALIZED FREE ENERGY PREDICTED BY IDOCK:   -3.47 KCAL/MOL
REMARK 922        TOTAL FREE ENERGY PREDICTED BY IDOCK:   -6.74 KCAL/MOL
REMARK 923 INTER-LIGAND FREE ENERGY PREDICTED BY IDOCK:   -7.08 KCAL/MOL
REMARK 924 INTRA-LIGAND FREE ENERGY PREDICTED BY IDOCK:    0.34 KCAL/MOL
REMARK 927      BINDING AFFINITY PREDICTED BY RF-SCORE:    0.00 PKD
ROOT
HETATM    1  C   UNL     1     -12.208   9.199  72.400  1.00  0.00    -0.193 C  
HETATM    2  N   UNL     1     -11.614   8.840  71.143  1.00  0.00    -0.279 N  
HETATM    3  C   UNL     1     -10.259   8.622  71.024  1.00  0.00    -0.220 C  
HETATM    4  H   UNL     1     -12.208   8.743  70.320  1.00  0.00     0.000 HD 
HETATM    5  O   UNL     1      -9.471   8.730  71.958  1.00  0.00    -0.281 OA 
ENDROOT
BRANCH   3   6
HETATM    6  C   UNL     1      -9.796   8.211  69.658  1.00  0.00    -0.184 A  
HETATM    7  N   UNL     1      -9.389   6.921  69.500  1.00  0.00    -0.148 NA 
HETATM    8  C   UNL     1      -8.913   6.593  68.277  1.00  0.00    -0.122 A  
HETATM    9  C   UNL     1      -8.786   7.490  67.224  1.00  0.00    -0.121 A  
HETATM   10  C   UNL     1      -9.189   8.805  67.429  1.00  0.00    -0.136 A  
HETATM   11  C   UNL     1      -9.757   9.162  68.651  1.00  0.00    -0.164 A  
BRANCH  10  12
HETATM   12  O   UNL     1      -9.008   9.692  66.383  1.00  0.00    -0.146 OA 
BRANCH  12  13
HETATM   13  C   UNL     1      -9.715  10.878  66.410  1.00  0.00    -0.201 A  
HETATM   14  C   UNL     1     -11.031  10.971  65.974  1.00  0.00    -0.136 A  
HETATM   15  C   UNL     1     -11.644  12.216  65.880  1.00  0.00    -0.425 A  
HETATM   16  C   UNL     1     -11.015  13.382  66.331  1.00  0.00    -0.289 A  
HETATM   17  C   UNL     1      -9.723  13.272  66.855  1.00  0.00    -0.248 A  
HETATM   18  C   UNL     1      -9.077  12.021  66.896  1.00  0.00    -0.196 A  
BRANCH  16  19
HETATM   19  N   UNL     1     -11.644  14.654  66.264  1.00  0.00    -0.363 N  
HETATM   20  H   UNL     1     -12.605  14.740  66.596  1.00  0.00     0.000 HD 
BRANCH  19  21
HETATM   21  C   UNL     1     -11.010  15.787  65.769  1.00  0.00    -0.214 C  
HETATM   22  O   UNL     1     -10.832  15.981  64.573  1.00  0.00    -0.588 OA 
BRANCH  21  23
HETATM   23  N   UNL     1     -10.587  16.671  66.745  1.00  0.00    -0.262 N  
HETATM   24  H   UNL     1     -10.063  17.498  66.456  1.00  0.00     0.000 HD 
BRANCH  23  25
HETATM   25  C   UNL     1     -10.846  16.484  68.138  1.00  0.00    -0.345 A  
HETATM   26  C   UNL     1     -11.556  15.385  68.637  1.00  0.00    -0.373 A  
HETATM   27  C   UNL     1     -11.903  15.255  69.993  1.00  0.00    -0.365 A  
HETATM   28  C   UNL     1     -12.752  14.092  70.429  1.00  0.00    -0.253 C  
HETATM   29  C   UNL     1     -11.458  16.233  70.878  1.00  0.00    -0.301 A  
HETATM   30  F   UNL     1     -13.921  14.474  71.016  1.00  0.00    -0.409 F  
HETATM   31  F   UNL     1     -12.123  13.279  71.322  1.00  0.00    -0.382 F  
HETATM   32  F   UNL     1     -13.123  13.272  69.402  1.00  0.00     0.387 F  
HETATM   33 CL   UNL     1     -11.804  16.160  72.566  1.00  0.00    -0.624 Cl 
HETATM   34  C   UNL     1     -10.699  17.314  70.408  1.00  0.00     0.821 A  
HETATM   35  C   UNL     1     -10.396  17.444  69.045  1.00  0.00    -0.319 A  
ENDBRANCH  23  25
ENDBRANCH  21  23
ENDBRANCH  19  21
ENDBRANCH  16  19
ENDBRANCH  12  13
ENDBRANCH  10  12
ENDBRANCH   3   6
TORSDOF 7
ENDMDL
MODEL      313
REMARK 921   NORMALIZED FREE ENERGY PREDICTED BY IDOCK:   -3.47 KCAL/MOL
REMARK 922        TOTAL FREE ENERGY PREDICTED BY IDOCK:   -6.74 KCAL/MOL
REMARK 923 INTER-LIGAND FREE ENERGY PREDICTED BY IDOCK:   -6.57 KCAL/MOL
REMARK 924 INTRA-LIGAND FREE ENERGY PREDICTED BY IDOCK:   -0.16 KCAL/MOL
REMARK 927      BINDING AFFINITY PREDICTED BY RF-SCORE:    0.00 PKD
ROOT
HETATM    1  C   UNL     1     -10.336   5.345  67.829  1.00  0.00    -0.166 C  
HETATM    2  N   UNL     1      -9.543   6.247  67.040  1.00  0.00    -0.135 N  
HETATM    3  C   UNL     1      -9.115   5.908  65.775  1.00  0.00    -0.087 C  
HETATM    4  H   UNL     1      -9.293   7.158  67.424  1.00  0.00     0.000 HD 
HETATM    5  O   UNL     1      -9.358   4.830  65.243  1.00  0.00    -0.154 OA 
ENDROOT
BRANCH   3   6
HETATM    6  C   UNL     1      -8.335   6.971  65.060  1.00  0.00    -0.046 A  
HETATM    7  N   UNL     1      -7.343   6.559  64.221  1.00  0.00    -0.066 NA 
HETATM    8  C   UNL     1      -6.611   7.536  63.641  1.00  0.00    -0.053 A  
HETATM    9  C   UNL     1      -6.789   8.892  63.885  1.00  0.00    -0.087 A  
HETATM   10  C   UNL     1      -7.794   9.275  64.765  1.00  0.00    -0.118 A  
HETATM   11  C   UNL     1      -8.621   8.301  65.322  1.00  0.00    -0.159 A  
BRANCH  10  12
HETATM   12  O   UNL     1      -7.921  10.627  65.030  1.00  0.00    -0.119 OA 
BRANCH  12  13
HETATM   13  C   UNL     1      -8.603  11.002  66.171  1.00  0.00    -0.175 A  
HETATM   14  C   UNL     1      -8.158  12.021  67.005  1.00  0.00    -0.158 A  
HETATM   15  C   UNL     1      -8.797  12.253  68.217  1.00  0.00    -0.178 A  
HETATM   16  C   UNL     1      -9.964  11.569  68.578  1.00  0.00    -0.204 A  
HETATM   17  C   UNL     1     -10.462  10.608  67.693  1.00  0.00    -0.267 A  
HETATM   18  C   UNL     1      -9.783  10.328  66.492  1.00  0.00    -0.243 A  
BRANCH  16  19
HETATM   19  N   UNL     1     -10.639  11.821  69.802  1.00  0.00    -0.262 N  
HETATM   20  H   UNL     1     -10.082  11.996  70.639  1.00  0.00     0.000 HD 
BRANCH  19  21
HETATM   21  C   UNL     1     -12.025  11.838  69.912  1.00  0.00    -0.332 C  
HETATM   22  O   UNL     1     -12.660  10.944  70.456  1.00  0.00    -0.329 OA 
BRANCH  21  23
HETATM   23  N   UNL     1     -12.623  12.948  69.343  1.00  0.00     0.285 N  
HETATM   24  H   UNL     1     -13.609  12.889  69.088  1.00  0.00     0.000 HD 
BRANCH  23  25
HETATM   25  C   UNL     1     -11.929  14.172  69.094  1.00  0.00    -0.349 A  
HETATM   26  C   UNL     1     -11.355  14.482  67.855  1.00  0.00    -0.329 A  
HETATM   27  C   UNL     1     -10.581  15.636  67.642  1.00  0.00    -0.294 A  
HETATM   28  C   UNL     1      -9.919  15.843  66.307  1.00  0.00    -0.298 C  
HETATM   29  C   UNL     1     -10.444  16.534  68.696  1.00  0.00    -0.304 A  
HETATM   30  F   UNL     1      -8.563  15.948  66.393  1.00  0.00    -0.261 F  
HETATM   31  F   UNL     1     -10.351  16.966  65.667  1.00  0.00    -0.334 F  
HETATM   32  F   UNL     1     -10.140  14.825  65.424  1.00  0.00    -0.322 F  
HETATM   33 CL   UNL     1      -9.537  17.993  68.537  1.00  0.00    -0.326 Cl 
HETATM   34  C   UNL     1     -11.055  16.270  69.930  1.00  0.00    -0.347 A  
HETATM   35  C   UNL     1     -11.791  15.094  70.133  1.00  0.00    -0.351 A  
ENDBRANCH  23  25
ENDBRANCH  21  23
ENDBRANCH  19  21
ENDBRANCH  16  19
ENDBRANCH  12  13
ENDBRANCH  10  12
ENDBRANCH   3   6
TORSDOF 7
ENDMDL
MODEL      314
REMARK 921   NORMALIZED FREE ENERGY PREDICTED BY IDOCK:   -3.47 KCAL/MOL
REMARK 922        TOTAL FREE ENERGY PREDICTED BY IDOCK:   -6.73 KCAL/MOL
REMARK 923 INTER-LIGAND FREE ENERGY PREDICTED BY IDOCK:   -5.78 KCAL/MOL
REMARK 924 INTRA-LIGAND FREE ENERGY PREDICTED BY IDOCK:   -0.95 KCAL/MOL
REMARK 927      BINDING AFFINITY PREDICTED BY RF-SCORE:    0.00 PKD
ROOT
HETATM    1  C   UNL     1      -8.407   8.101  71.684  1.00  0.00    -0.131 C  
HETATM    2  N   UNL     1      -7.870   7.586  70.455  1.00  0.00    -0.095 N  
HETATM    3  C   UNL     1      -7.708   6.233  70.253  1.00  0.00    -0.098 C  
HETATM    4  H   UNL     1      -7.604   8.236  69.716  1.00  0.00     0.000 HD 
HETATM    5  O   UNL     1      -7.988   5.384  71.093  1.00  0.00    -0.104 OA 
ENDROOT
BRANCH   3   6
HETATM    6  C   UNL     1      -7.178   5.849  68.903  1.00  0.00    -0.082 A  
HETATM    7  N   UNL     1      -6.584   4.628  68.791  1.00  0.00    -0.044 NA 
HETATM    8  C   UNL     1      -6.054   4.333  67.582  1.00  0.00    -0.031 A  
HETATM    9  C   UNL     1      -6.050   5.204  66.501  1.00  0.00    -0.030 A  
HETATM   10  C   UNL     1      -6.643   6.452  66.658  1.00  0.00    -0.048 A  
HETATM   11  C   UNL     1      -7.269   6.761  67.865  1.00  0.00    -0.091 A  
BRANCH  10  12
HETATM   12  O   UNL     1      -6.584   7.320  65.583  1.00  0.00    -0.046 OA 
BRANCH  12  13
HETATM   13  C   UNL     1      -7.421   8.419  65.593  1.00  0.00    -0.081 A  
HETATM   14  C   UNL     1      -8.738   8.358  65.155  1.00  0.00    -0.118 A  
HETATM   15  C   UNL     1      -9.486   9.525  65.043  1.00  0.00    -0.273 A  
HETATM   16  C   UNL     1      -8.994  10.761  65.477  1.00  0.00    -0.193 A  
HETATM   17  C   UNL     1      -7.699  10.803  66.004  1.00  0.00    -0.139 A  
HETATM   18  C   UNL     1      -6.916   9.634  66.063  1.00  0.00    -0.093 A  
BRANCH  16  19
HETATM   19  N   UNL     1      -9.762  11.953  65.392  1.00  0.00    -0.304 N  
HETATM   20  H   UNL     1      -9.621  12.567  64.589  1.00  0.00     0.000 HD 
BRANCH  19  21
HETATM   21  C   UNL     1     -10.697  12.320  66.352  1.00  0.00    -0.251 C  
HETATM   22  O   UNL     1     -11.879  12.011  66.282  1.00  0.00    -0.563 OA 
BRANCH  21  23
HETATM   23  N   UNL     1     -10.177  13.077  67.387  1.00  0.00    -0.229 N  
HETATM   24  H   UNL     1      -9.172  13.251  67.403  1.00  0.00     0.000 HD 
BRANCH  23  25
HETATM   25  C   UNL     1     -10.979  13.626  68.435  1.00  0.00    -0.262 A  
HETATM   26  C   UNL     1     -11.418  12.872  69.530  1.00  0.00    -0.292 A  
HETATM   27  C   UNL     1     -12.294  13.383  70.504  1.00  0.00    -0.401 A  
HETATM   28  C   UNL     1     -12.795  12.475  71.594  1.00  0.00    -0.263 C  
HETATM   29  C   UNL     1     -12.679  14.717  70.402  1.00  0.00    -0.316 A  
HETATM   30  F   UNL     1     -14.154  12.364  71.614  1.00  0.00     0.096 F  
HETATM   31  F   UNL     1     -12.425  12.884  72.839  1.00  0.00     0.252 F  
HETATM   32  F   UNL     1     -12.337  11.193  71.491  1.00  0.00    -0.411 F  
HETATM   33 CL   UNL     1     -13.729  15.453  71.554  1.00  0.00    -0.581 Cl 
HETATM   34  C   UNL     1     -12.206  15.505  69.343  1.00  0.00    -0.233 A  
HETATM   35  C   UNL     1     -11.365  14.965  68.361  1.00  0.00    -0.320 A  
ENDBRANCH  23  25
ENDBRANCH  21  23
ENDBRANCH  19  21
ENDBRANCH  16  19
ENDBRANCH  12  13
ENDBRANCH  10  12
ENDBRANCH   3   6
TORSDOF 7
ENDMDL
MODEL      315
REMARK 921   NORMALIZED FREE ENERGY PREDICTED BY IDOCK:   -3.44 KCAL/MOL
REMARK 922        TOTAL FREE ENERGY PREDICTED BY IDOCK:   -6.70 KCAL/MOL
REMARK 923 INTER-LIGAND FREE ENERGY PREDICTED BY IDOCK:   -6.26 KCAL/MOL
REMARK 924 INTRA-LIGAND FREE ENERGY PREDICTED BY IDOCK:   -0.44 KCAL/MOL
REMARK 927      BINDING AFFINITY PREDICTED BY RF-SCORE:    0.00 PKD
ROOT
HETATM    1  C   UNL     1      -6.961  20.198  64.981  1.00  0.00    -0.159 C  
HETATM    2  N   UNL     1      -6.542  19.661  66.246  1.00  0.00    -0.192 N  
HETATM    3  C   UNL     1      -6.889  20.267  67.435  1.00  0.00    -0.255 C  
HETATM    4  H   UNL     1      -5.976  18.813  66.265  1.00  0.00     0.000 HD 
HETATM    5  O   UNL     1      -7.553  21.295  67.502  1.00  0.00    -0.373 OA 
ENDROOT
BRANCH   3   6
HETATM    6  C   UNL     1      -6.414  19.563  68.671  1.00  0.00    -0.268 A  
HETATM    7  N   UNL     1      -5.651  20.280  69.542  1.00  0.00    -0.276 NA 
HETATM    8  C   UNL     1      -5.179  19.605  70.614  1.00  0.00    -0.228 A  
HETATM    9  C   UNL     1      -5.393  18.251  70.839  1.00  0.00    -0.244 A  
HETATM   10  C   UNL     1      -6.157  17.545  69.916  1.00  0.00    -0.181 A  
HETATM   11  C   UNL     1      -6.726  18.224  68.840  1.00  0.00    -0.259 A  
BRANCH  10  12
HETATM   12  O   UNL     1      -6.317  16.188  70.134  1.00  0.00    -0.136 OA 
BRANCH  12  13
HETATM   13  C   UNL     1      -7.137  15.487  69.273  1.00  0.00    -0.186 A  
HETATM   14  C   UNL     1      -8.522  15.497  69.386  1.00  0.00    -0.256 A  
HETATM   15  C   UNL     1      -9.289  14.654  68.590  1.00  0.00    -0.206 A  
HETATM   16  C   UNL     1      -8.718  13.873  67.580  1.00  0.00    -0.187 A  
HETATM   17  C   UNL     1      -7.332  13.934  67.407  1.00  0.00    -0.129 A  
HETATM   18  C   UNL     1      -6.545  14.741  68.251  1.00  0.00    -0.118 A  
BRANCH  16  19
HETATM   19  N   UNL     1      -9.498  13.030  66.744  1.00  0.00    -0.245 N  
HETATM   20  H   UNL     1      -9.719  13.349  65.800  1.00  0.00     0.000 HD 
BRANCH  19  21
HETATM   21  C   UNL     1      -9.973  11.789  67.152  1.00  0.00    -0.203 C  
HETATM   22  O   UNL     1     -10.296  11.548  68.308  1.00  0.00    -0.183 OA 
BRANCH  21  23
HETATM   23  N   UNL     1     -10.036  10.847  66.142  1.00  0.00    -0.232 N  
HETATM   24  H   UNL     1     -10.270  11.161  65.200  1.00  0.00     0.000 HD 
BRANCH  23  25
HETATM   25  C   UNL     1      -9.791   9.454  66.352  1.00  0.00    -0.269 A  
HETATM   26  C   UNL     1      -8.684   8.788  65.815  1.00  0.00    -0.209 A  
HETATM   27  C   UNL     1      -8.500   7.399  65.932  1.00  0.00    -0.155 A  
HETATM   28  C   UNL     1      -7.332   6.749  65.240  1.00  0.00    -0.084 C  
HETATM   29  C   UNL     1      -9.430   6.677  66.674  1.00  0.00    -0.164 A  
HETATM   30  F   UNL     1      -7.708   5.794  64.343  1.00  0.00    -0.074 F  
HETATM   31  F   UNL     1      -6.470   6.145  66.105  1.00  0.00    -0.040 F  
HETATM   32  F   UNL     1      -6.565   7.623  64.526  1.00  0.00    -0.046 F  
HETATM   33 CL   UNL     1      -9.289   4.974  66.904  1.00  0.00    -0.125 Cl 
HETATM   34  C   UNL     1     -10.518   7.334  67.268  1.00  0.00    -0.380 A  
HETATM   35  C   UNL     1     -10.704   8.713  67.106  1.00  0.00    -0.199 A  
ENDBRANCH  23  25
ENDBRANCH  21  23
ENDBRANCH  19  21
ENDBRANCH  16  19
ENDBRANCH  12  13
ENDBRANCH  10  12
ENDBRANCH   3   6
TORSDOF 7
ENDMDL
MODEL      316
REMARK 921   NORMALIZED FREE ENERGY PREDICTED BY IDOCK:   -3.44 KCAL/MOL
REMARK 922        TOTAL FREE ENERGY PREDICTED BY IDOCK:   -6.70 KCAL/MOL
REMARK 923 INTER-LIGAND FREE ENERGY PREDICTED BY IDOCK:   -5.66 KCAL/MOL
REMARK 924 INTRA-LIGAND FREE ENERGY PREDICTED BY IDOCK:   -1.04 KCAL/MOL
REMARK 927      BINDING AFFINITY PREDICTED BY RF-SCORE:    0.00 PKD
ROOT
HETATM    1  C   UNL     1     -11.089  17.131  68.477  1.00  0.00    -0.092 C  
HETATM    2  N   UNL     1      -9.709  16.746  68.377  1.00  0.00    -0.238 N  
HETATM    3  C   UNL     1      -9.186  15.737  69.157  1.00  0.00    -0.256 C  
HETATM    4  H   UNL     1      -9.103  17.229  67.714  1.00  0.00     0.000 HD 
HETATM    5  O   UNL     1      -9.839  15.116  69.988  1.00  0.00    -0.146 OA 
ENDROOT
BRANCH   3   6
HETATM    6  C   UNL     1      -7.741  15.421  68.906  1.00  0.00    -0.165 A  
HETATM    7  N   UNL     1      -6.874  16.471  68.851  1.00  0.00    -0.173 NA 
HETATM    8  C   UNL     1      -5.590  16.166  68.556  1.00  0.00    -0.106 A  
HETATM    9  C   UNL     1      -5.139  14.883  68.275  1.00  0.00    -0.115 A  
HETATM   10  C   UNL     1      -6.056  13.839  68.317  1.00  0.00    -0.111 A  
HETATM   11  C   UNL     1      -7.372  14.103  68.694  1.00  0.00    -0.126 A  
BRANCH  10  12
HETATM   12  O   UNL     1      -5.595  12.578  67.986  1.00  0.00    -0.065 OA 
BRANCH  12  13
HETATM   13  C   UNL     1      -6.484  11.524  68.060  1.00  0.00    -0.054 A  
HETATM   14  C   UNL     1      -7.237  11.261  69.198  1.00  0.00    -0.115 A  
HETATM   15  C   UNL     1      -8.000  10.101  69.272  1.00  0.00    -0.138 A  
HETATM   16  C   UNL     1      -8.134   9.237  68.179  1.00  0.00    -0.107 A  
HETATM   17  C   UNL     1      -7.448   9.553  67.003  1.00  0.00    -0.091 A  
HETATM   18  C   UNL     1      -6.626  10.695  66.945  1.00  0.00    -0.086 A  
BRANCH  16  19
HETATM   19  N   UNL     1      -8.935   8.064  68.237  1.00  0.00    -0.133 N  
HETATM   20  H   UNL     1      -8.539   7.225  68.661  1.00  0.00     0.000 HD 
BRANCH  19  21
HETATM   21  C   UNL     1     -10.232   8.008  67.743  1.00  0.00    -0.222 C  
HETATM   22  O   UNL     1     -10.663   7.051  67.113  1.00  0.00    -0.301 OA 
BRANCH  21  23
HETATM   23  N   UNL     1     -10.990   9.133  68.014  1.00  0.00    -0.493 N  
HETATM   24  H   UNL     1     -11.470   9.190  68.912  1.00  0.00     0.000 HD 
BRANCH  23  25
HETATM   25  C   UNL     1     -11.134  10.220  67.097  1.00  0.00    -0.091 A  
HETATM   26  C   UNL     1     -10.768  10.131  65.749  1.00  0.00     0.115 A  
HETATM   27  C   UNL     1     -10.809  11.230  64.873  1.00  0.00    -0.299 A  
HETATM   28  C   UNL     1     -10.304  11.071  63.465  1.00  0.00    -0.340 C  
HETATM   29  C   UNL     1     -11.302  12.436  65.363  1.00  0.00    -0.337 A  
HETATM   30  F   UNL     1      -9.281  11.920  63.166  1.00  0.00    -0.265 F  
HETATM   31  F   UNL     1     -11.268  11.287  62.527  1.00  0.00     0.203 F  
HETATM   32  F   UNL     1      -9.820   9.823  63.196  1.00  0.00    -0.170 F  
HETATM   33 CL   UNL     1     -11.421  13.842  64.371  1.00  0.00    -0.387 Cl 
HETATM   34  C   UNL     1     -11.726  12.534  66.696  1.00  0.00    -0.453 A  
HETATM   35  C   UNL     1     -11.640  11.435  67.562  1.00  0.00    -0.298 A  
ENDBRANCH  23  25
ENDBRANCH  21  23
ENDBRANCH  19  21
ENDBRANCH  16  19
ENDBRANCH  12  13
ENDBRANCH  10  12
ENDBRANCH   3   6
TORSDOF 7
ENDMDL
MODEL      317
REMARK 921   NORMALIZED FREE ENERGY PREDICTED BY IDOCK:   -3.42 KCAL/MOL
REMARK 922        TOTAL FREE ENERGY PREDICTED BY IDOCK:   -6.66 KCAL/MOL
REMARK 923 INTER-LIGAND FREE ENERGY PREDICTED BY IDOCK:   -6.74 KCAL/MOL
REMARK 924 INTRA-LIGAND FREE ENERGY PREDICTED BY IDOCK:    0.08 KCAL/MOL
REMARK 927      BINDING AFFINITY PREDICTED BY RF-SCORE:    0.00 PKD
ROOT
HETATM    1  C   UNL     1     -12.828  12.112  62.995  1.00  0.00     0.223 C  
HETATM    2  N   UNL     1     -12.122  12.085  64.246  1.00  0.00    -0.346 N  
HETATM    3  C   UNL     1     -12.411  12.978  65.255  1.00  0.00    -0.499 C  
HETATM    4  H   UNL     1     -11.390  11.390  64.390  1.00  0.00     0.000 HD 
HETATM    5  O   UNL     1     -13.264  13.854  65.160  1.00  0.00    -0.768 OA 
ENDROOT
BRANCH   3   6
HETATM    6  C   UNL     1     -11.619  12.794  66.515  1.00  0.00    -0.376 A  
HETATM    7  N   UNL     1     -10.279  12.586  66.384  1.00  0.00    -0.240 NA 
HETATM    8  C   UNL     1      -9.598  12.357  67.529  1.00  0.00    -0.185 A  
HETATM    9  C   UNL     1     -10.188  12.283  68.785  1.00  0.00    -0.119 A  
HETATM   10  C   UNL     1     -11.562  12.476  68.878  1.00  0.00    -0.318 A  
HETATM   11  C   UNL     1     -12.285  12.794  67.729  1.00  0.00     0.011 A  
BRANCH  10  12
HETATM   12  O   UNL     1     -12.134  12.351  70.131  1.00  0.00    -0.335 OA 
BRANCH  12  13
HETATM   13  C   UNL     1     -12.072  11.118  70.750  1.00  0.00    -0.357 A  
HETATM   14  C   UNL     1     -13.164  10.553  71.398  1.00  0.00    -0.441 A  
HETATM   15  C   UNL     1     -13.005   9.384  72.134  1.00  0.00    -0.503 A  
HETATM   16  C   UNL     1     -11.795   8.681  72.147  1.00  0.00    -0.377 A  
HETATM   17  C   UNL     1     -10.723   9.204  71.418  1.00  0.00    -0.414 A  
HETATM   18  C   UNL     1     -10.863  10.419  70.720  1.00  0.00     0.039 A  
BRANCH  16  19
HETATM   19  N   UNL     1     -11.632   7.471  72.873  1.00  0.00    -0.590 N  
HETATM   20  H   UNL     1     -11.135   7.501  73.764  1.00  0.00     0.000 HD 
BRANCH  19  21
HETATM   21  C   UNL     1     -12.119   6.248  72.427  1.00  0.00    -0.140 C  
HETATM   22  O   UNL     1     -13.099   6.148  71.699  1.00  0.00     0.293 OA 
BRANCH  21  23
HETATM   23  N   UNL     1     -11.408   5.154  72.885  1.00  0.00    -0.296 N  
HETATM   24  H   UNL     1     -11.895   4.464  73.457  1.00  0.00     0.000 HD 
BRANCH  23  25
HETATM   25  C   UNL     1     -10.024   4.943  72.597  1.00  0.00    -0.165 A  
HETATM   26  C   UNL     1      -9.062   5.954  72.709  1.00  0.00    -0.129 A  
HETATM   27  C   UNL     1      -7.721   5.775  72.324  1.00  0.00    -0.102 A  
HETATM   28  C   UNL     1      -6.775   6.943  72.385  1.00  0.00    -0.061 C  
HETATM   29  C   UNL     1      -7.332   4.516  71.878  1.00  0.00    -0.073 A  
HETATM   30  F   UNL     1      -6.222   7.247  71.177  1.00  0.00    -0.035 F  
HETATM   31  F   UNL     1      -5.736   6.742  73.243  1.00  0.00    -0.043 F  
HETATM   32  F   UNL     1      -7.363   8.101  72.806  1.00  0.00    -0.104 F  
HETATM   33 CL   UNL     1      -5.708   4.178  71.403  1.00  0.00    -0.012 Cl 
HETATM   34  C   UNL     1      -8.268   3.474  71.809  1.00  0.00    -0.068 A  
HETATM   35  C   UNL     1      -9.608   3.683  72.161  1.00  0.00    -0.211 A  
ENDBRANCH  23  25
ENDBRANCH  21  23
ENDBRANCH  19  21
ENDBRANCH  16  19
ENDBRANCH  12  13
ENDBRANCH  10  12
ENDBRANCH   3   6
TORSDOF 7
ENDMDL
MODEL      318
REMARK 921   NORMALIZED FREE ENERGY PREDICTED BY IDOCK:   -3.40 KCAL/MOL
REMARK 922        TOTAL FREE ENERGY PREDICTED BY IDOCK:   -6.64 KCAL/MOL
REMARK 923 INTER-LIGAND FREE ENERGY PREDICTED BY IDOCK:   -5.14 KCAL/MOL
REMARK 924 INTRA-LIGAND FREE ENERGY PREDICTED BY IDOCK:   -1.50 KCAL/MOL
REMARK 927      BINDING AFFINITY PREDICTED BY RF-SCORE:    0.00 PKD
ROOT
HETATM    1  C   UNL     1      -8.077  15.320  69.462  1.00  0.00    -0.196 C  
HETATM    2  N   UNL     1      -8.611  14.159  68.806  1.00  0.00    -0.320 N  
HETATM    3  C   UNL     1      -8.125  13.735  67.588  1.00  0.00    -0.177 C  
HETATM    4  H   UNL     1      -9.365  13.637  69.251  1.00  0.00     0.000 HD 
HETATM    5  O   UNL     1      -7.231  14.311  66.978  1.00  0.00    -0.032 OA 
ENDROOT
BRANCH   3   6
HETATM    6  C   UNL     1      -8.754  12.483  67.053  1.00  0.00    -0.205 A  
HETATM    7  N   UNL     1      -9.682  12.625  66.065  1.00  0.00    -0.251 NA 
HETATM    8  C   UNL     1     -10.283  11.489  65.646  1.00  0.00    -0.248 A  
HETATM    9  C   UNL     1     -10.038  10.233  66.186  1.00  0.00    -0.307 A  
HETATM   10  C   UNL     1      -9.102  10.129  67.210  1.00  0.00    -0.138 A  
HETATM   11  C   UNL     1      -8.405  11.266  67.614  1.00  0.00    -0.123 A  
BRANCH  10  12
HETATM   12  O   UNL     1      -8.910   8.876  67.765  1.00  0.00    -0.134 OA 
BRANCH  12  13
HETATM   13  C   UNL     1      -9.551   8.591  68.954  1.00  0.00    -0.160 A  
HETATM   14  C   UNL     1      -8.987   8.874  70.193  1.00  0.00    -0.183 A  
HETATM   15  C   UNL     1      -9.606   8.427  71.355  1.00  0.00    -0.254 A  
HETATM   16  C   UNL     1     -10.857   7.799  71.329  1.00  0.00    -0.231 A  
HETATM   17  C   UNL     1     -11.465   7.598  70.086  1.00  0.00    -0.083 A  
HETATM   18  C   UNL     1     -10.813   7.995  68.902  1.00  0.00    -0.001 A  
BRANCH  16  19
HETATM   19  N   UNL     1     -11.509   7.365  72.513  1.00  0.00    -0.374 N  
HETATM   20  H   UNL     1     -12.430   7.746  72.730  1.00  0.00     0.000 HD 
BRANCH  19  21
HETATM   21  C   UNL     1     -10.950   6.443  73.391  1.00  0.00    -0.141 C  
HETATM   22  O   UNL     1     -10.328   6.772  74.393  1.00  0.00    -0.340 OA 
BRANCH  21  23
HETATM   23  N   UNL     1     -11.147   5.124  73.027  1.00  0.00    -0.292 N  
HETATM   24  H   UNL     1     -12.047   4.691  73.239  1.00  0.00     0.000 HD 
BRANCH  23  25
HETATM   25  C   UNL     1     -10.153   4.336  72.369  1.00  0.00    -0.176 A  
HETATM   26  C   UNL     1      -8.973   4.881  71.848  1.00  0.00    -0.152 A  
HETATM   27  C   UNL     1      -8.047   4.126  71.108  1.00  0.00    -0.072 A  
HETATM   28  C   UNL     1      -6.853   4.812  70.501  1.00  0.00    -0.037 C  
HETATM   29  C   UNL     1      -8.291   2.765  70.951  1.00  0.00    -0.053 A  
HETATM   30  F   UNL     1      -6.797   4.685  69.145  1.00  0.00    -0.044 F  
HETATM   31  F   UNL     1      -5.668   4.342  70.980  1.00  0.00    -0.012 F  
HETATM   32  F   UNL     1      -6.821   6.157  70.732  1.00  0.00    -0.054 F  
HETATM   33 CL   UNL     1      -7.209   1.739  70.083  1.00  0.00    -0.033 Cl 
HETATM   34  C   UNL     1      -9.439   2.187  71.511  1.00  0.00    -0.202 A  
HETATM   35  C   UNL     1     -10.369   2.966  72.212  1.00  0.00    -0.116 A  
ENDBRANCH  23  25
ENDBRANCH  21  23
ENDBRANCH  19  21
ENDBRANCH  16  19
ENDBRANCH  12  13
ENDBRANCH  10  12
ENDBRANCH   3   6
TORSDOF 7
ENDMDL
MODEL      319
REMARK 921   NORMALIZED FREE ENERGY PREDICTED BY IDOCK:   -3.40 KCAL/MOL
REMARK 922        TOTAL FREE ENERGY PREDICTED BY IDOCK:   -6.63 KCAL/MOL
REMARK 923 INTER-LIGAND FREE ENERGY PREDICTED BY IDOCK:   -5.56 KCAL/MOL
REMARK 924 INTRA-LIGAND FREE ENERGY PREDICTED BY IDOCK:   -1.08 KCAL/MOL
REMARK 927      BINDING AFFINITY PREDICTED BY RF-SCORE:    0.00 PKD
ROOT
HETATM    1  C   UNL     1     -10.033   4.146  71.396  1.00  0.00    -0.153 C  
HETATM    2  N   UNL     1      -9.848   5.486  70.912  1.00  0.00    -0.175 N  
HETATM    3  C   UNL     1      -8.595   6.053  70.824  1.00  0.00    -0.135 C  
HETATM    4  H   UNL     1     -10.662   6.030  70.627  1.00  0.00     0.000 HD 
HETATM    5  O   UNL     1      -7.566   5.475  71.158  1.00  0.00    -0.095 OA 
ENDROOT
BRANCH   3   6
HETATM    6  C   UNL     1      -8.561   7.441  70.258  1.00  0.00    -0.145 A  
HETATM    7  N   UNL     1      -9.756   8.014  69.941  1.00  0.00    -0.179 NA 
HETATM    8  C   UNL     1      -9.696   9.238  69.370  1.00  0.00    -0.172 A  
HETATM    9  C   UNL     1      -8.512   9.897  69.064  1.00  0.00    -0.136 A  
HETATM   10  C   UNL     1      -7.311   9.273  69.380  1.00  0.00    -0.077 A  
HETATM   11  C   UNL     1      -7.334   8.045  70.041  1.00  0.00    -0.062 A  
BRANCH  10  12
HETATM   12  O   UNL     1      -6.145   9.926  69.023  1.00  0.00    -0.040 OA 
BRANCH  12  13
HETATM   13  C   UNL     1      -6.168  11.306  68.967  1.00  0.00    -0.056 A  
HETATM   14  C   UNL     1      -5.974  12.101  70.090  1.00  0.00    -0.154 A  
HETATM   15  C   UNL     1      -6.159  13.477  70.005  1.00  0.00    -0.129 A  
HETATM   16  C   UNL     1      -6.418  14.112  68.785  1.00  0.00    -0.091 A  
HETATM   17  C   UNL     1      -6.521  13.316  67.640  1.00  0.00    -0.167 A  
HETATM   18  C   UNL     1      -6.394  11.917  67.732  1.00  0.00    -0.077 A  
BRANCH  16  19
HETATM   19  N   UNL     1      -6.580  15.519  68.685  1.00  0.00    -0.101 N  
HETATM   20  H   UNL     1      -6.486  16.082  69.531  1.00  0.00     0.000 HD 
BRANCH  19  21
HETATM   21  C   UNL     1      -6.861  16.166  67.488  1.00  0.00    -0.165 C  
HETATM   22  O   UNL     1      -6.006  16.403  66.643  1.00  0.00    -0.310 OA 
BRANCH  21  23
HETATM   23  N   UNL     1      -8.187  16.529  67.338  1.00  0.00    -0.159 N  
HETATM   24  H   UNL     1      -8.427  17.198  66.606  1.00  0.00     0.000 HD 
BRANCH  23  25
HETATM   25  C   UNL     1      -9.238  16.012  68.158  1.00  0.00    -0.195 A  
HETATM   26  C   UNL     1      -9.692  14.691  68.068  1.00  0.00    -0.216 A  
HETATM   27  C   UNL     1     -10.796  14.214  68.797  1.00  0.00    -0.271 A  
HETATM   28  C   UNL     1     -11.279  12.808  68.567  1.00  0.00    -0.279 C  
HETATM   29  C   UNL     1     -11.411  15.083  69.694  1.00  0.00    -0.294 A  
HETATM   30  F   UNL     1     -12.575  12.750  68.149  1.00  0.00    -0.039 F  
HETATM   31  F   UNL     1     -11.200  12.030  69.683  1.00  0.00    -0.291 F  
HETATM   32  F   UNL     1     -10.569  12.135  67.615  1.00  0.00    -0.202 F  
HETATM   33 CL   UNL     1     -12.756  14.595  70.657  1.00  0.00    -0.405 Cl 
HETATM   34  C   UNL     1     -10.938  16.394  69.839  1.00  0.00    -0.339 A  
HETATM   35  C   UNL     1      -9.861  16.862  69.074  1.00  0.00    -0.247 A  
ENDBRANCH  23  25
ENDBRANCH  21  23
ENDBRANCH  19  21
ENDBRANCH  16  19
ENDBRANCH  12  13
ENDBRANCH  10  12
ENDBRANCH   3   6
TORSDOF 7
ENDMDL
MODEL      320
REMARK 921   NORMALIZED FREE ENERGY PREDICTED BY IDOCK:   -3.39 KCAL/MOL
REMARK 922        TOTAL FREE ENERGY PREDICTED BY IDOCK:   -6.62 KCAL/MOL
REMARK 923 INTER-LIGAND FREE ENERGY PREDICTED BY IDOCK:   -6.06 KCAL/MOL
REMARK 924 INTRA-LIGAND FREE ENERGY PREDICTED BY IDOCK:   -0.56 KCAL/MOL
REMARK 927      BINDING AFFINITY PREDICTED BY RF-SCORE:    0.00 PKD
ROOT
HETATM    1  C   UNL     1     -12.674  14.050  65.039  1.00  0.00    -0.328 C  
HETATM    2  N   UNL     1     -11.621  14.870  65.570  1.00  0.00    -0.308 N  
HETATM    3  C   UNL     1     -11.254  16.051  64.963  1.00  0.00    -0.261 C  
HETATM    4  H   UNL     1     -11.135  14.572  66.415  1.00  0.00     0.000 HD 
HETATM    5  O   UNL     1     -11.775  16.476  63.937  1.00  0.00    -1.148 OA 
ENDROOT
BRANCH   3   6
HETATM    6  C   UNL     1     -10.170  16.817  65.661  1.00  0.00    -0.236 A  
HETATM    7  N   UNL     1     -10.339  18.163  65.784  1.00  0.00    -0.615 NA 
HETATM    8  C   UNL     1      -9.317  18.840  66.357  1.00  0.00    -0.312 A  
HETATM    9  C   UNL     1      -8.129  18.253  66.771  1.00  0.00    -0.268 A  
HETATM   10  C   UNL     1      -7.982  16.880  66.608  1.00  0.00    -0.265 A  
HETATM   11  C   UNL     1      -9.043  16.137  66.094  1.00  0.00    -0.382 A  
BRANCH  10  12
HETATM   12  O   UNL     1      -6.771  16.325  66.983  1.00  0.00    -0.191 OA 
BRANCH  12  13
HETATM   13  C   UNL     1      -6.795  15.133  67.681  1.00  0.00    -0.180 A  
HETATM   14  C   UNL     1      -5.763  14.206  67.607  1.00  0.00     0.012 A  
HETATM   15  C   UNL     1      -5.907  12.959  68.206  1.00  0.00    -0.079 A  
HETATM   16  C   UNL     1      -7.019  12.646  68.995  1.00  0.00    -0.062 A  
HETATM   17  C   UNL     1      -8.014  13.616  69.143  1.00  0.00     0.287 A  
HETATM   18  C   UNL     1      -7.900  14.858  68.489  1.00  0.00    -0.126 A  
BRANCH  16  19
HETATM   19  N   UNL     1      -7.161  11.385  69.634  1.00  0.00    -0.333 N  
HETATM   20  H   UNL     1      -6.705  11.241  70.536  1.00  0.00     0.000 HD 
BRANCH  19  21
HETATM   21  C   UNL     1      -7.893  10.337  69.088  1.00  0.00    -0.127 C  
HETATM   22  O   UNL     1      -9.034  10.473  68.664  1.00  0.00    -0.145 OA 
BRANCH  21  23
HETATM   23  N   UNL     1      -7.225   9.126  69.075  1.00  0.00    -0.071 N  
HETATM   24  H   UNL     1      -6.718   8.843  69.913  1.00  0.00     0.000 HD 
BRANCH  23  25
HETATM   25  C   UNL     1      -7.210   8.252  67.944  1.00  0.00    -0.095 A  
HETATM   26  C   UNL     1      -6.953   8.698  66.642  1.00  0.00    -0.079 A  
HETATM   27  C   UNL     1      -7.043   7.859  65.517  1.00  0.00    -0.060 A  
HETATM   28  C   UNL     1      -6.847   8.442  64.145  1.00  0.00    -0.074 C  
HETATM   29  C   UNL     1      -7.335   6.515  65.728  1.00  0.00    -0.079 A  
HETATM   30  F   UNL     1      -7.929   8.273  63.333  1.00  0.00    -0.133 F  
HETATM   31  F   UNL     1      -5.784   7.903  63.484  1.00  0.00    -0.050 F  
HETATM   32  F   UNL     1      -6.615   9.788  64.151  1.00  0.00    -0.096 F  
HETATM   33 CL   UNL     1      -7.446   5.391  64.423  1.00  0.00    -0.064 Cl 
HETATM   34  C   UNL     1      -7.543   6.035  67.029  1.00  0.00    -0.096 A  
HETATM   35  C   UNL     1      -7.486   6.897  68.133  1.00  0.00    -0.099 A  
ENDBRANCH  23  25
ENDBRANCH  21  23
ENDBRANCH  19  21
ENDBRANCH  16  19
ENDBRANCH  12  13
ENDBRANCH  10  12
ENDBRANCH   3   6
TORSDOF 7
ENDMDL
MODEL      321
REMARK 921   NORMALIZED FREE ENERGY PREDICTED BY IDOCK:   -3.38 KCAL/MOL
REMARK 922        TOTAL FREE ENERGY PREDICTED BY IDOCK:   -6.62 KCAL/MOL
REMARK 923 INTER-LIGAND FREE ENERGY PREDICTED BY IDOCK:   -6.21 KCAL/MOL
REMARK 924 INTRA-LIGAND FREE ENERGY PREDICTED BY IDOCK:   -0.41 KCAL/MOL
REMARK 927      BINDING AFFINITY PREDICTED BY RF-SCORE:    0.00 PKD
ROOT
HETATM    1  C   UNL     1     -13.579  15.186  70.637  1.00  0.00    -0.125 C  
HETATM    2  N   UNL     1     -12.608  15.115  69.581  1.00  0.00    -0.610 N  
HETATM    3  C   UNL     1     -11.483  15.911  69.584  1.00  0.00    -0.346 C  
HETATM    4  H   UNL     1     -12.754  14.462  68.812  1.00  0.00     0.000 HD 
HETATM    5  O   UNL     1     -11.238  16.733  70.461  1.00  0.00    -0.149 OA 
ENDROOT
BRANCH   3   6
HETATM    6  C   UNL     1     -10.543  15.690  68.437  1.00  0.00    -0.252 A  
HETATM    7  N   UNL     1     -10.472  16.669  67.492  1.00  0.00    -0.312 NA 
HETATM    8  C   UNL     1      -9.668  16.417  66.434  1.00  0.00    -0.287 A  
HETATM    9  C   UNL     1      -8.969  15.231  66.252  1.00  0.00    -0.314 A  
HETATM   10  C   UNL     1      -9.084  14.244  67.225  1.00  0.00    -0.215 A  
HETATM   11  C   UNL     1      -9.841  14.499  68.368  1.00  0.00    -0.227 A  
BRANCH  10  12
HETATM   12  O   UNL     1      -8.418  13.053  66.999  1.00  0.00    -0.193 OA 
BRANCH  12  13
HETATM   13  C   UNL     1      -9.056  11.879  67.347  1.00  0.00    -0.178 A  
HETATM   14  C   UNL     1      -8.361  10.731  67.707  1.00  0.00    -0.113 A  
HETATM   15  C   UNL     1      -9.047   9.536  67.899  1.00  0.00    -0.131 A  
HETATM   16  C   UNL     1     -10.444   9.475  67.860  1.00  0.00    -0.241 A  
HETATM   17  C   UNL     1     -11.146  10.653  67.588  1.00  0.00    -0.385 A  
HETATM   18  C   UNL     1     -10.452  11.852  67.334  1.00  0.00    -0.242 A  
BRANCH  16  19
HETATM   19  N   UNL     1     -11.154   8.265  68.082  1.00  0.00    -0.340 N  
HETATM   20  H   UNL     1     -11.711   7.879  67.319  1.00  0.00     0.000 HD 
BRANCH  19  21
HETATM   21  C   UNL     1     -11.125   7.581  69.292  1.00  0.00     0.050 C  
HETATM   22  O   UNL     1     -11.514   8.074  70.343  1.00  0.00    -0.241 OA 
BRANCH  21  23
HETATM   23  N   UNL     1     -10.606   6.302  69.207  1.00  0.00    -0.241 N  
HETATM   24  H   UNL     1     -10.772   5.767  68.354  1.00  0.00     0.000 HD 
BRANCH  23  25
HETATM   25  C   UNL     1      -9.850   5.692  70.255  1.00  0.00    -0.194 A  
HETATM   26  C   UNL     1     -10.207   4.470  70.838  1.00  0.00    -0.170 A  
HETATM   27  C   UNL     1      -9.526   3.923  71.939  1.00  0.00    -0.204 A  
HETATM   28  C   UNL     1     -10.037   2.654  72.566  1.00  0.00    -0.162 C  
HETATM   29  C   UNL     1      -8.409   4.601  72.418  1.00  0.00    -0.115 A  
HETATM   30  F   UNL     1     -10.357   2.800  73.883  1.00  0.00    -0.145 F  
HETATM   31  F   UNL     1      -9.140   1.630  72.500  1.00  0.00    -0.065 F  
HETATM   32  F   UNL     1     -11.170   2.171  71.977  1.00  0.00     0.267 F  
HETATM   33 CL   UNL     1      -7.484   4.008  73.748  1.00  0.00    -0.073 Cl 
HETATM   34  C   UNL     1      -8.001   5.799  71.815  1.00  0.00    -0.114 A  
HETATM   35  C   UNL     1      -8.717   6.347  70.742  1.00  0.00    -0.140 A  
ENDBRANCH  23  25
ENDBRANCH  21  23
ENDBRANCH  19  21
ENDBRANCH  16  19
ENDBRANCH  12  13
ENDBRANCH  10  12
ENDBRANCH   3   6
TORSDOF 7
ENDMDL
MODEL      322
REMARK 921   NORMALIZED FREE ENERGY PREDICTED BY IDOCK:   -3.38 KCAL/MOL
REMARK 922        TOTAL FREE ENERGY PREDICTED BY IDOCK:   -6.61 KCAL/MOL
REMARK 923 INTER-LIGAND FREE ENERGY PREDICTED BY IDOCK:   -6.07 KCAL/MOL
REMARK 924 INTRA-LIGAND FREE ENERGY PREDICTED BY IDOCK:   -0.54 KCAL/MOL
REMARK 927      BINDING AFFINITY PREDICTED BY RF-SCORE:    0.00 PKD
ROOT
HETATM    1  C   UNL     1     -11.421   7.918  72.810  1.00  0.00    -0.368 C  
HETATM    2  N   UNL     1     -10.828   7.161  71.742  1.00  0.00    -0.224 N  
HETATM    3  C   UNL     1     -10.601   7.722  70.504  1.00  0.00    -0.226 C  
HETATM    4  H   UNL     1     -10.570   6.188  71.903  1.00  0.00     0.000 HD 
HETATM    5  O   UNL     1     -10.894   8.879  70.220  1.00  0.00    -0.230 OA 
ENDROOT
BRANCH   3   6
HETATM    6  C   UNL     1      -9.935   6.819  69.508  1.00  0.00    -0.162 A  
HETATM    7  N   UNL     1      -9.827   5.501  69.836  1.00  0.00    -0.178 NA 
HETATM    8  C   UNL     1      -9.164   4.721  68.953  1.00  0.00    -0.124 A  
HETATM    9  C   UNL     1      -8.572   5.193  67.788  1.00  0.00    -0.103 A  
HETATM   10  C   UNL     1      -8.681   6.548  67.497  1.00  0.00    -0.114 A  
HETATM   11  C   UNL     1      -9.425   7.369  68.344  1.00  0.00    -0.143 A  
BRANCH  10  12
HETATM   12  O   UNL     1      -8.043   7.003  66.358  1.00  0.00    -0.105 OA 
BRANCH  12  13
HETATM   13  C   UNL     1      -8.452   8.210  65.825  1.00  0.00    -0.149 A  
HETATM   14  C   UNL     1      -7.618   9.003  65.047  1.00  0.00    -0.103 A  
HETATM   15  C   UNL     1      -8.028  10.275  64.665  1.00  0.00    -0.131 A  
HETATM   16  C   UNL     1      -9.318  10.745  64.937  1.00  0.00    -0.222 A  
HETATM   17  C   UNL     1     -10.188   9.907  65.641  1.00  0.00    -0.229 A  
HETATM   18  C   UNL     1      -9.755   8.642  66.082  1.00  0.00    -0.292 A  
BRANCH  16  19
HETATM   19  N   UNL     1      -9.755  12.033  64.526  1.00  0.00    -0.457 N  
HETATM   20  H   UNL     1      -9.582  12.322  63.563  1.00  0.00     0.000 HD 
BRANCH  19  21
HETATM   21  C   UNL     1     -10.408  12.918  65.376  1.00  0.00    -0.296 C  
HETATM   22  O   UNL     1     -11.562  12.750  65.752  1.00  0.00    -0.336 OA 
BRANCH  21  23
HETATM   23  N   UNL     1      -9.646  14.009  65.751  1.00  0.00    -0.515 N  
HETATM   24  H   UNL     1      -9.752  14.877  65.226  1.00  0.00     0.000 HD 
BRANCH  23  25
HETATM   25  C   UNL     1      -8.718  13.980  66.838  1.00  0.00    -0.164 A  
HETATM   26  C   UNL     1      -8.114  12.801  67.291  1.00  0.00    -0.172 A  
HETATM   27  C   UNL     1      -7.286  12.757  68.426  1.00  0.00    -0.115 A  
HETATM   28  C   UNL     1      -6.757  11.431  68.901  1.00  0.00    -0.080 C  
HETATM   29  C   UNL     1      -7.007  13.954  69.078  1.00  0.00    -0.109 A  
HETATM   30  F   UNL     1      -7.130  11.134  70.178  1.00  0.00    -0.114 F  
HETATM   31  F   UNL     1      -5.397  11.360  68.873  1.00  0.00    -0.042 F  
HETATM   32  F   UNL     1      -7.183  10.373  68.151  1.00  0.00    -0.081 F  
HETATM   33 CL   UNL     1      -5.984  14.020  70.465  1.00  0.00    -0.174 Cl 
HETATM   34  C   UNL     1      -7.558  15.156  68.609  1.00  0.00    -0.127 A  
HETATM   35  C   UNL     1      -8.413  15.172  67.498  1.00  0.00    -0.185 A  
ENDBRANCH  23  25
ENDBRANCH  21  23
ENDBRANCH  19  21
ENDBRANCH  16  19
ENDBRANCH  12  13
ENDBRANCH  10  12
ENDBRANCH   3   6
TORSDOF 7
ENDMDL
MODEL      323
REMARK 921   NORMALIZED FREE ENERGY PREDICTED BY IDOCK:   -3.38 KCAL/MOL
REMARK 922        TOTAL FREE ENERGY PREDICTED BY IDOCK:   -6.60 KCAL/MOL
REMARK 923 INTER-LIGAND FREE ENERGY PREDICTED BY IDOCK:   -6.13 KCAL/MOL
REMARK 924 INTRA-LIGAND FREE ENERGY PREDICTED BY IDOCK:   -0.47 KCAL/MOL
REMARK 927      BINDING AFFINITY PREDICTED BY RF-SCORE:    0.00 PKD
ROOT
HETATM    1  C   UNL     1     -12.674  14.050  65.039  1.00  0.00    -0.328 C  
HETATM    2  N   UNL     1     -11.621  14.870  65.570  1.00  0.00    -0.308 N  
HETATM    3  C   UNL     1     -11.254  16.051  64.963  1.00  0.00    -0.261 C  
HETATM    4  H   UNL     1     -11.135  14.572  66.415  1.00  0.00     0.000 HD 
HETATM    5  O   UNL     1     -11.775  16.476  63.937  1.00  0.00    -1.148 OA 
ENDROOT
BRANCH   3   6
HETATM    6  C   UNL     1     -10.170  16.817  65.661  1.00  0.00    -0.236 A  
HETATM    7  N   UNL     1     -10.339  18.163  65.784  1.00  0.00    -0.615 NA 
HETATM    8  C   UNL     1      -9.317  18.840  66.357  1.00  0.00    -0.312 A  
HETATM    9  C   UNL     1      -8.129  18.253  66.771  1.00  0.00    -0.268 A  
HETATM   10  C   UNL     1      -7.982  16.880  66.608  1.00  0.00    -0.265 A  
HETATM   11  C   UNL     1      -9.043  16.137  66.094  1.00  0.00    -0.382 A  
BRANCH  10  12
HETATM   12  O   UNL     1      -6.771  16.325  66.983  1.00  0.00    -0.191 OA 
BRANCH  12  13
HETATM   13  C   UNL     1      -6.795  15.133  67.681  1.00  0.00    -0.180 A  
HETATM   14  C   UNL     1      -5.763  14.206  67.607  1.00  0.00     0.012 A  
HETATM   15  C   UNL     1      -5.907  12.959  68.206  1.00  0.00    -0.079 A  
HETATM   16  C   UNL     1      -7.019  12.646  68.995  1.00  0.00    -0.062 A  
HETATM   17  C   UNL     1      -8.014  13.616  69.143  1.00  0.00     0.287 A  
HETATM   18  C   UNL     1      -7.900  14.858  68.489  1.00  0.00    -0.126 A  
BRANCH  16  19
HETATM   19  N   UNL     1      -7.161  11.385  69.634  1.00  0.00    -0.333 N  
HETATM   20  H   UNL     1      -6.705  11.241  70.536  1.00  0.00     0.000 HD 
BRANCH  19  21
HETATM   21  C   UNL     1      -7.893  10.337  69.088  1.00  0.00    -0.127 C  
HETATM   22  O   UNL     1      -9.034  10.473  68.664  1.00  0.00    -0.145 OA 
BRANCH  21  23
HETATM   23  N   UNL     1      -7.225   9.126  69.075  1.00  0.00    -0.071 N  
HETATM   24  H   UNL     1      -6.718   8.843  69.913  1.00  0.00     0.000 HD 
BRANCH  23  25
HETATM   25  C   UNL     1      -7.210   8.252  67.944  1.00  0.00    -0.095 A  
HETATM   26  C   UNL     1      -7.999   7.098  67.865  1.00  0.00    -0.115 A  
HETATM   27  C   UNL     1      -7.906   6.183  66.802  1.00  0.00    -0.104 A  
HETATM   28  C   UNL     1      -8.720   4.918  66.844  1.00  0.00    -0.107 C  
HETATM   29  C   UNL     1      -7.038   6.482  65.756  1.00  0.00    -0.062 A  
HETATM   30  F   UNL     1      -7.957   3.790  66.799  1.00  0.00    -0.091 F  
HETATM   31  F   UNL     1      -9.608   4.822  65.816  1.00  0.00    -0.146 F  
HETATM   32  F   UNL     1      -9.473   4.791  67.976  1.00  0.00    -0.131 F  
HETATM   33 CL   UNL     1      -6.862   5.443  64.391  1.00  0.00    -0.047 Cl 
HETATM   34  C   UNL     1      -6.277   7.660  65.789  1.00  0.00    -0.038 A  
HETATM   35  C   UNL     1      -6.357   8.540  66.877  1.00  0.00    -0.056 A  
ENDBRANCH  23  25
ENDBRANCH  21  23
ENDBRANCH  19  21
ENDBRANCH  16  19
ENDBRANCH  12  13
ENDBRANCH  10  12
ENDBRANCH   3   6
TORSDOF 7
ENDMDL
MODEL      324
REMARK 921   NORMALIZED FREE ENERGY PREDICTED BY IDOCK:   -3.33 KCAL/MOL
REMARK 922        TOTAL FREE ENERGY PREDICTED BY IDOCK:   -6.55 KCAL/MOL
REMARK 923 INTER-LIGAND FREE ENERGY PREDICTED BY IDOCK:   -5.79 KCAL/MOL
REMARK 924 INTRA-LIGAND FREE ENERGY PREDICTED BY IDOCK:   -0.76 KCAL/MOL
REMARK 927      BINDING AFFINITY PREDICTED BY RF-SCORE:    0.00 PKD
ROOT
HETATM    1  C   UNL     1     -12.179  14.342  65.609  1.00  0.00    -0.344 C  
HETATM    2  N   UNL     1     -10.931  14.331  66.322  1.00  0.00    -0.312 N  
HETATM    3  C   UNL     1     -10.145  15.459  66.413  1.00  0.00    -0.279 C  
HETATM    4  H   UNL     1     -10.621  13.469  66.770  1.00  0.00     0.000 HD 
HETATM    5  O   UNL     1     -10.435  16.530  65.892  1.00  0.00    -0.337 OA 
ENDROOT
BRANCH   3   6
HETATM    6  C   UNL     1      -8.895  15.301  67.227  1.00  0.00    -0.196 A  
HETATM    7  N   UNL     1      -8.491  16.374  67.962  1.00  0.00    -0.180 NA 
HETATM    8  C   UNL     1      -7.326  16.230  68.634  1.00  0.00    -0.180 A  
HETATM    9  C   UNL     1      -6.530  15.093  68.577  1.00  0.00    -0.093 A  
HETATM   10  C   UNL     1      -6.962  14.026  67.797  1.00  0.00    -0.177 A  
HETATM   11  C   UNL     1      -8.196  14.108  67.153  1.00  0.00    -0.166 A  
BRANCH  10  12
HETATM   12  O   UNL     1      -6.130  12.924  67.717  1.00  0.00    -0.112 OA 
BRANCH  12  13
HETATM   13  C   UNL     1      -6.667  11.685  68.008  1.00  0.00    -0.064 A  
HETATM   14  C   UNL     1      -6.767  10.674  67.060  1.00  0.00    -0.086 A  
HETATM   15  C   UNL     1      -7.453   9.504  67.365  1.00  0.00    -0.091 A  
HETATM   16  C   UNL     1      -7.949   9.253  68.649  1.00  0.00    -0.100 A  
HETATM   17  C   UNL     1      -7.765  10.235  69.627  1.00  0.00    -0.166 A  
HETATM   18  C   UNL     1      -7.123  11.447  69.307  1.00  0.00    -0.100 A  
BRANCH  16  19
HETATM   19  N   UNL     1      -8.626   8.048  68.976  1.00  0.00    -0.136 N  
HETATM   20  H   UNL     1      -8.385   7.574  69.846  1.00  0.00     0.000 HD 
BRANCH  19  21
HETATM   21  C   UNL     1      -9.604   7.485  68.164  1.00  0.00    -0.148 C  
HETATM   22  O   UNL     1     -10.203   8.122  67.306  1.00  0.00    -0.223 OA 
BRANCH  21  23
HETATM   23  N   UNL     1      -9.849   6.148  68.417  1.00  0.00    -0.122 N  
HETATM   24  H   UNL     1     -10.205   5.568  67.657  1.00  0.00     0.000 HD 
BRANCH  23  25
HETATM   25  C   UNL     1      -9.628   5.539  69.691  1.00  0.00    -0.158 A  
HETATM   26  C   UNL     1     -10.519   5.674  70.762  1.00  0.00    -0.335 A  
HETATM   27  C   UNL     1     -10.251   5.165  72.045  1.00  0.00    -0.260 A  
HETATM   28  C   UNL     1     -11.217   5.441  73.165  1.00  0.00    -0.297 C  
HETATM   29  C   UNL     1      -9.078   4.439  72.227  1.00  0.00    -0.121 A  
HETATM   30  F   UNL     1     -10.649   6.107  74.209  1.00  0.00    -0.273 F  
HETATM   31  F   UNL     1     -11.765   4.307  73.686  1.00  0.00    -0.317 F  
HETATM   32  F   UNL     1     -12.282   6.209  72.791  1.00  0.00    -0.165 F  
HETATM   33 CL   UNL     1      -8.660   3.748  73.752  1.00  0.00    -0.087 Cl 
HETATM   34  C   UNL     1      -8.197   4.244  71.153  1.00  0.00    -0.079 A  
HETATM   35  C   UNL     1      -8.465   4.793  69.892  1.00  0.00    -0.086 A  
ENDBRANCH  23  25
ENDBRANCH  21  23
ENDBRANCH  19  21
ENDBRANCH  16  19
ENDBRANCH  12  13
ENDBRANCH  10  12
ENDBRANCH   3   6
TORSDOF 7
ENDMDL
MODEL      325
REMARK 921   NORMALIZED FREE ENERGY PREDICTED BY IDOCK:   -3.27 KCAL/MOL
REMARK 922        TOTAL FREE ENERGY PREDICTED BY IDOCK:   -6.45 KCAL/MOL
REMARK 923 INTER-LIGAND FREE ENERGY PREDICTED BY IDOCK:   -5.09 KCAL/MOL
REMARK 924 INTRA-LIGAND FREE ENERGY PREDICTED BY IDOCK:   -1.36 KCAL/MOL
REMARK 927      BINDING AFFINITY PREDICTED BY RF-SCORE:    0.00 PKD
ROOT
HETATM    1  C   UNL     1     -12.082  13.318  66.086  1.00  0.00    -0.421 C  
HETATM    2  N   UNL     1     -10.827  13.564  66.742  1.00  0.00    -0.281 N  
HETATM    3  C   UNL     1     -10.388  14.846  66.995  1.00  0.00    -0.264 C  
HETATM    4  H   UNL     1     -10.250  12.774  67.027  1.00  0.00     0.000 HD 
HETATM    5  O   UNL     1     -11.012  15.851  66.673  1.00  0.00    -0.262 OA 
ENDROOT
BRANCH   3   6
HETATM    6  C   UNL     1      -9.082  14.939  67.725  1.00  0.00    -0.185 A  
HETATM    7  N   UNL     1      -8.888  16.030  68.518  1.00  0.00    -0.190 NA 
HETATM    8  C   UNL     1      -7.677  16.125  69.113  1.00  0.00    -0.230 A  
HETATM    9  C   UNL     1      -6.644  15.217  68.925  1.00  0.00    -0.104 A  
HETATM   10  C   UNL     1      -6.869  14.128  68.091  1.00  0.00    -0.129 A  
HETATM   11  C   UNL     1      -8.130  13.954  67.522  1.00  0.00    -0.191 A  
BRANCH  10  12
HETATM   12  O   UNL     1      -5.810  13.263  67.881  1.00  0.00    -0.110 OA 
BRANCH  12  13
HETATM   13  C   UNL     1      -5.710  12.153  68.696  1.00  0.00    -0.053 A  
HETATM   14  C   UNL     1      -5.793  10.856  68.204  1.00  0.00    -0.046 A  
HETATM   15  C   UNL     1      -5.840   9.781  69.085  1.00  0.00    -0.034 A  
HETATM   16  C   UNL     1      -5.683   9.953  70.465  1.00  0.00    -0.062 A  
HETATM   17  C   UNL     1      -5.507  11.252  70.949  1.00  0.00    -0.103 A  
HETATM   18  C   UNL     1      -5.519  12.349  70.066  1.00  0.00    -0.112 A  
BRANCH  16  19
HETATM   19  N   UNL     1      -5.701   8.857  71.369  1.00  0.00    -0.044 N  
HETATM   20  H   UNL     1      -5.077   8.070  71.194  1.00  0.00     0.000 HD 
BRANCH  19  21
HETATM   21  C   UNL     1      -6.532   8.810  72.483  1.00  0.00    -0.005 C  
HETATM   22  O   UNL     1      -6.203   9.249  73.577  1.00  0.00    -0.316 OA 
BRANCH  21  23
HETATM   23  N   UNL     1      -7.757   8.212  72.249  1.00  0.00    -0.112 N  
HETATM   24  H   UNL     1      -8.173   7.652  72.994  1.00  0.00     0.000 HD 
BRANCH  23  25
HETATM   25  C   UNL     1      -8.469   8.339  71.016  1.00  0.00    -0.133 A  
HETATM   26  C   UNL     1      -8.601   7.286  70.103  1.00  0.00    -0.140 A  
HETATM   27  C   UNL     1      -9.208   7.441  68.844  1.00  0.00    -0.142 A  
HETATM   28  C   UNL     1      -9.220   6.283  67.884  1.00  0.00    -0.116 C  
HETATM   29  C   UNL     1      -9.758   8.681  68.533  1.00  0.00    -0.163 A  
HETATM   30  F   UNL     1      -8.599   6.562  66.703  1.00  0.00    -0.109 F  
HETATM   31  F   UNL     1     -10.478   5.868  67.567  1.00  0.00    -0.164 F  
HETATM   32  F   UNL     1      -8.589   5.171  68.362  1.00  0.00    -0.098 F  
HETATM   33 CL   UNL     1     -10.548   8.976  67.028  1.00  0.00    -0.312 Cl 
HETATM   34  C   UNL     1      -9.685   9.735  69.456  1.00  0.00    -0.228 A  
HETATM   35  C   UNL     1      -9.041   9.569  70.690  1.00  0.00    -0.236 A  
ENDBRANCH  23  25
ENDBRANCH  21  23
ENDBRANCH  19  21
ENDBRANCH  16  19
ENDBRANCH  12  13
ENDBRANCH  10  12
ENDBRANCH   3   6
TORSDOF 7
ENDMDL
MODEL      326
REMARK 921   NORMALIZED FREE ENERGY PREDICTED BY IDOCK:   -3.26 KCAL/MOL
REMARK 922        TOTAL FREE ENERGY PREDICTED BY IDOCK:   -6.44 KCAL/MOL
REMARK 923 INTER-LIGAND FREE ENERGY PREDICTED BY IDOCK:   -5.16 KCAL/MOL
REMARK 924 INTRA-LIGAND FREE ENERGY PREDICTED BY IDOCK:   -1.27 KCAL/MOL
REMARK 927      BINDING AFFINITY PREDICTED BY RF-SCORE:    0.00 PKD
ROOT
HETATM    1  C   UNL     1      -6.621  17.113  67.202  1.00  0.00    -0.176 C  
HETATM    2  N   UNL     1      -7.602  16.065  67.170  1.00  0.00    -0.189 N  
HETATM    3  C   UNL     1      -7.369  14.843  67.763  1.00  0.00    -0.166 C  
HETATM    4  H   UNL     1      -8.491  16.229  66.698  1.00  0.00     0.000 HD 
HETATM    5  O   UNL     1      -6.324  14.558  68.337  1.00  0.00    -0.086 OA 
ENDROOT
BRANCH   3   6
HETATM    6  C   UNL     1      -8.506  13.869  67.683  1.00  0.00    -0.192 A  
HETATM    7  N   UNL     1      -9.641  14.285  67.053  1.00  0.00    -0.248 NA 
HETATM    8  C   UNL     1     -10.675  13.414  67.053  1.00  0.00    -0.268 A  
HETATM    9  C   UNL     1     -10.649  12.175  67.680  1.00  0.00    -0.236 A  
HETATM   10  C   UNL     1      -9.483  11.792  68.334  1.00  0.00    -0.188 A  
HETATM   11  C   UNL     1      -8.370  12.630  68.288  1.00  0.00    -0.165 A  
BRANCH  10  12
HETATM   12  O   UNL     1      -9.497  10.575  68.992  1.00  0.00    -0.187 OA 
BRANCH  12  13
HETATM   13  C   UNL     1      -9.752   9.440  68.248  1.00  0.00    -0.145 A  
HETATM   14  C   UNL     1     -10.486   8.371  68.747  1.00  0.00    -0.202 A  
HETATM   15  C   UNL     1     -10.582   7.194  68.013  1.00  0.00    -0.251 A  
HETATM   16  C   UNL     1     -10.061   7.088  66.719  1.00  0.00    -0.200 A  
HETATM   17  C   UNL     1      -9.403   8.199  66.183  1.00  0.00    -0.232 A  
HETATM   18  C   UNL     1      -9.251   9.372  66.946  1.00  0.00    -0.173 A  
BRANCH  16  19
HETATM   19  N   UNL     1     -10.179   5.898  65.951  1.00  0.00    -0.386 N  
HETATM   20  H   UNL     1     -11.113   5.572  65.699  1.00  0.00     0.000 HD 
BRANCH  19  21
HETATM   21  C   UNL     1      -9.082   5.159  65.528  1.00  0.00    -0.153 C  
HETATM   22  O   UNL     1      -8.543   5.330  64.442  1.00  0.00    -0.140 OA 
BRANCH  21  23
HETATM   23  N   UNL     1      -8.659   4.204  66.435  1.00  0.00    -0.112 N  
HETATM   24  H   UNL     1      -8.743   3.220  66.179  1.00  0.00     0.000 HD 
BRANCH  23  25
HETATM   25  C   UNL     1      -8.109   4.529  67.715  1.00  0.00    -0.099 A  
HETATM   26  C   UNL     1      -8.760   4.232  68.918  1.00  0.00    -0.122 A  
HETATM   27  C   UNL     1      -8.272   4.646  70.170  1.00  0.00    -0.068 A  
HETATM   28  C   UNL     1      -9.085   4.371  71.406  1.00  0.00    -0.127 C  
HETATM   29  C   UNL     1      -7.054   5.319  70.206  1.00  0.00    -0.057 A  
HETATM   30  F   UNL     1      -9.424   5.503  72.085  1.00  0.00    -0.152 F  
HETATM   31  F   UNL     1      -8.441   3.567  72.298  1.00  0.00    -0.078 F  
HETATM   32  F   UNL     1     -10.269   3.741  71.152  1.00  0.00    -0.226 F  
HETATM   33 CL   UNL     1      -6.350   5.850  71.688  1.00  0.00    -0.047 Cl 
HETATM   34  C   UNL     1      -6.358   5.578  69.017  1.00  0.00    -0.034 A  
HETATM   35  C   UNL     1      -6.882   5.191  67.775  1.00  0.00    -0.060 A  
ENDBRANCH  23  25
ENDBRANCH  21  23
ENDBRANCH  19  21
ENDBRANCH  16  19
ENDBRANCH  12  13
ENDBRANCH  10  12
ENDBRANCH   3   6
TORSDOF 7
ENDMDL
MODEL      327
REMARK 921   NORMALIZED FREE ENERGY PREDICTED BY IDOCK:   -3.24 KCAL/MOL
REMARK 922        TOTAL FREE ENERGY PREDICTED BY IDOCK:   -6.41 KCAL/MOL
REMARK 923 INTER-LIGAND FREE ENERGY PREDICTED BY IDOCK:   -6.17 KCAL/MOL
REMARK 924 INTRA-LIGAND FREE ENERGY PREDICTED BY IDOCK:   -0.24 KCAL/MOL
REMARK 927      BINDING AFFINITY PREDICTED BY RF-SCORE:    0.00 PKD
ROOT
HETATM    1  C   UNL     1     -12.982   9.623  70.743  1.00  0.00    -0.087 C  
HETATM    2  N   UNL     1     -12.053   8.575  71.063  1.00  0.00    -0.418 N  
HETATM    3  C   UNL     1     -12.484   7.323  71.446  1.00  0.00    -0.383 C  
HETATM    4  H   UNL     1     -11.052   8.762  71.006  1.00  0.00     0.000 HD 
HETATM    5  O   UNL     1     -13.667   7.019  71.554  1.00  0.00    -0.343 OA 
ENDROOT
BRANCH   3   6
HETATM    6  C   UNL     1     -11.395   6.325  71.703  1.00  0.00    -0.294 A  
HETATM    7  N   UNL     1     -11.714   5.235  72.456  1.00  0.00    -0.118 NA 
HETATM    8  C   UNL     1     -10.699   4.385  72.730  1.00  0.00    -0.158 A  
HETATM    9  C   UNL     1      -9.384   4.586  72.331  1.00  0.00    -0.159 A  
HETATM   10  C   UNL     1      -9.090   5.722  71.585  1.00  0.00    -0.143 A  
HETATM   11  C   UNL     1     -10.124   6.581  71.215  1.00  0.00    -0.208 A  
BRANCH  10  12
HETATM   12  O   UNL     1      -7.766   5.926  71.240  1.00  0.00    -0.104 OA 
BRANCH  12  13
HETATM   13  C   UNL     1      -7.425   7.140  70.676  1.00  0.00    -0.081 A  
HETATM   14  C   UNL     1      -7.275   8.297  71.430  1.00  0.00    -0.080 A  
HETATM   15  C   UNL     1      -7.082   9.519  70.795  1.00  0.00    -0.106 A  
HETATM   16  C   UNL     1      -6.908   9.609  69.409  1.00  0.00    -0.054 A  
HETATM   17  C   UNL     1      -6.967   8.429  68.662  1.00  0.00    -0.068 A  
HETATM   18  C   UNL     1      -7.223   7.198  69.295  1.00  0.00    -0.085 A  
BRANCH  16  19
HETATM   19  N   UNL     1      -6.682  10.850  68.755  1.00  0.00    -0.058 N  
HETATM   20  H   UNL     1      -5.722  11.117  68.536  1.00  0.00     0.000 HD 
BRANCH  19  21
HETATM   21  C   UNL     1      -7.709  11.716  68.400  1.00  0.00    -0.130 C  
HETATM   22  O   UNL     1      -8.670  11.367  67.725  1.00  0.00    -0.130 OA 
BRANCH  21  23
HETATM   23  N   UNL     1      -7.546  13.009  68.864  1.00  0.00    -0.309 N  
HETATM   24  H   UNL     1      -6.845  13.180  69.585  1.00  0.00     0.000 HD 
BRANCH  23  25
HETATM   25  C   UNL     1      -8.310  14.117  68.382  1.00  0.00    -0.161 A  
HETATM   26  C   UNL     1      -9.223  14.008  67.326  1.00  0.00    -0.231 A  
HETATM   27  C   UNL     1      -9.894  15.118  66.783  1.00  0.00    -0.251 A  
HETATM   28  C   UNL     1     -10.783  14.927  65.584  1.00  0.00    -0.342 C  
HETATM   29  C   UNL     1      -9.685  16.361  67.374  1.00  0.00    -0.238 A  
HETATM   30  F   UNL     1     -10.398  15.673  64.510  1.00  0.00    -0.301 F  
HETATM   31  F   UNL     1     -12.083  15.250  65.830  1.00  0.00    -0.074 F  
HETATM   32  F   UNL     1     -10.817  13.641  65.129  1.00  0.00    -0.289 F  
HETATM   33 CL   UNL     1     -10.476  17.784  66.804  1.00  0.00    -0.328 Cl 
HETATM   34  C   UNL     1      -8.817  16.483  68.468  1.00  0.00    -0.228 A  
HETATM   35  C   UNL     1      -8.128  15.370  68.969  1.00  0.00    -0.213 A  
ENDBRANCH  23  25
ENDBRANCH  21  23
ENDBRANCH  19  21
ENDBRANCH  16  19
ENDBRANCH  12  13
ENDBRANCH  10  12
ENDBRANCH   3   6
TORSDOF 7
ENDMDL
MODEL      328
REMARK 921   NORMALIZED FREE ENERGY PREDICTED BY IDOCK:   -3.21 KCAL/MOL
REMARK 922        TOTAL FREE ENERGY PREDICTED BY IDOCK:   -6.37 KCAL/MOL
REMARK 923 INTER-LIGAND FREE ENERGY PREDICTED BY IDOCK:   -5.49 KCAL/MOL
REMARK 924 INTRA-LIGAND FREE ENERGY PREDICTED BY IDOCK:   -0.88 KCAL/MOL
REMARK 927      BINDING AFFINITY PREDICTED BY RF-SCORE:    0.00 PKD
ROOT
HETATM    1  C   UNL     1     -11.169  16.837  68.369  1.00  0.00    -0.176 C  
HETATM    2  N   UNL     1      -9.795  16.455  68.194  1.00  0.00    -0.234 N  
HETATM    3  C   UNL     1      -9.131  15.707  69.142  1.00  0.00    -0.256 C  
HETATM    4  H   UNL     1      -9.301  16.742  67.350  1.00  0.00     0.000 HD 
HETATM    5  O   UNL     1      -9.645  15.332  70.191  1.00  0.00    -0.100 OA 
ENDROOT
BRANCH   3   6
HETATM    6  C   UNL     1      -7.716  15.350  68.795  1.00  0.00    -0.150 A  
HETATM    7  N   UNL     1      -6.759  16.288  69.042  1.00  0.00    -0.169 NA 
HETATM    8  C   UNL     1      -5.502  15.969  68.659  1.00  0.00    -0.101 A  
HETATM    9  C   UNL     1      -5.161  14.789  68.010  1.00  0.00    -0.103 A  
HETATM   10  C   UNL     1      -6.168  13.866  67.753  1.00  0.00    -0.145 A  
HETATM   11  C   UNL     1      -7.462  14.125  68.203  1.00  0.00    -0.129 A  
BRANCH  10  12
HETATM   12  O   UNL     1      -5.814  12.720  67.063  1.00  0.00    -0.324 OA 
BRANCH  12  13
HETATM   13  C   UNL     1      -6.524  11.565  67.319  1.00  0.00    -0.110 A  
HETATM   14  C   UNL     1      -6.413  10.872  68.519  1.00  0.00    -0.054 A  
HETATM   15  C   UNL     1      -7.032   9.635  68.665  1.00  0.00    -0.064 A  
HETATM   16  C   UNL     1      -7.875   9.112  67.679  1.00  0.00    -0.096 A  
HETATM   17  C   UNL     1      -8.059   9.856  66.509  1.00  0.00    -0.117 A  
HETATM   18  C   UNL     1      -7.386  11.080  66.332  1.00  0.00    -0.128 A  
BRANCH  16  19
HETATM   19  N   UNL     1      -8.534   7.863  67.832  1.00  0.00    -0.125 N  
HETATM   20  H   UNL     1      -7.969   7.034  68.019  1.00  0.00     0.000 HD 
BRANCH  19  21
HETATM   21  C   UNL     1      -9.913   7.718  67.739  1.00  0.00    -0.174 C  
HETATM   22  O   UNL     1     -10.466   7.233  66.760  1.00  0.00    -0.286 OA 
BRANCH  21  23
HETATM   23  N   UNL     1     -10.606   8.180  68.843  1.00  0.00    -0.357 N  
HETATM   24  H   UNL     1     -11.013   9.115  68.804  1.00  0.00     0.000 HD 
BRANCH  23  25
HETATM   25  C   UNL     1     -10.781   7.412  70.036  1.00  0.00    -0.246 A  
HETATM   26  C   UNL     1     -10.066   6.237  70.295  1.00  0.00    -0.226 A  
HETATM   27  C   UNL     1     -10.314   5.425  71.416  1.00  0.00    -0.294 A  
HETATM   28  C   UNL     1      -9.567   4.128  71.567  1.00  0.00    -0.168 C  
HETATM   29  C   UNL     1     -11.267   5.855  72.335  1.00  0.00    -0.291 A  
HETATM   30  F   UNL     1     -10.390   3.043  71.627  1.00  0.00    -0.203 F  
HETATM   31  F   UNL     1      -8.795   4.086  72.688  1.00  0.00    -0.099 F  
HETATM   32  F   UNL     1      -8.712   3.867  70.536  1.00  0.00    -0.088 F  
HETATM   33 CL   UNL     1     -11.634   4.951  73.757  1.00  0.00     0.125 Cl 
HETATM   34  C   UNL     1     -11.957   7.057  72.123  1.00  0.00    -0.299 A  
HETATM   35  C   UNL     1     -11.721   7.832  70.978  1.00  0.00    -0.299 A  
ENDBRANCH  23  25
ENDBRANCH  21  23
ENDBRANCH  19  21
ENDBRANCH  16  19
ENDBRANCH  12  13
ENDBRANCH  10  12
ENDBRANCH   3   6
TORSDOF 7
ENDMDL
MODEL      329
REMARK 921   NORMALIZED FREE ENERGY PREDICTED BY IDOCK:   -3.19 KCAL/MOL
REMARK 922        TOTAL FREE ENERGY PREDICTED BY IDOCK:   -6.34 KCAL/MOL
REMARK 923 INTER-LIGAND FREE ENERGY PREDICTED BY IDOCK:   -6.28 KCAL/MOL
REMARK 924 INTRA-LIGAND FREE ENERGY PREDICTED BY IDOCK:   -0.07 KCAL/MOL
REMARK 927      BINDING AFFINITY PREDICTED BY RF-SCORE:    0.00 PKD
ROOT
HETATM    1  C   UNL     1     -12.671  14.075  65.025  1.00  0.00    -0.328 C  
HETATM    2  N   UNL     1     -11.538  14.769  65.572  1.00  0.00    -0.330 N  
HETATM    3  C   UNL     1     -11.023  15.894  64.966  1.00  0.00    -0.412 C  
HETATM    4  H   UNL     1     -11.105  14.421  66.427  1.00  0.00     0.000 HD 
HETATM    5  O   UNL     1     -11.472  16.370  63.929  1.00  0.00    -1.063 OA 
ENDROOT
BRANCH   3   6
HETATM    6  C   UNL     1      -9.868  16.531  65.680  1.00  0.00    -0.152 A  
HETATM    7  N   UNL     1      -9.861  17.891  65.764  1.00  0.00    -0.532 NA 
HETATM    8  C   UNL     1      -8.776  18.444  66.353  1.00  0.00    -0.247 A  
HETATM    9  C   UNL     1      -7.689  17.718  66.821  1.00  0.00    -0.258 A  
HETATM   10  C   UNL     1      -7.720  16.334  66.698  1.00  0.00    -0.251 A  
HETATM   11  C   UNL     1      -8.855  15.722  66.168  1.00  0.00    -0.346 A  
BRANCH  10  12
HETATM   12  O   UNL     1      -6.606  15.636  67.127  1.00  0.00    -0.269 OA 
BRANCH  12  13
HETATM   13  C   UNL     1      -6.804  14.411  67.733  1.00  0.00    -0.178 A  
HETATM   14  C   UNL     1      -5.846  13.403  67.710  1.00  0.00    -0.128 A  
HETATM   15  C   UNL     1      -6.156  12.140  68.201  1.00  0.00    -0.055 A  
HETATM   16  C   UNL     1      -7.374  11.877  68.838  1.00  0.00    -0.080 A  
HETATM   17  C   UNL     1      -8.300  12.919  68.942  1.00  0.00     0.276 A  
HETATM   18  C   UNL     1      -8.013  14.183  68.392  1.00  0.00    -0.142 A  
BRANCH  16  19
HETATM   19  N   UNL     1      -7.688  10.596  69.368  1.00  0.00    -0.220 N  
HETATM   20  H   UNL     1      -7.344  10.356  70.298  1.00  0.00     0.000 HD 
BRANCH  19  21
HETATM   21  C   UNL     1      -8.442   9.656  68.678  1.00  0.00    -0.119 C  
HETATM   22  O   UNL     1      -9.530   9.913  68.178  1.00  0.00    -0.138 OA 
BRANCH  21  23
HETATM   23  N   UNL     1      -7.863   8.401  68.615  1.00  0.00    -0.113 N  
HETATM   24  H   UNL     1      -7.098   8.253  67.957  1.00  0.00     0.000 HD 
BRANCH  23  25
HETATM   25  C   UNL     1      -8.285   7.302  69.426  1.00  0.00    -0.131 A  
HETATM   26  C   UNL     1      -7.490   6.171  69.645  1.00  0.00    -0.081 A  
HETATM   27  C   UNL     1      -7.946   5.045  70.353  1.00  0.00    -0.084 A  
HETATM   28  C   UNL     1      -7.061   3.832  70.458  1.00  0.00    -0.037 C  
HETATM   29  C   UNL     1      -9.218   5.098  70.913  1.00  0.00    -0.146 A  
HETATM   30  F   UNL     1      -7.630   2.710  69.935  1.00  0.00    -0.043 F  
HETATM   31  F   UNL     1      -6.725   3.529  71.743  1.00  0.00    -0.022 F  
HETATM   32  F   UNL     1      -5.872   3.965  69.802  1.00  0.00    -0.015 F  
HETATM   33 CL   UNL     1      -9.869   3.784  71.823  1.00  0.00    -0.245 Cl 
HETATM   34  C   UNL     1     -10.011   6.243  70.752  1.00  0.00    -0.220 A  
HETATM   35  C   UNL     1      -9.552   7.339  70.009  1.00  0.00    -0.167 A  
ENDBRANCH  23  25
ENDBRANCH  21  23
ENDBRANCH  19  21
ENDBRANCH  16  19
ENDBRANCH  12  13
ENDBRANCH  10  12
ENDBRANCH   3   6
TORSDOF 7
ENDMDL
MODEL      330
REMARK 921   NORMALIZED FREE ENERGY PREDICTED BY IDOCK:   -3.18 KCAL/MOL
REMARK 922        TOTAL FREE ENERGY PREDICTED BY IDOCK:   -6.33 KCAL/MOL
REMARK 923 INTER-LIGAND FREE ENERGY PREDICTED BY IDOCK:   -6.30 KCAL/MOL
REMARK 924 INTRA-LIGAND FREE ENERGY PREDICTED BY IDOCK:   -0.03 KCAL/MOL
REMARK 927      BINDING AFFINITY PREDICTED BY RF-SCORE:    0.00 PKD
ROOT
HETATM    1  C   UNL     1      -7.227  20.174  66.279  1.00  0.00    -0.281 C  
HETATM    2  N   UNL     1      -7.607  18.796  66.133  1.00  0.00    -0.271 N  
HETATM    3  C   UNL     1      -8.886  18.369  66.418  1.00  0.00    -0.248 C  
HETATM    4  H   UNL     1      -6.916  18.119  65.812  1.00  0.00     0.000 HD 
HETATM    5  O   UNL     1      -9.774  19.113  66.822  1.00  0.00    -0.307 OA 
ENDROOT
BRANCH   3   6
HETATM    6  C   UNL     1      -9.141  16.911  66.174  1.00  0.00    -0.230 A  
HETATM    7  N   UNL     1     -10.187  16.589  65.362  1.00  0.00    -0.603 NA 
HETATM    8  C   UNL     1     -10.437  15.268  65.212  1.00  0.00    -0.411 A  
HETATM    9  C   UNL     1      -9.729  14.263  65.858  1.00  0.00    -0.289 A  
HETATM   10  C   UNL     1      -8.684  14.630  66.697  1.00  0.00    -0.163 A  
HETATM   11  C   UNL     1      -8.345  15.977  66.816  1.00  0.00    -0.305 A  
BRANCH  10  12
HETATM   12  O   UNL     1      -8.024  13.615  67.367  1.00  0.00    -0.171 OA 
BRANCH  12  13
HETATM   13  C   UNL     1      -8.775  12.554  67.835  1.00  0.00    -0.180 A  
HETATM   14  C   UNL     1      -8.277  11.258  67.895  1.00  0.00    -0.123 A  
HETATM   15  C   UNL     1      -9.123  10.206  68.230  1.00  0.00    -0.122 A  
HETATM   16  C   UNL     1     -10.445  10.423  68.632  1.00  0.00    -0.196 A  
HETATM   17  C   UNL     1     -10.916  11.739  68.659  1.00  0.00    -0.269 A  
HETATM   18  C   UNL     1     -10.081  12.802  68.263  1.00  0.00    -0.237 A  
BRANCH  16  19
HETATM   19  N   UNL     1     -11.308   9.356  69.002  1.00  0.00    -0.441 N  
HETATM   20  H   UNL     1     -12.187   9.580  69.469  1.00  0.00     0.000 HD 
BRANCH  19  21
HETATM   21  C   UNL     1     -11.009   8.022  68.757  1.00  0.00     0.182 C  
HETATM   22  O   UNL     1     -10.736   7.595  67.642  1.00  0.00    -0.232 OA 
BRANCH  21  23
HETATM   23  N   UNL     1     -11.058   7.215  69.879  1.00  0.00    -0.345 N  
HETATM   24  H   UNL     1     -11.821   7.353  70.542  1.00  0.00     0.000 HD 
BRANCH  23  25
HETATM   25  C   UNL     1     -10.093   6.197  70.156  1.00  0.00    -0.184 A  
HETATM   26  C   UNL     1      -8.746   6.309  69.792  1.00  0.00    -0.137 A  
HETATM   27  C   UNL     1      -7.820   5.265  69.968  1.00  0.00    -0.080 A  
HETATM   28  C   UNL     1      -6.414   5.433  69.459  1.00  0.00    -0.038 C  
HETATM   29  C   UNL     1      -8.259   4.102  70.593  1.00  0.00    -0.066 A  
HETATM   30  F   UNL     1      -6.062   4.487  68.543  1.00  0.00    -0.026 F  
HETATM   31  F   UNL     1      -5.480   5.376  70.448  1.00  0.00    -0.004 F  
HETATM   32  F   UNL     1      -6.198   6.628  68.835  1.00  0.00    -0.022 F  
HETATM   33 CL   UNL     1      -7.203   2.769  70.882  1.00  0.00    -0.033 Cl 
HETATM   34  C   UNL     1      -9.592   3.990  71.015  1.00  0.00    -0.249 A  
HETATM   35  C   UNL     1     -10.508   5.028  70.795  1.00  0.00    -0.222 A  
ENDBRANCH  23  25
ENDBRANCH  21  23
ENDBRANCH  19  21
ENDBRANCH  16  19
ENDBRANCH  12  13
ENDBRANCH  10  12
ENDBRANCH   3   6
TORSDOF 7
ENDMDL
MODEL      331
REMARK 921   NORMALIZED FREE ENERGY PREDICTED BY IDOCK:   -3.16 KCAL/MOL
REMARK 922        TOTAL FREE ENERGY PREDICTED BY IDOCK:   -6.31 KCAL/MOL
REMARK 923 INTER-LIGAND FREE ENERGY PREDICTED BY IDOCK:   -6.02 KCAL/MOL
REMARK 924 INTRA-LIGAND FREE ENERGY PREDICTED BY IDOCK:   -0.28 KCAL/MOL
REMARK 927      BINDING AFFINITY PREDICTED BY RF-SCORE:    0.00 PKD
ROOT
HETATM    1  C   UNL     1     -12.409  12.078  63.110  1.00  0.00    -0.277 C  
HETATM    2  N   UNL     1     -11.545  12.997  63.797  1.00  0.00    -0.511 N  
HETATM    3  C   UNL     1     -12.000  13.763  64.848  1.00  0.00    -0.390 C  
HETATM    4  H   UNL     1     -10.573  13.084  63.501  1.00  0.00     0.000 HD 
HETATM    5  O   UNL     1     -13.155  13.731  65.259  1.00  0.00    -0.756 OA 
ENDROOT
BRANCH   3   6
HETATM    6  C   UNL     1     -10.968  14.641  65.491  1.00  0.00    -0.340 A  
HETATM    7  N   UNL     1     -11.006  15.970  65.192  1.00  0.00    -0.380 NA 
HETATM    8  C   UNL     1     -10.025  16.729  65.731  1.00  0.00    -0.215 A  
HETATM    9  C   UNL     1      -8.992  16.227  66.512  1.00  0.00    -0.313 A  
HETATM   10  C   UNL     1      -8.971  14.863  66.776  1.00  0.00    -0.268 A  
HETATM   11  C   UNL     1     -10.009  14.060  66.304  1.00  0.00    -0.317 A  
BRANCH  10  12
HETATM   12  O   UNL     1      -7.907  14.378  67.516  1.00  0.00    -0.163 OA 
BRANCH  12  13
HETATM   13  C   UNL     1      -7.812  13.013  67.696  1.00  0.00    -0.166 A  
HETATM   14  C   UNL     1      -8.816  12.269  68.306  1.00  0.00    -0.178 A  
HETATM   15  C   UNL     1      -8.603  10.927  68.599  1.00  0.00    -0.153 A  
HETATM   16  C   UNL     1      -7.446  10.257  68.186  1.00  0.00    -0.086 A  
HETATM   17  C   UNL     1      -6.478  10.986  67.490  1.00  0.00    -0.063 A  
HETATM   18  C   UNL     1      -6.662  12.360  67.245  1.00  0.00    -0.133 A  
BRANCH  16  19
HETATM   19  N   UNL     1      -7.234   8.878  68.457  1.00  0.00    -0.073 N  
HETATM   20  H   UNL     1      -8.042   8.256  68.481  1.00  0.00     0.000 HD 
BRANCH  19  21
HETATM   21  C   UNL     1      -5.975   8.338  68.689  1.00  0.00    -0.044 C  
HETATM   22  O   UNL     1      -5.218   8.763  69.553  1.00  0.00    -0.030 OA 
BRANCH  21  23
HETATM   23  N   UNL     1      -5.647   7.287  67.853  1.00  0.00    -0.024 N  
HETATM   24  H   UNL     1      -4.661   7.058  67.726  1.00  0.00     0.000 HD 
BRANCH  23  25
HETATM   25  C   UNL     1      -6.621   6.506  67.157  1.00  0.00    -0.055 A  
HETATM   26  C   UNL     1      -7.138   5.308  67.664  1.00  0.00    -0.067 A  
HETATM   27  C   UNL     1      -8.014   4.486  66.934  1.00  0.00    -0.102 A  
HETATM   28  C   UNL     1      -8.445   3.167  67.515  1.00  0.00    -0.091 C  
HETATM   29  C   UNL     1      -8.431   4.928  65.681  1.00  0.00    -0.124 A  
HETATM   30  F   UNL     1      -8.109   2.104  66.731  1.00  0.00    -0.071 F  
HETATM   31  F   UNL     1      -9.790   3.087  67.714  1.00  0.00    -0.230 F  
HETATM   32  F   UNL     1      -7.889   2.899  68.732  1.00  0.00    -0.053 F  
HETATM   33 CL   UNL     1      -9.524   4.012  64.710  1.00  0.00    -0.160 Cl 
HETATM   34  C   UNL     1      -7.969   6.151  65.177  1.00  0.00    -0.117 A  
HETATM   35  C   UNL     1      -7.065   6.937  65.905  1.00  0.00    -0.072 A  
ENDBRANCH  23  25
ENDBRANCH  21  23
ENDBRANCH  19  21
ENDBRANCH  16  19
ENDBRANCH  12  13
ENDBRANCH  10  12
ENDBRANCH   3   6
TORSDOF 7
ENDMDL
MODEL      332
REMARK 921   NORMALIZED FREE ENERGY PREDICTED BY IDOCK:   -3.16 KCAL/MOL
REMARK 922        TOTAL FREE ENERGY PREDICTED BY IDOCK:   -6.30 KCAL/MOL
REMARK 923 INTER-LIGAND FREE ENERGY PREDICTED BY IDOCK:   -5.60 KCAL/MOL
REMARK 924 INTRA-LIGAND FREE ENERGY PREDICTED BY IDOCK:   -0.70 KCAL/MOL
REMARK 927      BINDING AFFINITY PREDICTED BY RF-SCORE:    0.00 PKD
ROOT
HETATM    1  C   UNL     1     -11.620   6.243  70.241  1.00  0.00    -0.309 C  
HETATM    2  N   UNL     1     -10.465   6.030  69.414  1.00  0.00    -0.236 N  
HETATM    3  C   UNL     1      -9.205   5.906  69.958  1.00  0.00    -0.148 C  
HETATM    4  H   UNL     1     -10.579   5.968  68.403  1.00  0.00     0.000 HD 
HETATM    5  O   UNL     1      -8.976   5.982  71.161  1.00  0.00    -0.138 OA 
ENDROOT
BRANCH   3   6
HETATM    6  C   UNL     1      -8.107   5.643  68.971  1.00  0.00    -0.097 A  
HETATM    7  N   UNL     1      -7.801   4.340  68.712  1.00  0.00    -0.072 NA 
HETATM    8  C   UNL     1      -6.764   4.130  67.871  1.00  0.00    -0.047 A  
HETATM    9  C   UNL     1      -5.996   5.143  67.311  1.00  0.00    -0.026 A  
HETATM   10  C   UNL     1      -6.322   6.459  67.616  1.00  0.00    -0.040 A  
HETATM   11  C   UNL     1      -7.434   6.719  68.416  1.00  0.00    -0.095 A  
BRANCH  10  12
HETATM   12  O   UNL     1      -5.515   7.450  67.085  1.00  0.00    -0.027 OA 
BRANCH  12  13
HETATM   13  C   UNL     1      -5.985   8.748  67.106  1.00  0.00    -0.053 A  
HETATM   14  C   UNL     1      -6.757   9.278  66.080  1.00  0.00    -0.077 A  
HETATM   15  C   UNL     1      -7.074  10.632  66.079  1.00  0.00    -0.127 A  
HETATM   16  C   UNL     1      -6.741  11.467  67.152  1.00  0.00    -0.129 A  
HETATM   17  C   UNL     1      -6.044  10.909  68.227  1.00  0.00    -0.049 A  
HETATM   18  C   UNL     1      -5.669   9.552  68.204  1.00  0.00    -0.040 A  
BRANCH  16  19
HETATM   19  N   UNL     1      -7.086  12.845  67.171  1.00  0.00    -0.363 N  
HETATM   20  H   UNL     1      -7.944  13.140  66.705  1.00  0.00     0.000 HD 
BRANCH  19  21
HETATM   21  C   UNL     1      -6.306  13.811  67.797  1.00  0.00    -0.162 C  
HETATM   22  O   UNL     1      -5.137  14.019  67.498  1.00  0.00    -0.324 OA 
BRANCH  21  23
HETATM   23  N   UNL     1      -6.963  14.508  68.795  1.00  0.00    -0.098 N  
HETATM   24  H   UNL     1      -6.970  14.115  69.737  1.00  0.00     0.000 HD 
BRANCH  23  25
HETATM   25  C   UNL     1      -7.631  15.752  68.573  1.00  0.00    -0.138 A  
HETATM   26  C   UNL     1      -7.004  16.992  68.741  1.00  0.00    -0.211 A  
HETATM   27  C   UNL     1      -7.690  18.214  68.627  1.00  0.00    -0.309 A  
HETATM   28  C   UNL     1      -6.962  19.498  68.920  1.00  0.00    -0.351 C  
HETATM   29  C   UNL     1      -9.033  18.178  68.263  1.00  0.00    -0.296 A  
HETATM   30  F   UNL     1      -7.533  20.216  69.929  1.00  0.00    -0.205 F  
HETATM   31  F   UNL     1      -6.899  20.332  67.845  1.00  0.00    -0.280 F  
HETATM   32  F   UNL     1      -5.665  19.316  69.305  1.00  0.00    -0.212 F  
HETATM   33 CL   UNL     1      -9.964  19.617  68.069  1.00  0.00    -0.508 Cl 
HETATM   34  C   UNL     1      -9.667  16.948  68.035  1.00  0.00    -0.256 A  
HETATM   35  C   UNL     1      -8.974  15.740  68.193  1.00  0.00    -0.180 A  
ENDBRANCH  23  25
ENDBRANCH  21  23
ENDBRANCH  19  21
ENDBRANCH  16  19
ENDBRANCH  12  13
ENDBRANCH  10  12
ENDBRANCH   3   6
TORSDOF 7
ENDMDL
MODEL      333
REMARK 921   NORMALIZED FREE ENERGY PREDICTED BY IDOCK:   -3.11 KCAL/MOL
REMARK 922        TOTAL FREE ENERGY PREDICTED BY IDOCK:   -6.24 KCAL/MOL
REMARK 923 INTER-LIGAND FREE ENERGY PREDICTED BY IDOCK:   -5.19 KCAL/MOL
REMARK 924 INTRA-LIGAND FREE ENERGY PREDICTED BY IDOCK:   -1.05 KCAL/MOL
REMARK 927      BINDING AFFINITY PREDICTED BY RF-SCORE:    0.00 PKD
ROOT
HETATM    1  C   UNL     1     -12.283  13.720  66.538  1.00  0.00    -0.430 C  
HETATM    2  N   UNL     1     -10.893  13.760  66.900  1.00  0.00    -0.283 N  
HETATM    3  C   UNL     1     -10.181  14.940  66.886  1.00  0.00    -0.254 C  
HETATM    4  H   UNL     1     -10.424  12.898  67.174  1.00  0.00     0.000 HD 
HETATM    5  O   UNL     1     -10.663  16.018  66.557  1.00  0.00    -0.306 OA 
ENDROOT
BRANCH   3   6
HETATM    6  C   UNL     1      -8.753  14.827  67.333  1.00  0.00    -0.198 A  
HETATM    7  N   UNL     1      -8.114  15.982  67.673  1.00  0.00    -0.144 NA 
HETATM    8  C   UNL     1      -6.809  15.862  68.007  1.00  0.00    -0.125 A  
HETATM    9  C   UNL     1      -6.104  14.666  67.979  1.00  0.00    -0.164 A  
HETATM   10  C   UNL     1      -6.782  13.512  67.603  1.00  0.00    -0.167 A  
HETATM   11  C   UNL     1      -8.147  13.582  67.328  1.00  0.00    -0.141 A  
BRANCH  10  12
HETATM   12  O   UNL     1      -6.048  12.341  67.535  1.00  0.00    -0.107 OA 
BRANCH  12  13
HETATM   13  C   UNL     1      -6.557  11.222  68.163  1.00  0.00    -0.057 A  
HETATM   14  C   UNL     1      -7.051  10.130  67.459  1.00  0.00    -0.087 A  
HETATM   15  C   UNL     1      -7.689   9.098  68.137  1.00  0.00    -0.092 A  
HETATM   16  C   UNL     1      -7.745   9.060  69.535  1.00  0.00    -0.082 A  
HETATM   17  C   UNL     1      -7.165  10.115  70.245  1.00  0.00    -0.131 A  
HETATM   18  C   UNL     1      -6.571  11.192  69.560  1.00  0.00    -0.126 A  
BRANCH  16  19
HETATM   19  N   UNL     1      -8.371   7.995  70.237  1.00  0.00    -0.123 N  
HETATM   20  H   UNL     1      -7.836   7.142  70.407  1.00  0.00     0.000 HD 
BRANCH  19  21
HETATM   21  C   UNL     1      -9.678   8.061  70.704  1.00  0.00    -0.173 C  
HETATM   22  O   UNL     1     -10.107   9.010  71.349  1.00  0.00    -0.279 OA 
BRANCH  21  23
HETATM   23  N   UNL     1     -10.449   6.957  70.388  1.00  0.00    -0.202 N  
HETATM   24  H   UNL     1     -11.204   6.695  71.022  1.00  0.00     0.000 HD 
BRANCH  23  25
HETATM   25  C   UNL     1     -10.240   6.165  69.216  1.00  0.00    -0.201 A  
HETATM   26  C   UNL     1     -10.001   4.787  69.265  1.00  0.00    -0.254 A  
HETATM   27  C   UNL     1      -9.689   4.028  68.123  1.00  0.00    -0.138 A  
HETATM   28  C   UNL     1      -9.349   2.570  68.277  1.00  0.00    -0.205 C  
HETATM   29  C   UNL     1      -9.688   4.673  66.890  1.00  0.00    -0.197 A  
HETATM   30  F   UNL     1      -8.106   2.260  67.813  1.00  0.00    -0.062 F  
HETATM   31  F   UNL     1     -10.218   1.749  67.623  1.00  0.00     0.263 F  
HETATM   32  F   UNL     1      -9.362   2.140  69.573  1.00  0.00    -0.155 F  
HETATM   33 CL   UNL     1      -9.344   3.834  65.422  1.00  0.00    -0.151 Cl 
HETATM   34  C   UNL     1      -9.979   6.043  66.812  1.00  0.00    -0.215 A  
HETATM   35  C   UNL     1     -10.249   6.789  67.968  1.00  0.00    -0.200 A  
ENDBRANCH  23  25
ENDBRANCH  21  23
ENDBRANCH  19  21
ENDBRANCH  16  19
ENDBRANCH  12  13
ENDBRANCH  10  12
ENDBRANCH   3   6
TORSDOF 7
ENDMDL
MODEL      334
REMARK 921   NORMALIZED FREE ENERGY PREDICTED BY IDOCK:   -3.11 KCAL/MOL
REMARK 922        TOTAL FREE ENERGY PREDICTED BY IDOCK:   -6.23 KCAL/MOL
REMARK 923 INTER-LIGAND FREE ENERGY PREDICTED BY IDOCK:   -6.19 KCAL/MOL
REMARK 924 INTRA-LIGAND FREE ENERGY PREDICTED BY IDOCK:   -0.05 KCAL/MOL
REMARK 927      BINDING AFFINITY PREDICTED BY RF-SCORE:    0.00 PKD
ROOT
HETATM    1  C   UNL     1     -11.650  15.184  65.149  1.00  0.00    -0.245 C  
HETATM    2  N   UNL     1     -10.464  15.348  65.944  1.00  0.00    -0.319 N  
HETATM    3  C   UNL     1      -9.843  16.572  66.064  1.00  0.00    -0.322 C  
HETATM    4  H   UNL     1     -10.074  14.541  66.430  1.00  0.00     0.000 HD 
HETATM    5  O   UNL     1     -10.237  17.589  65.502  1.00  0.00    -0.608 OA 
ENDROOT
BRANCH   3   6
HETATM    6  C   UNL     1      -8.643  16.592  66.962  1.00  0.00    -0.195 A  
HETATM    7  N   UNL     1      -8.447  17.711  67.715  1.00  0.00    -0.224 NA 
HETATM    8  C   UNL     1      -7.323  17.733  68.466  1.00  0.00    -0.266 A  
HETATM    9  C   UNL     1      -6.370  16.722  68.472  1.00  0.00    -0.149 A  
HETATM   10  C   UNL     1      -6.591  15.606  67.673  1.00  0.00    -0.172 A  
HETATM   11  C   UNL     1      -7.776  15.512  66.945  1.00  0.00    -0.200 A  
BRANCH  10  12
HETATM   12  O   UNL     1      -5.606  14.635  67.658  1.00  0.00    -0.308 OA 
BRANCH  12  13
HETATM   13  C   UNL     1      -5.977  13.333  67.928  1.00  0.00    -0.138 A  
HETATM   14  C   UNL     1      -5.866  12.314  66.989  1.00  0.00    -0.042 A  
HETATM   15  C   UNL     1      -6.395  11.058  67.262  1.00  0.00    -0.069 A  
HETATM   16  C   UNL     1      -6.937  10.743  68.513  1.00  0.00    -0.068 A  
HETATM   17  C   UNL     1      -6.964  11.745  69.488  1.00  0.00     0.027 A  
HETATM   18  C   UNL     1      -6.483  13.035  69.196  1.00  0.00    -0.108 A  
BRANCH  16  19
HETATM   19  N   UNL     1      -7.455   9.454  68.810  1.00  0.00    -0.075 N  
HETATM   20  H   UNL     1      -7.922   9.310  69.705  1.00  0.00     0.000 HD 
BRANCH  19  21
HETATM   21  C   UNL     1      -7.354   8.378  67.935  1.00  0.00    -0.096 C  
HETATM   22  O   UNL     1      -7.112   8.512  66.742  1.00  0.00    -0.072 OA 
BRANCH  21  23
HETATM   23  N   UNL     1      -7.564   7.146  68.526  1.00  0.00    -0.112 N  
HETATM   24  H   UNL     1      -7.136   6.324  68.100  1.00  0.00     0.000 HD 
BRANCH  23  25
HETATM   25  C   UNL     1      -8.352   6.967  69.705  1.00  0.00    -0.132 A  
HETATM   26  C   UNL     1      -9.581   7.608  69.902  1.00  0.00    -0.160 A  
HETATM   27  C   UNL     1     -10.304   7.517  71.105  1.00  0.00    -0.208 A  
HETATM   28  C   UNL     1     -11.567   8.317  71.269  1.00  0.00    -0.281 C  
HETATM   29  C   UNL     1      -9.799   6.696  72.109  1.00  0.00    -0.156 A  
HETATM   30  F   UNL     1     -11.519   9.181  72.322  1.00  0.00    -0.423 F  
HETATM   31  F   UNL     1     -12.669   7.539  71.461  1.00  0.00    -0.323 F  
HETATM   32  F   UNL     1     -11.866   9.094  70.186  1.00  0.00    -0.186 F  
HETATM   33 CL   UNL     1     -10.616   6.490  73.615  1.00  0.00    -0.313 Cl 
HETATM   34  C   UNL     1      -8.597   6.001  71.912  1.00  0.00    -0.137 A  
HETATM   35  C   UNL     1      -7.873   6.137  70.720  1.00  0.00    -0.103 A  
ENDBRANCH  23  25
ENDBRANCH  21  23
ENDBRANCH  19  21
ENDBRANCH  16  19
ENDBRANCH  12  13
ENDBRANCH  10  12
ENDBRANCH   3   6
TORSDOF 7
ENDMDL
MODEL      335
REMARK 921   NORMALIZED FREE ENERGY PREDICTED BY IDOCK:   -3.10 KCAL/MOL
REMARK 922        TOTAL FREE ENERGY PREDICTED BY IDOCK:   -6.22 KCAL/MOL
REMARK 923 INTER-LIGAND FREE ENERGY PREDICTED BY IDOCK:   -4.85 KCAL/MOL
REMARK 924 INTRA-LIGAND FREE ENERGY PREDICTED BY IDOCK:   -1.37 KCAL/MOL
REMARK 927      BINDING AFFINITY PREDICTED BY RF-SCORE:    0.00 PKD
ROOT
HETATM    1  C   UNL     1      -8.509   4.173  68.429  1.00  0.00    -0.092 C  
HETATM    2  N   UNL     1      -8.358   5.191  67.426  1.00  0.00    -0.107 N  
HETATM    3  C   UNL     1      -8.360   4.882  66.083  1.00  0.00    -0.112 C  
HETATM    4  H   UNL     1      -8.248   6.162  67.714  1.00  0.00     0.000 HD 
HETATM    5  O   UNL     1      -8.472   3.739  65.651  1.00  0.00    -0.108 OA 
ENDROOT
BRANCH   3   6
HETATM    6  C   UNL     1      -8.237   6.057  65.159  1.00  0.00    -0.142 A  
HETATM    7  N   UNL     1      -8.295   5.805  63.821  1.00  0.00    -0.071 NA 
HETATM    8  C   UNL     1      -8.115   6.871  63.008  1.00  0.00    -0.022 A  
HETATM    9  C   UNL     1      -7.841   8.156  63.457  1.00  0.00    -0.152 A  
HETATM   10  C   UNL     1      -7.766   8.371  64.828  1.00  0.00    -0.109 A  
HETATM   11  C   UNL     1      -8.024   7.313  65.700  1.00  0.00    -0.123 A  
BRANCH  10  12
HETATM   12  O   UNL     1      -7.445   9.648  65.251  1.00  0.00    -0.104 OA 
BRANCH  12  13
HETATM   13  C   UNL     1      -8.481  10.514  65.541  1.00  0.00    -0.173 A  
HETATM   14  C   UNL     1      -9.058  10.590  66.803  1.00  0.00    -0.167 A  
HETATM   15  C   UNL     1     -10.196  11.365  66.999  1.00  0.00    -0.246 A  
HETATM   16  C   UNL     1     -10.717  12.179  65.987  1.00  0.00    -0.273 A  
HETATM   17  C   UNL     1     -10.077  12.170  64.743  1.00  0.00    -0.276 A  
HETATM   18  C   UNL     1      -8.961  11.341  64.523  1.00  0.00     0.085 A  
BRANCH  16  19
HETATM   19  N   UNL     1     -11.862  12.995  66.187  1.00  0.00    -0.390 N  
HETATM   20  H   UNL     1     -12.718  12.558  66.528  1.00  0.00     0.000 HD 
BRANCH  19  21
HETATM   21  C   UNL     1     -11.869  14.363  65.941  1.00  0.00    -0.367 C  
HETATM   22  O   UNL     1     -11.937  14.835  64.813  1.00  0.00    -0.411 OA 
BRANCH  21  23
HETATM   23  N   UNL     1     -11.779  15.143  67.079  1.00  0.00    -0.194 N  
HETATM   24  H   UNL     1     -12.641  15.510  67.485  1.00  0.00     0.000 HD 
BRANCH  23  25
HETATM   25  C   UNL     1     -10.539  15.462  67.716  1.00  0.00    -0.274 A  
HETATM   26  C   UNL     1      -9.332  14.837  67.381  1.00  0.00    -0.199 A  
HETATM   27  C   UNL     1      -8.134  15.073  68.079  1.00  0.00    -0.132 A  
HETATM   28  C   UNL     1      -6.903  14.286  67.718  1.00  0.00    -0.175 C  
HETATM   29  C   UNL     1      -8.148  16.020  69.099  1.00  0.00    -0.238 A  
HETATM   30  F   UNL     1      -6.407  13.564  68.762  1.00  0.00    -0.076 F  
HETATM   31  F   UNL     1      -5.882  15.071  67.274  1.00  0.00    -0.078 F  
HETATM   32  F   UNL     1      -7.110  13.376  66.722  1.00  0.00     0.107 F  
HETATM   33 CL   UNL     1      -6.731  16.406  70.004  1.00  0.00     0.067 Cl 
HETATM   34  C   UNL     1      -9.335  16.697  69.414  1.00  0.00     0.003 A  
HETATM   35  C   UNL     1     -10.527  16.419  68.731  1.00  0.00    -0.300 A  
ENDBRANCH  23  25
ENDBRANCH  21  23
ENDBRANCH  19  21
ENDBRANCH  16  19
ENDBRANCH  12  13
ENDBRANCH  10  12
ENDBRANCH   3   6
TORSDOF 7
ENDMDL
MODEL      336
REMARK 921   NORMALIZED FREE ENERGY PREDICTED BY IDOCK:   -3.09 KCAL/MOL
REMARK 922        TOTAL FREE ENERGY PREDICTED BY IDOCK:   -6.20 KCAL/MOL
REMARK 923 INTER-LIGAND FREE ENERGY PREDICTED BY IDOCK:   -5.68 KCAL/MOL
REMARK 924 INTRA-LIGAND FREE ENERGY PREDICTED BY IDOCK:   -0.52 KCAL/MOL
REMARK 927      BINDING AFFINITY PREDICTED BY RF-SCORE:    0.00 PKD
ROOT
HETATM    1  C   UNL     1     -10.806   3.320  63.457  1.00  0.00    -0.206 C  
HETATM    2  N   UNL     1     -10.408   3.100  64.820  1.00  0.00    -0.390 N  
HETATM    3  C   UNL     1      -9.607   3.999  65.489  1.00  0.00    -0.189 C  
HETATM    4  H   UNL     1     -10.726   2.260  65.302  1.00  0.00     0.000 HD 
HETATM    5  O   UNL     1      -9.170   5.026  64.980  1.00  0.00    -0.146 OA 
ENDROOT
BRANCH   3   6
HETATM    6  C   UNL     1      -9.315   3.652  66.918  1.00  0.00    -0.194 A  
HETATM    7  N   UNL     1      -9.634   2.393  67.331  1.00  0.00     0.007 NA 
HETATM    8  C   UNL     1      -9.424   2.125  68.640  1.00  0.00    -0.137 A  
HETATM    9  C   UNL     1      -8.955   3.055  69.560  1.00  0.00    -0.174 A  
HETATM   10  C   UNL     1      -8.663   4.337  69.108  1.00  0.00    -0.085 A  
HETATM   11  C   UNL     1      -8.792   4.627  67.750  1.00  0.00    -0.115 A  
BRANCH  10  12
HETATM   12  O   UNL     1      -8.243   5.259  70.050  1.00  0.00    -0.082 OA 
BRANCH  12  13
HETATM   13  C   UNL     1      -8.138   6.579  69.661  1.00  0.00    -0.125 A  
HETATM   14  C   UNL     1      -9.061   7.545  70.043  1.00  0.00    -0.148 A  
HETATM   15  C   UNL     1      -8.993   8.823  69.499  1.00  0.00    -0.145 A  
HETATM   16  C   UNL     1      -7.941   9.212  68.662  1.00  0.00    -0.101 A  
HETATM   17  C   UNL     1      -6.962   8.263  68.354  1.00  0.00    -0.073 A  
HETATM   18  C   UNL     1      -7.060   6.951  68.854  1.00  0.00    -0.089 A  
BRANCH  16  19
HETATM   19  N   UNL     1      -7.848  10.524  68.125  1.00  0.00    -0.107 N  
HETATM   20  H   UNL     1      -7.886  11.317  68.766  1.00  0.00     0.000 HD 
BRANCH  19  21
HETATM   21  C   UNL     1      -7.708  10.777  66.765  1.00  0.00    -0.136 C  
HETATM   22  O   UNL     1      -6.725  10.430  66.122  1.00  0.00    -0.101 OA 
BRANCH  21  23
HETATM   23  N   UNL     1      -8.769  11.464  66.205  1.00  0.00    -0.182 N  
HETATM   24  H   UNL     1      -8.987  11.303  65.222  1.00  0.00     0.000 HD 
BRANCH  23  25
HETATM   25  C   UNL     1      -9.577  12.390  66.937  1.00  0.00    -0.219 A  
HETATM   26  C   UNL     1      -9.202  13.722  67.149  1.00  0.00    -0.245 A  
HETATM   27  C   UNL     1      -9.942  14.602  67.957  1.00  0.00    -0.220 A  
HETATM   28  C   UNL     1      -9.416  15.989  68.212  1.00  0.00    -0.206 C  
HETATM   29  C   UNL     1     -11.133  14.137  68.508  1.00  0.00    -0.255 A  
HETATM   30  F   UNL     1      -9.219  16.250  69.535  1.00  0.00    -0.235 F  
HETATM   31  F   UNL     1     -10.245  16.966  67.748  1.00  0.00    -0.266 F  
HETATM   32  F   UNL     1      -8.212  16.234  67.619  1.00  0.00    -0.147 F  
HETATM   33 CL   UNL     1     -12.133  15.139  69.495  1.00  0.00    -0.332 Cl 
HETATM   34  C   UNL     1     -11.555  12.823  68.264  1.00  0.00    -0.375 A  
HETATM   35  C   UNL     1     -10.782  11.950  67.486  1.00  0.00    -0.263 A  
ENDBRANCH  23  25
ENDBRANCH  21  23
ENDBRANCH  19  21
ENDBRANCH  16  19
ENDBRANCH  12  13
ENDBRANCH  10  12
ENDBRANCH   3   6
TORSDOF 7
ENDMDL
MODEL      337
REMARK 921   NORMALIZED FREE ENERGY PREDICTED BY IDOCK:   -3.08 KCAL/MOL
REMARK 922        TOTAL FREE ENERGY PREDICTED BY IDOCK:   -6.19 KCAL/MOL
REMARK 923 INTER-LIGAND FREE ENERGY PREDICTED BY IDOCK:   -6.79 KCAL/MOL
REMARK 924 INTRA-LIGAND FREE ENERGY PREDICTED BY IDOCK:    0.60 KCAL/MOL
REMARK 927      BINDING AFFINITY PREDICTED BY RF-SCORE:    0.00 PKD
ROOT
HETATM    1  C   UNL     1      -5.382   7.894  65.741  1.00  0.00    -0.029 C  
HETATM    2  N   UNL     1      -6.338   8.815  65.192  1.00  0.00    -0.060 N  
HETATM    3  C   UNL     1      -7.530   8.380  64.656  1.00  0.00    -0.098 C  
HETATM    4  H   UNL     1      -6.130   9.813  65.201  1.00  0.00     0.000 HD 
HETATM    5  O   UNL     1      -7.853   7.199  64.592  1.00  0.00    -0.113 OA 
ENDROOT
BRANCH   3   6
HETATM    6  C   UNL     1      -8.442   9.465  64.164  1.00  0.00    -0.190 A  
HETATM    7  N   UNL     1      -8.500   9.667  62.818  1.00  0.00    -0.162 NA 
HETATM    8  C   UNL     1      -9.276  10.694  62.404  1.00  0.00    -0.266 A  
HETATM    9  C   UNL     1      -9.959  11.549  63.260  1.00  0.00    -0.435 A  
HETATM   10  C   UNL     1      -9.857  11.328  64.629  1.00  0.00    -0.268 A  
HETATM   11  C   UNL     1      -9.129  10.231  65.090  1.00  0.00    -0.234 A  
BRANCH  10  12
HETATM   12  O   UNL     1     -10.505  12.220  65.463  1.00  0.00    -0.250 OA 
BRANCH  12  13
HETATM   13  C   UNL     1     -10.925  11.764  66.697  1.00  0.00    -0.294 A  
HETATM   14  C   UNL     1     -10.674  10.471  67.139  1.00  0.00    -0.323 A  
HETATM   15  C   UNL     1     -11.250  10.018  68.321  1.00  0.00    -0.195 A  
HETATM   16  C   UNL     1     -11.985  10.867  69.155  1.00  0.00    -0.288 A  
HETATM   17  C   UNL     1     -12.159  12.195  68.752  1.00  0.00    -0.166 A  
HETATM   18  C   UNL     1     -11.628  12.641  67.527  1.00  0.00    -0.418 A  
BRANCH  16  19
HETATM   19  N   UNL     1     -12.553  10.420  70.378  1.00  0.00    -0.473 N  
HETATM   20  H   UNL     1     -13.510  10.697  70.601  1.00  0.00     0.000 HD 
BRANCH  19  21
HETATM   21  C   UNL     1     -11.866   9.622  71.285  1.00  0.00    -0.381 C  
HETATM   22  O   UNL     1     -12.374   9.196  72.314  1.00  0.00    -0.359 OA 
BRANCH  21  23
HETATM   23  N   UNL     1     -10.555   9.362  70.929  1.00  0.00    -0.295 N  
HETATM   24  H   UNL     1      -9.911  10.148  70.841  1.00  0.00     0.000 HD 
BRANCH  23  25
HETATM   25  C   UNL     1     -10.058   8.045  70.678  1.00  0.00    -0.194 A  
HETATM   26  C   UNL     1      -8.722   7.684  70.889  1.00  0.00    -0.138 A  
HETATM   27  C   UNL     1      -8.210   6.421  70.542  1.00  0.00    -0.118 A  
HETATM   28  C   UNL     1      -6.740   6.150  70.712  1.00  0.00    -0.061 C  
HETATM   29  C   UNL     1      -9.095   5.477  70.030  1.00  0.00    -0.135 A  
HETATM   30  F   UNL     1      -6.122   5.808  69.547  1.00  0.00    -0.022 F  
HETATM   31  F   UNL     1      -6.484   5.141  71.592  1.00  0.00    -0.027 F  
HETATM   32  F   UNL     1      -6.038   7.220  71.186  1.00  0.00    -0.035 F  
HETATM   33 CL   UNL     1      -8.580   3.889  69.593  1.00  0.00    -0.098 Cl 
HETATM   34  C   UNL     1     -10.449   5.799  69.860  1.00  0.00    -0.360 A  
HETATM   35  C   UNL     1     -10.930   7.077  70.177  1.00  0.00    -0.306 A  
ENDBRANCH  23  25
ENDBRANCH  21  23
ENDBRANCH  19  21
ENDBRANCH  16  19
ENDBRANCH  12  13
ENDBRANCH  10  12
ENDBRANCH   3   6
TORSDOF 7
ENDMDL
MODEL      338
REMARK 921   NORMALIZED FREE ENERGY PREDICTED BY IDOCK:   -3.07 KCAL/MOL
REMARK 922        TOTAL FREE ENERGY PREDICTED BY IDOCK:   -6.18 KCAL/MOL
REMARK 923 INTER-LIGAND FREE ENERGY PREDICTED BY IDOCK:   -5.46 KCAL/MOL
REMARK 924 INTRA-LIGAND FREE ENERGY PREDICTED BY IDOCK:   -0.71 KCAL/MOL
REMARK 927      BINDING AFFINITY PREDICTED BY RF-SCORE:    0.00 PKD
ROOT
HETATM    1  C   UNL     1     -10.946   4.147  64.627  1.00  0.00    -0.027 C  
HETATM    2  N   UNL     1      -9.719   4.400  65.330  1.00  0.00    -0.185 N  
HETATM    3  C   UNL     1      -9.630   5.385  66.289  1.00  0.00    -0.160 C  
HETATM    4  H   UNL     1      -8.896   3.837  65.116  1.00  0.00     0.000 HD 
HETATM    5  O   UNL     1     -10.566   6.116  66.598  1.00  0.00    -0.251 OA 
ENDROOT
BRANCH   3   6
HETATM    6  C   UNL     1      -8.296   5.498  66.966  1.00  0.00    -0.107 A  
HETATM    7  N   UNL     1      -7.346   4.582  66.626  1.00  0.00    -0.080 NA 
HETATM    8  C   UNL     1      -6.175   4.663  67.298  1.00  0.00    -0.039 A  
HETATM    9  C   UNL     1      -5.921   5.577  68.313  1.00  0.00    -0.017 A  
HETATM   10  C   UNL     1      -6.923   6.481  68.650  1.00  0.00    -0.080 A  
HETATM   11  C   UNL     1      -8.114   6.480  67.925  1.00  0.00    -0.116 A  
BRANCH  10  12
HETATM   12  O   UNL     1      -6.665   7.350  69.695  1.00  0.00    -0.039 OA 
BRANCH  12  13
HETATM   13  C   UNL     1      -6.543   8.694  69.404  1.00  0.00    -0.045 A  
HETATM   14  C   UNL     1      -6.841   9.687  70.329  1.00  0.00    -0.107 A  
HETATM   15  C   UNL     1      -6.848  11.021  69.936  1.00  0.00    -0.097 A  
HETATM   16  C   UNL     1      -6.441  11.414  68.656  1.00  0.00    -0.059 A  
HETATM   17  C   UNL     1      -6.053  10.418  67.756  1.00  0.00    -0.052 A  
HETATM   18  C   UNL     1      -6.102   9.061  68.131  1.00  0.00    -0.050 A  
BRANCH  16  19
HETATM   19  N   UNL     1      -6.419  12.777  68.256  1.00  0.00    -0.075 N  
HETATM   20  H   UNL     1      -5.515  13.237  68.143  1.00  0.00     0.000 HD 
BRANCH  19  21
HETATM   21  C   UNL     1      -7.572  13.513  68.010  1.00  0.00    -0.143 C  
HETATM   22  O   UNL     1      -8.196  13.440  66.960  1.00  0.00    -0.142 OA 
BRANCH  21  23
HETATM   23  N   UNL     1      -7.945  14.344  69.051  1.00  0.00    -0.272 N  
HETATM   24  H   UNL     1      -8.353  13.922  69.886  1.00  0.00     0.000 HD 
BRANCH  23  25
HETATM   25  C   UNL     1      -7.787  15.764  69.015  1.00  0.00    -0.206 A  
HETATM   26  C   UNL     1      -8.838  16.637  68.711  1.00  0.00    -0.264 A  
HETATM   27  C   UNL     1      -8.659  18.025  68.570  1.00  0.00    -0.306 A  
HETATM   28  C   UNL     1      -9.822  18.879  68.145  1.00  0.00    -0.368 C  
HETATM   29  C   UNL     1      -7.392  18.548  68.814  1.00  0.00    -0.290 A  
HETATM   30  F   UNL     1      -9.587  19.563  66.989  1.00  0.00    -0.340 F  
HETATM   31  F   UNL     1     -10.168  19.810  69.077  1.00  0.00    -0.500 F  
HETATM   32  F   UNL     1     -10.964  18.169  67.911  1.00  0.00    -0.397 F  
HETATM   33 CL   UNL     1      -7.065  20.237  68.696  1.00  0.00    -0.231 Cl 
HETATM   34  C   UNL     1      -6.337  17.697  69.174  1.00  0.00    -0.232 A  
HETATM   35  C   UNL     1      -6.529  16.312  69.271  1.00  0.00    -0.188 A  
ENDBRANCH  23  25
ENDBRANCH  21  23
ENDBRANCH  19  21
ENDBRANCH  16  19
ENDBRANCH  12  13
ENDBRANCH  10  12
ENDBRANCH   3   6
TORSDOF 7
ENDMDL
MODEL      339
REMARK 921   NORMALIZED FREE ENERGY PREDICTED BY IDOCK:   -3.07 KCAL/MOL
REMARK 922        TOTAL FREE ENERGY PREDICTED BY IDOCK:   -6.18 KCAL/MOL
REMARK 923 INTER-LIGAND FREE ENERGY PREDICTED BY IDOCK:   -5.85 KCAL/MOL
REMARK 924 INTRA-LIGAND FREE ENERGY PREDICTED BY IDOCK:   -0.33 KCAL/MOL
REMARK 927      BINDING AFFINITY PREDICTED BY RF-SCORE:    0.00 PKD
ROOT
HETATM    1  C   UNL     1     -10.029  18.269  67.225  1.00  0.00    -0.335 C  
HETATM    2  N   UNL     1     -10.538  17.116  67.914  1.00  0.00    -0.370 N  
HETATM    3  C   UNL     1     -10.814  15.943  67.246  1.00  0.00    -0.279 C  
HETATM    4  H   UNL     1     -10.699  17.166  68.920  1.00  0.00     0.000 HD 
HETATM    5  O   UNL     1     -10.664  15.801  66.037  1.00  0.00    -0.323 OA 
ENDROOT
BRANCH   3   6
HETATM    6  C   UNL     1     -11.297  14.816  68.109  1.00  0.00    -0.307 A  
HETATM    7  N   UNL     1     -11.913  15.147  69.279  1.00  0.00    -0.309 NA 
HETATM    8  C   UNL     1     -12.279  14.114  70.071  1.00  0.00    -0.357 A  
HETATM    9  C   UNL     1     -12.025  12.780  69.778  1.00  0.00    -0.362 A  
HETATM   10  C   UNL     1     -11.373  12.481  68.587  1.00  0.00    -0.288 A  
HETATM   11  C   UNL     1     -11.051  13.514  67.708  1.00  0.00    -0.291 A  
BRANCH  10  12
HETATM   12  O   UNL     1     -11.089  11.150  68.339  1.00  0.00    -0.207 OA 
BRANCH  12  13
HETATM   13  C   UNL     1     -10.167  10.858  67.353  1.00  0.00    -0.201 A  
HETATM   14  C   UNL     1      -8.798  10.998  67.546  1.00  0.00    -0.131 A  
HETATM   15  C   UNL     1      -7.926  10.838  66.475  1.00  0.00    -0.144 A  
HETATM   16  C   UNL     1      -8.374  10.415  65.219  1.00  0.00    -0.166 A  
HETATM   17  C   UNL     1      -9.743  10.185  65.052  1.00  0.00    -0.384 A  
HETATM   18  C   UNL     1     -10.636  10.404  66.118  1.00  0.00    -0.160 A  
BRANCH  16  19
HETATM   19  N   UNL     1      -7.486  10.221  64.126  1.00  0.00    -0.264 N  
HETATM   20  H   UNL     1      -7.188  11.037  63.591  1.00  0.00     0.000 HD 
BRANCH  19  21
HETATM   21  C   UNL     1      -7.006   8.972  63.754  1.00  0.00    -0.088 C  
HETATM   22  O   UNL     1      -6.170   8.816  62.872  1.00  0.00    -0.090 OA 
BRANCH  21  23
HETATM   23  N   UNL     1      -7.562   7.919  64.457  1.00  0.00    -0.103 N  
HETATM   24  H   UNL     1      -8.338   8.115  65.090  1.00  0.00     0.000 HD 
BRANCH  23  25
HETATM   25  C   UNL     1      -7.104   6.570  64.340  1.00  0.00    -0.064 A  
HETATM   26  C   UNL     1      -7.969   5.489  64.135  1.00  0.00    -0.120 A  
HETATM   27  C   UNL     1      -7.531   4.153  64.128  1.00  0.00    -0.070 A  
HETATM   28  C   UNL     1      -8.542   3.046  63.999  1.00  0.00    -0.089 C  
HETATM   29  C   UNL     1      -6.167   3.913  64.263  1.00  0.00    -0.023 A  
HETATM   30  F   UNL     1      -8.525   2.182  65.054  1.00  0.00    -0.084 F  
HETATM   31  F   UNL     1      -8.362   2.289  62.881  1.00  0.00    -0.069 F  
HETATM   32  F   UNL     1      -9.831   3.489  63.924  1.00  0.00    -0.128 F  
HETATM   33 CL   UNL     1      -5.516   2.315  64.243  1.00  0.00    -0.008 Cl 
HETATM   34  C   UNL     1      -5.275   4.984  64.415  1.00  0.00    -0.009 A  
HETATM   35  C   UNL     1      -5.738   6.307  64.459  1.00  0.00    -0.022 A  
ENDBRANCH  23  25
ENDBRANCH  21  23
ENDBRANCH  19  21
ENDBRANCH  16  19
ENDBRANCH  12  13
ENDBRANCH  10  12
ENDBRANCH   3   6
TORSDOF 7
ENDMDL
MODEL      340
REMARK 921   NORMALIZED FREE ENERGY PREDICTED BY IDOCK:   -3.05 KCAL/MOL
REMARK 922        TOTAL FREE ENERGY PREDICTED BY IDOCK:   -6.15 KCAL/MOL
REMARK 923 INTER-LIGAND FREE ENERGY PREDICTED BY IDOCK:   -5.16 KCAL/MOL
REMARK 924 INTRA-LIGAND FREE ENERGY PREDICTED BY IDOCK:   -0.99 KCAL/MOL
REMARK 927      BINDING AFFINITY PREDICTED BY RF-SCORE:    0.00 PKD
ROOT
HETATM    1  C   UNL     1      -7.564   2.745  63.526  1.00  0.00    -0.063 C  
HETATM    2  N   UNL     1      -7.358   3.898  64.357  1.00  0.00    -0.066 N  
HETATM    3  C   UNL     1      -6.504   4.912  63.981  1.00  0.00    -0.037 C  
HETATM    4  H   UNL     1      -7.855   3.968  65.244  1.00  0.00     0.000 HD 
HETATM    5  O   UNL     1      -5.857   4.901  62.939  1.00  0.00    -0.016 OA 
ENDROOT
BRANCH   3   6
HETATM    6  C   UNL     1      -6.430   6.068  64.933  1.00  0.00    -0.038 A  
HETATM    7  N   UNL     1      -6.043   7.271  64.423  1.00  0.00    -0.037 NA 
HETATM    8  C   UNL     1      -5.918   8.282  65.313  1.00  0.00    -0.045 A  
HETATM    9  C   UNL     1      -6.118   8.144  66.681  1.00  0.00    -0.053 A  
HETATM   10  C   UNL     1      -6.488   6.897  67.169  1.00  0.00    -0.049 A  
HETATM   11  C   UNL     1      -6.703   5.850  66.273  1.00  0.00    -0.060 A  
BRANCH  10  12
HETATM   12  O   UNL     1      -6.634   6.771  68.539  1.00  0.00    -0.053 OA 
BRANCH  12  13
HETATM   13  C   UNL     1      -7.856   7.101  69.092  1.00  0.00    -0.118 A  
HETATM   14  C   UNL     1      -9.003   7.260  68.325  1.00  0.00    -0.125 A  
HETATM   15  C   UNL     1     -10.169   7.740  68.912  1.00  0.00    -0.220 A  
HETATM   16  C   UNL     1     -10.264   7.957  70.291  1.00  0.00    -0.200 A  
HETATM   17  C   UNL     1      -9.133   7.707  71.075  1.00  0.00    -0.150 A  
HETATM   18  C   UNL     1      -7.933   7.278  70.475  1.00  0.00    -0.104 A  
BRANCH  16  19
HETATM   19  N   UNL     1     -11.459   8.421  70.903  1.00  0.00    -0.269 N  
HETATM   20  H   UNL     1     -11.988   7.776  71.491  1.00  0.00     0.000 HD 
BRANCH  19  21
HETATM   21  C   UNL     1     -11.941   9.714  70.737  1.00  0.00    -0.277 C  
HETATM   22  O   UNL     1     -13.136   9.982  70.727  1.00  0.00    -0.341 OA 
BRANCH  21  23
HETATM   23  N   UNL     1     -10.955  10.669  70.573  1.00  0.00    -0.425 N  
HETATM   24  H   UNL     1     -10.148  10.646  71.197  1.00  0.00     0.000 HD 
BRANCH  23  25
HETATM   25  C   UNL     1     -11.010  11.688  69.571  1.00  0.00    -0.098 A  
HETATM   26  C   UNL     1     -10.117  11.743  68.494  1.00  0.00    -0.212 A  
HETATM   27  C   UNL     1     -10.103  12.803  67.570  1.00  0.00    -0.213 A  
HETATM   28  C   UNL     1      -9.046  12.834  66.500  1.00  0.00    -0.147 C  
HETATM   29  C   UNL     1     -11.067  13.798  67.703  1.00  0.00    -0.273 A  
HETATM   30  F   UNL     1      -8.270  13.953  66.549  1.00  0.00    -0.034 F  
HETATM   31  F   UNL     1      -9.562  12.779  65.241  1.00  0.00    -0.193 F  
HETATM   32  F   UNL     1      -8.167  11.791  66.569  1.00  0.00    -0.168 F  
HETATM   33 CL   UNL     1     -11.157  15.130  66.612  1.00  0.00    -0.327 Cl 
HETATM   34  C   UNL     1     -12.006  13.733  68.743  1.00  0.00    -0.400 A  
HETATM   35  C   UNL     1     -11.977  12.688  69.676  1.00  0.00    -0.352 A  
ENDBRANCH  23  25
ENDBRANCH  21  23
ENDBRANCH  19  21
ENDBRANCH  16  19
ENDBRANCH  12  13
ENDBRANCH  10  12
ENDBRANCH   3   6
TORSDOF 7
ENDMDL
MODEL      341
REMARK 921   NORMALIZED FREE ENERGY PREDICTED BY IDOCK:   -2.98 KCAL/MOL
REMARK 922        TOTAL FREE ENERGY PREDICTED BY IDOCK:   -6.05 KCAL/MOL
REMARK 923 INTER-LIGAND FREE ENERGY PREDICTED BY IDOCK:   -6.08 KCAL/MOL
REMARK 924 INTRA-LIGAND FREE ENERGY PREDICTED BY IDOCK:    0.02 KCAL/MOL
REMARK 927      BINDING AFFINITY PREDICTED BY RF-SCORE:    0.00 PKD
ROOT
HETATM    1  C   UNL     1      -6.557  20.109  65.834  1.00  0.00    -0.233 C  
HETATM    2  N   UNL     1      -7.616  19.139  65.885  1.00  0.00    -0.261 N  
HETATM    3  C   UNL     1      -7.446  17.921  66.507  1.00  0.00    -0.246 C  
HETATM    4  H   UNL     1      -8.513  19.357  65.453  1.00  0.00     0.000 HD 
HETATM    5  O   UNL     1      -6.397  17.573  67.039  1.00  0.00    -0.138 OA 
ENDROOT
BRANCH   3   6
HETATM    6  C   UNL     1      -8.656  17.036  66.517  1.00  0.00    -0.270 A  
HETATM    7  N   UNL     1      -9.653  17.334  65.637  1.00  0.00    -0.494 NA 
HETATM    8  C   UNL     1     -10.761  16.563  65.711  1.00  0.00    -0.225 A  
HETATM    9  C   UNL     1     -10.942  15.545  66.638  1.00  0.00    -0.248 A  
HETATM   10  C   UNL     1      -9.913  15.284  67.537  1.00  0.00    -0.226 A  
HETATM   11  C   UNL     1      -8.724  16.006  67.440  1.00  0.00    -0.195 A  
BRANCH  10  12
HETATM   12  O   UNL     1     -10.134  14.298  68.482  1.00  0.00    -0.235 OA 
BRANCH  12  13
HETATM   13  C   UNL     1     -10.237  12.993  68.043  1.00  0.00    -0.233 A  
HETATM   14  C   UNL     1     -11.299  12.169  68.397  1.00  0.00    -0.336 A  
HETATM   15  C   UNL     1     -11.275  10.821  68.054  1.00  0.00    -0.372 A  
HETATM   16  C   UNL     1     -10.264  10.284  67.250  1.00  0.00    -0.218 A  
HETATM   17  C   UNL     1      -9.244  11.138  66.818  1.00  0.00    -0.183 A  
HETATM   18  C   UNL     1      -9.233  12.489  67.213  1.00  0.00    -0.190 A  
BRANCH  16  19
HETATM   19  N   UNL     1     -10.246   8.915  66.872  1.00  0.00    -0.266 N  
HETATM   20  H   UNL     1     -11.031   8.548  66.332  1.00  0.00     0.000 HD 
BRANCH  19  21
HETATM   21  C   UNL     1      -9.209   8.051  67.203  1.00  0.00    -0.142 C  
HETATM   22  O   UNL     1      -8.117   8.079  66.650  1.00  0.00    -0.100 OA 
BRANCH  21  23
HETATM   23  N   UNL     1      -9.522   7.149  68.204  1.00  0.00    -0.132 N  
HETATM   24  H   UNL     1     -10.270   7.388  68.856  1.00  0.00     0.000 HD 
BRANCH  23  25
HETATM   25  C   UNL     1      -8.850   5.899  68.371  1.00  0.00    -0.111 A  
HETATM   26  C   UNL     1      -9.266   4.929  69.290  1.00  0.00    -0.160 A  
HETATM   27  C   UNL     1      -8.544   3.746  69.529  1.00  0.00    -0.106 A  
HETATM   28  C   UNL     1      -9.009   2.803  70.605  1.00  0.00    -0.100 C  
HETATM   29  C   UNL     1      -7.405   3.511  68.764  1.00  0.00    -0.050 A  
HETATM   30  F   UNL     1      -8.074   2.596  71.574  1.00  0.00    -0.052 F  
HETATM   31  F   UNL     1      -9.344   1.573  70.125  1.00  0.00    -0.131 F  
HETATM   32  F   UNL     1     -10.119   3.238  71.270  1.00  0.00    -0.240 F  
HETATM   33 CL   UNL     1      -6.458   2.082  68.957  1.00  0.00    -0.029 Cl 
HETATM   34  C   UNL     1      -7.000   4.444  67.799  1.00  0.00    -0.056 A  
HETATM   35  C   UNL     1      -7.713   5.635  67.604  1.00  0.00    -0.097 A  
ENDBRANCH  23  25
ENDBRANCH  21  23
ENDBRANCH  19  21
ENDBRANCH  16  19
ENDBRANCH  12  13
ENDBRANCH  10  12
ENDBRANCH   3   6
TORSDOF 7
ENDMDL
MODEL      342
REMARK 921   NORMALIZED FREE ENERGY PREDICTED BY IDOCK:   -2.97 KCAL/MOL
REMARK 922        TOTAL FREE ENERGY PREDICTED BY IDOCK:   -6.03 KCAL/MOL
REMARK 923 INTER-LIGAND FREE ENERGY PREDICTED BY IDOCK:   -5.88 KCAL/MOL
REMARK 924 INTRA-LIGAND FREE ENERGY PREDICTED BY IDOCK:   -0.15 KCAL/MOL
REMARK 927      BINDING AFFINITY PREDICTED BY RF-SCORE:    0.00 PKD
ROOT
HETATM    1  C   UNL     1      -6.951  20.355  65.666  1.00  0.00    -0.229 C  
HETATM    2  N   UNL     1      -7.280  18.958  65.727  1.00  0.00    -0.246 N  
HETATM    3  C   UNL     1      -8.456  18.520  66.296  1.00  0.00    -0.207 C  
HETATM    4  H   UNL     1      -6.629  18.276  65.340  1.00  0.00     0.000 HD 
HETATM    5  O   UNL     1      -9.286  19.271  66.797  1.00  0.00    -0.302 OA 
ENDROOT
BRANCH   3   6
HETATM    6  C   UNL     1      -8.676  17.038  66.244  1.00  0.00    -0.250 A  
HETATM    7  N   UNL     1      -9.783  16.595  65.585  1.00  0.00    -0.548 NA 
HETATM    8  C   UNL     1      -9.995  15.260  65.610  1.00  0.00    -0.364 A  
HETATM    9  C   UNL     1      -9.188  14.355  66.287  1.00  0.00    -0.202 A  
HETATM   10  C   UNL     1      -8.080  14.845  66.969  1.00  0.00    -0.166 A  
HETATM   11  C   UNL     1      -7.784  16.206  66.901  1.00  0.00    -0.284 A  
BRANCH  10  12
HETATM   12  O   UNL     1      -7.318  13.932  67.676  1.00  0.00    -0.147 OA 
BRANCH  12  13
HETATM   13  C   UNL     1      -7.898  12.722  68.004  1.00  0.00    -0.150 A  
HETATM   14  C   UNL     1      -7.240  11.510  67.835  1.00  0.00    -0.085 A  
HETATM   15  C   UNL     1      -7.924  10.316  68.038  1.00  0.00    -0.101 A  
HETATM   16  C   UNL     1      -9.233  10.292  68.530  1.00  0.00    -0.144 A  
HETATM   17  C   UNL     1      -9.861  11.514  68.787  1.00  0.00    -0.153 A  
HETATM   18  C   UNL     1      -9.193  12.726  68.526  1.00  0.00    -0.062 A  
BRANCH  16  19
HETATM   19  N   UNL     1      -9.929   9.076  68.766  1.00  0.00    -0.176 N  
HETATM   20  H   UNL     1     -10.187   8.840  69.725  1.00  0.00     0.000 HD 
BRANCH  19  21
HETATM   21  C   UNL     1     -10.276   8.193  67.750  1.00  0.00    -0.228 C  
HETATM   22  O   UNL     1     -10.740   8.561  66.679  1.00  0.00    -0.191 OA 
BRANCH  21  23
HETATM   23  N   UNL     1     -10.063   6.862  68.060  1.00  0.00    -0.158 N  
HETATM   24  H   UNL     1     -10.454   6.498  68.930  1.00  0.00     0.000 HD 
BRANCH  23  25
HETATM   25  C   UNL     1      -9.322   5.971  67.223  1.00  0.00    -0.113 A  
HETATM   26  C   UNL     1      -9.882   5.332  66.110  1.00  0.00    -0.186 A  
HETATM   27  C   UNL     1      -9.185   4.376  65.351  1.00  0.00    -0.153 A  
HETATM   28  C   UNL     1      -9.895   3.665  64.231  1.00  0.00    -0.184 C  
HETATM   29  C   UNL     1      -7.861   4.112  65.689  1.00  0.00    -0.090 A  
HETATM   30  F   UNL     1      -9.924   2.312  64.391  1.00  0.00    -0.139 F  
HETATM   31  F   UNL     1      -9.330   3.895  63.013  1.00  0.00    -0.098 F  
HETATM   32  F   UNL     1     -11.202   4.033  64.091  1.00  0.00    -0.297 F  
HETATM   33 CL   UNL     1      -6.905   2.976  64.811  1.00  0.00    -0.040 Cl 
HETATM   34  C   UNL     1      -7.263   4.781  66.766  1.00  0.00    -0.080 A  
HETATM   35  C   UNL     1      -7.988   5.703  67.534  1.00  0.00    -0.102 A  
ENDBRANCH  23  25
ENDBRANCH  21  23
ENDBRANCH  19  21
ENDBRANCH  16  19
ENDBRANCH  12  13
ENDBRANCH  10  12
ENDBRANCH   3   6
TORSDOF 7
ENDMDL
MODEL      343
REMARK 921   NORMALIZED FREE ENERGY PREDICTED BY IDOCK:   -2.90 KCAL/MOL
REMARK 922        TOTAL FREE ENERGY PREDICTED BY IDOCK:   -5.93 KCAL/MOL
REMARK 923 INTER-LIGAND FREE ENERGY PREDICTED BY IDOCK:   -5.34 KCAL/MOL
REMARK 924 INTRA-LIGAND FREE ENERGY PREDICTED BY IDOCK:   -0.59 KCAL/MOL
REMARK 927      BINDING AFFINITY PREDICTED BY RF-SCORE:    0.00 PKD
ROOT
HETATM    1  C   UNL     1     -12.468  15.257  64.301  1.00  0.00     0.004 C  
HETATM    2  N   UNL     1     -11.477  14.256  64.583  1.00  0.00    -0.422 N  
HETATM    3  C   UNL     1     -11.825  12.939  64.791  1.00  0.00    -0.363 C  
HETATM    4  H   UNL     1     -10.495  14.525  64.630  1.00  0.00     0.000 HD 
HETATM    5  O   UNL     1     -12.982  12.532  64.767  1.00  0.00    -0.827 OA 
ENDROOT
BRANCH   3   6
HETATM    6  C   UNL     1     -10.676  12.006  65.030  1.00  0.00    -0.296 A  
HETATM    7  N   UNL     1     -10.737  10.778  64.442  1.00  0.00    -0.203 NA 
HETATM    8  C   UNL     1      -9.722   9.932  64.727  1.00  0.00    -0.235 A  
HETATM    9  C   UNL     1      -8.679  10.229  65.594  1.00  0.00    -0.176 A  
HETATM   10  C   UNL     1      -8.662  11.483  66.195  1.00  0.00    -0.131 A  
HETATM   11  C   UNL     1      -9.648  12.411  65.865  1.00  0.00    -0.193 A  
BRANCH  10  12
HETATM   12  O   UNL     1      -7.640  11.740  67.093  1.00  0.00    -0.141 OA 
BRANCH  12  13
HETATM   13  C   UNL     1      -7.463  10.859  68.141  1.00  0.00    -0.091 A  
HETATM   14  C   UNL     1      -8.366  10.761  69.193  1.00  0.00    -0.111 A  
HETATM   15  C   UNL     1      -8.062   9.970  70.296  1.00  0.00    -0.010 A  
HETATM   16  C   UNL     1      -6.920   9.163  70.331  1.00  0.00    -0.071 A  
HETATM   17  C   UNL     1      -6.059   9.194  69.230  1.00  0.00    -0.041 A  
HETATM   18  C   UNL     1      -6.333  10.039  68.137  1.00  0.00    -0.054 A  
BRANCH  16  19
HETATM   19  N   UNL     1      -6.616   8.330  71.442  1.00  0.00    -0.046 N  
HETATM   20  H   UNL     1      -5.818   7.698  71.374  1.00  0.00     0.000 HD 
BRANCH  19  21
HETATM   21  C   UNL     1      -7.357   8.338  72.618  1.00  0.00    -0.105 C  
HETATM   22  O   UNL     1      -6.906   8.737  73.685  1.00  0.00    -0.322 OA 
BRANCH  21  23
HETATM   23  N   UNL     1      -8.642   7.846  72.481  1.00  0.00    -0.136 N  
HETATM   24  H   UNL     1      -9.406   8.511  72.365  1.00  0.00     0.000 HD 
BRANCH  23  25
HETATM   25  C   UNL     1      -8.951   6.450  72.493  1.00  0.00    -0.136 A  
HETATM   26  C   UNL     1      -8.260   5.512  71.718  1.00  0.00    -0.119 A  
HETATM   27  C   UNL     1      -8.634   4.158  71.649  1.00  0.00    -0.125 A  
HETATM   28  C   UNL     1      -7.898   3.237  70.714  1.00  0.00    -0.046 C  
HETATM   29  C   UNL     1      -9.694   3.731  72.443  1.00  0.00    -0.151 A  
HETATM   30  F   UNL     1      -8.710   2.657  69.786  1.00  0.00    -0.083 F  
HETATM   31  F   UNL     1      -7.265   2.218  71.360  1.00  0.00    -0.030 F  
HETATM   32  F   UNL     1      -6.921   3.859  69.990  1.00  0.00    -0.038 F  
HETATM   33 CL   UNL     1     -10.220   2.089  72.455  1.00  0.00    -0.218 Cl 
HETATM   34  C   UNL     1     -10.365   4.644  73.269  1.00  0.00    -0.236 A  
HETATM   35  C   UNL     1     -10.002   5.997  73.293  1.00  0.00    -0.189 A  
ENDBRANCH  23  25
ENDBRANCH  21  23
ENDBRANCH  19  21
ENDBRANCH  16  19
ENDBRANCH  12  13
ENDBRANCH  10  12
ENDBRANCH   3   6
TORSDOF 7
ENDMDL
MODEL      344
REMARK 921   NORMALIZED FREE ENERGY PREDICTED BY IDOCK:   -2.82 KCAL/MOL
REMARK 922        TOTAL FREE ENERGY PREDICTED BY IDOCK:   -5.82 KCAL/MOL
REMARK 923 INTER-LIGAND FREE ENERGY PREDICTED BY IDOCK:   -4.52 KCAL/MOL
REMARK 924 INTRA-LIGAND FREE ENERGY PREDICTED BY IDOCK:   -1.30 KCAL/MOL
REMARK 927      BINDING AFFINITY PREDICTED BY RF-SCORE:    0.00 PKD
ROOT
HETATM    1  C   UNL     1     -11.650  11.462  63.273  1.00  0.00     0.124 C  
HETATM    2  N   UNL     1     -10.889  10.897  64.353  1.00  0.00    -0.300 N  
HETATM    3  C   UNL     1     -10.567  11.637  65.470  1.00  0.00    -0.279 C  
HETATM    4  H   UNL     1     -10.581   9.927  64.293  1.00  0.00     0.000 HD 
HETATM    5  O   UNL     1     -10.884  12.813  65.618  1.00  0.00    -0.267 OA 
ENDROOT
BRANCH   3   6
HETATM    6  C   UNL     1      -9.808  10.896  66.530  1.00  0.00    -0.204 A  
HETATM    7  N   UNL     1      -8.693  10.218  66.138  1.00  0.00    -0.148 NA 
HETATM    8  C   UNL     1      -8.064   9.502  67.098  1.00  0.00    -0.106 A  
HETATM    9  C   UNL     1      -8.512   9.395  68.409  1.00  0.00    -0.120 A  
HETATM   10  C   UNL     1      -9.667  10.081  68.767  1.00  0.00    -0.171 A  
HETATM   11  C   UNL     1     -10.298  10.893  67.825  1.00  0.00    -0.218 A  
BRANCH  10  12
HETATM   12  O   UNL     1     -10.120   9.922  70.064  1.00  0.00    -0.240 OA 
BRANCH  12  13
HETATM   13  C   UNL     1      -9.849   8.728  70.702  1.00  0.00    -0.194 A  
HETATM   14  C   UNL     1     -10.600   7.579  70.486  1.00  0.00    -0.232 A  
HETATM   15  C   UNL     1     -10.380   6.449  71.266  1.00  0.00    -0.244 A  
HETATM   16  C   UNL     1      -9.333   6.387  72.193  1.00  0.00    -0.149 A  
HETATM   17  C   UNL     1      -8.521   7.514  72.343  1.00  0.00    -0.134 A  
HETATM   18  C   UNL     1      -8.777   8.681  71.597  1.00  0.00    -0.270 A  
BRANCH  16  19
HETATM   19  N   UNL     1      -9.085   5.227  72.974  1.00  0.00    -0.125 N  
HETATM   20  H   UNL     1      -8.530   5.322  73.826  1.00  0.00     0.000 HD 
BRANCH  19  21
HETATM   21  C   UNL     1      -9.562   3.967  72.632  1.00  0.00    -0.136 C  
HETATM   22  O   UNL     1     -10.689   3.583  72.918  1.00  0.00    -0.161 OA 
BRANCH  21  23
HETATM   23  N   UNL     1      -8.649   3.181  71.953  1.00  0.00    -0.075 N  
HETATM   24  H   UNL     1      -8.479   2.234  72.290  1.00  0.00     0.000 HD 
BRANCH  23  25
HETATM   25  C   UNL     1      -7.932   3.632  70.801  1.00  0.00    -0.054 A  
HETATM   26  C   UNL     1      -8.555   3.900  69.575  1.00  0.00    -0.107 A  
HETATM   27  C   UNL     1      -7.837   4.239  68.415  1.00  0.00    -0.074 A  
HETATM   28  C   UNL     1      -8.576   4.414  67.116  1.00  0.00    -0.104 C  
HETATM   29  C   UNL     1      -6.456   4.378  68.518  1.00  0.00    -0.037 A  
HETATM   30  F   UNL     1      -8.148   3.565  66.140  1.00  0.00    -0.089 F  
HETATM   31  F   UNL     1      -8.465   5.673  66.606  1.00  0.00    -0.111 F  
HETATM   32  F   UNL     1      -9.919   4.190  67.217  1.00  0.00    -0.231 F  
HETATM   33 CL   UNL     1      -5.480   4.814  67.165  1.00  0.00    -0.012 Cl 
HETATM   34  C   UNL     1      -5.818   4.167  69.749  1.00  0.00    -0.018 A  
HETATM   35  C   UNL     1      -6.548   3.792  70.885  1.00  0.00    -0.031 A  
ENDBRANCH  23  25
ENDBRANCH  21  23
ENDBRANCH  19  21
ENDBRANCH  16  19
ENDBRANCH  12  13
ENDBRANCH  10  12
ENDBRANCH   3   6
TORSDOF 7
ENDMDL
MODEL      345
REMARK 921   NORMALIZED FREE ENERGY PREDICTED BY IDOCK:   -2.76 KCAL/MOL
REMARK 922        TOTAL FREE ENERGY PREDICTED BY IDOCK:   -5.73 KCAL/MOL
REMARK 923 INTER-LIGAND FREE ENERGY PREDICTED BY IDOCK:   -4.73 KCAL/MOL
REMARK 924 INTRA-LIGAND FREE ENERGY PREDICTED BY IDOCK:   -1.00 KCAL/MOL
REMARK 927      BINDING AFFINITY PREDICTED BY RF-SCORE:    0.00 PKD
ROOT
HETATM    1  C   UNL     1     -10.449   4.369  71.641  1.00  0.00     0.034 C  
HETATM    2  N   UNL     1     -10.200   5.730  71.254  1.00  0.00    -0.207 N  
HETATM    3  C   UNL     1      -8.921   6.190  71.026  1.00  0.00    -0.143 C  
HETATM    4  H   UNL     1     -10.986   6.369  71.146  1.00  0.00     0.000 HD 
HETATM    5  O   UNL     1      -7.919   5.493  71.147  1.00  0.00    -0.105 OA 
ENDROOT
BRANCH   3   6
HETATM    6  C   UNL     1      -8.827   7.621  70.587  1.00  0.00    -0.145 A  
HETATM    7  N   UNL     1      -9.976   8.354  70.603  1.00  0.00    -0.182 NA 
HETATM    8  C   UNL     1      -9.879   9.620  70.139  1.00  0.00    -0.262 A  
HETATM    9  C   UNL     1      -8.714  10.175  69.625  1.00  0.00    -0.176 A  
HETATM   10  C   UNL     1      -7.567   9.389  69.601  1.00  0.00    -0.095 A  
HETATM   11  C   UNL     1      -7.608   8.106  70.144  1.00  0.00    -0.077 A  
BRANCH  10  12
HETATM   12  O   UNL     1      -6.432   9.946  69.041  1.00  0.00    -0.047 OA 
BRANCH  12  13
HETATM   13  C   UNL     1      -6.363  11.322  68.948  1.00  0.00    -0.055 A  
HETATM   14  C   UNL     1      -5.958  12.122  70.009  1.00  0.00    -0.156 A  
HETATM   15  C   UNL     1      -6.054  13.506  69.911  1.00  0.00    -0.127 A  
HETATM   16  C   UNL     1      -6.435  14.135  68.721  1.00  0.00    -0.091 A  
HETATM   17  C   UNL     1      -6.755  13.328  67.624  1.00  0.00    -0.171 A  
HETATM   18  C   UNL     1      -6.716  11.925  67.739  1.00  0.00    -0.087 A  
BRANCH  16  19
HETATM   19  N   UNL     1      -6.509  15.549  68.603  1.00  0.00    -0.100 N  
HETATM   20  H   UNL     1      -6.587  16.105  69.455  1.00  0.00     0.000 HD 
BRANCH  19  21
HETATM   21  C   UNL     1      -6.480  16.209  67.381  1.00  0.00    -0.182 C  
HETATM   22  O   UNL     1      -5.462  16.320  66.709  1.00  0.00    -0.339 OA 
BRANCH  21  23
HETATM   23  N   UNL     1      -7.697  16.740  66.995  1.00  0.00    -0.176 N  
HETATM   24  H   UNL     1      -7.738  17.730  66.749  1.00  0.00     0.000 HD 
BRANCH  23  25
HETATM   25  C   UNL     1      -8.900  15.972  66.924  1.00  0.00    -0.231 A  
HETATM   26  C   UNL     1      -9.167  15.073  65.884  1.00  0.00    -0.158 A  
HETATM   27  C   UNL     1     -10.394  14.398  65.757  1.00  0.00    -0.340 A  
HETATM   28  C   UNL     1     -10.634  13.525  64.556  1.00  0.00    -0.424 C  
HETATM   29  C   UNL     1     -11.349  14.588  66.751  1.00  0.00    -0.352 A  
HETATM   30  F   UNL     1     -11.712  13.915  63.819  1.00  0.00    -0.385 F  
HETATM   31  F   UNL     1     -10.844  12.219  64.881  1.00  0.00    -0.299 F  
HETATM   32  F   UNL     1      -9.590  13.508  63.676  1.00  0.00     0.773 F  
HETATM   33 CL   UNL     1     -12.879  13.791  66.709  1.00  0.00     0.135 Cl 
HETATM   34  C   UNL     1     -11.082  15.442  67.830  1.00  0.00    -0.323 A  
HETATM   35  C   UNL     1      -9.867  16.136  67.917  1.00  0.00    -0.235 A  
ENDBRANCH  23  25
ENDBRANCH  21  23
ENDBRANCH  19  21
ENDBRANCH  16  19
ENDBRANCH  12  13
ENDBRANCH  10  12
ENDBRANCH   3   6
TORSDOF 7
ENDMDL
MODEL      346
REMARK 921   NORMALIZED FREE ENERGY PREDICTED BY IDOCK:   -2.67 KCAL/MOL
REMARK 922        TOTAL FREE ENERGY PREDICTED BY IDOCK:   -5.61 KCAL/MOL
REMARK 923 INTER-LIGAND FREE ENERGY PREDICTED BY IDOCK:   -4.34 KCAL/MOL
REMARK 924 INTRA-LIGAND FREE ENERGY PREDICTED BY IDOCK:   -1.26 KCAL/MOL
REMARK 927      BINDING AFFINITY PREDICTED BY RF-SCORE:    0.00 PKD
ROOT
HETATM    1  C   UNL     1      -6.091  14.922  67.455  1.00  0.00     0.026 C  
HETATM    2  N   UNL     1      -7.136  13.937  67.449  1.00  0.00    -0.293 N  
HETATM    3  C   UNL     1      -7.012  12.752  68.141  1.00  0.00    -0.096 C  
HETATM    4  H   UNL     1      -7.990  14.119  66.921  1.00  0.00     0.000 HD 
HETATM    5  O   UNL     1      -6.016  12.448  68.788  1.00  0.00    -0.061 OA 
ENDROOT
BRANCH   3   6
HETATM    6  C   UNL     1      -8.205  11.846  68.073  1.00  0.00    -0.157 A  
HETATM    7  N   UNL     1      -9.226  12.221  67.252  1.00  0.00    -0.179 NA 
HETATM    8  C   UNL     1     -10.318  11.423  67.259  1.00  0.00    -0.198 A  
HETATM    9  C   UNL     1     -10.460  10.304  68.069  1.00  0.00    -0.234 A  
HETATM   10  C   UNL     1      -9.408   9.965  68.913  1.00  0.00    -0.170 A  
HETATM   11  C   UNL     1      -8.234  10.718  68.875  1.00  0.00    -0.149 A  
BRANCH  10  12
HETATM   12  O   UNL     1      -9.590   8.875  69.745  1.00  0.00    -0.164 OA 
BRANCH  12  13
HETATM   13  C   UNL     1      -9.758   7.636  69.159  1.00  0.00    -0.164 A  
HETATM   14  C   UNL     1     -10.614   6.674  69.683  1.00  0.00    -0.276 A  
HETATM   15  C   UNL     1     -10.630   5.392  69.143  1.00  0.00    -0.241 A  
HETATM   16  C   UNL     1      -9.894   5.066  67.998  1.00  0.00    -0.149 A  
HETATM   17  C   UNL     1      -9.104   6.064  67.419  1.00  0.00    -0.106 A  
HETATM   18  C   UNL     1      -9.039   7.345  67.998  1.00  0.00    -0.130 A  
BRANCH  16  19
HETATM   19  N   UNL     1      -9.926   3.767  67.424  1.00  0.00    -0.182 N  
HETATM   20  H   UNL     1     -10.819   3.404  67.089  1.00  0.00     0.000 HD 
BRANCH  19  21
HETATM   21  C   UNL     1      -8.796   2.968  67.297  1.00  0.00    -0.139 C  
HETATM   22  O   UNL     1      -8.057   3.012  66.321  1.00  0.00    -0.081 OA 
BRANCH  21  23
HETATM   23  N   UNL     1      -8.586   2.110  68.361  1.00  0.00    -0.069 N  
HETATM   24  H   UNL     1      -8.637   1.106  68.192  1.00  0.00     0.000 HD 
BRANCH  23  25
HETATM   25  C   UNL     1      -8.302   2.563  69.687  1.00  0.00    -0.045 A  
HETATM   26  C   UNL     1      -9.225   2.468  70.736  1.00  0.00    -0.201 A  
HETATM   27  C   UNL     1      -8.986   3.009  72.012  1.00  0.00    -0.133 A  
HETATM   28  C   UNL     1     -10.070   2.949  73.053  1.00  0.00    -0.136 C  
HETATM   29  C   UNL     1      -7.749   3.601  72.249  1.00  0.00    -0.063 A  
HETATM   30  F   UNL     1     -10.444   4.179  73.505  1.00  0.00    -0.172 F  
HETATM   31  F   UNL     1      -9.713   2.229  74.152  1.00  0.00    -0.097 F  
HETATM   32  F   UNL     1     -11.223   2.369  72.608  1.00  0.00    -0.139 F  
HETATM   33 CL   UNL     1      -7.339   4.274  73.783  1.00  0.00    -0.074 Cl 
HETATM   34  C   UNL     1      -6.789   3.658  71.228  1.00  0.00    -0.032 A  
HETATM   35  C   UNL     1      -7.062   3.147  69.952  1.00  0.00    -0.041 A  
ENDBRANCH  23  25
ENDBRANCH  21  23
ENDBRANCH  19  21
ENDBRANCH  16  19
ENDBRANCH  12  13
ENDBRANCH  10  12
ENDBRANCH   3   6
TORSDOF 7
ENDMDL
MODEL      347
REMARK 921   NORMALIZED FREE ENERGY PREDICTED BY IDOCK:   -2.60 KCAL/MOL
REMARK 922        TOTAL FREE ENERGY PREDICTED BY IDOCK:   -5.51 KCAL/MOL
REMARK 923 INTER-LIGAND FREE ENERGY PREDICTED BY IDOCK:   -4.81 KCAL/MOL
REMARK 924 INTRA-LIGAND FREE ENERGY PREDICTED BY IDOCK:   -0.70 KCAL/MOL
REMARK 927      BINDING AFFINITY PREDICTED BY RF-SCORE:    0.00 PKD
ROOT
HETATM    1  C   UNL     1     -11.639   6.192  70.165  1.00  0.00    -0.190 C  
HETATM    2  N   UNL     1     -10.579   6.010  69.212  1.00  0.00    -0.264 N  
HETATM    3  C   UNL     1      -9.262   5.925  69.609  1.00  0.00    -0.136 C  
HETATM    4  H   UNL     1     -10.806   5.942  68.221  1.00  0.00     0.000 HD 
HETATM    5  O   UNL     1      -8.900   6.011  70.778  1.00  0.00    -0.136 OA 
ENDROOT
BRANCH   3   6
HETATM    6  C   UNL     1      -8.277   5.690  68.503  1.00  0.00    -0.106 A  
HETATM    7  N   UNL     1      -8.038   4.397  68.145  1.00  0.00    -0.089 NA 
HETATM    8  C   UNL     1      -7.097   4.208  67.193  1.00  0.00    -0.067 A  
HETATM    9  C   UNL     1      -6.358   5.232  66.614  1.00  0.00    -0.036 A  
HETATM   10  C   UNL     1      -6.612   6.537  67.020  1.00  0.00    -0.051 A  
HETATM   11  C   UNL     1      -7.629   6.778  67.942  1.00  0.00    -0.107 A  
BRANCH  10  12
HETATM   12  O   UNL     1      -5.831   7.535  66.465  1.00  0.00    -0.034 OA 
BRANCH  12  13
HETATM   13  C   UNL     1      -6.256   8.842  66.605  1.00  0.00    -0.058 A  
HETATM   14  C   UNL     1      -7.099   9.454  65.685  1.00  0.00    -0.090 A  
HETATM   15  C   UNL     1      -7.372  10.813  65.792  1.00  0.00    -0.061 A  
HETATM   16  C   UNL     1      -6.919  11.572  66.877  1.00  0.00    -0.134 A  
HETATM   17  C   UNL     1      -6.146  10.931  67.850  1.00  0.00    -0.050 A  
HETATM   18  C   UNL     1      -5.818   9.569  67.714  1.00  0.00    -0.044 A  
BRANCH  16  19
HETATM   19  N   UNL     1      -7.216  12.955  67.009  1.00  0.00    -0.361 N  
HETATM   20  H   UNL     1      -8.108  13.298  66.652  1.00  0.00     0.000 HD 
BRANCH  19  21
HETATM   21  C   UNL     1      -6.347  13.863  67.603  1.00  0.00    -0.126 C  
HETATM   22  O   UNL     1      -5.181  13.994  67.252  1.00  0.00    -0.298 OA 
BRANCH  21  23
HETATM   23  N   UNL     1      -6.910  14.596  68.631  1.00  0.00    -0.089 N  
HETATM   24  H   UNL     1      -6.906  14.196  69.570  1.00  0.00     0.000 HD 
BRANCH  23  25
HETATM   25  C   UNL     1      -7.497  15.885  68.445  1.00  0.00    -0.127 A  
HETATM   26  C   UNL     1      -8.827  16.063  68.043  1.00  0.00    -0.175 A  
HETATM   27  C   UNL     1      -9.373  17.327  67.756  1.00  0.00    -0.250 A  
HETATM   28  C   UNL     1     -10.781  17.420  67.236  1.00  0.00    -0.219 C  
HETATM   29  C   UNL     1      -8.567  18.445  67.949  1.00  0.00    -0.272 A  
HETATM   30  F   UNL     1     -10.861  18.021  66.015  1.00  0.00    -0.331 F  
HETATM   31  F   UNL     1     -11.608  18.120  68.062  1.00  0.00     0.157 F  
HETATM   32  F   UNL     1     -11.385  16.206  67.073  1.00  0.00    -0.174 F  
HETATM   33 CL   UNL     1      -9.142  20.044  67.652  1.00  0.00    -0.427 Cl 
HETATM   34  C   UNL     1      -7.250  18.294  68.403  1.00  0.00    -0.276 A  
HETATM   35  C   UNL     1      -6.713  17.022  68.646  1.00  0.00    -0.182 A  
ENDBRANCH  23  25
ENDBRANCH  21  23
ENDBRANCH  19  21
ENDBRANCH  16  19
ENDBRANCH  12  13
ENDBRANCH  10  12
ENDBRANCH   3   6
TORSDOF 7
ENDMDL
MODEL      348
REMARK 921   NORMALIZED FREE ENERGY PREDICTED BY IDOCK:   -2.59 KCAL/MOL
REMARK 922        TOTAL FREE ENERGY PREDICTED BY IDOCK:   -5.49 KCAL/MOL
REMARK 923 INTER-LIGAND FREE ENERGY PREDICTED BY IDOCK:   -5.51 KCAL/MOL
REMARK 924 INTRA-LIGAND FREE ENERGY PREDICTED BY IDOCK:    0.01 KCAL/MOL
REMARK 927      BINDING AFFINITY PREDICTED BY RF-SCORE:    0.00 PKD
ROOT
HETATM    1  C   UNL     1      -6.535  20.591  65.484  1.00  0.00    -0.249 C  
HETATM    2  N   UNL     1      -6.777  19.229  65.872  1.00  0.00    -0.233 N  
HETATM    3  C   UNL     1      -8.055  18.758  66.084  1.00  0.00    -0.199 C  
HETATM    4  H   UNL     1      -5.987  18.597  65.995  1.00  0.00     0.000 HD 
HETATM    5  O   UNL     1      -9.060  19.453  65.973  1.00  0.00    -0.414 OA 
ENDROOT
BRANCH   3   6
HETATM    6  C   UNL     1      -8.148  17.305  66.441  1.00  0.00    -0.293 A  
HETATM    7  N   UNL     1      -7.143  16.785  67.201  1.00  0.00    -0.167 NA 
HETATM    8  C   UNL     1      -7.215  15.458  67.453  1.00  0.00    -0.209 A  
HETATM    9  C   UNL     1      -8.206  14.623  66.955  1.00  0.00    -0.188 A  
HETATM   10  C   UNL     1      -9.202  15.184  66.164  1.00  0.00    -0.283 A  
HETATM   11  C   UNL     1      -9.206  16.561  65.947  1.00  0.00    -0.209 A  
BRANCH  10  12
HETATM   12  O   UNL     1     -10.152  14.325  65.639  1.00  0.00    -0.318 OA 
BRANCH  12  13
HETATM   13  C   UNL     1     -10.184  13.028  66.114  1.00  0.00    -0.284 A  
HETATM   14  C   UNL     1     -10.518  12.723  67.427  1.00  0.00    -0.234 A  
HETATM   15  C   UNL     1     -10.386  11.418  67.891  1.00  0.00    -0.204 A  
HETATM   16  C   UNL     1     -10.040  10.365  67.038  1.00  0.00    -0.215 A  
HETATM   17  C   UNL     1      -9.793  10.662  65.694  1.00  0.00    -0.307 A  
HETATM   18  C   UNL     1      -9.867  11.991  65.234  1.00  0.00    -0.236 A  
BRANCH  16  19
HETATM   19  N   UNL     1      -9.930   9.025  67.497  1.00  0.00    -0.193 N  
HETATM   20  H   UNL     1      -9.515   8.329  66.876  1.00  0.00     0.000 HD 
BRANCH  19  21
HETATM   21  C   UNL     1     -10.361   8.618  68.754  1.00  0.00    -0.208 C  
HETATM   22  O   UNL     1     -10.112   9.244  69.777  1.00  0.00    -0.185 OA 
BRANCH  21  23
HETATM   23  N   UNL     1     -11.084   7.440  68.751  1.00  0.00    -0.436 N  
HETATM   24  H   UNL     1     -12.030   7.450  69.130  1.00  0.00     0.000 HD 
BRANCH  23  25
HETATM   25  C   UNL     1     -10.569   6.206  68.242  1.00  0.00    -0.262 A  
HETATM   26  C   UNL     1     -10.752   5.797  66.915  1.00  0.00    -0.381 A  
HETATM   27  C   UNL     1     -10.340   4.539  66.443  1.00  0.00    -0.194 A  
HETATM   28  C   UNL     1     -10.663   4.140  65.029  1.00  0.00    -0.095 C  
HETATM   29  C   UNL     1      -9.662   3.701  67.324  1.00  0.00    -0.056 A  
HETATM   30  F   UNL     1     -11.416   3.006  64.953  1.00  0.00     1.038 F  
HETATM   31  F   UNL     1      -9.552   3.914  64.273  1.00  0.00    -0.134 F  
HETATM   32  F   UNL     1     -11.373   5.084  64.344  1.00  0.00     0.439 F  
HETATM   33 CL   UNL     1      -9.090   2.145  66.845  1.00  0.00    -0.135 Cl 
HETATM   34  C   UNL     1      -9.421   4.113  68.642  1.00  0.00    -0.221 A  
HETATM   35  C   UNL     1      -9.874   5.356  69.104  1.00  0.00    -0.242 A  
ENDBRANCH  23  25
ENDBRANCH  21  23
ENDBRANCH  19  21
ENDBRANCH  16  19
ENDBRANCH  12  13
ENDBRANCH  10  12
ENDBRANCH   3   6
TORSDOF 7
ENDMDL
MODEL      349
REMARK 921   NORMALIZED FREE ENERGY PREDICTED BY IDOCK:   -2.49 KCAL/MOL
REMARK 922        TOTAL FREE ENERGY PREDICTED BY IDOCK:   -5.35 KCAL/MOL
REMARK 923 INTER-LIGAND FREE ENERGY PREDICTED BY IDOCK:   -5.57 KCAL/MOL
REMARK 924 INTRA-LIGAND FREE ENERGY PREDICTED BY IDOCK:    0.22 KCAL/MOL
REMARK 927      BINDING AFFINITY PREDICTED BY RF-SCORE:    0.00 PKD
ROOT
HETATM    1  C   UNL     1     -11.846  15.712  64.325  1.00  0.00    -0.146 C  
HETATM    2  N   UNL     1     -10.990  14.587  64.580  1.00  0.00    -0.608 N  
HETATM    3  C   UNL     1     -11.505  13.333  64.826  1.00  0.00    -0.327 C  
HETATM    4  H   UNL     1      -9.979  14.719  64.579  1.00  0.00     0.000 HD 
HETATM    5  O   UNL     1     -12.707  13.089  64.861  1.00  0.00    -0.644 OA 
ENDROOT
BRANCH   3   6
HETATM    6  C   UNL     1     -10.484  12.253  65.030  1.00  0.00    -0.290 A  
HETATM    7  N   UNL     1     -10.804  11.003  64.592  1.00  0.00    -0.251 NA 
HETATM    8  C   UNL     1      -9.896  10.034  64.848  1.00  0.00    -0.281 A  
HETATM    9  C   UNL     1      -8.715  10.238  65.550  1.00  0.00    -0.176 A  
HETATM   10  C   UNL     1      -8.433  11.522  66.003  1.00  0.00    -0.005 A  
HETATM   11  C   UNL     1      -9.307  12.562  65.690  1.00  0.00     0.079 A  
BRANCH  10  12
HETATM   12  O   UNL     1      -7.275  11.692  66.740  1.00  0.00    -0.137 OA 
BRANCH  12  13
HETATM   13  C   UNL     1      -6.982  10.754  67.710  1.00  0.00    -0.077 A  
HETATM   14  C   UNL     1      -7.100  11.023  69.069  1.00  0.00    -0.106 A  
HETATM   15  C   UNL     1      -6.647  10.097  70.001  1.00  0.00    -0.117 A  
HETATM   16  C   UNL     1      -6.181   8.834  69.619  1.00  0.00    -0.036 A  
HETATM   17  C   UNL     1      -6.150   8.531  68.254  1.00  0.00    -0.050 A  
HETATM   18  C   UNL     1      -6.552   9.489  67.303  1.00  0.00    -0.071 A  
BRANCH  16  19
HETATM   19  N   UNL     1      -5.743   7.871  70.567  1.00  0.00    -0.029 N  
HETATM   20  H   UNL     1      -5.273   7.031  70.227  1.00  0.00     0.000 HD 
BRANCH  19  21
HETATM   21  C   UNL     1      -5.924   8.021  71.936  1.00  0.00    -0.037 C  
HETATM   22  O   UNL     1      -5.133   7.584  72.763  1.00  0.00    -0.036 OA 
BRANCH  21  23
HETATM   23  N   UNL     1      -7.080   8.695  72.284  1.00  0.00    -0.057 N  
HETATM   24  H   UNL     1      -7.017   9.693  72.487  1.00  0.00     0.000 HD 
BRANCH  23  25
HETATM   25  C   UNL     1      -8.359   8.062  72.373  1.00  0.00    -0.153 A  
HETATM   26  C   UNL     1      -8.516   6.707  72.687  1.00  0.00    -0.124 A  
HETATM   27  C   UNL     1      -9.765   6.061  72.669  1.00  0.00    -0.166 A  
HETATM   28  C   UNL     1      -9.832   4.579  72.922  1.00  0.00    -0.144 C  
HETATM   29  C   UNL     1     -10.893   6.828  72.395  1.00  0.00    -0.238 A  
HETATM   30  F   UNL     1     -10.381   3.885  71.886  1.00  0.00    -0.246 F  
HETATM   31  F   UNL     1     -10.562   4.261  74.027  1.00  0.00    -0.212 F  
HETATM   32  F   UNL     1      -8.610   4.004  73.126  1.00  0.00    -0.090 F  
HETATM   33 CL   UNL     1     -12.476   6.144  72.372  1.00  0.00    -0.126 Cl 
HETATM   34  C   UNL     1     -10.764   8.199  72.132  1.00  0.00    -0.360 A  
HETATM   35  C   UNL     1      -9.506   8.816  72.116  1.00  0.00    -0.309 A  
ENDBRANCH  23  25
ENDBRANCH  21  23
ENDBRANCH  19  21
ENDBRANCH  16  19
ENDBRANCH  12  13
ENDBRANCH  10  12
ENDBRANCH   3   6
TORSDOF 7
ENDMDL
MODEL      350
REMARK 921   NORMALIZED FREE ENERGY PREDICTED BY IDOCK:   -2.43 KCAL/MOL
REMARK 922        TOTAL FREE ENERGY PREDICTED BY IDOCK:   -5.27 KCAL/MOL
REMARK 923 INTER-LIGAND FREE ENERGY PREDICTED BY IDOCK:   -4.78 KCAL/MOL
REMARK 924 INTRA-LIGAND FREE ENERGY PREDICTED BY IDOCK:   -0.49 KCAL/MOL
REMARK 927      BINDING AFFINITY PREDICTED BY RF-SCORE:    0.00 PKD
ROOT
HETATM    1  C   UNL     1      -6.294  19.829  69.610  1.00  0.00    -0.342 C  
HETATM    2  N   UNL     1      -5.927  18.443  69.706  1.00  0.00    -0.248 N  
HETATM    3  C   UNL     1      -6.832  17.439  69.435  1.00  0.00    -0.147 C  
HETATM    4  H   UNL     1      -4.977  18.197  69.981  1.00  0.00     0.000 HD 
HETATM    5  O   UNL     1      -7.997  17.647  69.112  1.00  0.00    -0.136 OA 
ENDROOT
BRANCH   3   6
HETATM    6  C   UNL     1      -6.287  16.046  69.536  1.00  0.00    -0.182 A  
HETATM    7  N   UNL     1      -5.787  15.659  70.743  1.00  0.00     0.015 NA 
HETATM    8  C   UNL     1      -5.241  14.423  70.791  1.00  0.00    -0.125 A  
HETATM    9  C   UNL     1      -5.131  13.576  69.696  1.00  0.00    -0.084 A  
HETATM   10  C   UNL     1      -5.630  14.014  68.474  1.00  0.00    -0.095 A  
HETATM   11  C   UNL     1      -6.271  15.250  68.403  1.00  0.00    -0.106 A  
BRANCH  10  12
HETATM   12  O   UNL     1      -5.467  13.174  67.387  1.00  0.00    -0.322 OA 
BRANCH  12  13
HETATM   13  C   UNL     1      -6.178  11.991  67.370  1.00  0.00    -0.136 A  
HETATM   14  C   UNL     1      -7.140  11.686  68.326  1.00  0.00    -0.078 A  
HETATM   15  C   UNL     1      -7.715  10.420  68.351  1.00  0.00    -0.098 A  
HETATM   16  C   UNL     1      -7.446   9.469  67.360  1.00  0.00    -0.091 A  
HETATM   17  C   UNL     1      -6.547   9.813  66.347  1.00  0.00    -0.072 A  
HETATM   18  C   UNL     1      -5.917  11.072  66.352  1.00  0.00    -0.143 A  
BRANCH  16  19
HETATM   19  N   UNL     1      -8.051   8.184  67.362  1.00  0.00    -0.120 N  
HETATM   20  H   UNL     1      -7.476   7.375  67.598  1.00  0.00     0.000 HD 
BRANCH  19  21
HETATM   21  C   UNL     1      -9.392   7.977  67.058  1.00  0.00    -0.156 C  
HETATM   22  O   UNL     1     -10.303   8.519  67.671  1.00  0.00    -0.226 OA 
BRANCH  21  23
HETATM   23  N   UNL     1      -9.606   7.099  66.012  1.00  0.00    -0.405 N  
HETATM   24  H   UNL     1     -10.135   7.427  65.204  1.00  0.00     0.000 HD 
BRANCH  23  25
HETATM   25  C   UNL     1      -9.122   5.754  66.007  1.00  0.00    -0.153 A  
HETATM   26  C   UNL     1      -9.386   4.847  67.040  1.00  0.00    -0.136 A  
HETATM   27  C   UNL     1      -8.822   3.560  67.088  1.00  0.00    -0.146 A  
HETATM   28  C   UNL     1      -9.081   2.685  68.284  1.00  0.00    -0.179 C  
HETATM   29  C   UNL     1      -8.024   3.158  66.021  1.00  0.00    -0.085 A  
HETATM   30  F   UNL     1      -7.940   2.313  68.930  1.00  0.00    -0.051 F  
HETATM   31  F   UNL     1      -9.736   1.533  67.969  1.00  0.00    -0.220 F  
HETATM   32  F   UNL     1      -9.851   3.282  69.241  1.00  0.00    -0.225 F  
HETATM   33 CL   UNL     1      -7.302   1.592  65.963  1.00  0.00    -0.055 Cl 
HETATM   34  C   UNL     1      -7.790   4.030  64.949  1.00  0.00    -0.089 A  
HETATM   35  C   UNL     1      -8.330   5.324  64.940  1.00  0.00    -0.144 A  
ENDBRANCH  23  25
ENDBRANCH  21  23
ENDBRANCH  19  21
ENDBRANCH  16  19
ENDBRANCH  12  13
ENDBRANCH  10  12
ENDBRANCH   3   6
TORSDOF 7
ENDMDL
MODEL      351
REMARK 921   NORMALIZED FREE ENERGY PREDICTED BY IDOCK:   -2.20 KCAL/MOL
REMARK 922        TOTAL FREE ENERGY PREDICTED BY IDOCK:   -4.95 KCAL/MOL
REMARK 923 INTER-LIGAND FREE ENERGY PREDICTED BY IDOCK:   -5.59 KCAL/MOL
REMARK 924 INTRA-LIGAND FREE ENERGY PREDICTED BY IDOCK:    0.64 KCAL/MOL
REMARK 927      BINDING AFFINITY PREDICTED BY RF-SCORE:    0.00 PKD
ROOT
HETATM    1  C   UNL     1      -7.278  19.848  65.162  1.00  0.00    -0.002 C  
HETATM    2  N   UNL     1      -6.715  19.474  66.430  1.00  0.00    -0.189 N  
HETATM    3  C   UNL     1      -7.149  20.047  67.606  1.00  0.00    -0.266 C  
HETATM    4  H   UNL     1      -5.979  18.769  66.461  1.00  0.00     0.000 HD 
HETATM    5  O   UNL     1      -8.018  20.911  67.658  1.00  0.00    -0.207 OA 
ENDROOT
BRANCH   3   6
HETATM    6  C   UNL     1      -6.497  19.521  68.850  1.00  0.00    -0.291 A  
HETATM    7  N   UNL     1      -5.798  20.409  69.610  1.00  0.00    -0.345 NA 
HETATM    8  C   UNL     1      -5.163  19.898  70.689  1.00  0.00    -0.229 A  
HETATM    9  C   UNL     1      -5.157  18.549  71.022  1.00  0.00    -0.274 A  
HETATM   10  C   UNL     1      -5.861  17.668  70.210  1.00  0.00    -0.128 A  
HETATM   11  C   UNL     1      -6.593  18.169  69.134  1.00  0.00    -0.259 A  
BRANCH  10  12
HETATM   12  O   UNL     1      -5.801  16.324  70.534  1.00  0.00    -0.118 OA 
BRANCH  12  13
HETATM   13  C   UNL     1      -6.024  15.406  69.527  1.00  0.00    -0.126 A  
HETATM   14  C   UNL     1      -6.972  15.606  68.532  1.00  0.00    -0.115 A  
HETATM   15  C   UNL     1      -7.262  14.584  67.634  1.00  0.00    -0.206 A  
HETATM   16  C   UNL     1      -6.536  13.387  67.621  1.00  0.00    -0.162 A  
HETATM   17  C   UNL     1      -5.519  13.226  68.567  1.00  0.00    -0.078 A  
HETATM   18  C   UNL     1      -5.263  14.234  69.516  1.00  0.00    -0.090 A  
BRANCH  16  19
HETATM   19  N   UNL     1      -6.806  12.349  66.690  1.00  0.00    -0.258 N  
HETATM   20  H   UNL     1      -6.109  12.143  65.974  1.00  0.00     0.000 HD 
BRANCH  19  21
HETATM   21  C   UNL     1      -7.978  11.601  66.710  1.00  0.00    -0.140 C  
HETATM   22  O   UNL     1      -9.089  12.108  66.800  1.00  0.00    -0.196 OA 
BRANCH  21  23
HETATM   23  N   UNL     1      -7.778  10.235  66.631  1.00  0.00    -0.110 N  
HETATM   24  H   UNL     1      -7.029   9.888  66.031  1.00  0.00     0.000 HD 
BRANCH  23  25
HETATM   25  C   UNL     1      -8.570   9.285  67.347  1.00  0.00    -0.122 A  
HETATM   26  C   UNL     1      -8.012   8.238  68.092  1.00  0.00    -0.123 A  
HETATM   27  C   UNL     1      -8.790   7.242  68.707  1.00  0.00    -0.127 A  
HETATM   28  C   UNL     1      -8.105   6.099  69.405  1.00  0.00    -0.112 C  
HETATM   29  C   UNL     1     -10.175   7.351  68.623  1.00  0.00    -0.191 A  
HETATM   30  F   UNL     1      -8.438   4.882  68.889  1.00  0.00    -0.082 F  
HETATM   31  F   UNL     1      -8.390   6.041  70.736  1.00  0.00    -0.116 F  
HETATM   32  F   UNL     1      -6.743   6.153  69.336  1.00  0.00    -0.049 F  
HETATM   33 CL   UNL     1     -11.226   6.199  69.362  1.00  0.00    -0.484 Cl 
HETATM   34  C   UNL     1     -10.756   8.421  67.928  1.00  0.00    -0.141 A  
HETATM   35  C   UNL     1      -9.961   9.382  67.289  1.00  0.00    -0.252 A  
ENDBRANCH  23  25
ENDBRANCH  21  23
ENDBRANCH  19  21
ENDBRANCH  16  19
ENDBRANCH  12  13
ENDBRANCH  10  12
ENDBRANCH   3   6
TORSDOF 7
ENDMDL
MODEL      352
REMARK 921   NORMALIZED FREE ENERGY PREDICTED BY IDOCK:   -2.16 KCAL/MOL
REMARK 922        TOTAL FREE ENERGY PREDICTED BY IDOCK:   -4.89 KCAL/MOL
REMARK 923 INTER-LIGAND FREE ENERGY PREDICTED BY IDOCK:   -4.42 KCAL/MOL
REMARK 924 INTRA-LIGAND FREE ENERGY PREDICTED BY IDOCK:   -0.47 KCAL/MOL
REMARK 927      BINDING AFFINITY PREDICTED BY RF-SCORE:    0.00 PKD
ROOT
HETATM    1  C   UNL     1      -6.392  20.892  64.709  1.00  0.00    -0.235 C  
HETATM    2  N   UNL     1      -6.460  19.624  65.382  1.00  0.00    -0.252 N  
HETATM    3  C   UNL     1      -7.655  19.123  65.851  1.00  0.00    -0.216 C  
HETATM    4  H   UNL     1      -5.606  19.084  65.515  1.00  0.00     0.000 HD 
HETATM    5  O   UNL     1      -8.725  19.713  65.747  1.00  0.00    -0.398 OA 
ENDROOT
BRANCH   3   6
HETATM    6  C   UNL     1      -7.570  17.769  66.491  1.00  0.00    -0.256 A  
HETATM    7  N   UNL     1      -6.521  17.542  67.331  1.00  0.00    -0.144 NA 
HETATM    8  C   UNL     1      -6.430  16.293  67.842  1.00  0.00    -0.140 A  
HETATM    9  C   UNL     1      -7.300  15.257  67.528  1.00  0.00    -0.223 A  
HETATM   10  C   UNL     1      -8.344  15.519  66.649  1.00  0.00    -0.251 A  
HETATM   11  C   UNL     1      -8.518  16.814  66.163  1.00  0.00    -0.298 A  
BRANCH  10  12
HETATM   12  O   UNL     1      -9.169  14.460  66.314  1.00  0.00    -0.253 OA 
BRANCH  12  13
HETATM   13  C   UNL     1      -8.884  13.221  66.853  1.00  0.00    -0.178 A  
HETATM   14  C   UNL     1      -8.971  12.963  68.216  1.00  0.00    -0.175 A  
HETATM   15  C   UNL     1      -8.526  11.746  68.721  1.00  0.00     0.005 A  
HETATM   16  C   UNL     1      -8.101  10.711  67.881  1.00  0.00    -0.111 A  
HETATM   17  C   UNL     1      -8.102  10.942  66.502  1.00  0.00    -0.154 A  
HETATM   18  C   UNL     1      -8.494  12.194  65.991  1.00  0.00     0.352 A  
BRANCH  16  19
HETATM   19  N   UNL     1      -7.671   9.455  68.387  1.00  0.00    -0.085 N  
HETATM   20  H   UNL     1      -8.190   8.619  68.119  1.00  0.00     0.000 HD 
BRANCH  19  21
HETATM   21  C   UNL     1      -6.576   9.314  69.231  1.00  0.00    -0.049 C  
HETATM   22  O   UNL     1      -5.421   9.466  68.853  1.00  0.00    -0.037 OA 
BRANCH  21  23
HETATM   23  N   UNL     1      -6.903   8.975  70.531  1.00  0.00    -0.053 N  
HETATM   24  H   UNL     1      -6.438   9.469  71.293  1.00  0.00     0.000 HD 
BRANCH  23  25
HETATM   25  C   UNL     1      -7.861   7.966  70.860  1.00  0.00    -0.088 A  
HETATM   26  C   UNL     1      -7.732   6.633  70.451  1.00  0.00    -0.097 A  
HETATM   27  C   UNL     1      -8.725   5.665  70.683  1.00  0.00    -0.138 A  
HETATM   28  C   UNL     1      -8.549   4.280  70.124  1.00  0.00    -0.069 C  
HETATM   29  C   UNL     1      -9.850   6.045  71.410  1.00  0.00    -0.173 A  
HETATM   30  F   UNL     1      -9.551   3.915  69.276  1.00  0.00    -0.220 F  
HETATM   31  F   UNL     1      -8.495   3.320  71.089  1.00  0.00    -0.066 F  
HETATM   32  F   UNL     1      -7.400   4.123  69.403  1.00  0.00    -0.051 F  
HETATM   33 CL   UNL     1     -11.118   4.934  71.773  1.00  0.00     0.061 Cl 
HETATM   34  C   UNL     1      -9.975   7.362  71.876  1.00  0.00    -0.196 A  
HETATM   35  C   UNL     1      -8.990   8.321  71.600  1.00  0.00    -0.235 A  
ENDBRANCH  23  25
ENDBRANCH  21  23
ENDBRANCH  19  21
ENDBRANCH  16  19
ENDBRANCH  12  13
ENDBRANCH  10  12
ENDBRANCH   3   6
TORSDOF 7
ENDMDL
MODEL      353
REMARK 921   NORMALIZED FREE ENERGY PREDICTED BY IDOCK:   -2.14 KCAL/MOL
REMARK 922        TOTAL FREE ENERGY PREDICTED BY IDOCK:   -4.86 KCAL/MOL
REMARK 923 INTER-LIGAND FREE ENERGY PREDICTED BY IDOCK:   -3.64 KCAL/MOL
REMARK 924 INTRA-LIGAND FREE ENERGY PREDICTED BY IDOCK:   -1.21 KCAL/MOL
REMARK 927      BINDING AFFINITY PREDICTED BY RF-SCORE:    0.00 PKD
ROOT
HETATM    1  C   UNL     1     -11.542   1.494  74.134  1.00  0.00    -0.021 C  
HETATM    2  N   UNL     1     -10.665   2.630  74.201  1.00  0.00    -0.170 N  
HETATM    3  C   UNL     1      -9.671   2.827  73.268  1.00  0.00    -0.099 C  
HETATM    4  H   UNL     1     -10.781   3.306  74.956  1.00  0.00     0.000 HD 
HETATM    5  O   UNL     1      -9.453   2.057  72.338  1.00  0.00    -0.076 OA 
ENDROOT
BRANCH   3   6
HETATM    6  C   UNL     1      -8.868   4.081  73.447  1.00  0.00    -0.097 A  
HETATM    7  N   UNL     1      -7.544   3.936  73.737  1.00  0.00    -0.077 NA 
HETATM    8  C   UNL     1      -6.857   5.079  73.961  1.00  0.00    -0.076 A  
HETATM    9  C   UNL     1      -7.427   6.346  73.950  1.00  0.00    -0.085 A  
HETATM   10  C   UNL     1      -8.785   6.453  73.674  1.00  0.00    -0.123 A  
HETATM   11  C   UNL     1      -9.510   5.304  73.361  1.00  0.00    -0.141 A  
BRANCH  10  12
HETATM   12  O   UNL     1      -9.340   7.720  73.716  1.00  0.00    -0.280 OA 
BRANCH  12  13
HETATM   13  C   UNL     1      -9.822   8.254  72.538  1.00  0.00    -0.298 A  
HETATM   14  C   UNL     1     -11.179   8.298  72.238  1.00  0.00    -0.443 A  
HETATM   15  C   UNL     1     -11.598   8.706  70.977  1.00  0.00    -0.325 A  
HETATM   16  C   UNL     1     -10.697   9.196  70.025  1.00  0.00    -0.232 A  
HETATM   17  C   UNL     1      -9.341   9.238  70.363  1.00  0.00    -0.295 A  
HETATM   18  C   UNL     1      -8.907   8.770  71.618  1.00  0.00    -0.278 A  
BRANCH  16  19
HETATM   19  N   UNL     1     -11.120   9.641  68.743  1.00  0.00    -0.450 N  
HETATM   20  H   UNL     1     -11.830  10.372  68.691  1.00  0.00     0.000 HD 
BRANCH  19  21
HETATM   21  C   UNL     1     -10.610   9.127  67.557  1.00  0.00    -0.249 C  
HETATM   22  O   UNL     1     -10.532   7.925  67.333  1.00  0.00    -0.255 OA 
BRANCH  21  23
HETATM   23  N   UNL     1     -10.187  10.089  66.658  1.00  0.00    -0.226 N  
HETATM   24  H   UNL     1     -10.771  10.282  65.844  1.00  0.00     0.000 HD 
BRANCH  23  25
HETATM   25  C   UNL     1      -8.973  10.826  66.813  1.00  0.00    -0.147 A  
HETATM   26  C   UNL     1      -8.789  11.784  67.818  1.00  0.00    -0.163 A  
HETATM   27  C   UNL     1      -7.636  12.585  67.905  1.00  0.00    -0.133 A  
HETATM   28  C   UNL     1      -7.561  13.658  68.956  1.00  0.00     0.056 C  
HETATM   29  C   UNL     1      -6.613  12.358  66.989  1.00  0.00     0.005 A  
HETATM   30  F   UNL     1      -7.388  14.905  68.435  1.00  0.00    -0.101 F  
HETATM   31  F   UNL     1      -6.543  13.467  69.840  1.00  0.00    -0.120 F  
HETATM   32  F   UNL     1      -8.686  13.749  69.725  1.00  0.00     0.685 F  
HETATM   33 CL   UNL     1      -5.146  13.264  67.018  1.00  0.00     0.494 Cl 
HETATM   34  C   UNL     1      -6.754  11.366  66.008  1.00  0.00     0.232 A  
HETATM   35  C   UNL     1      -7.928  10.605  65.915  1.00  0.00    -0.157 A  
ENDBRANCH  23  25
ENDBRANCH  21  23
ENDBRANCH  19  21
ENDBRANCH  16  19
ENDBRANCH  12  13
ENDBRANCH  10  12
ENDBRANCH   3   6
TORSDOF 7
ENDMDL
MODEL      354
REMARK 921   NORMALIZED FREE ENERGY PREDICTED BY IDOCK:   -2.12 KCAL/MOL
REMARK 922        TOTAL FREE ENERGY PREDICTED BY IDOCK:   -4.84 KCAL/MOL
REMARK 923 INTER-LIGAND FREE ENERGY PREDICTED BY IDOCK:   -3.48 KCAL/MOL
REMARK 924 INTRA-LIGAND FREE ENERGY PREDICTED BY IDOCK:   -1.36 KCAL/MOL
REMARK 927      BINDING AFFINITY PREDICTED BY RF-SCORE:    0.00 PKD
ROOT
HETATM    1  C   UNL     1     -12.246  15.603  68.981  1.00  0.00    -0.079 C  
HETATM    2  N   UNL     1     -10.904  15.419  68.505  1.00  0.00    -0.253 N  
HETATM    3  C   UNL     1      -9.843  15.296  69.376  1.00  0.00    -0.252 C  
HETATM    4  H   UNL     1     -10.731  15.379  67.501  1.00  0.00     0.000 HD 
HETATM    5  O   UNL     1      -9.959  15.347  70.596  1.00  0.00     0.083 OA 
ENDROOT
BRANCH   3   6
HETATM    6  C   UNL     1      -8.510  15.065  68.729  1.00  0.00    -0.180 A  
HETATM    7  N   UNL     1      -8.265  15.719  67.558  1.00  0.00    -0.154 NA 
HETATM    8  C   UNL     1      -7.084  15.442  66.960  1.00  0.00     0.035 A  
HETATM    9  C   UNL     1      -6.161  14.524  67.444  1.00  0.00     0.169 A  
HETATM   10  C   UNL     1      -6.455  13.858  68.628  1.00  0.00    -0.092 A  
HETATM   11  C   UNL     1      -7.627  14.174  69.315  1.00  0.00     0.058 A  
BRANCH  10  12
HETATM   12  O   UNL     1      -5.544  12.914  69.066  1.00  0.00    -0.067 OA 
BRANCH  12  13
HETATM   13  C   UNL     1      -5.962  11.600  69.144  1.00  0.00    -0.064 A  
HETATM   14  C   UNL     1      -7.077  11.214  69.880  1.00  0.00     0.076 A  
HETATM   15  C   UNL     1      -7.362   9.864  70.049  1.00  0.00    -0.159 A  
HETATM   16  C   UNL     1      -6.627   8.868  69.396  1.00  0.00    -0.045 A  
HETATM   17  C   UNL     1      -5.562   9.265  68.583  1.00  0.00    -0.040 A  
HETATM   18  C   UNL     1      -5.232  10.628  68.456  1.00  0.00    -0.037 A  
BRANCH  16  19
HETATM   19  N   UNL     1      -6.929   7.487  69.542  1.00  0.00    -0.059 N  
HETATM   20  H   UNL     1      -7.110   7.124  70.478  1.00  0.00     0.000 HD 
BRANCH  19  21
HETATM   21  C   UNL     1      -6.990   6.609  68.467  1.00  0.00    -0.080 C  
HETATM   22  O   UNL     1      -6.023   5.966  68.077  1.00  0.00    -0.015 OA 
BRANCH  21  23
HETATM   23  N   UNL     1      -8.235   6.532  67.869  1.00  0.00    -0.115 N  
HETATM   24  H   UNL     1      -8.818   5.718  68.064  1.00  0.00     0.000 HD 
BRANCH  23  25
HETATM   25  C   UNL     1      -8.745   7.537  66.989  1.00  0.00    -0.127 A  
HETATM   26  C   UNL     1      -8.155   7.837  65.756  1.00  0.00    -0.125 A  
HETATM   27  C   UNL     1      -8.592   8.897  64.941  1.00  0.00    -0.198 A  
HETATM   28  C   UNL     1      -7.839   9.212  63.676  1.00  0.00    -0.136 C  
HETATM   29  C   UNL     1      -9.701   9.627  65.357  1.00  0.00    -0.295 A  
HETATM   30  F   UNL     1      -7.348  10.483  63.651  1.00  0.00    -0.132 F  
HETATM   31  F   UNL     1      -8.601   9.073  62.556  1.00  0.00    -0.176 F  
HETATM   32  F   UNL     1      -6.755   8.409  63.471  1.00  0.00    -0.081 F  
HETATM   33 CL   UNL     1     -10.336  10.931  64.424  1.00  0.00    -0.422 Cl 
HETATM   34  C   UNL     1     -10.340   9.308  66.564  1.00  0.00    -0.270 A  
HETATM   35  C   UNL     1      -9.865   8.273  67.380  1.00  0.00    -0.246 A  
ENDBRANCH  23  25
ENDBRANCH  21  23
ENDBRANCH  19  21
ENDBRANCH  16  19
ENDBRANCH  12  13
ENDBRANCH  10  12
ENDBRANCH   3   6
TORSDOF 7
ENDMDL
MODEL      355
REMARK 921   NORMALIZED FREE ENERGY PREDICTED BY IDOCK:   -2.09 KCAL/MOL
REMARK 922        TOTAL FREE ENERGY PREDICTED BY IDOCK:   -4.80 KCAL/MOL
REMARK 923 INTER-LIGAND FREE ENERGY PREDICTED BY IDOCK:   -3.99 KCAL/MOL
REMARK 924 INTRA-LIGAND FREE ENERGY PREDICTED BY IDOCK:   -0.80 KCAL/MOL
REMARK 927      BINDING AFFINITY PREDICTED BY RF-SCORE:    0.00 PKD
ROOT
HETATM    1  C   UNL     1      -5.197   1.565  69.031  1.00  0.00    -0.012 C  
HETATM    2  N   UNL     1      -6.426   2.207  68.657  1.00  0.00    -0.029 N  
HETATM    3  C   UNL     1      -6.630   3.552  68.876  1.00  0.00    -0.040 C  
HETATM    4  H   UNL     1      -7.164   1.656  68.221  1.00  0.00     0.000 HD 
HETATM    5  O   UNL     1      -5.802   4.285  69.408  1.00  0.00    -0.017 OA 
ENDROOT
BRANCH   3   6
HETATM    6  C   UNL     1      -7.945   4.085  68.391  1.00  0.00    -0.072 A  
HETATM    7  N   UNL     1      -9.073   3.548  68.935  1.00  0.00    -0.131 NA 
HETATM    8  C   UNL     1     -10.246   3.997  68.433  1.00  0.00     0.518 A  
HETATM    9  C   UNL     1     -10.350   4.915  67.397  1.00  0.00    -0.127 A  
HETATM   10  C   UNL     1      -9.178   5.424  66.850  1.00  0.00    -0.121 A  
HETATM   11  C   UNL     1      -7.951   5.045  67.393  1.00  0.00    -0.096 A  
BRANCH  10  12
HETATM   12  O   UNL     1      -9.304   6.300  65.787  1.00  0.00    -0.050 OA 
BRANCH  12  13
HETATM   13  C   UNL     1      -8.913   7.611  65.979  1.00  0.00    -0.139 A  
HETATM   14  C   UNL     1      -8.603   8.121  67.234  1.00  0.00    -0.124 A  
HETATM   15  C   UNL     1      -8.365   9.482  67.390  1.00  0.00    -0.125 A  
HETATM   16  C   UNL     1      -8.306  10.350  66.294  1.00  0.00    -0.146 A  
HETATM   17  C   UNL     1      -8.528   9.816  65.021  1.00  0.00    -0.161 A  
HETATM   18  C   UNL     1      -8.829   8.449  64.865  1.00  0.00     0.022 A  
BRANCH  16  19
HETATM   19  N   UNL     1      -8.035  11.736  66.442  1.00  0.00    -0.380 N  
HETATM   20  H   UNL     1      -7.132  12.093  66.129  1.00  0.00     0.000 HD 
BRANCH  19  21
HETATM   21  C   UNL     1      -8.945  12.630  66.994  1.00  0.00    -0.216 C  
HETATM   22  O   UNL     1      -9.609  13.406  66.317  1.00  0.00    -0.274 OA 
BRANCH  21  23
HETATM   23  N   UNL     1      -9.028  12.575  68.373  1.00  0.00    -0.316 N  
HETATM   24  H   UNL     1      -8.336  13.087  68.921  1.00  0.00     0.000 HD 
BRANCH  23  25
HETATM   25  C   UNL     1     -10.034  11.836  69.069  1.00  0.00     0.056 A  
HETATM   26  C   UNL     1      -9.737  10.769  69.926  1.00  0.00     0.397 A  
HETATM   27  C   UNL     1     -10.730   9.975  70.526  1.00  0.00    -0.352 A  
HETATM   28  C   UNL     1     -10.323   8.787  71.354  1.00  0.00    -0.278 C  
HETATM   29  C   UNL     1     -12.061  10.317  70.305  1.00  0.00    -0.249 A  
HETATM   30  F   UNL     1     -10.827   7.611  70.885  1.00  0.00    -0.228 F  
HETATM   31  F   UNL     1     -10.720   8.883  72.654  1.00  0.00    -0.326 F  
HETATM   32  F   UNL     1      -8.972   8.597  71.410  1.00  0.00    -0.182 F  
HETATM   33 CL   UNL     1     -13.359   9.427  71.012  1.00  0.00    -0.251 Cl 
HETATM   34  C   UNL     1     -12.380  11.415  69.495  1.00  0.00    -0.211 A  
HETATM   35  C   UNL     1     -11.375  12.170  68.874  1.00  0.00    -0.335 A  
ENDBRANCH  23  25
ENDBRANCH  21  23
ENDBRANCH  19  21
ENDBRANCH  16  19
ENDBRANCH  12  13
ENDBRANCH  10  12
ENDBRANCH   3   6
TORSDOF 7
ENDMDL
MODEL      356
REMARK 921   NORMALIZED FREE ENERGY PREDICTED BY IDOCK:   -1.93 KCAL/MOL
REMARK 922        TOTAL FREE ENERGY PREDICTED BY IDOCK:   -4.57 KCAL/MOL
REMARK 923 INTER-LIGAND FREE ENERGY PREDICTED BY IDOCK:   -4.78 KCAL/MOL
REMARK 924 INTRA-LIGAND FREE ENERGY PREDICTED BY IDOCK:    0.21 KCAL/MOL
REMARK 927      BINDING AFFINITY PREDICTED BY RF-SCORE:    0.00 PKD
ROOT
HETATM    1  C   UNL     1      -7.229  19.895  65.128  1.00  0.00    -0.002 C  
HETATM    2  N   UNL     1      -6.701  19.486  66.400  1.00  0.00    -0.189 N  
HETATM    3  C   UNL     1      -7.166  20.027  67.579  1.00  0.00    -0.277 C  
HETATM    4  H   UNL     1      -5.967  18.779  66.431  1.00  0.00     0.000 HD 
HETATM    5  O   UNL     1      -8.035  20.891  67.632  1.00  0.00    -0.207 OA 
ENDROOT
BRANCH   3   6
HETATM    6  C   UNL     1      -6.548  19.466  68.825  1.00  0.00    -0.287 A  
HETATM    7  N   UNL     1      -5.881  20.335  69.636  1.00  0.00    -0.321 NA 
HETATM    8  C   UNL     1      -5.276  19.793  70.717  1.00  0.00    -0.236 A  
HETATM    9  C   UNL     1      -5.266  18.435  71.006  1.00  0.00    -0.279 A  
HETATM   10  C   UNL     1      -5.936  17.575  70.144  1.00  0.00    -0.118 A  
HETATM   11  C   UNL     1      -6.639  18.104  69.062  1.00  0.00    -0.253 A  
BRANCH  10  12
HETATM   12  O   UNL     1      -5.873  16.222  70.425  1.00  0.00    -0.154 OA 
BRANCH  12  13
HETATM   13  C   UNL     1      -6.786  15.389  69.809  1.00  0.00    -0.162 A  
HETATM   14  C   UNL     1      -8.135  15.710  69.703  1.00  0.00    -0.067 A  
HETATM   15  C   UNL     1      -9.034  14.770  69.211  1.00  0.00    -0.028 A  
HETATM   16  C   UNL     1      -8.607  13.540  68.698  1.00  0.00    -0.009 A  
HETATM   17  C   UNL     1      -7.238  13.258  68.721  1.00  0.00    -0.088 A  
HETATM   18  C   UNL     1      -6.331  14.182  69.274  1.00  0.00    -0.112 A  
BRANCH  16  19
HETATM   19  N   UNL     1      -9.517  12.586  68.168  1.00  0.00    -0.211 N  
HETATM   20  H   UNL     1      -9.544  12.448  67.157  1.00  0.00     0.000 HD 
BRANCH  19  21
HETATM   21  C   UNL     1     -10.370  11.831  68.963  1.00  0.00    -0.059 C  
HETATM   22  O   UNL     1     -10.791  12.222  70.044  1.00  0.00     0.390 OA 
BRANCH  21  23
HETATM   23  N   UNL     1     -10.693  10.595  68.432  1.00  0.00    -0.206 N  
HETATM   24  H   UNL     1     -10.792  10.513  67.420  1.00  0.00     0.000 HD 
BRANCH  23  25
HETATM   25  C   UNL     1     -10.895   9.428  69.232  1.00  0.00    -0.172 A  
HETATM   26  C   UNL     1     -10.237   8.216  68.988  1.00  0.00    -0.228 A  
HETATM   27  C   UNL     1     -10.516   7.040  69.706  1.00  0.00    -0.235 A  
HETATM   28  C   UNL     1      -9.834   5.758  69.313  1.00  0.00    -0.170 C  
HETATM   29  C   UNL     1     -11.436   7.113  70.747  1.00  0.00    -0.305 A  
HETATM   30  F   UNL     1     -10.710   4.772  68.966  1.00  0.00    -0.128 F  
HETATM   31  F   UNL     1      -9.054   5.245  70.305  1.00  0.00    -0.129 F  
HETATM   32  F   UNL     1      -9.003   5.888  68.239  1.00  0.00    -0.114 F  
HETATM   33 CL   UNL     1     -11.835   5.739  71.710  1.00  0.00    -0.085 Cl 
HETATM   34  C   UNL     1     -12.067   8.330  71.045  1.00  0.00    -0.225 A  
HETATM   35  C   UNL     1     -11.803   9.482  70.291  1.00  0.00    -0.109 A  
ENDBRANCH  23  25
ENDBRANCH  21  23
ENDBRANCH  19  21
ENDBRANCH  16  19
ENDBRANCH  12  13
ENDBRANCH  10  12
ENDBRANCH   3   6
TORSDOF 7
ENDMDL
MODEL      357
REMARK 921   NORMALIZED FREE ENERGY PREDICTED BY IDOCK:   -1.92 KCAL/MOL
REMARK 922        TOTAL FREE ENERGY PREDICTED BY IDOCK:   -4.56 KCAL/MOL
REMARK 923 INTER-LIGAND FREE ENERGY PREDICTED BY IDOCK:   -4.89 KCAL/MOL
REMARK 924 INTRA-LIGAND FREE ENERGY PREDICTED BY IDOCK:    0.33 KCAL/MOL
REMARK 927      BINDING AFFINITY PREDICTED BY RF-SCORE:    0.00 PKD
ROOT
HETATM    1  C   UNL     1      -6.441  20.916  64.642  1.00  0.00    -0.205 C  
HETATM    2  N   UNL     1      -6.478  19.654  65.328  1.00  0.00    -0.262 N  
HETATM    3  C   UNL     1      -7.636  19.184  65.907  1.00  0.00    -0.216 C  
HETATM    4  H   UNL     1      -5.628  19.094  65.388  1.00  0.00     0.000 HD 
HETATM    5  O   UNL     1      -8.697  19.799  65.894  1.00  0.00    -0.369 OA 
ENDROOT
BRANCH   3   6
HETATM    6  C   UNL     1      -7.526  17.833  66.547  1.00  0.00    -0.249 A  
HETATM    7  N   UNL     1      -6.338  17.517  67.136  1.00  0.00    -0.145 NA 
HETATM    8  C   UNL     1      -6.241  16.269  67.646  1.00  0.00    -0.148 A  
HETATM    9  C   UNL     1      -7.245  15.313  67.564  1.00  0.00    -0.224 A  
HETATM   10  C   UNL     1      -8.435  15.662  66.935  1.00  0.00    -0.251 A  
HETATM   11  C   UNL     1      -8.602  16.964  66.466  1.00  0.00    -0.305 A  
BRANCH  10  12
HETATM   12  O   UNL     1      -9.403  14.680  66.823  1.00  0.00    -0.232 OA 
BRANCH  12  13
HETATM   13  C   UNL     1      -8.999  13.361  66.905  1.00  0.00    -0.209 A  
HETATM   14  C   UNL     1      -8.435  12.825  68.056  1.00  0.00    -0.177 A  
HETATM   15  C   UNL     1      -7.907  11.538  68.035  1.00  0.00    -0.126 A  
HETATM   16  C   UNL     1      -8.035  10.708  66.916  1.00  0.00    -0.124 A  
HETATM   17  C   UNL     1      -8.686  11.220  65.789  1.00  0.00    -0.111 A  
HETATM   18  C   UNL     1      -9.168  12.543  65.786  1.00  0.00     0.111 A  
BRANCH  16  19
HETATM   19  N   UNL     1      -7.524   9.383  66.895  1.00  0.00    -0.090 N  
HETATM   20  H   UNL     1      -8.183   8.607  66.824  1.00  0.00     0.000 HD 
BRANCH  19  21
HETATM   21  C   UNL     1      -6.166   9.094  66.968  1.00  0.00    -0.058 C  
HETATM   22  O   UNL     1      -5.309   9.797  66.448  1.00  0.00    -0.042 OA 
BRANCH  21  23
HETATM   23  N   UNL     1      -5.870   7.939  67.667  1.00  0.00    -0.040 N  
HETATM   24  H   UNL     1      -5.048   7.935  68.272  1.00  0.00     0.000 HD 
BRANCH  23  25
HETATM   25  C   UNL     1      -6.659   6.749  67.585  1.00  0.00    -0.058 A  
HETATM   26  C   UNL     1      -8.050   6.748  67.743  1.00  0.00    -0.113 A  
HETATM   27  C   UNL     1      -8.812   5.566  67.769  1.00  0.00    -0.105 A  
HETATM   28  C   UNL     1     -10.289   5.648  68.041  1.00  0.00    -0.202 C  
HETATM   29  C   UNL     1      -8.152   4.359  67.560  1.00  0.00    -0.099 A  
HETATM   30  F   UNL     1     -10.669   4.941  69.143  1.00  0.00    -0.212 F  
HETATM   31  F   UNL     1     -11.047   5.184  67.009  1.00  0.00    -0.180 F  
HETATM   32  F   UNL     1     -10.734   6.919  68.265  1.00  0.00    -0.208 F  
HETATM   33 CL   UNL     1      -8.992   2.852  67.547  1.00  0.00    -0.172 Cl 
HETATM   34  C   UNL     1      -6.766   4.342  67.346  1.00  0.00    -0.047 A  
HETATM   35  C   UNL     1      -6.020   5.528  67.362  1.00  0.00    -0.022 A  
ENDBRANCH  23  25
ENDBRANCH  21  23
ENDBRANCH  19  21
ENDBRANCH  16  19
ENDBRANCH  12  13
ENDBRANCH  10  12
ENDBRANCH   3   6
TORSDOF 7
ENDMDL
MODEL      358
REMARK 921   NORMALIZED FREE ENERGY PREDICTED BY IDOCK:   -1.89 KCAL/MOL
REMARK 922        TOTAL FREE ENERGY PREDICTED BY IDOCK:   -4.51 KCAL/MOL
REMARK 923 INTER-LIGAND FREE ENERGY PREDICTED BY IDOCK:   -4.44 KCAL/MOL
REMARK 924 INTRA-LIGAND FREE ENERGY PREDICTED BY IDOCK:   -0.07 KCAL/MOL
REMARK 927      BINDING AFFINITY PREDICTED BY RF-SCORE:    0.00 PKD
ROOT
HETATM    1  C   UNL     1      -5.881   8.903  62.369  1.00  0.00    -0.091 C  
HETATM    2  N   UNL     1      -6.276   9.205  63.717  1.00  0.00    -0.087 N  
HETATM    3  C   UNL     1      -7.549   8.935  64.170  1.00  0.00    -0.120 C  
HETATM    4  H   UNL     1      -5.600   9.628  64.352  1.00  0.00     0.000 HD 
HETATM    5  O   UNL     1      -8.427   8.442  63.469  1.00  0.00    -0.108 OA 
ENDROOT
BRANCH   3   6
HETATM    6  C   UNL     1      -7.796   9.266  65.612  1.00  0.00    -0.099 A  
HETATM    7  N   UNL     1      -6.735   9.176  66.462  1.00  0.00    -0.074 NA 
HETATM    8  C   UNL     1      -6.998   9.413  67.767  1.00  0.00    -0.080 A  
HETATM    9  C   UNL     1      -8.262   9.692  68.269  1.00  0.00    -0.106 A  
HETATM   10  C   UNL     1      -9.326   9.752  67.376  1.00  0.00    -0.134 A  
HETATM   11  C   UNL     1      -9.081   9.591  66.013  1.00  0.00    -0.220 A  
BRANCH  10  12
HETATM   12  O   UNL     1     -10.583   9.983  67.904  1.00  0.00    -0.215 OA 
BRANCH  12  13
HETATM   13  C   UNL     1     -10.743  11.070  68.741  1.00  0.00    -0.203 A  
HETATM   14  C   UNL     1     -11.714  11.109  69.736  1.00  0.00    -0.419 A  
HETATM   15  C   UNL     1     -11.931  12.284  70.446  1.00  0.00    -0.349 A  
HETATM   16  C   UNL     1     -11.115  13.408  70.278  1.00  0.00     0.646 A  
HETATM   17  C   UNL     1     -10.080  13.334  69.342  1.00  0.00     0.590 A  
HETATM   18  C   UNL     1      -9.894  12.167  68.577  1.00  0.00    -0.167 A  
BRANCH  16  19
HETATM   19  N   UNL     1     -11.313  14.603  71.021  1.00  0.00    -0.529 N  
HETATM   20  H   UNL     1     -10.550  14.945  71.607  1.00  0.00     0.000 HD 
BRANCH  19  21
HETATM   21  C   UNL     1     -12.498  15.329  70.985  1.00  0.00    -0.384 C  
HETATM   22  O   UNL     1     -12.984  15.858  71.977  1.00  0.00    -0.449 OA 
BRANCH  21  23
HETATM   23  N   UNL     1     -13.086  15.391  69.735  1.00  0.00    -0.349 N  
HETATM   24  H   UNL     1     -14.103  15.439  69.679  1.00  0.00     0.000 HD 
BRANCH  23  25
HETATM   25  C   UNL     1     -12.338  15.391  68.516  1.00  0.00     0.289 A  
HETATM   26  C   UNL     1     -12.455  14.382  67.553  1.00  0.00     0.176 A  
HETATM   27  C   UNL     1     -11.644  14.325  66.407  1.00  0.00    -0.381 A  
HETATM   28  C   UNL     1     -11.768  13.153  65.472  1.00  0.00    -0.357 C  
HETATM   29  C   UNL     1     -10.736  15.360  66.197  1.00  0.00    -0.314 A  
HETATM   30  F   UNL     1     -10.603  12.461  65.326  1.00  0.00    -0.283 F  
HETATM   31  F   UNL     1     -12.161  13.511  64.218  1.00  0.00    -0.414 F  
HETATM   32  F   UNL     1     -12.683  12.224  65.879  1.00  0.00    -0.167 F  
HETATM   33 CL   UNL     1      -9.709  15.405  64.813  1.00  0.00     0.380 Cl 
HETATM   34  C   UNL     1     -10.640  16.409  67.122  1.00  0.00    -0.276 A  
HETATM   35  C   UNL     1     -11.432  16.426  68.279  1.00  0.00    -0.143 A  
ENDBRANCH  23  25
ENDBRANCH  21  23
ENDBRANCH  19  21
ENDBRANCH  16  19
ENDBRANCH  12  13
ENDBRANCH  10  12
ENDBRANCH   3   6
TORSDOF 7
ENDMDL
MODEL      359
REMARK 921   NORMALIZED FREE ENERGY PREDICTED BY IDOCK:   -1.82 KCAL/MOL
REMARK 922        TOTAL FREE ENERGY PREDICTED BY IDOCK:   -4.41 KCAL/MOL
REMARK 923 INTER-LIGAND FREE ENERGY PREDICTED BY IDOCK:   -5.19 KCAL/MOL
REMARK 924 INTRA-LIGAND FREE ENERGY PREDICTED BY IDOCK:    0.78 KCAL/MOL
REMARK 927      BINDING AFFINITY PREDICTED BY RF-SCORE:    0.00 PKD
ROOT
HETATM    1  C   UNL     1     -14.023  16.201  72.945  1.00  0.00    -0.073 C  
HETATM    2  N   UNL     1     -13.691  15.290  71.885  1.00  0.00    -0.452 N  
HETATM    3  C   UNL     1     -12.474  14.644  71.848  1.00  0.00    -0.341 C  
HETATM    4  H   UNL     1     -14.370  15.116  71.145  1.00  0.00     0.000 HD 
HETATM    5  O   UNL     1     -11.595  14.806  72.689  1.00  0.00    -0.179 OA 
ENDROOT
BRANCH   3   6
HETATM    6  C   UNL     1     -12.292  13.691  70.705  1.00  0.00    -0.368 A  
HETATM    7  N   UNL     1     -12.005  14.228  69.486  1.00  0.00    -0.318 NA 
HETATM    8  C   UNL     1     -11.913  13.354  68.458  1.00  0.00    -0.328 A  
HETATM    9  C   UNL     1     -12.132  11.987  68.576  1.00  0.00    -0.116 A  
HETATM   10  C   UNL     1     -12.447  11.478  69.830  1.00  0.00    -0.094 A  
HETATM   11  C   UNL     1     -12.474  12.337  70.928  1.00  0.00    -0.371 A  
BRANCH  10  12
HETATM   12  O   UNL     1     -12.709  10.122  69.915  1.00  0.00    -0.000 OA 
BRANCH  12  13
HETATM   13  C   UNL     1     -11.635   9.262  70.036  1.00  0.00     0.025 A  
HETATM   14  C   UNL     1     -10.319   9.687  69.895  1.00  0.00    -0.282 A  
HETATM   15  C   UNL     1      -9.288   8.755  69.875  1.00  0.00    -0.165 A  
HETATM   16  C   UNL     1      -9.518   7.396  70.116  1.00  0.00    -0.165 A  
HETATM   17  C   UNL     1     -10.834   6.984  70.349  1.00  0.00    -0.283 A  
HETATM   18  C   UNL     1     -11.888   7.916  70.311  1.00  0.00     0.149 A  
BRANCH  16  19
HETATM   19  N   UNL     1      -8.466   6.441  70.124  1.00  0.00    -0.133 N  
HETATM   20  H   UNL     1      -8.036   6.199  71.017  1.00  0.00     0.000 HD 
BRANCH  19  21
HETATM   21  C   UNL     1      -7.997   5.822  68.972  1.00  0.00    -0.098 C  
HETATM   22  O   UNL     1      -7.304   4.813  68.995  1.00  0.00    -0.052 OA 
BRANCH  21  23
HETATM   23  N   UNL     1      -8.370   6.452  67.799  1.00  0.00    -0.118 N  
HETATM   24  H   UNL     1      -8.911   5.922  67.115  1.00  0.00     0.000 HD 
BRANCH  23  25
HETATM   25  C   UNL     1      -8.036   7.809  67.498  1.00  0.00    -0.124 A  
HETATM   26  C   UNL     1      -8.767   8.588  66.593  1.00  0.00    -0.139 A  
HETATM   27  C   UNL     1      -8.376   9.885  66.216  1.00  0.00    -0.125 A  
HETATM   28  C   UNL     1      -9.164  10.616  65.163  1.00  0.00    -0.207 C  
HETATM   29  C   UNL     1      -7.251  10.432  66.828  1.00  0.00    -0.109 A  
HETATM   30  F   UNL     1      -8.413  10.964  64.080  1.00  0.00    -0.147 F  
HETATM   31  F   UNL     1      -9.728  11.767  65.624  1.00  0.00    -0.226 F  
HETATM   32  F   UNL     1     -10.202   9.890  64.655  1.00  0.00    -0.371 F  
HETATM   33 CL   UNL     1      -6.697  12.023  66.460  1.00  0.00     0.162 Cl 
HETATM   34  C   UNL     1      -6.536   9.689  67.778  1.00  0.00    -0.065 A  
HETATM   35  C   UNL     1      -6.921   8.383  68.110  1.00  0.00    -0.081 A  
ENDBRANCH  23  25
ENDBRANCH  21  23
ENDBRANCH  19  21
ENDBRANCH  16  19
ENDBRANCH  12  13
ENDBRANCH  10  12
ENDBRANCH   3   6
TORSDOF 7
ENDMDL
MODEL      360
REMARK 921   NORMALIZED FREE ENERGY PREDICTED BY IDOCK:   -1.73 KCAL/MOL
REMARK 922        TOTAL FREE ENERGY PREDICTED BY IDOCK:   -4.29 KCAL/MOL
REMARK 923 INTER-LIGAND FREE ENERGY PREDICTED BY IDOCK:   -4.48 KCAL/MOL
REMARK 924 INTRA-LIGAND FREE ENERGY PREDICTED BY IDOCK:    0.20 KCAL/MOL
REMARK 927      BINDING AFFINITY PREDICTED BY RF-SCORE:    0.00 PKD
ROOT
HETATM    1  C   UNL     1      -6.291  19.810  69.417  1.00  0.00    -0.330 C  
HETATM    2  N   UNL     1      -6.010  18.402  69.472  1.00  0.00    -0.245 N  
HETATM    3  C   UNL     1      -6.980  17.465  69.190  1.00  0.00    -0.209 C  
HETATM    4  H   UNL     1      -5.073  18.090  69.725  1.00  0.00     0.000 HD 
HETATM    5  O   UNL     1      -8.134  17.753  68.892  1.00  0.00    -0.256 OA 
ENDROOT
BRANCH   3   6
HETATM    6  C   UNL     1      -6.522  16.038  69.246  1.00  0.00    -0.169 A  
HETATM    7  N   UNL     1      -5.667  15.697  70.251  1.00  0.00    -0.158 NA 
HETATM    8  C   UNL     1      -5.216  14.422  70.241  1.00  0.00    -0.098 A  
HETATM    9  C   UNL     1      -5.539  13.489  69.264  1.00  0.00    -0.078 A  
HETATM   10  C   UNL     1      -6.395  13.879  68.240  1.00  0.00    -0.110 A  
HETATM   11  C   UNL     1      -6.943  15.161  68.260  1.00  0.00    -0.117 A  
BRANCH  10  12
HETATM   12  O   UNL     1      -6.665  12.949  67.252  1.00  0.00    -0.152 OA 
BRANCH  12  13
HETATM   13  C   UNL     1      -7.438  11.855  67.587  1.00  0.00    -0.127 A  
HETATM   14  C   UNL     1      -8.801  11.797  67.326  1.00  0.00    -0.167 A  
HETATM   15  C   UNL     1      -9.558  10.740  67.820  1.00  0.00    -0.176 A  
HETATM   16  C   UNL     1      -8.967   9.655  68.477  1.00  0.00    -0.124 A  
HETATM   17  C   UNL     1      -7.581   9.672  68.658  1.00  0.00    -0.080 A  
HETATM   18  C   UNL     1      -6.819  10.769  68.212  1.00  0.00    -0.067 A  
BRANCH  16  19
HETATM   19  N   UNL     1      -9.729   8.558  68.961  1.00  0.00    -0.167 N  
HETATM   20  H   UNL     1      -9.868   8.468  69.968  1.00  0.00     0.000 HD 
BRANCH  19  21
HETATM   21  C   UNL     1     -10.295   7.602  68.125  1.00  0.00    -0.204 C  
HETATM   22  O   UNL     1     -11.130   7.875  67.272  1.00  0.00    -0.079 OA 
BRANCH  21  23
HETATM   23  N   UNL     1      -9.841   6.315  68.349  1.00  0.00    -0.127 N  
HETATM   24  H   UNL     1      -9.957   5.624  67.608  1.00  0.00     0.000 HD 
BRANCH  23  25
HETATM   25  C   UNL     1      -9.217   5.905  69.569  1.00  0.00    -0.135 A  
HETATM   26  C   UNL     1      -8.821   6.810  70.561  1.00  0.00    -0.151 A  
HETATM   27  C   UNL     1      -8.112   6.418  71.710  1.00  0.00    -0.105 A  
HETATM   28  C   UNL     1      -7.638   7.467  72.678  1.00  0.00    -0.083 C  
HETATM   29  C   UNL     1      -7.861   5.061  71.891  1.00  0.00    -0.109 A  
HETATM   30  F   UNL     1      -6.285   7.465  72.846  1.00  0.00    -0.053 F  
HETATM   31  F   UNL     1      -8.179   7.329  73.920  1.00  0.00    -0.128 F  
HETATM   32  F   UNL     1      -7.945   8.741  72.296  1.00  0.00    -0.173 F  
HETATM   33 CL   UNL     1      -7.023   4.465  73.276  1.00  0.00    -0.062 Cl 
HETATM   34  C   UNL     1      -8.298   4.131  70.936  1.00  0.00    -0.092 A  
HETATM   35  C   UNL     1      -8.969   4.548  69.778  1.00  0.00    -0.149 A  
ENDBRANCH  23  25
ENDBRANCH  21  23
ENDBRANCH  19  21
ENDBRANCH  16  19
ENDBRANCH  12  13
ENDBRANCH  10  12
ENDBRANCH   3   6
TORSDOF 7
ENDMDL
MODEL      361
REMARK 921   NORMALIZED FREE ENERGY PREDICTED BY IDOCK:   -1.69 KCAL/MOL
REMARK 922        TOTAL FREE ENERGY PREDICTED BY IDOCK:   -4.23 KCAL/MOL
REMARK 923 INTER-LIGAND FREE ENERGY PREDICTED BY IDOCK:   -4.43 KCAL/MOL
REMARK 924 INTRA-LIGAND FREE ENERGY PREDICTED BY IDOCK:    0.20 KCAL/MOL
REMARK 927      BINDING AFFINITY PREDICTED BY RF-SCORE:    0.00 PKD
ROOT
HETATM    1  C   UNL     1      -8.372  10.187  63.060  1.00  0.00    -0.169 C  
HETATM    2  N   UNL     1      -8.707   8.923  63.654  1.00  0.00    -0.419 N  
HETATM    3  C   UNL     1      -8.168   8.531  64.861  1.00  0.00    -0.165 C  
HETATM    4  H   UNL     1      -9.357   8.302  63.173  1.00  0.00     0.000 HD 
HETATM    5  O   UNL     1      -7.369   9.208  65.497  1.00  0.00    -0.087 OA 
ENDROOT
BRANCH   3   6
HETATM    6  C   UNL     1      -8.649   7.205  65.372  1.00  0.00    -0.032 A  
HETATM    7  N   UNL     1      -8.335   6.103  64.636  1.00  0.00    -0.092 NA 
HETATM    8  C   UNL     1      -8.836   4.928  65.081  1.00  0.00    -0.153 A  
HETATM    9  C   UNL     1      -9.662   4.805  66.191  1.00  0.00    -0.205 A  
HETATM   10  C   UNL     1      -9.981   5.955  66.905  1.00  0.00    -0.171 A  
HETATM   11  C   UNL     1      -9.419   7.172  66.522  1.00  0.00    -0.208 A  
BRANCH  10  12
HETATM   12  O   UNL     1     -10.844   5.814  67.977  1.00  0.00    -0.242 OA 
BRANCH  12  13
HETATM   13  C   UNL     1     -10.400   5.104  69.076  1.00  0.00    -0.135 A  
HETATM   14  C   UNL     1     -10.713   5.474  70.378  1.00  0.00    -0.321 A  
HETATM   15  C   UNL     1     -10.116   4.815  71.448  1.00  0.00    -0.259 A  
HETATM   16  C   UNL     1      -9.294   3.699  71.259  1.00  0.00    -0.144 A  
HETATM   17  C   UNL     1      -9.055   3.272  69.949  1.00  0.00    -0.199 A  
HETATM   18  C   UNL     1      -9.609   3.973  68.861  1.00  0.00    -0.213 A  
BRANCH  16  19
HETATM   19  N   UNL     1      -8.702   3.003  72.348  1.00  0.00    -0.078 N  
HETATM   20  H   UNL     1      -9.315   2.558  73.032  1.00  0.00     0.000 HD 
BRANCH  19  21
HETATM   21  C   UNL     1      -7.328   2.901  72.523  1.00  0.00    -0.044 C  
HETATM   22  O   UNL     1      -6.819   2.262  73.436  1.00  0.00    -0.021 OA 
BRANCH  21  23
HETATM   23  N   UNL     1      -6.584   3.592  71.584  1.00  0.00    -0.019 N  
HETATM   24  H   UNL     1      -6.091   3.059  70.867  1.00  0.00     0.000 HD 
BRANCH  23  25
HETATM   25  C   UNL     1      -6.472   5.018  71.568  1.00  0.00    -0.031 A  
HETATM   26  C   UNL     1      -7.080   5.838  72.526  1.00  0.00    -0.085 A  
HETATM   27  C   UNL     1      -7.060   7.242  72.450  1.00  0.00    -0.067 A  
HETATM   28  C   UNL     1      -7.822   8.046  73.468  1.00  0.00    -0.180 C  
HETATM   29  C   UNL     1      -6.343   7.829  71.412  1.00  0.00    -0.035 A  
HETATM   30  F   UNL     1      -8.770   8.851  72.911  1.00  0.00    -0.203 F  
HETATM   31  F   UNL     1      -7.020   8.857  74.213  1.00  0.00    -0.174 F  
HETATM   32  F   UNL     1      -8.495   7.281  74.376  1.00  0.00    -0.173 F  
HETATM   33 CL   UNL     1      -6.231   9.541  71.236  1.00  0.00    -0.070 Cl 
HETATM   34  C   UNL     1      -5.681   7.026  70.472  1.00  0.00    -0.024 A  
HETATM   35  C   UNL     1      -5.747   5.628  70.544  1.00  0.00    -0.016 A  
ENDBRANCH  23  25
ENDBRANCH  21  23
ENDBRANCH  19  21
ENDBRANCH  16  19
ENDBRANCH  12  13
ENDBRANCH  10  12
ENDBRANCH   3   6
TORSDOF 7
ENDMDL
MODEL      362
REMARK 921   NORMALIZED FREE ENERGY PREDICTED BY IDOCK:   -1.50 KCAL/MOL
REMARK 922        TOTAL FREE ENERGY PREDICTED BY IDOCK:   -3.96 KCAL/MOL
REMARK 923 INTER-LIGAND FREE ENERGY PREDICTED BY IDOCK:   -3.35 KCAL/MOL
REMARK 924 INTRA-LIGAND FREE ENERGY PREDICTED BY IDOCK:   -0.61 KCAL/MOL
REMARK 927      BINDING AFFINITY PREDICTED BY RF-SCORE:    0.00 PKD
ROOT
HETATM    1  C   UNL     1     -12.924  15.794  63.738  1.00  0.00     1.867 C  
HETATM    2  N   UNL     1     -11.887  14.863  64.084  1.00  0.00    -0.756 N  
HETATM    3  C   UNL     1     -12.124  13.506  64.127  1.00  0.00    -0.435 C  
HETATM    4  H   UNL     1     -10.954  15.213  64.303  1.00  0.00     0.000 HD 
HETATM    5  O   UNL     1     -13.218  13.002  63.893  1.00  0.00    -0.194 OA 
ENDROOT
BRANCH   3   6
HETATM    6  C   UNL     1     -10.931  12.660  64.461  1.00  0.00    -0.332 A  
HETATM    7  N   UNL     1     -10.773  11.502  63.761  1.00  0.00    -0.377 NA 
HETATM    8  C   UNL     1      -9.729  10.725  64.126  1.00  0.00    -0.309 A  
HETATM    9  C   UNL     1      -8.866  11.021  65.173  1.00  0.00    -0.116 A  
HETATM   10  C   UNL     1      -9.072  12.200  65.881  1.00  0.00     0.002 A  
HETATM   11  C   UNL     1     -10.090  13.065  65.483  1.00  0.00    -0.270 A  
BRANCH  10  12
HETATM   12  O   UNL     1      -8.229  12.451  66.950  1.00  0.00    -0.164 OA 
BRANCH  12  13
HETATM   13  C   UNL     1      -8.138  11.493  67.940  1.00  0.00    -0.132 A  
HETATM   14  C   UNL     1      -9.258  10.903  68.514  1.00  0.00    -0.181 A  
HETATM   15  C   UNL     1      -9.113  10.060  69.610  1.00  0.00    -0.230 A  
HETATM   16  C   UNL     1      -7.853   9.682  70.087  1.00  0.00    -0.174 A  
HETATM   17  C   UNL     1      -6.724  10.205  69.448  1.00  0.00    -0.065 A  
HETATM   18  C   UNL     1      -6.868  11.107  68.376  1.00  0.00    -0.066 A  
BRANCH  16  19
HETATM   19  N   UNL     1      -7.695   8.798  71.188  1.00  0.00    -0.113 N  
HETATM   20  H   UNL     1      -6.872   8.903  71.782  1.00  0.00     0.000 HD 
BRANCH  19  21
HETATM   21  C   UNL     1      -8.611   7.799  71.493  1.00  0.00    -0.117 C  
HETATM   22  O   UNL     1      -8.870   7.462  72.642  1.00  0.00    -0.123 OA 
BRANCH  21  23
HETATM   23  N   UNL     1      -9.196   7.210  70.387  1.00  0.00    -0.156 N  
HETATM   24  H   UNL     1      -9.848   7.763  69.830  1.00  0.00     0.000 HD 
BRANCH  23  25
HETATM   25  C   UNL     1      -8.932   5.864  69.985  1.00  0.00    -0.141 A  
HETATM   26  C   UNL     1      -7.679   5.439  69.527  1.00  0.00    -0.077 A  
HETATM   27  C   UNL     1      -7.448   4.144  69.031  1.00  0.00    -0.055 A  
HETATM   28  C   UNL     1      -6.096   3.801  68.467  1.00  0.00    -0.031 C  
HETATM   29  C   UNL     1      -8.501   3.234  69.067  1.00  0.00    -0.063 A  
HETATM   30  F   UNL     1      -6.148   3.400  67.165  1.00  0.00    -0.022 F  
HETATM   31  F   UNL     1      -5.472   2.802  69.152  1.00  0.00    -0.011 F  
HETATM   32  F   UNL     1      -5.217   4.845  68.482  1.00  0.00    -0.003 F  
HETATM   33 CL   UNL     1      -8.322   1.612  68.508  1.00  0.00    -0.072 Cl 
HETATM   34  C   UNL     1      -9.750   3.622  69.573  1.00  0.00    -0.114 A  
HETATM   35  C   UNL     1      -9.969   4.930  70.026  1.00  0.00    -0.323 A  
ENDBRANCH  23  25
ENDBRANCH  21  23
ENDBRANCH  19  21
ENDBRANCH  16  19
ENDBRANCH  12  13
ENDBRANCH  10  12
ENDBRANCH   3   6
TORSDOF 7
ENDMDL
MODEL      363
REMARK 921   NORMALIZED FREE ENERGY PREDICTED BY IDOCK:   -1.39 KCAL/MOL
REMARK 922        TOTAL FREE ENERGY PREDICTED BY IDOCK:   -3.81 KCAL/MOL
REMARK 923 INTER-LIGAND FREE ENERGY PREDICTED BY IDOCK:   -2.81 KCAL/MOL
REMARK 924 INTRA-LIGAND FREE ENERGY PREDICTED BY IDOCK:   -1.00 KCAL/MOL
REMARK 927      BINDING AFFINITY PREDICTED BY RF-SCORE:    0.00 PKD
ROOT
HETATM    1  C   UNL     1     -12.417  15.717  64.933  1.00  0.00     0.592 C  
HETATM    2  N   UNL     1     -11.096  15.686  65.498  1.00  0.00    -0.271 N  
HETATM    3  C   UNL     1     -10.803  14.909  66.598  1.00  0.00    -0.319 C  
HETATM    4  H   UNL     1     -10.360  16.251  65.076  1.00  0.00     0.000 HD 
HETATM    5  O   UNL     1     -11.632  14.213  67.175  1.00  0.00    -0.336 OA 
ENDROOT
BRANCH   3   6
HETATM    6  C   UNL     1      -9.372  14.949  67.044  1.00  0.00    -0.227 A  
HETATM    7  N   UNL     1      -8.483  15.581  66.227  1.00  0.00    -0.200 NA 
HETATM    8  C   UNL     1      -7.188  15.545  66.617  1.00  0.00     0.488 A  
HETATM    9  C   UNL     1      -6.734  14.880  67.748  1.00  0.00    -0.191 A  
HETATM   10  C   UNL     1      -7.666  14.226  68.545  1.00  0.00    -0.137 A  
HETATM   11  C   UNL     1      -9.019  14.308  68.219  1.00  0.00    -0.187 A  
BRANCH  10  12
HETATM   12  O   UNL     1      -7.185  13.531  69.641  1.00  0.00     0.164 OA 
BRANCH  12  13
HETATM   13  C   UNL     1      -6.886  12.193  69.477  1.00  0.00     0.044 A  
HETATM   14  C   UNL     1      -7.798  11.282  68.958  1.00  0.00    -0.079 A  
HETATM   15  C   UNL     1      -7.500   9.924  68.958  1.00  0.00    -0.083 A  
HETATM   16  C   UNL     1      -6.246   9.446  69.356  1.00  0.00    -0.040 A  
HETATM   17  C   UNL     1      -5.296  10.375  69.791  1.00  0.00    -0.038 A  
HETATM   18  C   UNL     1      -5.616  11.745  69.849  1.00  0.00    -0.105 A  
BRANCH  16  19
HETATM   19  N   UNL     1      -5.923   8.063  69.332  1.00  0.00    -0.033 N  
HETATM   20  H   UNL     1      -5.714   7.596  70.215  1.00  0.00     0.000 HD 
BRANCH  19  21
HETATM   21  C   UNL     1      -5.878   7.316  68.161  1.00  0.00    -0.023 C  
HETATM   22  O   UNL     1      -5.141   7.593  67.223  1.00  0.00    -0.024 OA 
BRANCH  21  23
HETATM   23  N   UNL     1      -6.747   6.240  68.142  1.00  0.00    -0.065 N  
HETATM   24  H   UNL     1      -6.891   5.748  67.260  1.00  0.00     0.000 HD 
BRANCH  23  25
HETATM   25  C   UNL     1      -7.454   5.784  69.298  1.00  0.00    -0.083 A  
HETATM   26  C   UNL     1      -8.654   6.360  69.731  1.00  0.00    -0.138 A  
HETATM   27  C   UNL     1      -9.292   5.983  70.926  1.00  0.00    -0.175 A  
HETATM   28  C   UNL     1     -10.526   6.722  71.368  1.00  0.00    -0.215 C  
HETATM   29  C   UNL     1      -8.734   4.944  71.665  1.00  0.00    -0.127 A  
HETATM   30  F   UNL     1     -10.388   7.307  72.591  1.00  0.00    -0.201 F  
HETATM   31  F   UNL     1     -11.625   5.922  71.447  1.00  0.00    -0.337 F  
HETATM   32  F   UNL     1     -10.885   7.737  70.528  1.00  0.00    -0.223 F  
HETATM   33 CL   UNL     1      -9.447   4.383  73.132  1.00  0.00    -0.135 Cl 
HETATM   34  C   UNL     1      -7.562   4.315  71.220  1.00  0.00    -0.060 A  
HETATM   35  C   UNL     1      -6.920   4.733  70.046  1.00  0.00    -0.049 A  
ENDBRANCH  23  25
ENDBRANCH  21  23
ENDBRANCH  19  21
ENDBRANCH  16  19
ENDBRANCH  12  13
ENDBRANCH  10  12
ENDBRANCH   3   6
TORSDOF 7
ENDMDL
MODEL      364
REMARK 921   NORMALIZED FREE ENERGY PREDICTED BY IDOCK:   -1.36 KCAL/MOL
REMARK 922        TOTAL FREE ENERGY PREDICTED BY IDOCK:   -3.77 KCAL/MOL
REMARK 923 INTER-LIGAND FREE ENERGY PREDICTED BY IDOCK:   -3.51 KCAL/MOL
REMARK 924 INTRA-LIGAND FREE ENERGY PREDICTED BY IDOCK:   -0.25 KCAL/MOL
REMARK 927      BINDING AFFINITY PREDICTED BY RF-SCORE:    0.00 PKD
ROOT
HETATM    1  C   UNL     1      -5.214   1.653  69.031  1.00  0.00    -0.012 C  
HETATM    2  N   UNL     1      -6.436   2.381  68.831  1.00  0.00    -0.029 N  
HETATM    3  C   UNL     1      -6.490   3.750  68.980  1.00  0.00    -0.036 C  
HETATM    4  H   UNL     1      -7.282   1.874  68.573  1.00  0.00     0.000 HD 
HETATM    5  O   UNL     1      -5.525   4.434  69.303  1.00  0.00    -0.010 OA 
ENDROOT
BRANCH   3   6
HETATM    6  C   UNL     1      -7.825   4.370  68.694  1.00  0.00    -0.074 A  
HETATM    7  N   UNL     1      -8.873   3.982  69.475  1.00  0.00    -0.084 NA 
HETATM    8  C   UNL     1     -10.078   4.504  69.154  1.00  0.00    -0.013 A  
HETATM    9  C   UNL     1     -10.298   5.354  68.078  1.00  0.00    -0.215 A  
HETATM   10  C   UNL     1      -9.210   5.709  67.289  1.00  0.00    -0.110 A  
HETATM   11  C   UNL     1      -7.939   5.255  67.635  1.00  0.00    -0.100 A  
BRANCH  10  12
HETATM   12  O   UNL     1      -9.461   6.518  66.194  1.00  0.00    -0.128 OA 
BRANCH  12  13
HETATM   13  C   UNL     1      -9.082   7.844  66.269  1.00  0.00    -0.179 A  
HETATM   14  C   UNL     1      -8.728   8.452  67.468  1.00  0.00    -0.136 A  
HETATM   15  C   UNL     1      -8.504   9.823  67.510  1.00  0.00    -0.122 A  
HETATM   16  C   UNL     1      -8.504  10.606  66.350  1.00  0.00    -0.152 A  
HETATM   17  C   UNL     1      -8.771   9.974  65.132  1.00  0.00    -0.183 A  
HETATM   18  C   UNL     1      -9.057   8.596  65.093  1.00  0.00    -0.045 A  
BRANCH  16  19
HETATM   19  N   UNL     1      -8.249  12.003  66.381  1.00  0.00    -0.391 N  
HETATM   20  H   UNL     1      -7.351  12.342  66.035  1.00  0.00     0.000 HD 
BRANCH  19  21
HETATM   21  C   UNL     1      -9.167  12.930  66.860  1.00  0.00    -0.234 C  
HETATM   22  O   UNL     1      -9.838  13.643  66.125  1.00  0.00    -0.293 OA 
BRANCH  21  23
HETATM   23  N   UNL     1      -9.249  12.984  68.240  1.00  0.00    -0.248 N  
HETATM   24  H   UNL     1      -8.431  12.711  68.785  1.00  0.00     0.000 HD 
BRANCH  23  25
HETATM   25  C   UNL     1     -10.422  13.405  68.939  1.00  0.00    -0.113 A  
HETATM   26  C   UNL     1     -10.987  12.668  69.987  1.00  0.00     0.622 A  
HETATM   27  C   UNL     1     -12.199  13.026  70.603  1.00  0.00    -0.390 A  
HETATM   28  C   UNL     1     -12.786  12.124  71.655  1.00  0.00    -0.209 C  
HETATM   29  C   UNL     1     -12.819  14.202  70.191  1.00  0.00    -0.054 A  
HETATM   30  F   UNL     1     -14.032  11.672  71.336  1.00  0.00     0.282 F  
HETATM   31  F   UNL     1     -12.896  12.727  72.871  1.00  0.00    -0.126 F  
HETATM   32  F   UNL     1     -12.048  10.998  71.882  1.00  0.00    -0.214 F  
HETATM   33 CL   UNL     1     -14.295  14.749  70.895  1.00  0.00    -0.063 Cl 
HETATM   34  C   UNL     1     -12.242  14.984  69.180  1.00  0.00    -0.186 A  
HETATM   35  C   UNL     1     -11.052  14.589  68.553  1.00  0.00    -0.271 A  
ENDBRANCH  23  25
ENDBRANCH  21  23
ENDBRANCH  19  21
ENDBRANCH  16  19
ENDBRANCH  12  13
ENDBRANCH  10  12
ENDBRANCH   3   6
TORSDOF 7
ENDMDL
MODEL      365
REMARK 921   NORMALIZED FREE ENERGY PREDICTED BY IDOCK:   -1.12 KCAL/MOL
REMARK 922        TOTAL FREE ENERGY PREDICTED BY IDOCK:   -3.43 KCAL/MOL
REMARK 923 INTER-LIGAND FREE ENERGY PREDICTED BY IDOCK:   -2.79 KCAL/MOL
REMARK 924 INTRA-LIGAND FREE ENERGY PREDICTED BY IDOCK:   -0.65 KCAL/MOL
REMARK 927      BINDING AFFINITY PREDICTED BY RF-SCORE:    0.00 PKD
ROOT
HETATM    1  C   UNL     1      -7.499   8.477  62.485  1.00  0.00    -0.103 C  
HETATM    2  N   UNL     1      -7.199   7.831  63.732  1.00  0.00    -0.083 N  
HETATM    3  C   UNL     1      -6.936   8.558  64.873  1.00  0.00    -0.072 C  
HETATM    4  H   UNL     1      -7.180   6.813  63.775  1.00  0.00     0.000 HD 
HETATM    5  O   UNL     1      -6.924   9.784  64.907  1.00  0.00    -0.111 OA 
ENDROOT
BRANCH   3   6
HETATM    6  C   UNL     1      -6.685   7.742  66.106  1.00  0.00    -0.053 A  
HETATM    7  N   UNL     1      -5.484   7.906  66.727  1.00  0.00    -0.031 NA 
HETATM    8  C   UNL     1      -5.254   7.110  67.796  1.00  0.00    -0.019 A  
HETATM    9  C   UNL     1      -6.138   6.137  68.248  1.00  0.00    -0.021 A  
HETATM   10  C   UNL     1      -7.344   5.981  67.574  1.00  0.00    -0.077 A  
HETATM   11  C   UNL     1      -7.650   6.837  66.517  1.00  0.00    -0.089 A  
BRANCH  10  12
HETATM   12  O   UNL     1      -8.187   4.975  68.012  1.00  0.00    -0.097 OA 
BRANCH  12  13
HETATM   13  C   UNL     1      -9.117   5.287  68.983  1.00  0.00    -0.115 A  
HETATM   14  C   UNL     1      -9.718   6.538  69.067  1.00  0.00    -0.140 A  
HETATM   15  C   UNL     1     -10.530   6.846  70.153  1.00  0.00    -0.233 A  
HETATM   16  C   UNL     1     -10.867   5.888  71.115  1.00  0.00    -0.269 A  
HETATM   17  C   UNL     1     -10.334   4.602  70.978  1.00  0.00    -0.143 A  
HETATM   18  C   UNL     1      -9.463   4.304  69.912  1.00  0.00    -0.260 A  
BRANCH  16  19
HETATM   19  N   UNL     1     -11.718   6.186  72.213  1.00  0.00    -0.360 N  
HETATM   20  H   UNL     1     -11.794   5.507  72.970  1.00  0.00     0.000 HD 
BRANCH  19  21
HETATM   21  C   UNL     1     -12.454   7.362  72.302  1.00  0.00    -0.092 C  
HETATM   22  O   UNL     1     -13.591   7.471  71.860  1.00  0.00    -0.311 OA 
BRANCH  21  23
HETATM   23  N   UNL     1     -11.785   8.402  72.921  1.00  0.00    -0.310 N  
HETATM   24  H   UNL     1     -12.327   9.066  73.475  1.00  0.00     0.000 HD 
BRANCH  23  25
HETATM   25  C   UNL     1     -10.371   8.593  72.824  1.00  0.00     0.105 A  
HETATM   26  C   UNL     1      -9.759   9.185  71.712  1.00  0.00    -0.182 A  
HETATM   27  C   UNL     1      -8.364   9.275  71.569  1.00  0.00     0.229 A  
HETATM   28  C   UNL     1      -7.788   9.838  70.298  1.00  0.00    -0.171 C  
HETATM   29  C   UNL     1      -7.569   8.815  72.615  1.00  0.00     0.188 A  
HETATM   30  F   UNL     1      -6.972   8.961  69.648  1.00  0.00    -0.049 F  
HETATM   31  F   UNL     1      -7.053  10.967  70.501  1.00  0.00     0.029 F  
HETATM   32  F   UNL     1      -8.733  10.190  69.379  1.00  0.00    -0.134 F  
HETATM   33 CL   UNL     1      -5.847   8.900  72.557  1.00  0.00    -0.076 Cl 
HETATM   34  C   UNL     1      -8.163   8.268  73.762  1.00  0.00    -0.264 A  
HETATM   35  C   UNL     1      -9.556   8.152  73.867  1.00  0.00     0.529 A  
ENDBRANCH  23  25
ENDBRANCH  21  23
ENDBRANCH  19  21
ENDBRANCH  16  19
ENDBRANCH  12  13
ENDBRANCH  10  12
ENDBRANCH   3   6
TORSDOF 7
ENDMDL
MODEL      366
REMARK 921   NORMALIZED FREE ENERGY PREDICTED BY IDOCK:   -1.09 KCAL/MOL
REMARK 922        TOTAL FREE ENERGY PREDICTED BY IDOCK:   -3.38 KCAL/MOL
REMARK 923 INTER-LIGAND FREE ENERGY PREDICTED BY IDOCK:   -2.67 KCAL/MOL
REMARK 924 INTRA-LIGAND FREE ENERGY PREDICTED BY IDOCK:   -0.70 KCAL/MOL
REMARK 927      BINDING AFFINITY PREDICTED BY RF-SCORE:    0.00 PKD
ROOT
HETATM    1  C   UNL     1     -11.844  16.718  67.653  1.00  0.00     0.968 C  
HETATM    2  N   UNL     1     -11.318  15.457  67.207  1.00  0.00    -0.273 N  
HETATM    3  C   UNL     1     -11.874  14.263  67.610  1.00  0.00    -0.385 C  
HETATM    4  H   UNL     1     -10.515  15.446  66.578  1.00  0.00     0.000 HD 
HETATM    5  O   UNL     1     -12.830  14.185  68.375  1.00  0.00     0.604 OA 
ENDROOT
BRANCH   3   6
HETATM    6  C   UNL     1     -11.243  13.036  67.024  1.00  0.00    -0.289 A  
HETATM    7  N   UNL     1     -12.072  12.009  66.685  1.00  0.00    -0.540 NA 
HETATM    8  C   UNL     1     -11.473  10.889  66.222  1.00  0.00     0.536 A  
HETATM    9  C   UNL     1     -10.097  10.726  66.121  1.00  0.00    -0.297 A  
HETATM   10  C   UNL     1      -9.281  11.785  66.499  1.00  0.00    -0.201 A  
HETATM   11  C   UNL     1      -9.864  12.985  66.906  1.00  0.00    -0.240 A  
BRANCH  10  12
HETATM   12  O   UNL     1      -7.913  11.584  66.435  1.00  0.00    -0.139 OA 
BRANCH  12  13
HETATM   13  C   UNL     1      -7.460  10.312  66.146  1.00  0.00    -0.121 A  
HETATM   14  C   UNL     1      -7.619   9.730  64.894  1.00  0.00    -0.128 A  
HETATM   15  C   UNL     1      -7.282   8.394  64.702  1.00  0.00    -0.082 A  
HETATM   16  C   UNL     1      -6.666   7.639  65.706  1.00  0.00    -0.046 A  
HETATM   17  C   UNL     1      -6.422   8.256  66.936  1.00  0.00    -0.057 A  
HETATM   18  C   UNL     1      -6.817   9.590  67.154  1.00  0.00    -0.084 A  
BRANCH  16  19
HETATM   19  N   UNL     1      -6.292   6.282  65.509  1.00  0.00    -0.037 N  
HETATM   20  H   UNL     1      -5.342   5.999  65.748  1.00  0.00     0.000 HD 
BRANCH  19  21
HETATM   21  C   UNL     1      -7.163   5.323  65.005  1.00  0.00    -0.066 C  
HETATM   22  O   UNL     1      -7.627   5.376  63.873  1.00  0.00    -0.064 OA 
BRANCH  21  23
HETATM   23  N   UNL     1      -7.469   4.313  65.898  1.00  0.00    -0.080 N  
HETATM   24  H   UNL     1      -7.158   3.365  65.683  1.00  0.00     0.000 HD 
BRANCH  23  25
HETATM   25  C   UNL     1      -8.201   4.530  67.107  1.00  0.00    -0.101 A  
HETATM   26  C   UNL     1      -8.762   5.767  67.443  1.00  0.00    -0.107 A  
HETATM   27  C   UNL     1      -9.389   6.009  68.679  1.00  0.00    -0.121 A  
HETATM   28  C   UNL     1      -9.878   7.395  68.998  1.00  0.00    -0.168 C  
HETATM   29  C   UNL     1      -9.509   4.946  69.568  1.00  0.00    -0.148 A  
HETATM   30  F   UNL     1      -9.305   7.918  70.119  1.00  0.00    -0.154 F  
HETATM   31  F   UNL     1     -11.225   7.452  69.194  1.00  0.00    -0.146 F  
HETATM   32  F   UNL     1      -9.623   8.305  68.013  1.00  0.00    -0.148 F  
HETATM   33 CL   UNL     1     -10.281   5.123  71.101  1.00  0.00    -0.288 Cl 
HETATM   34  C   UNL     1      -9.002   3.683  69.229  1.00  0.00    -0.176 A  
HETATM   35  C   UNL     1      -8.347   3.473  68.008  1.00  0.00    -0.095 A  
ENDBRANCH  23  25
ENDBRANCH  21  23
ENDBRANCH  19  21
ENDBRANCH  16  19
ENDBRANCH  12  13
ENDBRANCH  10  12
ENDBRANCH   3   6
TORSDOF 7
ENDMDL
MODEL      367
REMARK 921   NORMALIZED FREE ENERGY PREDICTED BY IDOCK:   -0.90 KCAL/MOL
REMARK 922        TOTAL FREE ENERGY PREDICTED BY IDOCK:   -3.12 KCAL/MOL
REMARK 923 INTER-LIGAND FREE ENERGY PREDICTED BY IDOCK:   -2.85 KCAL/MOL
REMARK 924 INTRA-LIGAND FREE ENERGY PREDICTED BY IDOCK:   -0.27 KCAL/MOL
REMARK 927      BINDING AFFINITY PREDICTED BY RF-SCORE:    0.00 PKD
ROOT
HETATM    1  C   UNL     1      -5.303   1.797  68.961  1.00  0.00    -0.013 C  
HETATM    2  N   UNL     1      -6.463   2.642  68.898  1.00  0.00    -0.029 N  
HETATM    3  C   UNL     1      -6.350   4.011  68.785  1.00  0.00    -0.033 C  
HETATM    4  H   UNL     1      -7.391   2.221  68.937  1.00  0.00     0.000 HD 
HETATM    5  O   UNL     1      -5.275   4.601  68.746  1.00  0.00    -0.003 OA 
ENDROOT
BRANCH   3   6
HETATM    6  C   UNL     1      -7.650   4.752  68.686  1.00  0.00    -0.069 A  
HETATM    7  N   UNL     1      -8.504   4.657  69.743  1.00  0.00    -0.073 NA 
HETATM    8  C   UNL     1      -9.697   5.278  69.602  1.00  0.00    -0.182 A  
HETATM    9  C   UNL     1     -10.095   5.948  68.452  1.00  0.00    -0.206 A  
HETATM   10  C   UNL     1      -9.208   6.004  67.384  1.00  0.00    -0.109 A  
HETATM   11  C   UNL     1      -7.938   5.444  67.521  1.00  0.00    -0.101 A  
BRANCH  10  12
HETATM   12  O   UNL     1      -9.644   6.635  66.232  1.00  0.00    -0.138 OA 
BRANCH  12  13
HETATM   13  C   UNL     1      -9.267   7.948  66.031  1.00  0.00    -0.104 A  
HETATM   14  C   UNL     1      -8.513   8.658  66.958  1.00  0.00    -0.110 A  
HETATM   15  C   UNL     1      -8.292  10.018  66.776  1.00  0.00    -0.125 A  
HETATM   16  C   UNL     1      -8.703  10.682  65.614  1.00  0.00    -0.188 A  
HETATM   17  C   UNL     1      -9.381   9.943  64.640  1.00  0.00    -0.338 A  
HETATM   18  C   UNL     1      -9.660   8.579  64.848  1.00  0.00     0.969 A  
BRANCH  16  19
HETATM   19  N   UNL     1      -8.457  12.066  65.408  1.00  0.00     0.100 N  
HETATM   20  H   UNL     1      -7.855  12.343  64.631  1.00  0.00     0.000 HD 
BRANCH  19  21
HETATM   21  C   UNL     1      -8.998  13.060  66.215  1.00  0.00     0.097 C  
HETATM   22  O   UNL     1      -9.004  12.994  67.437  1.00  0.00    -0.185 OA 
BRANCH  21  23
HETATM   23  N   UNL     1      -9.539  14.124  65.516  1.00  0.00    -0.544 N  
HETATM   24  H   UNL     1      -9.623  14.045  64.502  1.00  0.00     0.000 HD 
BRANCH  23  25
HETATM   25  C   UNL     1      -9.985  15.328  66.144  1.00  0.00    -0.302 A  
HETATM   26  C   UNL     1      -9.298  16.542  66.034  1.00  0.00    -0.302 A  
HETATM   27  C   UNL     1      -9.677  17.699  66.738  1.00  0.00    -0.300 A  
HETATM   28  C   UNL     1      -8.825  18.935  66.639  1.00  0.00    -0.316 C  
HETATM   29  C   UNL     1     -10.826  17.639  67.521  1.00  0.00    -0.199 A  
HETATM   30  F   UNL     1      -8.349  19.353  67.846  1.00  0.00    -0.306 F  
HETATM   31  F   UNL     1      -9.487  19.995  66.099  1.00  0.00    -0.413 F  
HETATM   32  F   UNL     1      -7.717  18.773  65.858  1.00  0.00    -0.286 F  
HETATM   33 CL   UNL     1     -11.397  19.005  68.407  1.00  0.00     0.968 Cl 
HETATM   34  C   UNL     1     -11.561  16.448  67.602  1.00  0.00     0.282 A  
HETATM   35  C   UNL     1     -11.144  15.295  66.923  1.00  0.00    -0.288 A  
ENDBRANCH  23  25
ENDBRANCH  21  23
ENDBRANCH  19  21
ENDBRANCH  16  19
ENDBRANCH  12  13
ENDBRANCH  10  12
ENDBRANCH   3   6
TORSDOF 7
ENDMDL
MODEL      368
REMARK 921   NORMALIZED FREE ENERGY PREDICTED BY IDOCK:   -0.51 KCAL/MOL
REMARK 922        TOTAL FREE ENERGY PREDICTED BY IDOCK:   -2.57 KCAL/MOL
REMARK 923 INTER-LIGAND FREE ENERGY PREDICTED BY IDOCK:   -3.41 KCAL/MOL
REMARK 924 INTRA-LIGAND FREE ENERGY PREDICTED BY IDOCK:    0.84 KCAL/MOL
REMARK 927      BINDING AFFINITY PREDICTED BY RF-SCORE:    0.00 PKD
ROOT
HETATM    1  C   UNL     1     -12.861  15.697  69.916  1.00  0.00     0.182 C  
HETATM    2  N   UNL     1     -11.635  15.616  69.172  1.00  0.00    -0.361 N  
HETATM    3  C   UNL     1     -10.456  16.125  69.671  1.00  0.00    -0.291 C  
HETATM    4  H   UNL     1     -11.636  15.171  68.254  1.00  0.00     0.000 HD 
HETATM    5  O   UNL     1     -10.367  16.688  70.758  1.00  0.00     0.738 OA 
ENDROOT
BRANCH   3   6
HETATM    6  C   UNL     1      -9.253  15.924  68.798  1.00  0.00    -0.218 A  
HETATM    7  N   UNL     1      -8.676  17.039  68.267  1.00  0.00    -0.233 NA 
HETATM    8  C   UNL     1      -7.636  16.827  67.429  1.00  0.00    -0.163 A  
HETATM    9  C   UNL     1      -7.173  15.570  67.064  1.00  0.00    -0.124 A  
HETATM   10  C   UNL     1      -7.802  14.455  67.606  1.00  0.00    -0.181 A  
HETATM   11  C   UNL     1      -8.826  14.634  68.534  1.00  0.00    -0.182 A  
BRANCH  10  12
HETATM   12  O   UNL     1      -7.355  13.213  67.191  1.00  0.00    -0.093 OA 
BRANCH  12  13
HETATM   13  C   UNL     1      -8.168  12.122  67.424  1.00  0.00    -0.175 A  
HETATM   14  C   UNL     1      -7.750  10.817  67.193  1.00  0.00    -0.120 A  
HETATM   15  C   UNL     1      -8.658   9.769  67.298  1.00  0.00    -0.128 A  
HETATM   16  C   UNL     1      -9.965   9.970  67.755  1.00  0.00    -0.170 A  
HETATM   17  C   UNL     1     -10.356  11.273  68.075  1.00  0.00    -0.204 A  
HETATM   18  C   UNL     1      -9.458  12.345  67.912  1.00  0.00    -0.198 A  
BRANCH  16  19
HETATM   19  N   UNL     1     -10.891   8.901  67.892  1.00  0.00    -0.484 N  
HETATM   20  H   UNL     1     -11.771   8.949  67.378  1.00  0.00     0.000 HD 
BRANCH  19  21
HETATM   21  C   UNL     1     -10.652   7.792  68.695  1.00  0.00    -0.120 C  
HETATM   22  O   UNL     1     -11.359   7.498  69.651  1.00  0.00    -0.081 OA 
BRANCH  21  23
HETATM   23  N   UNL     1      -9.539   7.057  68.329  1.00  0.00    -0.134 N  
HETATM   24  H   UNL     1      -9.344   6.934  67.335  1.00  0.00     0.000 HD 
BRANCH  23  25
HETATM   25  C   UNL     1      -8.647   6.461  69.274  1.00  0.00    -0.125 A  
HETATM   26  C   UNL     1      -8.070   5.200  69.083  1.00  0.00    -0.084 A  
HETATM   27  C   UNL     1      -7.280   4.568  70.060  1.00  0.00    -0.050 A  
HETATM   28  C   UNL     1      -6.779   3.171  69.812  1.00  0.00    -0.034 C  
HETATM   29  C   UNL     1      -7.012   5.265  71.234  1.00  0.00    -0.053 A  
HETATM   30  F   UNL     1      -7.197   2.279  70.754  1.00  0.00    -0.032 F  
HETATM   31  F   UNL     1      -5.419   3.090  69.785  1.00  0.00    -0.013 F  
HETATM   32  F   UNL     1      -7.189   2.647  68.620  1.00  0.00    -0.046 F  
HETATM   33 CL   UNL     1      -6.034   4.596  72.488  1.00  0.00    -0.016 Cl 
HETATM   34  C   UNL     1      -7.535   6.552  71.423  1.00  0.00    -0.089 A  
HETATM   35  C   UNL     1      -8.353   7.148  70.453  1.00  0.00    -0.128 A  
ENDBRANCH  23  25
ENDBRANCH  21  23
ENDBRANCH  19  21
ENDBRANCH  16  19
ENDBRANCH  12  13
ENDBRANCH  10  12
ENDBRANCH   3   6
TORSDOF 7
ENDMDL
MODEL      369
REMARK 921   NORMALIZED FREE ENERGY PREDICTED BY IDOCK:   -0.50 KCAL/MOL
REMARK 922        TOTAL FREE ENERGY PREDICTED BY IDOCK:   -2.56 KCAL/MOL
REMARK 923 INTER-LIGAND FREE ENERGY PREDICTED BY IDOCK:   -1.54 KCAL/MOL
REMARK 924 INTRA-LIGAND FREE ENERGY PREDICTED BY IDOCK:   -1.02 KCAL/MOL
REMARK 927      BINDING AFFINITY PREDICTED BY RF-SCORE:    0.00 PKD
ROOT
HETATM    1  C   UNL     1     -14.411   9.839  72.575  1.00  0.00     0.515 C  
HETATM    2  N   UNL     1     -13.898  11.100  72.115  1.00  0.00    -0.174 N  
HETATM    3  C   UNL     1     -12.664  11.196  71.511  1.00  0.00    -0.394 C  
HETATM    4  H   UNL     1     -14.460  11.941  72.238  1.00  0.00     0.000 HD 
HETATM    5  O   UNL     1     -11.918  10.238  71.337  1.00  0.00    -0.368 OA 
ENDROOT
BRANCH   3   6
HETATM    6  C   UNL     1     -12.288  12.572  71.045  1.00  0.00    -0.210 A  
HETATM    7  N   UNL     1     -13.210  13.561  71.216  1.00  0.00    -0.264 NA 
HETATM    8  C   UNL     1     -12.874  14.776  70.727  1.00  0.00    -0.361 A  
HETATM    9  C   UNL     1     -11.694  15.043  70.046  1.00  0.00    -0.345 A  
HETATM   10  C   UNL     1     -10.787  14.004  69.869  1.00  0.00     0.199 A  
HETATM   11  C   UNL     1     -11.062  12.757  70.427  1.00  0.00     1.116 A  
BRANCH  10  12
HETATM   12  O   UNL     1      -9.641  14.282  69.146  1.00  0.00    -0.076 OA 
BRANCH  12  13
HETATM   13  C   UNL     1      -9.591  13.870  67.829  1.00  0.00    -0.222 A  
HETATM   14  C   UNL     1      -9.409  12.540  67.470  1.00  0.00    -0.187 A  
HETATM   15  C   UNL     1      -9.213  12.203  66.135  1.00  0.00    -0.155 A  
HETATM   16  C   UNL     1      -9.315  13.153  65.113  1.00  0.00     0.585 A  
HETATM   17  C   UNL     1      -9.590  14.476  65.471  1.00  0.00    -0.117 A  
HETATM   18  C   UNL     1      -9.729  14.832  66.826  1.00  0.00    -0.264 A  
BRANCH  16  19
HETATM   19  N   UNL     1      -9.145  12.812  63.744  1.00  0.00     1.034 N  
HETATM   20  H   UNL     1      -9.027  13.564  63.066  1.00  0.00     0.000 HD 
BRANCH  19  21
HETATM   21  C   UNL     1      -9.131  11.499  63.288  1.00  0.00    -0.034 C  
HETATM   22  O   UNL     1     -10.094  10.975  62.742  1.00  0.00    -0.230 OA 
BRANCH  21  23
HETATM   23  N   UNL     1      -7.940  10.834  63.514  1.00  0.00    -0.362 N  
HETATM   24  H   UNL     1      -7.074  11.373  63.508  1.00  0.00     0.000 HD 
BRANCH  23  25
HETATM   25  C   UNL     1      -7.862   9.427  63.755  1.00  0.00    -0.132 A  
HETATM   26  C   UNL     1      -8.266   8.839  64.960  1.00  0.00    -0.156 A  
HETATM   27  C   UNL     1      -8.090   7.472  65.237  1.00  0.00    -0.130 A  
HETATM   28  C   UNL     1      -8.461   6.941  66.595  1.00  0.00    -0.121 C  
HETATM   29  C   UNL     1      -7.554   6.667  64.236  1.00  0.00    -0.104 A  
HETATM   30  F   UNL     1      -7.413   6.365  67.248  1.00  0.00    -0.080 F  
HETATM   31  F   UNL     1      -9.447   6.001  66.547  1.00  0.00    -0.145 F  
HETATM   32  F   UNL     1      -8.927   7.900  67.448  1.00  0.00    -0.124 F  
HETATM   33 CL   UNL     1      -7.317   4.972  64.458  1.00  0.00    -0.062 Cl 
HETATM   34  C   UNL     1      -7.193   7.225  63.001  1.00  0.00    -0.078 A  
HETATM   35  C   UNL     1      -7.341   8.598  62.760  1.00  0.00    -0.096 A  
ENDBRANCH  23  25
ENDBRANCH  21  23
ENDBRANCH  19  21
ENDBRANCH  16  19
ENDBRANCH  12  13
ENDBRANCH  10  12
ENDBRANCH   3   6
TORSDOF 7
ENDMDL
MODEL      370
REMARK 921   NORMALIZED FREE ENERGY PREDICTED BY IDOCK:   -0.47 KCAL/MOL
REMARK 922        TOTAL FREE ENERGY PREDICTED BY IDOCK:   -2.51 KCAL/MOL
REMARK 923 INTER-LIGAND FREE ENERGY PREDICTED BY IDOCK:   -1.68 KCAL/MOL
REMARK 924 INTRA-LIGAND FREE ENERGY PREDICTED BY IDOCK:   -0.82 KCAL/MOL
REMARK 927      BINDING AFFINITY PREDICTED BY RF-SCORE:    0.00 PKD
ROOT
HETATM    1  C   UNL     1     -12.417  15.717  64.933  1.00  0.00     0.592 C  
HETATM    2  N   UNL     1     -11.096  15.686  65.498  1.00  0.00    -0.271 N  
HETATM    3  C   UNL     1     -10.803  14.909  66.598  1.00  0.00    -0.319 C  
HETATM    4  H   UNL     1     -10.360  16.251  65.076  1.00  0.00     0.000 HD 
HETATM    5  O   UNL     1     -11.632  14.213  67.175  1.00  0.00    -0.336 OA 
ENDROOT
BRANCH   3   6
HETATM    6  C   UNL     1      -9.372  14.949  67.044  1.00  0.00    -0.227 A  
HETATM    7  N   UNL     1      -8.483  15.581  66.227  1.00  0.00    -0.200 NA 
HETATM    8  C   UNL     1      -7.188  15.545  66.617  1.00  0.00     0.488 A  
HETATM    9  C   UNL     1      -6.734  14.880  67.748  1.00  0.00    -0.191 A  
HETATM   10  C   UNL     1      -7.666  14.226  68.545  1.00  0.00    -0.137 A  
HETATM   11  C   UNL     1      -9.019  14.308  68.219  1.00  0.00    -0.187 A  
BRANCH  10  12
HETATM   12  O   UNL     1      -7.185  13.531  69.641  1.00  0.00     0.164 OA 
BRANCH  12  13
HETATM   13  C   UNL     1      -6.886  12.193  69.477  1.00  0.00     0.044 A  
HETATM   14  C   UNL     1      -7.798  11.282  68.958  1.00  0.00    -0.079 A  
HETATM   15  C   UNL     1      -7.500   9.924  68.958  1.00  0.00    -0.083 A  
HETATM   16  C   UNL     1      -6.246   9.446  69.356  1.00  0.00    -0.040 A  
HETATM   17  C   UNL     1      -5.296  10.375  69.791  1.00  0.00    -0.038 A  
HETATM   18  C   UNL     1      -5.616  11.745  69.849  1.00  0.00    -0.105 A  
BRANCH  16  19
HETATM   19  N   UNL     1      -5.923   8.063  69.332  1.00  0.00    -0.033 N  
HETATM   20  H   UNL     1      -5.714   7.596  70.215  1.00  0.00     0.000 HD 
BRANCH  19  21
HETATM   21  C   UNL     1      -5.878   7.316  68.161  1.00  0.00    -0.023 C  
HETATM   22  O   UNL     1      -5.141   7.593  67.223  1.00  0.00    -0.024 OA 
BRANCH  21  23
HETATM   23  N   UNL     1      -6.747   6.240  68.142  1.00  0.00    -0.065 N  
HETATM   24  H   UNL     1      -6.972   5.783  69.026  1.00  0.00     0.000 HD 
BRANCH  23  25
HETATM   25  C   UNL     1      -7.345   5.737  66.945  1.00  0.00    -0.079 A  
HETATM   26  C   UNL     1      -6.693   4.840  66.090  1.00  0.00    -0.050 A  
HETATM   27  C   UNL     1      -7.237   4.429  64.860  1.00  0.00    -0.070 A  
HETATM   28  C   UNL     1      -6.427   3.541  63.956  1.00  0.00    -0.034 C  
HETATM   29  C   UNL     1      -8.508   4.886  64.523  1.00  0.00    -0.144 A  
HETATM   30  F   UNL     1      -6.197   4.094  62.731  1.00  0.00    -0.016 F  
HETATM   31  F   UNL     1      -7.017   2.335  63.727  1.00  0.00    -0.032 F  
HETATM   32  F   UNL     1      -5.189   3.243  64.449  1.00  0.00    -0.007 F  
HETATM   33 CL   UNL     1      -9.281   4.425  63.052  1.00  0.00    -0.141 Cl 
HETATM   34  C   UNL     1      -9.202   5.741  65.391  1.00  0.00     0.077 A  
HETATM   35  C   UNL     1      -8.624   6.170  66.595  1.00  0.00    -0.118 A  
ENDBRANCH  23  25
ENDBRANCH  21  23
ENDBRANCH  19  21
ENDBRANCH  16  19
ENDBRANCH  12  13
ENDBRANCH  10  12
ENDBRANCH   3   6
TORSDOF 7
ENDMDL
MODEL      371
REMARK 921   NORMALIZED FREE ENERGY PREDICTED BY IDOCK:   -0.20 KCAL/MOL
REMARK 922        TOTAL FREE ENERGY PREDICTED BY IDOCK:   -2.12 KCAL/MOL
REMARK 923 INTER-LIGAND FREE ENERGY PREDICTED BY IDOCK:   -3.46 KCAL/MOL
REMARK 924 INTRA-LIGAND FREE ENERGY PREDICTED BY IDOCK:    1.34 KCAL/MOL
REMARK 927      BINDING AFFINITY PREDICTED BY RF-SCORE:    0.00 PKD
ROOT
HETATM    1  C   UNL     1     -12.844  15.730  69.928  1.00  0.00     0.321 C  
HETATM    2  N   UNL     1     -11.587  15.649  69.237  1.00  0.00    -0.343 N  
HETATM    3  C   UNL     1     -10.425  16.130  69.800  1.00  0.00    -0.286 C  
HETATM    4  H   UNL     1     -11.553  15.226  68.310  1.00  0.00     0.000 HD 
HETATM    5  O   UNL     1     -10.378  16.665  70.903  1.00  0.00     0.929 OA 
ENDROOT
BRANCH   3   6
HETATM    6  C   UNL     1      -9.188  15.932  68.976  1.00  0.00    -0.242 A  
HETATM    7  N   UNL     1      -8.559  17.051  68.518  1.00  0.00    -0.249 NA 
HETATM    8  C   UNL     1      -7.486  16.846  67.722  1.00  0.00    -0.164 A  
HETATM    9  C   UNL     1      -7.036  15.593  67.328  1.00  0.00    -0.242 A  
HETATM   10  C   UNL     1      -7.716  14.474  67.795  1.00  0.00    -0.156 A  
HETATM   11  C   UNL     1      -8.779  14.642  68.681  1.00  0.00    -0.174 A  
BRANCH  10  12
HETATM   12  O   UNL     1      -7.280  13.238  67.351  1.00  0.00    -0.161 OA 
BRANCH  12  13
HETATM   13  C   UNL     1      -8.129  12.159  67.504  1.00  0.00    -0.163 A  
HETATM   14  C   UNL     1      -7.738  10.856  67.220  1.00  0.00    -0.112 A  
HETATM   15  C   UNL     1      -8.675   9.830  67.245  1.00  0.00    -0.135 A  
HETATM   16  C   UNL     1      -9.991  10.044  67.669  1.00  0.00    -0.176 A  
HETATM   17  C   UNL     1     -10.358  11.341  68.042  1.00  0.00    -0.204 A  
HETATM   18  C   UNL     1      -9.427  12.394  67.961  1.00  0.00    -0.208 A  
BRANCH  16  19
HETATM   19  N   UNL     1     -10.948   8.995  67.723  1.00  0.00    -0.496 N  
HETATM   20  H   UNL     1     -11.815   9.099  67.196  1.00  0.00     0.000 HD 
BRANCH  19  21
HETATM   21  C   UNL     1     -10.756   7.834  68.462  1.00  0.00    -0.036 C  
HETATM   22  O   UNL     1     -11.664   7.268  69.059  1.00  0.00     0.430 OA 
BRANCH  21  23
HETATM   23  N   UNL     1      -9.450   7.381  68.475  1.00  0.00    -0.144 N  
HETATM   24  H   UNL     1      -8.898   7.467  67.621  1.00  0.00     0.000 HD 
BRANCH  23  25
HETATM   25  C   UNL     1      -8.835   6.796  69.625  1.00  0.00    -0.144 A  
HETATM   26  C   UNL     1      -9.492   6.665  70.854  1.00  0.00    -0.169 A  
HETATM   27  C   UNL     1      -8.853   6.189  72.013  1.00  0.00    -0.139 A  
HETATM   28  C   UNL     1      -9.605   6.172  73.316  1.00  0.00    -0.147 C  
HETATM   29  C   UNL     1      -7.531   5.769  71.903  1.00  0.00    -0.095 A  
HETATM   30  F   UNL     1      -9.007   6.918  74.287  1.00  0.00    -0.164 F  
HETATM   31  F   UNL     1      -9.752   4.919  73.830  1.00  0.00    -0.128 F  
HETATM   32  F   UNL     1     -10.874   6.667  73.220  1.00  0.00    -0.250 F  
HETATM   33 CL   UNL     1      -6.658   5.145  73.254  1.00  0.00    -0.068 Cl 
HETATM   34  C   UNL     1      -6.870   5.841  70.669  1.00  0.00    -0.053 A  
HETATM   35  C   UNL     1      -7.513   6.355  69.535  1.00  0.00    -0.093 A  
ENDBRANCH  23  25
ENDBRANCH  21  23
ENDBRANCH  19  21
ENDBRANCH  16  19
ENDBRANCH  12  13
ENDBRANCH  10  12
ENDBRANCH   3   6
TORSDOF 7
ENDMDL
MODEL      372
REMARK 921   NORMALIZED FREE ENERGY PREDICTED BY IDOCK:   -0.02 KCAL/MOL
REMARK 922        TOTAL FREE ENERGY PREDICTED BY IDOCK:   -1.88 KCAL/MOL
REMARK 923 INTER-LIGAND FREE ENERGY PREDICTED BY IDOCK:   -1.88 KCAL/MOL
REMARK 924 INTRA-LIGAND FREE ENERGY PREDICTED BY IDOCK:   -0.00 KCAL/MOL
REMARK 927      BINDING AFFINITY PREDICTED BY RF-SCORE:    0.00 PKD
ROOT
HETATM    1  C   UNL     1     -12.402  16.755  67.688  1.00  0.00     2.335 C  
HETATM    2  N   UNL     1     -11.842  15.437  67.568  1.00  0.00    -0.224 N  
HETATM    3  C   UNL     1     -11.639  14.640  68.674  1.00  0.00    -0.314 C  
HETATM    4  H   UNL     1     -11.589  15.085  66.646  1.00  0.00     0.000 HD 
HETATM    5  O   UNL     1     -11.901  14.990  69.819  1.00  0.00    -0.284 OA 
ENDROOT
BRANCH   3   6
HETATM    6  C   UNL     1     -11.088  13.276  68.382  1.00  0.00    -0.270 A  
HETATM    7  N   UNL     1     -11.467  12.261  69.210  1.00  0.00    -0.281 NA 
HETATM    8  C   UNL     1     -10.905  11.055  68.967  1.00  0.00    -0.229 A  
HETATM    9  C   UNL     1      -9.960  10.821  67.977  1.00  0.00    -0.183 A  
HETATM   10  C   UNL     1      -9.579  11.885  67.167  1.00  0.00    -0.186 A  
HETATM   11  C   UNL     1     -10.195  13.125  67.335  1.00  0.00    -0.232 A  
BRANCH  10  12
HETATM   12  O   UNL     1      -8.601  11.640  66.219  1.00  0.00    -0.175 OA 
BRANCH  12  13
HETATM   13  C   UNL     1      -8.068  10.368  66.153  1.00  0.00    -0.139 A  
HETATM   14  C   UNL     1      -8.581   9.387  65.313  1.00  0.00    -0.182 A  
HETATM   15  C   UNL     1      -8.105   8.083  65.398  1.00  0.00    -0.135 A  
HETATM   16  C   UNL     1      -7.030   7.744  66.226  1.00  0.00    -0.063 A  
HETATM   17  C   UNL     1      -6.455   8.754  67.003  1.00  0.00    -0.061 A  
HETATM   18  C   UNL     1      -6.973  10.063  66.964  1.00  0.00    -0.088 A  
BRANCH  16  19
HETATM   19  N   UNL     1      -6.519   6.420  66.298  1.00  0.00    -0.042 N  
HETATM   20  H   UNL     1      -5.830   6.202  67.018  1.00  0.00     0.000 HD 
BRANCH  19  21
HETATM   21  C   UNL     1      -6.916   5.408  65.433  1.00  0.00    -0.065 C  
HETATM   22  O   UNL     1      -6.394   5.224  64.340  1.00  0.00    -0.028 OA 
BRANCH  21  23
HETATM   23  N   UNL     1      -7.960   4.634  65.907  1.00  0.00    -0.098 N  
HETATM   24  H   UNL     1      -8.610   4.230  65.232  1.00  0.00     0.000 HD 
BRANCH  23  25
HETATM   25  C   UNL     1      -8.174   4.374  67.296  1.00  0.00    -0.100 A  
HETATM   26  C   UNL     1      -7.295   4.810  68.295  1.00  0.00    -0.066 A  
HETATM   27  C   UNL     1      -7.449   4.463  69.649  1.00  0.00    -0.051 A  
HETATM   28  C   UNL     1      -6.404   4.892  70.642  1.00  0.00    -0.026 C  
HETATM   29  C   UNL     1      -8.563   3.710  70.008  1.00  0.00    -0.061 A  
HETATM   30  F   UNL     1      -5.821   3.844  71.291  1.00  0.00    -0.011 F  
HETATM   31  F   UNL     1      -6.896   5.715  71.609  1.00  0.00    -0.057 F  
HETATM   32  F   UNL     1      -5.367   5.581  70.082  1.00  0.00    -0.004 F  
HETATM   33 CL   UNL     1      -8.863   3.249  71.643  1.00  0.00    -0.123 Cl 
HETATM   34  C   UNL     1      -9.486   3.309  69.031  1.00  0.00    -0.187 A  
HETATM   35  C   UNL     1      -9.293   3.633  67.681  1.00  0.00    -0.246 A  
ENDBRANCH  23  25
ENDBRANCH  21  23
ENDBRANCH  19  21
ENDBRANCH  16  19
ENDBRANCH  12  13
ENDBRANCH  10  12
ENDBRANCH   3   6
TORSDOF 7
ENDMDL
MODEL      373
REMARK 921   NORMALIZED FREE ENERGY PREDICTED BY IDOCK:    1.96 KCAL/MOL
REMARK 922        TOTAL FREE ENERGY PREDICTED BY IDOCK:    0.92 KCAL/MOL
REMARK 923 INTER-LIGAND FREE ENERGY PREDICTED BY IDOCK:    1.62 KCAL/MOL
REMARK 924 INTRA-LIGAND FREE ENERGY PREDICTED BY IDOCK:   -0.70 KCAL/MOL
REMARK 927      BINDING AFFINITY PREDICTED BY RF-SCORE:    0.00 PKD
ROOT
HETATM    1  C   UNL     1      -9.993   6.495  66.180  1.00  0.00     0.176 C  
HETATM    2  N   UNL     1     -10.071   7.133  67.465  1.00  0.00    -0.171 N  
HETATM    3  C   UNL     1     -10.502   6.450  68.582  1.00  0.00    -0.223 C  
HETATM    4  H   UNL     1      -9.801   8.112  67.553  1.00  0.00     0.000 HD 
HETATM    5  O   UNL     1     -10.859   5.277  68.562  1.00  0.00    -0.025 OA 
ENDROOT
BRANCH   3   6
HETATM    6  C   UNL     1     -10.486   7.239  69.857  1.00  0.00    -0.225 A  
HETATM    7  N   UNL     1     -10.781   6.571  71.007  1.00  0.00    -0.234 NA 
HETATM    8  C   UNL     1     -10.826   7.317  72.134  1.00  0.00    -0.229 A  
HETATM    9  C   UNL     1     -10.634   8.693  72.165  1.00  0.00    -0.411 A  
HETATM   10  C   UNL     1     -10.359   9.345  70.969  1.00  0.00    -0.312 A  
HETATM   11  C   UNL     1     -10.226   8.598  69.799  1.00  0.00    -0.206 A  
BRANCH  10  12
HETATM   12  O   UNL     1     -10.219  10.721  71.017  1.00  0.00     1.466 OA 
BRANCH  12  13
HETATM   13  C   UNL     1      -9.829  11.372  69.863  1.00  0.00     1.224 A  
HETATM   14  C   UNL     1     -10.738  11.987  69.011  1.00  0.00    -0.178 A  
HETATM   15  C   UNL     1     -10.309  12.494  67.789  1.00  0.00    -0.224 A  
HETATM   16  C   UNL     1      -8.956  12.517  67.435  1.00  0.00    -0.188 A  
HETATM   17  C   UNL     1      -8.032  11.980  68.337  1.00  0.00    -0.152 A  
HETATM   18  C   UNL     1      -8.469  11.411  69.549  1.00  0.00     0.659 A  
BRANCH  16  19
HETATM   19  N   UNL     1      -8.506  13.058  66.201  1.00  0.00    -0.016 N  
HETATM   20  H   UNL     1      -7.530  13.346  66.122  1.00  0.00     0.000 HD 
BRANCH  19  21
HETATM   21  C   UNL     1      -9.334  13.214  65.096  1.00  0.00     0.585 C  
HETATM   22  O   UNL     1      -9.388  12.397  64.185  1.00  0.00     0.225 OA 
BRANCH  21  23
HETATM   23  N   UNL     1     -10.083  14.376  65.110  1.00  0.00    -0.507 N  
HETATM   24  H   UNL     1     -10.921  14.420  64.530  1.00  0.00     0.000 HD 
BRANCH  23  25
HETATM   25  C   UNL     1      -9.739  15.521  65.895  1.00  0.00    -0.357 A  
HETATM   26  C   UNL     1     -10.303  15.778  67.150  1.00  0.00    -0.291 A  
HETATM   27  C   UNL     1     -10.047  16.956  67.873  1.00  0.00    -0.288 A  
HETATM   28  C   UNL     1     -10.771  17.197  69.170  1.00  0.00    -0.184 C  
HETATM   29  C   UNL     1      -9.138  17.865  67.340  1.00  0.00    -0.245 A  
HETATM   30  F   UNL     1     -11.511  18.342  69.162  1.00  0.00     1.296 F  
HETATM   31  F   UNL     1      -9.932  17.290  70.239  1.00  0.00     0.449 F  
HETATM   32  F   UNL     1     -11.653  16.207  69.496  1.00  0.00    -0.313 F  
HETATM   33 CL   UNL     1      -8.730  19.330  68.153  1.00  0.00    -0.355 Cl 
HETATM   34  C   UNL     1      -8.520  17.601  66.109  1.00  0.00    -0.167 A  
HETATM   35  C   UNL     1      -8.820  16.439  65.385  1.00  0.00     1.044 A  
ENDBRANCH  23  25
ENDBRANCH  21  23
ENDBRANCH  19  21
ENDBRANCH  16  19
ENDBRANCH  12  13
ENDBRANCH  10  12
ENDBRANCH   3   6
TORSDOF 7
ENDMDL
MODEL      374
REMARK 921   NORMALIZED FREE ENERGY PREDICTED BY IDOCK:    3.19 KCAL/MOL
REMARK 922        TOTAL FREE ENERGY PREDICTED BY IDOCK:    2.64 KCAL/MOL
REMARK 923 INTER-LIGAND FREE ENERGY PREDICTED BY IDOCK:    2.75 KCAL/MOL
REMARK 924 INTRA-LIGAND FREE ENERGY PREDICTED BY IDOCK:   -0.11 KCAL/MOL
REMARK 927      BINDING AFFINITY PREDICTED BY RF-SCORE:    0.00 PKD
ROOT
HETATM    1  C   UNL     1      -5.363   7.860  70.309  1.00  0.00    -0.023 C  
HETATM    2  N   UNL     1      -5.839   8.113  68.977  1.00  0.00    -0.034 N  
HETATM    3  C   UNL     1      -6.958   8.884  68.748  1.00  0.00    -0.063 C  
HETATM    4  H   UNL     1      -5.337   7.715  68.184  1.00  0.00     0.000 HD 
HETATM    5  O   UNL     1      -7.628   9.388  69.644  1.00  0.00    -0.079 OA 
ENDROOT
BRANCH   3   6
HETATM    6  C   UNL     1      -7.302   9.094  67.304  1.00  0.00    -0.087 A  
HETATM    7  N   UNL     1      -6.273   9.086  66.411  1.00  0.00    -0.063 NA 
HETATM    8  C   UNL     1      -6.601   9.345  65.124  1.00  0.00    -0.079 A  
HETATM    9  C   UNL     1      -7.885   9.651  64.694  1.00  0.00    -0.133 A  
HETATM   10  C   UNL     1      -8.906   9.674  65.637  1.00  0.00    -0.159 A  
HETATM   11  C   UNL     1      -8.622   9.335  66.959  1.00  0.00    -0.128 A  
BRANCH  10  12
HETATM   12  O   UNL     1     -10.168  10.028  65.194  1.00  0.00    -0.288 OA 
BRANCH  12  13
HETATM   13  C   UNL     1     -10.532  11.358  65.273  1.00  0.00    -0.283 A  
HETATM   14  C   UNL     1     -11.755  11.767  65.791  1.00  0.00    -0.093 A  
HETATM   15  C   UNL     1     -12.132  13.103  65.706  1.00  0.00    -0.502 A  
HETATM   16  C   UNL     1     -11.262  14.084  65.219  1.00  0.00    -0.319 A  
HETATM   17  C   UNL     1      -9.996  13.682  64.783  1.00  0.00    -0.147 A  
HETATM   18  C   UNL     1      -9.633  12.322  64.812  1.00  0.00     0.072 A  
BRANCH  16  19
HETATM   19  N   UNL     1     -11.629  15.455  65.155  1.00  0.00    -0.195 N  
HETATM   20  H   UNL     1     -12.478  15.709  64.649  1.00  0.00     0.000 HD 
BRANCH  19  21
HETATM   21  C   UNL     1     -10.884  16.467  65.750  1.00  0.00    -0.145 C  
HETATM   22  O   UNL     1     -10.206  17.259  65.108  1.00  0.00    -0.432 OA 
BRANCH  21  23
HETATM   23  N   UNL     1     -10.967  16.493  67.130  1.00  0.00    -0.132 N  
HETATM   24  H   UNL     1     -10.859  17.389  67.606  1.00  0.00     0.000 HD 
BRANCH  23  25
HETATM   25  C   UNL     1     -11.195  15.326  67.924  1.00  0.00    -0.331 A  
HETATM   26  C   UNL     1     -10.158  14.506  68.385  1.00  0.00    -0.241 A  
HETATM   27  C   UNL     1     -10.388  13.302  69.073  1.00  0.00     0.014 A  
HETATM   28  C   UNL     1      -9.220  12.432  69.447  1.00  0.00     1.214 C  
HETATM   29  C   UNL     1     -11.705  12.956  69.362  1.00  0.00    -0.321 A  
HETATM   30  F   UNL     1      -9.292  11.181  68.910  1.00  0.00    -0.176 F  
HETATM   31  F   UNL     1      -9.090  12.264  70.793  1.00  0.00     5.270 F  
HETATM   32  F   UNL     1      -8.016  12.926  69.033  1.00  0.00    -0.033 F  
HETATM   33 CL   UNL     1     -12.101  11.515  70.223  1.00  0.00    -0.434 Cl 
HETATM   34  C   UNL     1     -12.757  13.791  68.957  1.00  0.00     0.689 A  
HETATM   35  C   UNL     1     -12.507  14.968  68.238  1.00  0.00     0.407 A  
ENDBRANCH  23  25
ENDBRANCH  21  23
ENDBRANCH  19  21
ENDBRANCH  16  19
ENDBRANCH  12  13
ENDBRANCH  10  12
ENDBRANCH   3   6
TORSDOF 7
ENDMDL
MODEL      375
REMARK 921   NORMALIZED FREE ENERGY PREDICTED BY IDOCK:    4.52 KCAL/MOL
REMARK 922        TOTAL FREE ENERGY PREDICTED BY IDOCK:    4.53 KCAL/MOL
REMARK 923 INTER-LIGAND FREE ENERGY PREDICTED BY IDOCK:    5.13 KCAL/MOL
REMARK 924 INTRA-LIGAND FREE ENERGY PREDICTED BY IDOCK:   -0.60 KCAL/MOL
REMARK 927      BINDING AFFINITY PREDICTED BY RF-SCORE:    0.00 PKD
ROOT
HETATM    1  C   UNL     1      -5.577   9.733  62.348  1.00  0.00    -0.089 C  
HETATM    2  N   UNL     1      -6.626  10.636  62.730  1.00  0.00    -0.315 N  
HETATM    3  C   UNL     1      -7.554  10.296  63.691  1.00  0.00    -0.101 C  
HETATM    4  H   UNL     1      -6.686  11.550  62.281  1.00  0.00     0.000 HD 
HETATM    5  O   UNL     1      -7.564   9.214  64.269  1.00  0.00    -0.108 OA 
ENDROOT
BRANCH   3   6
HETATM    6  C   UNL     1      -8.560  11.361  64.011  1.00  0.00     0.527 A  
HETATM    7  N   UNL     1      -8.814  12.288  63.046  1.00  0.00     0.759 NA 
HETATM    8  C   UNL     1      -9.674  13.277  63.383  1.00  0.00     2.950 A  
HETATM    9  C   UNL     1     -10.255  13.409  64.638  1.00  0.00    -0.338 A  
HETATM   10  C   UNL     1      -9.954  12.458  65.606  1.00  0.00    -0.244 A  
HETATM   11  C   UNL     1      -9.134  11.380  65.271  1.00  0.00    -0.087 A  
BRANCH  10  12
HETATM   12  O   UNL     1     -10.506  12.636  66.861  1.00  0.00    -0.231 OA 
BRANCH  12  13
HETATM   13  C   UNL     1      -9.659  12.969  67.900  1.00  0.00    -0.215 A  
HETATM   14  C   UNL     1     -10.081  13.706  69.000  1.00  0.00     0.038 A  
HETATM   15  C   UNL     1      -9.154  14.143  69.939  1.00  0.00     1.342 A  
HETATM   16  C   UNL     1      -7.809  13.759  69.880  1.00  0.00     1.194 A  
HETATM   17  C   UNL     1      -7.406  12.940  68.821  1.00  0.00    -0.066 A  
HETATM   18  C   UNL     1      -8.330  12.545  67.835  1.00  0.00    -0.167 A  
BRANCH  16  19
HETATM   19  N   UNL     1      -6.861  14.177  70.851  1.00  0.00    -0.070 N  
HETATM   20  H   UNL     1      -6.559  13.507  71.559  1.00  0.00     0.000 HD 
BRANCH  19  21
HETATM   21  C   UNL     1      -6.323  15.459  70.881  1.00  0.00     0.453 C  
HETATM   22  O   UNL     1      -5.168  15.688  71.217  1.00  0.00    -0.148 OA 
BRANCH  21  23
HETATM   23  N   UNL     1      -7.210  16.453  70.510  1.00  0.00     1.547 N  
HETATM   24  H   UNL     1      -7.850  16.820  71.215  1.00  0.00     0.000 HD 
BRANCH  23  25
HETATM   25  C   UNL     1      -7.275  16.991  69.187  1.00  0.00    -0.209 A  
HETATM   26  C   UNL     1      -8.421  17.611  68.675  1.00  0.00    -0.266 A  
HETATM   27  C   UNL     1      -8.521  18.044  67.341  1.00  0.00    -0.240 A  
HETATM   28  C   UNL     1      -9.824  18.611  66.845  1.00  0.00    -0.333 C  
HETATM   29  C   UNL     1      -7.403  17.907  66.524  1.00  0.00    -0.244 A  
HETATM   30  F   UNL     1     -10.343  17.915  65.794  1.00  0.00    -0.349 F  
HETATM   31  F   UNL     1      -9.719  19.905  66.434  1.00  0.00    -0.406 F  
HETATM   32  F   UNL     1     -10.811  18.617  67.788  1.00  0.00    -0.436 F  
HETATM   33 CL   UNL     1      -7.405  18.426  64.880  1.00  0.00     1.320 Cl 
HETATM   34  C   UNL     1      -6.226  17.338  67.033  1.00  0.00    -0.203 A  
HETATM   35  C   UNL     1      -6.160  16.878  68.355  1.00  0.00    -0.139 A  
ENDBRANCH  23  25
ENDBRANCH  21  23
ENDBRANCH  19  21
ENDBRANCH  16  19
ENDBRANCH  12  13
ENDBRANCH  10  12
ENDBRANCH   3   6
TORSDOF 7
ENDMDL
MODEL      376
REMARK 921   NORMALIZED FREE ENERGY PREDICTED BY IDOCK:    6.35 KCAL/MOL
REMARK 922        TOTAL FREE ENERGY PREDICTED BY IDOCK:    7.10 KCAL/MOL
REMARK 923 INTER-LIGAND FREE ENERGY PREDICTED BY IDOCK:    5.44 KCAL/MOL
REMARK 924 INTRA-LIGAND FREE ENERGY PREDICTED BY IDOCK:    1.67 KCAL/MOL
REMARK 927      BINDING AFFINITY PREDICTED BY RF-SCORE:    0.00 PKD
ROOT
HETATM    1  C   UNL     1     -12.831  15.820  69.997  1.00  0.00     0.231 C  
HETATM    2  N   UNL     1     -11.424  15.626  69.782  1.00  0.00    -0.314 N  
HETATM    3  C   UNL     1     -10.522  15.692  70.821  1.00  0.00     0.131 C  
HETATM    4  H   UNL     1     -11.086  15.435  68.839  1.00  0.00     0.000 HD 
HETATM    5  O   UNL     1     -10.841  15.931  71.981  1.00  0.00     0.292 OA 
ENDROOT
BRANCH   3   6
HETATM    6  C   UNL     1      -9.095  15.424  70.444  1.00  0.00     0.984 A  
HETATM    7  N   UNL     1      -8.141  16.210  71.017  1.00  0.00     3.789 NA 
HETATM    8  C   UNL     1      -6.870  15.993  70.611  1.00  0.00     1.222 A  
HETATM    9  C   UNL     1      -6.509  15.069  69.639  1.00  0.00    -0.154 A  
HETATM   10  C   UNL     1      -7.512  14.301  69.059  1.00  0.00    -0.102 A  
HETATM   11  C   UNL     1      -8.825  14.440  69.508  1.00  0.00     0.432 A  
BRANCH  10  12
HETATM   12  O   UNL     1      -7.136  13.421  68.060  1.00  0.00    -0.093 OA 
BRANCH  12  13
HETATM   13  C   UNL     1      -7.969  13.289  66.966  1.00  0.00     0.029 A  
HETATM   14  C   UNL     1      -7.946  12.170  66.142  1.00  0.00     0.563 A  
HETATM   15  C   UNL     1      -8.695  12.157  64.970  1.00  0.00     1.028 A  
HETATM   16  C   UNL     1      -9.578  13.194  64.649  1.00  0.00     0.378 A  
HETATM   17  C   UNL     1      -9.667  14.277  65.528  1.00  0.00    -0.189 A  
HETATM   18  C   UNL     1      -8.866  14.322  66.685  1.00  0.00    -0.167 A  
BRANCH  16  19
HETATM   19  N   UNL     1     -10.368  13.175  63.468  1.00  0.00    -0.194 N  
HETATM   20  H   UNL     1     -10.106  13.790  62.697  1.00  0.00     0.000 HD 
BRANCH  19  21
HETATM   21  C   UNL     1     -11.481  12.357  63.315  1.00  0.00    -0.351 C  
HETATM   22  O   UNL     1     -12.504  12.725  62.752  1.00  0.00    -0.059 OA 
BRANCH  21  23
HETATM   23  N   UNL     1     -11.337  11.096  63.865  1.00  0.00    -0.385 N  
HETATM   24  H   UNL     1     -11.354  10.290  63.240  1.00  0.00     0.000 HD 
BRANCH  23  25
HETATM   25  C   UNL     1     -11.164  10.867  65.265  1.00  0.00     0.288 A  
HETATM   26  C   UNL     1     -10.466   9.766  65.775  1.00  0.00     0.043 A  
HETATM   27  C   UNL     1     -10.389   9.483  67.150  1.00  0.00    -0.320 A  
HETATM   28  C   UNL     1      -9.701   8.225  67.606  1.00  0.00    -0.159 C  
HETATM   29  C   UNL     1     -10.977  10.381  68.036  1.00  0.00    -0.291 A  
HETATM   30  F   UNL     1     -10.518   7.400  68.321  1.00  0.00    -0.199 F  
HETATM   31  F   UNL     1      -8.616   8.467  68.393  1.00  0.00    -0.132 F  
HETATM   32  F   UNL     1      -9.231   7.456  66.580  1.00  0.00    -0.141 F  
HETATM   33 CL   UNL     1     -10.921  10.146  69.743  1.00  0.00    -0.294 Cl 
HETATM   34  C   UNL     1     -11.635  11.520  67.549  1.00  0.00    -0.322 A  
HETATM   35  C   UNL     1     -11.734  11.763  66.172  1.00  0.00    -0.106 A  
ENDBRANCH  23  25
ENDBRANCH  21  23
ENDBRANCH  19  21
ENDBRANCH  16  19
ENDBRANCH  12  13
ENDBRANCH  10  12
ENDBRANCH   3   6
TORSDOF 7
ENDMDL
MODEL      377
REMARK 921   NORMALIZED FREE ENERGY PREDICTED BY IDOCK:   10.60 KCAL/MOL
REMARK 922        TOTAL FREE ENERGY PREDICTED BY IDOCK:   13.10 KCAL/MOL
REMARK 923 INTER-LIGAND FREE ENERGY PREDICTED BY IDOCK:   14.05 KCAL/MOL
REMARK 924 INTRA-LIGAND FREE ENERGY PREDICTED BY IDOCK:   -0.96 KCAL/MOL
REMARK 927      BINDING AFFINITY PREDICTED BY RF-SCORE:    0.00 PKD
ROOT
HETATM    1  C   UNL     1     -12.630   4.819  69.637  1.00  0.00    12.901 C  
HETATM    2  N   UNL     1     -11.278   4.449  69.324  1.00  0.00     3.289 N  
HETATM    3  C   UNL     1     -10.456   5.282  68.596  1.00  0.00    -0.078 C  
HETATM    4  H   UNL     1     -10.919   3.552  69.647  1.00  0.00     0.000 HD 
HETATM    5  O   UNL     1     -10.812   6.371  68.157  1.00  0.00    -0.257 OA 
ENDROOT
BRANCH   3   6
HETATM    6  C   UNL     1      -9.059   4.776  68.388  1.00  0.00    -0.117 A  
HETATM    7  N   UNL     1      -8.914   3.457  68.078  1.00  0.00    -0.124 NA 
HETATM    8  C   UNL     1      -7.643   3.010  67.962  1.00  0.00    -0.056 A  
HETATM    9  C   UNL     1      -6.518   3.796  68.179  1.00  0.00    -0.037 A  
HETATM   10  C   UNL     1      -6.705   5.131  68.518  1.00  0.00    -0.050 A  
HETATM   11  C   UNL     1      -7.999   5.648  68.569  1.00  0.00    -0.100 A  
BRANCH  10  12
HETATM   12  O   UNL     1      -5.572   5.882  68.776  1.00  0.00    -0.010 OA 
BRANCH  12  13
HETATM   13  C   UNL     1      -5.422   7.080  68.105  1.00  0.00    -0.020 A  
HETATM   14  C   UNL     1      -5.129   8.270  68.759  1.00  0.00    -0.028 A  
HETATM   15  C   UNL     1      -5.141   9.469  68.056  1.00  0.00    -0.036 A  
HETATM   16  C   UNL     1      -5.320   9.508  66.668  1.00  0.00    -0.045 A  
HETATM   17  C   UNL     1      -5.522   8.297  65.999  1.00  0.00    -0.028 A  
HETATM   18  C   UNL     1      -5.571   7.087  66.716  1.00  0.00    -0.022 A  
BRANCH  16  19
HETATM   19  N   UNL     1      -5.305  10.726  65.938  1.00  0.00    -0.114 N  
HETATM   20  H   UNL     1      -4.441  11.004  65.472  1.00  0.00     0.000 HD 
BRANCH  19  21
HETATM   21  C   UNL     1      -6.414  11.556  65.828  1.00  0.00     0.692 C  
HETATM   22  O   UNL     1      -7.356  11.313  65.084  1.00  0.00     0.461 OA 
BRANCH  21  23
HETATM   23  N   UNL     1      -6.356  12.686  66.624  1.00  0.00     0.129 N  
HETATM   24  H   UNL     1      -5.485  13.217  66.649  1.00  0.00     0.000 HD 
BRANCH  23  25
HETATM   25  C   UNL     1      -7.456  13.146  67.413  1.00  0.00    -0.124 A  
HETATM   26  C   UNL     1      -8.590  12.365  67.663  1.00  0.00    -0.172 A  
HETATM   27  C   UNL     1      -9.716  12.856  68.348  1.00  0.00    -0.186 A  
HETATM   28  C   UNL     1     -10.932  11.981  68.488  1.00  0.00    -0.240 C  
HETATM   29  C   UNL     1      -9.660  14.152  68.853  1.00  0.00    -0.050 A  
HETATM   30  F   UNL     1     -12.051  12.531  67.938  1.00  0.00    -0.397 F  
HETATM   31  F   UNL     1     -11.240  11.702  69.786  1.00  0.00    -0.298 F  
HETATM   32  F   UNL     1     -10.802  10.764  67.885  1.00  0.00    -0.220 F  
HETATM   33 CL   UNL     1     -10.974  14.846  69.730  1.00  0.00    -0.281 Cl 
HETATM   34  C   UNL     1      -8.512  14.933  68.661  1.00  0.00    -0.166 A  
HETATM   35  C   UNL     1      -7.415  14.438  67.941  1.00  0.00    -0.160 A  
ENDBRANCH  23  25
ENDBRANCH  21  23
ENDBRANCH  19  21
ENDBRANCH  16  19
ENDBRANCH  12  13
ENDBRANCH  10  12
ENDBRANCH   3   6
TORSDOF 7
ENDMDL
MODEL      378
REMARK 921   NORMALIZED FREE ENERGY PREDICTED BY IDOCK:   11.43 KCAL/MOL
REMARK 922        TOTAL FREE ENERGY PREDICTED BY IDOCK:   14.26 KCAL/MOL
REMARK 923 INTER-LIGAND FREE ENERGY PREDICTED BY IDOCK:   14.86 KCAL/MOL
REMARK 924 INTRA-LIGAND FREE ENERGY PREDICTED BY IDOCK:   -0.59 KCAL/MOL
REMARK 927      BINDING AFFINITY PREDICTED BY RF-SCORE:    0.00 PKD
ROOT
HETATM    1  C   UNL     1     -10.973  10.994  69.164  1.00  0.00    -0.237 C  
HETATM    2  N   UNL     1      -9.875  10.934  70.088  1.00  0.00     0.130 N  
HETATM    3  C   UNL     1      -8.761  10.165  69.831  1.00  0.00    -0.061 C  
HETATM    4  H   UNL     1      -9.921  11.471  70.953  1.00  0.00     0.000 HD 
HETATM    5  O   UNL     1      -8.630   9.477  68.824  1.00  0.00    -0.119 OA 
ENDROOT
BRANCH   3   6
HETATM    6  C   UNL     1      -7.681  10.240  70.870  1.00  0.00     1.313 A  
HETATM    7  N   UNL     1      -7.562   9.183  71.722  1.00  0.00    -0.330 NA 
HETATM    8  C   UNL     1      -6.627   9.304  72.691  1.00  0.00     0.461 A  
HETATM    9  C   UNL     1      -5.840  10.433  72.878  1.00  0.00     1.070 A  
HETATM   10  C   UNL     1      -6.005  11.501  72.004  1.00  0.00     1.762 A  
HETATM   11  C   UNL     1      -6.904  11.383  70.945  1.00  0.00     1.924 A  
BRANCH  10  12
HETATM   12  O   UNL     1      -5.245  12.633  72.239  1.00  0.00    -0.371 OA 
BRANCH  12  13
HETATM   13  C   UNL     1      -5.734  13.845  71.791  1.00  0.00    -0.158 A  
HETATM   14  C   UNL     1      -6.800  14.492  72.405  1.00  0.00     2.398 A  
HETATM   15  C   UNL     1      -7.349  15.629  71.823  1.00  0.00     4.499 A  
HETATM   16  C   UNL     1      -6.780  16.225  70.692  1.00  0.00     1.280 A  
HETATM   17  C   UNL     1      -5.650  15.623  70.130  1.00  0.00    -0.148 A  
HETATM   18  C   UNL     1      -5.128  14.437  70.681  1.00  0.00    -0.106 A  
BRANCH  16  19
HETATM   19  N   UNL     1      -7.317  17.403  70.108  1.00  0.00     1.287 N  
HETATM   20  H   UNL     1      -6.798  18.276  70.206  1.00  0.00     0.000 HD 
BRANCH  19  21
HETATM   21  C   UNL     1      -8.518  17.421  69.408  1.00  0.00     0.413 C  
HETATM   22  O   UNL     1      -9.610  17.353  69.958  1.00  0.00     0.825 OA 
BRANCH  21  23
HETATM   23  N   UNL     1      -8.372  17.511  68.035  1.00  0.00    -0.234 N  
HETATM   24  H   UNL     1      -7.644  18.122  67.664  1.00  0.00     0.000 HD 
BRANCH  23  25
HETATM   25  C   UNL     1      -9.189  16.789  67.111  1.00  0.00    -0.224 A  
HETATM   26  C   UNL     1     -10.047  15.754  67.504  1.00  0.00    -0.245 A  
HETATM   27  C   UNL     1     -10.770  14.974  66.584  1.00  0.00    -0.312 A  
HETATM   28  C   UNL     1     -11.593  13.818  67.084  1.00  0.00    -0.364 C  
HETATM   29  C   UNL     1     -10.672  15.299  65.234  1.00  0.00    -0.415 A  
HETATM   30  F   UNL     1     -11.216  12.623  66.548  1.00  0.00    -0.274 F  
HETATM   31  F   UNL     1     -12.921  13.956  66.817  1.00  0.00    -0.195 F  
HETATM   32  F   UNL     1     -11.519  13.640  68.435  1.00  0.00    -0.268 F  
HETATM   33 CL   UNL     1     -11.534  14.425  64.022  1.00  0.00    -0.075 Cl 
HETATM   34  C   UNL     1      -9.861  16.366  64.824  1.00  0.00     1.490 A  
HETATM   35  C   UNL     1      -9.119  17.107  65.754  1.00  0.00     0.137 A  
ENDBRANCH  23  25
ENDBRANCH  21  23
ENDBRANCH  19  21
ENDBRANCH  16  19
ENDBRANCH  12  13
ENDBRANCH  10  12
ENDBRANCH   3   6
TORSDOF 7
ENDMDL
MODEL      379
REMARK 921   NORMALIZED FREE ENERGY PREDICTED BY IDOCK:   11.49 KCAL/MOL
REMARK 922        TOTAL FREE ENERGY PREDICTED BY IDOCK:   14.34 KCAL/MOL
REMARK 923 INTER-LIGAND FREE ENERGY PREDICTED BY IDOCK:   15.41 KCAL/MOL
REMARK 924 INTRA-LIGAND FREE ENERGY PREDICTED BY IDOCK:   -1.07 KCAL/MOL
REMARK 927      BINDING AFFINITY PREDICTED BY RF-SCORE:    0.00 PKD
ROOT
HETATM    1  C   UNL     1     -12.628   4.820  69.638  1.00  0.00    12.901 C  
HETATM    2  N   UNL     1     -11.271   4.457  69.339  1.00  0.00     3.274 N  
HETATM    3  C   UNL     1     -10.447   5.289  68.613  1.00  0.00    -0.078 C  
HETATM    4  H   UNL     1     -10.909   3.563  69.672  1.00  0.00     0.000 HD 
HETATM    5  O   UNL     1     -10.805   6.372  68.163  1.00  0.00    -0.257 OA 
ENDROOT
BRANCH   3   6
HETATM    6  C   UNL     1      -9.046   4.790  68.421  1.00  0.00    -0.117 A  
HETATM    7  N   UNL     1      -8.889   3.469  68.127  1.00  0.00    -0.107 NA 
HETATM    8  C   UNL     1      -7.615   3.029  68.026  1.00  0.00    -0.056 A  
HETATM    9  C   UNL     1      -6.497   3.824  68.243  1.00  0.00    -0.037 A  
HETATM   10  C   UNL     1      -6.694   5.162  68.565  1.00  0.00    -0.050 A  
HETATM   11  C   UNL     1      -7.992   5.670  68.601  1.00  0.00    -0.100 A  
BRANCH  10  12
HETATM   12  O   UNL     1      -5.568   5.923  68.824  1.00  0.00    -0.010 OA 
BRANCH  12  13
HETATM   13  C   UNL     1      -5.418   7.111  68.136  1.00  0.00    -0.021 A  
HETATM   14  C   UNL     1      -5.144   8.314  68.776  1.00  0.00    -0.028 A  
HETATM   15  C   UNL     1      -5.155   9.502  68.054  1.00  0.00    -0.036 A  
HETATM   16  C   UNL     1      -5.314   9.517  66.664  1.00  0.00    -0.045 A  
HETATM   17  C   UNL     1      -5.498   8.295  66.010  1.00  0.00    -0.028 A  
HETATM   18  C   UNL     1      -5.548   7.096  66.745  1.00  0.00    -0.023 A  
BRANCH  16  19
HETATM   19  N   UNL     1      -5.299  10.724  65.914  1.00  0.00    -0.114 N  
HETATM   20  H   UNL     1      -4.429  11.004  65.459  1.00  0.00     0.000 HD 
BRANCH  19  21
HETATM   21  C   UNL     1      -6.414  11.542  65.773  1.00  0.00     0.692 C  
HETATM   22  O   UNL     1      -7.340  11.278  65.017  1.00  0.00     0.541 OA 
BRANCH  21  23
HETATM   23  N   UNL     1      -6.380  12.684  66.552  1.00  0.00     0.452 N  
HETATM   24  H   UNL     1      -5.515  13.223  66.585  1.00  0.00     0.000 HD 
BRANCH  23  25
HETATM   25  C   UNL     1      -7.499  13.147  67.312  1.00  0.00    -0.064 A  
HETATM   26  C   UNL     1      -7.920  14.482  67.307  1.00  0.00    -0.216 A  
HETATM   27  C   UNL     1      -8.952  14.958  68.136  1.00  0.00    -0.176 A  
HETATM   28  C   UNL     1      -9.276  16.427  68.140  1.00  0.00    -0.201 C  
HETATM   29  C   UNL     1      -9.619  14.039  68.941  1.00  0.00    -0.011 A  
HETATM   30  F   UNL     1      -9.141  17.000  69.369  1.00  0.00    -0.157 F  
HETATM   31  F   UNL     1     -10.548  16.692  67.730  1.00  0.00    -0.300 F  
HETATM   32  F   UNL     1      -8.476  17.165  67.315  1.00  0.00    -0.188 F  
HETATM   33 CL   UNL     1     -10.916  14.509  69.977  1.00  0.00    -0.160 Cl 
HETATM   34  C   UNL     1      -9.249  12.687  68.921  1.00  0.00     0.296 A  
HETATM   35  C   UNL     1      -8.192  12.240  68.116  1.00  0.00    -0.168 A  
ENDBRANCH  23  25
ENDBRANCH  21  23
ENDBRANCH  19  21
ENDBRANCH  16  19
ENDBRANCH  12  13
ENDBRANCH  10  12
ENDBRANCH   3   6
TORSDOF 7
ENDMDL
MODEL      380
REMARK 921   NORMALIZED FREE ENERGY PREDICTED BY IDOCK:   11.57 KCAL/MOL
REMARK 922        TOTAL FREE ENERGY PREDICTED BY IDOCK:   14.45 KCAL/MOL
REMARK 923 INTER-LIGAND FREE ENERGY PREDICTED BY IDOCK:   10.61 KCAL/MOL
REMARK 924 INTRA-LIGAND FREE ENERGY PREDICTED BY IDOCK:    3.84 KCAL/MOL
REMARK 927      BINDING AFFINITY PREDICTED BY RF-SCORE:    0.00 PKD
ROOT
HETATM    1  C   UNL     1     -14.410   9.839  72.575  1.00  0.00     0.515 C  
HETATM    2  N   UNL     1     -13.880  11.091  72.111  1.00  0.00    -0.181 N  
HETATM    3  C   UNL     1     -12.646  11.168  71.502  1.00  0.00    -0.325 C  
HETATM    4  H   UNL     1     -14.429  11.941  72.234  1.00  0.00     0.000 HD 
HETATM    5  O   UNL     1     -11.916  10.198  71.327  1.00  0.00    -0.355 OA 
ENDROOT
BRANCH   3   6
HETATM    6  C   UNL     1     -12.251  12.537  71.032  1.00  0.00    -0.098 A  
HETATM    7  N   UNL     1     -13.256  13.416  70.761  1.00  0.00     0.040 NA 
HETATM    8  C   UNL     1     -12.877  14.620  70.276  1.00  0.00    -0.206 A  
HETATM    9  C   UNL     1     -11.561  14.973  70.010  1.00  0.00    -0.324 A  
HETATM   10  C   UNL     1     -10.563  14.042  70.276  1.00  0.00     0.896 A  
HETATM   11  C   UNL     1     -10.908  12.819  70.851  1.00  0.00     3.444 A  
BRANCH  10  12
HETATM   12  O   UNL     1      -9.265  14.398  69.958  1.00  0.00     0.727 OA 
BRANCH  12  13
HETATM   13  C   UNL     1      -8.721  13.890  68.795  1.00  0.00     0.006 A  
HETATM   14  C   UNL     1      -8.498  12.531  68.607  1.00  0.00     0.031 A  
HETATM   15  C   UNL     1      -7.809  12.091  67.482  1.00  0.00    -0.155 A  
HETATM   16  C   UNL     1      -7.433  12.968  66.459  1.00  0.00     1.148 A  
HETATM   17  C   UNL     1      -7.740  14.323  66.609  1.00  0.00     0.830 A  
HETATM   18  C   UNL     1      -8.385  14.782  67.774  1.00  0.00    -0.166 A  
BRANCH  16  19
HETATM   19  N   UNL     1      -6.753  12.522  65.294  1.00  0.00     4.493 N  
HETATM   20  H   UNL     1      -6.325  13.218  64.683  1.00  0.00     0.000 HD 
BRANCH  19  21
HETATM   21  C   UNL     1      -6.645  11.180  64.948  1.00  0.00     0.827 C  
HETATM   22  O   UNL     1      -7.341  10.657  64.087  1.00  0.00     0.051 OA 
BRANCH  21  23
HETATM   23  N   UNL     1      -5.690  10.485  65.668  1.00  0.00    -0.109 N  
HETATM   24  H   UNL     1      -4.743  10.434  65.294  1.00  0.00     0.000 HD 
BRANCH  23  25
HETATM   25  C   UNL     1      -5.967   9.835  66.911  1.00  0.00    -0.055 A  
HETATM   26  C   UNL     1      -5.892   8.447  67.075  1.00  0.00    -0.042 A  
HETATM   27  C   UNL     1      -6.267   7.799  68.266  1.00  0.00    -0.045 A  
HETATM   28  C   UNL     1      -6.249   6.296  68.324  1.00  0.00    -0.032 C  
HETATM   29  C   UNL     1      -6.663   8.589  69.341  1.00  0.00    -0.045 A  
HETATM   30  F   UNL     1      -7.467   5.759  68.617  1.00  0.00    -0.077 F  
HETATM   31  F   UNL     1      -5.382   5.811  69.256  1.00  0.00    -0.003 F  
HETATM   32  F   UNL     1      -5.874   5.708  67.151  1.00  0.00    -0.015 F  
HETATM   33 CL   UNL     1      -7.120   7.902  70.856  1.00  0.00    -0.048 Cl 
HETATM   34  C   UNL     1      -6.693   9.985  69.216  1.00  0.00    -0.057 A  
HETATM   35  C   UNL     1      -6.352  10.608  68.008  1.00  0.00    -0.058 A  
ENDBRANCH  23  25
ENDBRANCH  21  23
ENDBRANCH  19  21
ENDBRANCH  16  19
ENDBRANCH  12  13
ENDBRANCH  10  12
ENDBRANCH   3   6
TORSDOF 7
ENDMDL
MODEL      381
REMARK 921   NORMALIZED FREE ENERGY PREDICTED BY IDOCK:   14.92 KCAL/MOL
REMARK 922        TOTAL FREE ENERGY PREDICTED BY IDOCK:   19.17 KCAL/MOL
REMARK 923 INTER-LIGAND FREE ENERGY PREDICTED BY IDOCK:   19.64 KCAL/MOL
REMARK 924 INTRA-LIGAND FREE ENERGY PREDICTED BY IDOCK:   -0.46 KCAL/MOL
REMARK 927      BINDING AFFINITY PREDICTED BY RF-SCORE:    0.00 PKD
ROOT
HETATM    1  C   UNL     1     -12.645   4.812  69.626  1.00  0.00    12.901 C  
HETATM    2  N   UNL     1     -11.297   4.453  69.281  1.00  0.00     4.066 N  
HETATM    3  C   UNL     1     -10.505   5.284  68.519  1.00  0.00    -0.077 C  
HETATM    4  H   UNL     1     -10.918   3.565  69.608  1.00  0.00     0.000 HD 
HETATM    5  O   UNL     1     -10.886   6.362  68.074  1.00  0.00    -0.263 OA 
ENDROOT
BRANCH   3   6
HETATM    6  C   UNL     1      -9.109   4.792  68.281  1.00  0.00    -0.117 A  
HETATM    7  N   UNL     1      -8.953   3.465  68.017  1.00  0.00    -0.124 NA 
HETATM    8  C   UNL     1      -7.679   3.033  67.873  1.00  0.00    -0.056 A  
HETATM    9  C   UNL     1      -6.561   3.843  68.019  1.00  0.00    -0.042 A  
HETATM   10  C   UNL     1      -6.757   5.188  68.312  1.00  0.00    -0.054 A  
HETATM   11  C   UNL     1      -8.057   5.686  68.390  1.00  0.00    -0.103 A  
BRANCH  10  12
HETATM   12  O   UNL     1      -5.628   5.965  68.500  1.00  0.00    -0.010 OA 
BRANCH  12  13
HETATM   13  C   UNL     1      -5.508   7.123  67.757  1.00  0.00    -0.020 A  
HETATM   14  C   UNL     1      -5.209   8.352  68.333  1.00  0.00    -0.033 A  
HETATM   15  C   UNL     1      -5.251   9.508  67.562  1.00  0.00    -0.036 A  
HETATM   16  C   UNL     1      -5.469   9.464  66.180  1.00  0.00    -0.044 A  
HETATM   17  C   UNL     1      -5.679   8.215  65.587  1.00  0.00    -0.040 A  
HETATM   18  C   UNL     1      -5.696   7.048  66.375  1.00  0.00    -0.030 A  
BRANCH  16  19
HETATM   19  N   UNL     1      -5.486  10.638  65.380  1.00  0.00    -0.128 N  
HETATM   20  H   UNL     1      -4.663  11.242  65.384  1.00  0.00     0.000 HD 
BRANCH  19  21
HETATM   21  C   UNL     1      -6.572  11.001  64.592  1.00  0.00     0.696 C  
HETATM   22  O   UNL     1      -6.828  10.461  63.524  1.00  0.00    -0.112 OA 
BRANCH  21  23
HETATM   23  N   UNL     1      -7.329  12.034  65.115  1.00  0.00     1.963 N  
HETATM   24  H   UNL     1      -6.845  12.848  65.492  1.00  0.00     0.000 HD 
BRANCH  23  25
HETATM   25  C   UNL     1      -8.758  12.016  65.152  1.00  0.00     0.793 A  
HETATM   26  C   UNL     1      -9.506  12.832  66.009  1.00  0.00    -0.127 A  
HETATM   27  C   UNL     1     -10.905  12.738  66.122  1.00  0.00    -0.303 A  
HETATM   28  C   UNL     1     -11.620  13.585  67.139  1.00  0.00    -0.357 C  
HETATM   29  C   UNL     1     -11.568  11.839  65.292  1.00  0.00    -0.127 A  
HETATM   30  F   UNL     1     -12.322  12.849  68.047  1.00  0.00    -0.316 F  
HETATM   31  F   UNL     1     -12.509  14.452  66.578  1.00  0.00    -0.457 F  
HETATM   32  F   UNL     1     -10.785  14.366  67.885  1.00  0.00    -0.236 F  
HETATM   33 CL   UNL     1     -13.283  11.660  65.329  1.00  0.00     2.939 Cl 
HETATM   34  C   UNL     1     -10.843  11.051  64.387  1.00  0.00    -0.263 A  
HETATM   35  C   UNL     1      -9.446  11.132  64.318  1.00  0.00    -0.242 A  
ENDBRANCH  23  25
ENDBRANCH  21  23
ENDBRANCH  19  21
ENDBRANCH  16  19
ENDBRANCH  12  13
ENDBRANCH  10  12
ENDBRANCH   3   6
TORSDOF 7
ENDMDL
MODEL      382
REMARK 921   NORMALIZED FREE ENERGY PREDICTED BY IDOCK:   19.96 KCAL/MOL
REMARK 922        TOTAL FREE ENERGY PREDICTED BY IDOCK:   26.28 KCAL/MOL
REMARK 923 INTER-LIGAND FREE ENERGY PREDICTED BY IDOCK:   25.50 KCAL/MOL
REMARK 924 INTRA-LIGAND FREE ENERGY PREDICTED BY IDOCK:    0.78 KCAL/MOL
REMARK 927      BINDING AFFINITY PREDICTED BY RF-SCORE:    0.00 PKD
ROOT
HETATM    1  C   UNL     1     -12.604   4.223  68.675  1.00  0.00    19.558 C  
HETATM    2  N   UNL     1     -11.253   3.881  68.324  1.00  0.00     4.326 N  
HETATM    3  C   UNL     1     -10.474   4.723  67.561  1.00  0.00     0.100 C  
HETATM    4  H   UNL     1     -10.862   2.997  68.648  1.00  0.00     0.000 HD 
HETATM    5  O   UNL     1     -10.869   5.797  67.119  1.00  0.00    -0.280 OA 
ENDROOT
BRANCH   3   6
HETATM    6  C   UNL     1      -9.072   4.248  67.317  1.00  0.00    -0.137 A  
HETATM    7  N   UNL     1      -8.900   2.920  67.066  1.00  0.00    -0.133 NA 
HETATM    8  C   UNL     1      -7.622   2.505  66.916  1.00  0.00    -0.070 A  
HETATM    9  C   UNL     1      -6.513   3.332  67.045  1.00  0.00    -0.037 A  
HETATM   10  C   UNL     1      -6.726   4.677  67.325  1.00  0.00    -0.051 A  
HETATM   11  C   UNL     1      -8.032   5.158  67.409  1.00  0.00    -0.100 A  
BRANCH  10  12
HETATM   12  O   UNL     1      -5.607   5.472  67.497  1.00  0.00    -0.011 OA 
BRANCH  12  13
HETATM   13  C   UNL     1      -5.509   6.623  66.740  1.00  0.00    -0.013 A  
HETATM   14  C   UNL     1      -5.221   7.862  67.300  1.00  0.00    -0.028 A  
HETATM   15  C   UNL     1      -5.285   9.009  66.517  1.00  0.00    -0.034 A  
HETATM   16  C   UNL     1      -5.513   8.947  65.138  1.00  0.00    -0.038 A  
HETATM   17  C   UNL     1      -5.712   7.689  64.561  1.00  0.00    -0.037 A  
HETATM   18  C   UNL     1      -5.707   6.531  65.361  1.00  0.00    -0.026 A  
BRANCH  16  19
HETATM   19  N   UNL     1      -5.553  10.112  64.325  1.00  0.00    -0.109 N  
HETATM   20  H   UNL     1      -4.738  10.726  64.315  1.00  0.00     0.000 HD 
BRANCH  19  21
HETATM   21  C   UNL     1      -6.650  10.452  63.543  1.00  0.00    -0.040 C  
HETATM   22  O   UNL     1      -6.913   9.892  62.487  1.00  0.00    -0.106 OA 
BRANCH  21  23
HETATM   23  N   UNL     1      -7.411  11.487  64.056  1.00  0.00     1.149 N  
HETATM   24  H   UNL     1      -7.965  12.048  63.409  1.00  0.00     0.000 HD 
BRANCH  23  25
HETATM   25  C   UNL     1      -7.460  11.809  65.448  1.00  0.00     1.571 A  
HETATM   26  C   UNL     1      -8.644  12.162  66.105  1.00  0.00     0.169 A  
HETATM   27  C   UNL     1      -8.675  12.582  67.447  1.00  0.00    -0.189 A  
HETATM   28  C   UNL     1      -9.977  13.038  68.047  1.00  0.00    -0.233 C  
HETATM   29  C   UNL     1      -7.481  12.575  68.160  1.00  0.00    -0.117 A  
HETATM   30  F   UNL     1      -9.933  14.321  68.506  1.00  0.00    -0.211 F  
HETATM   31  F   UNL     1     -10.378  12.268  69.097  1.00  0.00    -0.168 F  
HETATM   32  F   UNL     1     -11.022  13.012  67.168  1.00  0.00    -0.253 F  
HETATM   33 CL   UNL     1      -7.407  13.047  69.818  1.00  0.00     0.610 Cl 
HETATM   34  C   UNL     1      -6.291  12.172  67.537  1.00  0.00    -0.129 A  
HETATM   35  C   UNL     1      -6.276  11.795  66.187  1.00  0.00     0.566 A  
ENDBRANCH  23  25
ENDBRANCH  21  23
ENDBRANCH  19  21
ENDBRANCH  16  19
ENDBRANCH  12  13
ENDBRANCH  10  12
ENDBRANCH   3   6
TORSDOF 7
ENDMDL
MODEL      383
REMARK 921   NORMALIZED FREE ENERGY PREDICTED BY IDOCK:   21.69 KCAL/MOL
REMARK 922        TOTAL FREE ENERGY PREDICTED BY IDOCK:   28.71 KCAL/MOL
REMARK 923 INTER-LIGAND FREE ENERGY PREDICTED BY IDOCK:   29.22 KCAL/MOL
REMARK 924 INTRA-LIGAND FREE ENERGY PREDICTED BY IDOCK:   -0.50 KCAL/MOL
REMARK 927      BINDING AFFINITY PREDICTED BY RF-SCORE:    0.00 PKD
ROOT
HETATM    1  C   UNL     1     -13.089  11.301  74.168  1.00  0.00    14.077 C  
HETATM    2  N   UNL     1     -12.054  10.781  73.319  1.00  0.00     5.896 N  
HETATM    3  C   UNL     1     -11.926   9.428  73.088  1.00  0.00     2.462 C  
HETATM    4  H   UNL     1     -11.400  11.426  72.877  1.00  0.00     0.000 HD 
HETATM    5  O   UNL     1     -12.659   8.583  73.590  1.00  0.00     1.164 OA 
ENDROOT
BRANCH   3   6
HETATM    6  C   UNL     1     -10.825   9.045  72.144  1.00  0.00    -0.167 A  
HETATM    7  N   UNL     1      -9.591   8.830  72.681  1.00  0.00    -0.215 NA 
HETATM    8  C   UNL     1      -8.601   8.552  71.802  1.00  0.00    -0.190 A  
HETATM    9  C   UNL     1      -8.770   8.518  70.424  1.00  0.00    -0.153 A  
HETATM   10  C   UNL     1     -10.038   8.765  69.911  1.00  0.00    -0.191 A  
HETATM   11  C   UNL     1     -11.100   8.978  70.789  1.00  0.00    -0.328 A  
BRANCH  10  12
HETATM   12  O   UNL     1     -10.172   8.773  68.534  1.00  0.00    -0.186 OA 
BRANCH  12  13
HETATM   13  C   UNL     1     -10.536   9.958  67.926  1.00  0.00    -0.236 A  
HETATM   14  C   UNL     1      -9.717  11.081  67.931  1.00  0.00    -0.183 A  
HETATM   15  C   UNL     1     -10.195  12.290  67.439  1.00  0.00    -0.213 A  
HETATM   16  C   UNL     1     -11.445  12.390  66.818  1.00  0.00    -0.362 A  
HETATM   17  C   UNL     1     -12.229  11.236  66.731  1.00  0.00     1.677 A  
HETATM   18  C   UNL     1     -11.773  10.023  67.282  1.00  0.00     1.599 A  
BRANCH  16  19
HETATM   19  N   UNL     1     -11.930  13.615  66.288  1.00  0.00    -0.398 N  
HETATM   20  H   UNL     1     -12.113  13.674  65.285  1.00  0.00     0.000 HD 
BRANCH  19  21
HETATM   21  C   UNL     1     -12.167  14.738  67.071  1.00  0.00     0.042 C  
HETATM   22  O   UNL     1     -12.857  14.710  68.083  1.00  0.00     0.635 OA 
BRANCH  21  23
HETATM   23  N   UNL     1     -11.567  15.893  66.603  1.00  0.00     0.326 N  
HETATM   24  H   UNL     1     -12.156  16.705  66.418  1.00  0.00     0.000 HD 
BRANCH  23  25
HETATM   25  C   UNL     1     -10.162  16.004  66.365  1.00  0.00    -0.305 A  
HETATM   26  C   UNL     1      -9.235  15.067  66.837  1.00  0.00    -0.265 A  
HETATM   27  C   UNL     1      -7.846  15.232  66.695  1.00  0.00     0.097 A  
HETATM   28  C   UNL     1      -6.917  14.226  67.318  1.00  0.00     0.129 C  
HETATM   29  C   UNL     1      -7.388  16.344  65.994  1.00  0.00     0.664 A  
HETATM   30  F   UNL     1      -6.060  14.778  68.223  1.00  0.00    -0.090 F  
HETATM   31  F   UNL     1      -6.142  13.578  66.403  1.00  0.00     1.545 F  
HETATM   32  F   UNL     1      -7.562  13.235  68.001  1.00  0.00    -0.100 F  
HETATM   33 CL   UNL     1      -5.707  16.632  65.740  1.00  0.00     1.470 Cl 
HETATM   34  C   UNL     1      -8.302  17.267  65.466  1.00  0.00     0.939 A  
HETATM   35  C   UNL     1      -9.681  17.104  65.652  1.00  0.00     0.078 A  
ENDBRANCH  23  25
ENDBRANCH  21  23
ENDBRANCH  19  21
ENDBRANCH  16  19
ENDBRANCH  12  13
ENDBRANCH  10  12
ENDBRANCH   3   6
TORSDOF 7
ENDMDL
MODEL      384
REMARK 921   NORMALIZED FREE ENERGY PREDICTED BY IDOCK:   26.16 KCAL/MOL
REMARK 922        TOTAL FREE ENERGY PREDICTED BY IDOCK:   35.02 KCAL/MOL
REMARK 923 INTER-LIGAND FREE ENERGY PREDICTED BY IDOCK:   28.05 KCAL/MOL
REMARK 924 INTRA-LIGAND FREE ENERGY PREDICTED BY IDOCK:    6.96 KCAL/MOL
REMARK 927      BINDING AFFINITY PREDICTED BY RF-SCORE:    0.00 PKD
ROOT
HETATM    1  C   UNL     1     -13.060  16.811  69.217  1.00  0.00     4.661 C  
HETATM    2  N   UNL     1     -11.654  16.530  69.307  1.00  0.00    -0.219 N  
HETATM    3  C   UNL     1     -11.175  15.502  70.089  1.00  0.00    -0.318 C  
HETATM    4  H   UNL     1     -10.996  17.105  68.781  1.00  0.00     0.000 HD 
HETATM    5  O   UNL     1     -11.894  14.773  70.764  1.00  0.00    -0.280 OA 
ENDROOT
BRANCH   3   6
HETATM    6  C   UNL     1      -9.689  15.307  70.045  1.00  0.00     0.009 A  
HETATM    7  N   UNL     1      -8.915  16.427  69.981  1.00  0.00     0.842 NA 
HETATM    8  C   UNL     1      -7.583  16.223  69.875  1.00  0.00     0.584 A  
HETATM    9  C   UNL     1      -6.990  14.970  69.786  1.00  0.00    -0.182 A  
HETATM   10  C   UNL     1      -7.813  13.850  69.830  1.00  0.00     1.056 A  
HETATM   11  C   UNL     1      -9.184  14.018  70.019  1.00  0.00     1.836 A  
BRANCH  10  12
HETATM   12  O   UNL     1      -7.206  12.614  69.692  1.00  0.00     0.252 OA 
BRANCH  12  13
HETATM   13  C   UNL     1      -8.015  11.517  69.473  1.00  0.00     0.529 A  
HETATM   14  C   UNL     1      -9.112  11.227  70.275  1.00  0.00     2.693 A  
HETATM   15  C   UNL     1      -9.799  10.030  70.103  1.00  0.00    -0.205 A  
HETATM   16  C   UNL     1      -9.497   9.151  69.058  1.00  0.00    -0.152 A  
HETATM   17  C   UNL     1      -8.450   9.491  68.195  1.00  0.00    -0.119 A  
HETATM   18  C   UNL     1      -7.714  10.672  68.402  1.00  0.00    -0.106 A  
BRANCH  16  19
HETATM   19  N   UNL     1     -10.212   7.939  68.858  1.00  0.00    -0.202 N  
HETATM   20  H   UNL     1     -10.381   7.335  69.663  1.00  0.00     0.000 HD 
BRANCH  19  21
HETATM   21  C   UNL     1     -10.693   7.540  67.617  1.00  0.00    -0.196 C  
HETATM   22  O   UNL     1     -10.198   6.623  66.975  1.00  0.00    -0.179 OA 
BRANCH  21  23
HETATM   23  N   UNL     1     -11.772   8.278  67.165  1.00  0.00     1.897 N  
HETATM   24  H   UNL     1     -12.401   7.850  66.484  1.00  0.00     0.000 HD 
BRANCH  23  25
HETATM   25  C   UNL     1     -12.051   9.609  67.603  1.00  0.00     3.820 A  
HETATM   26  C   UNL     1     -11.999   9.992  68.949  1.00  0.00     0.475 A  
HETATM   27  C   UNL     1     -12.376  11.272  69.391  1.00  0.00    -0.216 A  
HETATM   28  C   UNL     1     -12.385  11.570  70.866  1.00  0.00    -0.359 C  
HETATM   29  C   UNL     1     -12.749  12.211  68.434  1.00  0.00     1.769 A  
HETATM   30  F   UNL     1     -13.610  11.950  71.327  1.00  0.00    -0.148 F  
HETATM   31  F   UNL     1     -11.519  12.563  71.214  1.00  0.00     0.615 F  
HETATM   32  F   UNL     1     -12.030  10.503  71.641  1.00  0.00    -0.410 F  
HETATM   33 CL   UNL     1     -13.206  13.818  68.862  1.00  0.00     2.092 Cl 
HETATM   34  C   UNL     1     -12.755  11.865  67.075  1.00  0.00     2.733 A  
HETATM   35  C   UNL     1     -12.413  10.571  66.658  1.00  0.00     5.482 A  
ENDBRANCH  23  25
ENDBRANCH  21  23
ENDBRANCH  19  21
ENDBRANCH  16  19
ENDBRANCH  12  13
ENDBRANCH  10  12
ENDBRANCH   3   6
TORSDOF 7
ENDMDL
MODEL      385
REMARK 921   NORMALIZED FREE ENERGY PREDICTED BY IDOCK:   29.12 KCAL/MOL
REMARK 922        TOTAL FREE ENERGY PREDICTED BY IDOCK:   39.19 KCAL/MOL
REMARK 923 INTER-LIGAND FREE ENERGY PREDICTED BY IDOCK:   40.22 KCAL/MOL
REMARK 924 INTRA-LIGAND FREE ENERGY PREDICTED BY IDOCK:   -1.03 KCAL/MOL
REMARK 927      BINDING AFFINITY PREDICTED BY RF-SCORE:    0.00 PKD
ROOT
HETATM    1  C   UNL     1      -8.407  14.823  70.799  1.00  0.00     2.272 C  
HETATM    2  N   UNL     1      -9.235  14.403  69.703  1.00  0.00    -0.145 N  
HETATM    3  C   UNL     1      -8.917  14.719  68.400  1.00  0.00    -0.187 C  
HETATM    4  H   UNL     1     -10.075  13.858  69.893  1.00  0.00     0.000 HD 
HETATM    5  O   UNL     1      -7.935  15.382  68.084  1.00  0.00    -0.127 OA 
ENDROOT
BRANCH   3   6
HETATM    6  C   UNL     1      -9.854  14.171  67.365  1.00  0.00    -0.239 A  
HETATM    7  N   UNL     1     -10.985  14.887  67.106  1.00  0.00    -0.315 NA 
HETATM    8  C   UNL     1     -11.845  14.338  66.219  1.00  0.00    -0.406 A  
HETATM    9  C   UNL     1     -11.656  13.103  65.612  1.00  0.00    -0.371 A  
HETATM   10  C   UNL     1     -10.503  12.390  65.918  1.00  0.00    -0.256 A  
HETATM   11  C   UNL     1      -9.555  12.958  66.768  1.00  0.00    -0.246 A  
BRANCH  10  12
HETATM   12  O   UNL     1     -10.359  11.141  65.339  1.00  0.00    -0.255 OA 
BRANCH  12  13
HETATM   13  C   UNL     1     -10.907  10.057  65.996  1.00  0.00     0.295 A  
HETATM   14  C   UNL     1     -10.179   9.282  66.890  1.00  0.00    -0.327 A  
HETATM   15  C   UNL     1     -10.731   8.114  67.405  1.00  0.00    -0.247 A  
HETATM   16  C   UNL     1     -12.058   7.751  67.146  1.00  0.00     4.889 A  
HETATM   17  C   UNL     1     -12.817   8.583  66.319  1.00  0.00    16.052 A  
HETATM   18  C   UNL     1     -12.242   9.734  65.747  1.00  0.00     7.976 A  
BRANCH  16  19
HETATM   19  N   UNL     1     -12.639   6.574  67.691  1.00  0.00     4.547 N  
HETATM   20  H   UNL     1     -13.645   6.561  67.859  1.00  0.00     0.000 HD 
BRANCH  19  21
HETATM   21  C   UNL     1     -11.899   5.440  68.005  1.00  0.00     4.018 C  
HETATM   22  O   UNL     1     -11.769   5.027  69.150  1.00  0.00     3.022 OA 
BRANCH  21  23
HETATM   23  N   UNL     1     -11.313   4.826  66.913  1.00  0.00     0.929 N  
HETATM   24  H   UNL     1     -11.905   4.276  66.291  1.00  0.00     0.000 HD 
BRANCH  23  25
HETATM   25  C   UNL     1      -9.919   4.925  66.613  1.00  0.00    -0.229 A  
HETATM   26  C   UNL     1      -9.436   5.479  65.421  1.00  0.00     0.106 A  
HETATM   27  C   UNL     1      -8.072   5.479  65.080  1.00  0.00    -0.119 A  
HETATM   28  C   UNL     1      -7.649   6.007  63.736  1.00  0.00    -0.087 C  
HETATM   29  C   UNL     1      -7.167   4.965  66.004  1.00  0.00    -0.076 A  
HETATM   30  F   UNL     1      -6.992   5.080  62.981  1.00  0.00    -0.037 F  
HETATM   31  F   UNL     1      -6.821   7.085  63.824  1.00  0.00    -0.045 F  
HETATM   32  F   UNL     1      -8.691   6.422  62.959  1.00  0.00     0.049 F  
HETATM   33 CL   UNL     1      -5.469   4.938  65.700  1.00  0.00    -0.013 Cl 
HETATM   34  C   UNL     1      -7.625   4.455  67.227  1.00  0.00    -0.081 A  
HETATM   35  C   UNL     1      -8.993   4.429  67.532  1.00  0.00    -0.128 A  
ENDBRANCH  23  25
ENDBRANCH  21  23
ENDBRANCH  19  21
ENDBRANCH  16  19
ENDBRANCH  12  13
ENDBRANCH  10  12
ENDBRANCH   3   6
TORSDOF 7
ENDMDL
MODEL      386
REMARK 921   NORMALIZED FREE ENERGY PREDICTED BY IDOCK:   32.97 KCAL/MOL
REMARK 922        TOTAL FREE ENERGY PREDICTED BY IDOCK:   44.61 KCAL/MOL
REMARK 923 INTER-LIGAND FREE ENERGY PREDICTED BY IDOCK:   45.71 KCAL/MOL
REMARK 924 INTRA-LIGAND FREE ENERGY PREDICTED BY IDOCK:   -1.11 KCAL/MOL
REMARK 927      BINDING AFFINITY PREDICTED BY RF-SCORE:    0.00 PKD
ROOT
HETATM    1  C   UNL     1      -7.843  21.329  70.864  1.00  0.00     5.238 C  
HETATM    2  N   UNL     1      -8.741  20.376  71.453  1.00  0.00     1.307 N  
HETATM    3  C   UNL     1      -9.189  19.280  70.747  1.00  0.00     2.562 C  
HETATM    4  H   UNL     1      -9.054  20.512  72.413  1.00  0.00     0.000 HD 
HETATM    5  O   UNL     1      -8.875  19.048  69.585  1.00  0.00     0.290 OA 
ENDROOT
BRANCH   3   6
HETATM    6  C   UNL     1     -10.086  18.353  71.512  1.00  0.00     4.415 A  
HETATM    7  N   UNL     1      -9.653  17.934  72.734  1.00  0.00     9.786 NA 
HETATM    8  C   UNL     1     -10.447  17.046  73.374  1.00  0.00     6.180 A  
HETATM    9  C   UNL     1     -11.621  16.528  72.844  1.00  0.00    -0.038 A  
HETATM   10  C   UNL     1     -12.021  16.959  71.584  1.00  0.00     0.989 A  
HETATM   11  C   UNL     1     -11.269  17.933  70.927  1.00  0.00     2.862 A  
BRANCH  10  12
HETATM   12  O   UNL     1     -13.167  16.394  71.056  1.00  0.00     0.667 OA 
BRANCH  12  13
HETATM   13  C   UNL     1     -13.052  15.671  69.884  1.00  0.00     0.518 A  
HETATM   14  C   UNL     1     -12.077  14.698  69.702  1.00  0.00    -0.355 A  
HETATM   15  C   UNL     1     -11.909  14.111  68.452  1.00  0.00    -0.388 A  
HETATM   16  C   UNL     1     -12.778  14.380  67.389  1.00  0.00     0.812 A  
HETATM   17  C   UNL     1     -13.816  15.293  67.604  1.00  0.00     8.025 A  
HETATM   18  C   UNL     1     -13.952  15.934  68.850  1.00  0.00     5.799 A  
BRANCH  16  19
HETATM   19  N   UNL     1     -12.631  13.764  66.118  1.00  0.00    -0.416 N  
HETATM   20  H   UNL     1     -13.431  13.272  65.719  1.00  0.00     0.000 HD 
BRANCH  19  21
HETATM   21  C   UNL     1     -11.446  13.799  65.392  1.00  0.00    -0.311 C  
HETATM   22  O   UNL     1     -10.862  14.841  65.124  1.00  0.00    -0.350 OA 
BRANCH  21  23
HETATM   23  N   UNL     1     -10.992  12.557  64.989  1.00  0.00    -0.286 N  
HETATM   24  H   UNL     1     -11.433  12.118  64.181  1.00  0.00     0.000 HD 
BRANCH  23  25
HETATM   25  C   UNL     1      -9.934  11.857  65.649  1.00  0.00    -0.241 A  
HETATM   26  C   UNL     1      -9.360  10.689  65.136  1.00  0.00    -0.254 A  
HETATM   27  C   UNL     1      -8.395   9.943  65.836  1.00  0.00    -0.126 A  
HETATM   28  C   UNL     1      -7.902   8.645  65.255  1.00  0.00    -0.107 C  
HETATM   29  C   UNL     1      -7.951  10.435  67.060  1.00  0.00    -0.116 A  
HETATM   30  F   UNL     1      -8.126   7.576  66.071  1.00  0.00    -0.100 F  
HETATM   31  F   UNL     1      -6.566   8.654  64.992  1.00  0.00    -0.064 F  
HETATM   32  F   UNL     1      -8.495   8.317  64.070  1.00  0.00    -0.154 F  
HETATM   33 CL   UNL     1      -6.754   9.615  67.992  1.00  0.00    -0.062 Cl 
HETATM   34  C   UNL     1      -8.474  11.633  67.568  1.00  0.00    -0.150 A  
HETATM   35  C   UNL     1      -9.463  12.341  66.871  1.00  0.00    -0.217 A  
ENDBRANCH  23  25
ENDBRANCH  21  23
ENDBRANCH  19  21
ENDBRANCH  16  19
ENDBRANCH  12  13
ENDBRANCH  10  12
ENDBRANCH   3   6
TORSDOF 7
ENDMDL
MODEL      387
REMARK 921   NORMALIZED FREE ENERGY PREDICTED BY IDOCK:   33.29 KCAL/MOL
REMARK 922        TOTAL FREE ENERGY PREDICTED BY IDOCK:   45.06 KCAL/MOL
REMARK 923 INTER-LIGAND FREE ENERGY PREDICTED BY IDOCK:   46.53 KCAL/MOL
REMARK 924 INTRA-LIGAND FREE ENERGY PREDICTED BY IDOCK:   -1.46 KCAL/MOL
REMARK 927      BINDING AFFINITY PREDICTED BY RF-SCORE:    0.00 PKD
ROOT
HETATM    1  C   UNL     1      -7.843  21.329  70.864  1.00  0.00     5.238 C  
HETATM    2  N   UNL     1      -8.741  20.376  71.453  1.00  0.00     1.307 N  
HETATM    3  C   UNL     1      -9.189  19.280  70.747  1.00  0.00     2.562 C  
HETATM    4  H   UNL     1      -9.054  20.512  72.413  1.00  0.00     0.000 HD 
HETATM    5  O   UNL     1      -8.875  19.048  69.585  1.00  0.00     0.290 OA 
ENDROOT
BRANCH   3   6
HETATM    6  C   UNL     1     -10.086  18.353  71.512  1.00  0.00     4.415 A  
HETATM    7  N   UNL     1      -9.653  17.934  72.734  1.00  0.00     9.786 NA 
HETATM    8  C   UNL     1     -10.447  17.046  73.374  1.00  0.00     6.180 A  
HETATM    9  C   UNL     1     -11.621  16.528  72.844  1.00  0.00    -0.038 A  
HETATM   10  C   UNL     1     -12.021  16.959  71.584  1.00  0.00     0.989 A  
HETATM   11  C   UNL     1     -11.269  17.933  70.927  1.00  0.00     2.862 A  
BRANCH  10  12
HETATM   12  O   UNL     1     -13.167  16.394  71.056  1.00  0.00     0.667 OA 
BRANCH  12  13
HETATM   13  C   UNL     1     -13.052  15.671  69.884  1.00  0.00     0.518 A  
HETATM   14  C   UNL     1     -12.077  14.698  69.702  1.00  0.00    -0.355 A  
HETATM   15  C   UNL     1     -11.909  14.111  68.452  1.00  0.00    -0.388 A  
HETATM   16  C   UNL     1     -12.778  14.380  67.389  1.00  0.00     0.812 A  
HETATM   17  C   UNL     1     -13.816  15.293  67.604  1.00  0.00     8.025 A  
HETATM   18  C   UNL     1     -13.952  15.934  68.850  1.00  0.00     5.799 A  
BRANCH  16  19
HETATM   19  N   UNL     1     -12.631  13.764  66.118  1.00  0.00    -0.416 N  
HETATM   20  H   UNL     1     -13.431  13.272  65.719  1.00  0.00     0.000 HD 
BRANCH  19  21
HETATM   21  C   UNL     1     -11.446  13.799  65.392  1.00  0.00    -0.311 C  
HETATM   22  O   UNL     1     -10.862  14.841  65.124  1.00  0.00    -0.350 OA 
BRANCH  21  23
HETATM   23  N   UNL     1     -10.992  12.557  64.989  1.00  0.00    -0.286 N  
HETATM   24  H   UNL     1     -11.433  12.118  64.181  1.00  0.00     0.000 HD 
BRANCH  23  25
HETATM   25  C   UNL     1      -9.934  11.857  65.649  1.00  0.00    -0.241 A  
HETATM   26  C   UNL     1     -10.006  11.462  66.991  1.00  0.00    -0.227 A  
HETATM   27  C   UNL     1      -8.926  10.871  67.669  1.00  0.00    -0.140 A  
HETATM   28  C   UNL     1      -9.054  10.567  69.137  1.00  0.00    -0.166 C  
HETATM   29  C   UNL     1      -7.765  10.610  66.947  1.00  0.00    -0.122 A  
HETATM   30  F   UNL     1      -8.118  11.201  69.897  1.00  0.00     0.131 F  
HETATM   31  F   UNL     1      -8.941   9.239  69.417  1.00  0.00    -0.128 F  
HETATM   32  F   UNL     1     -10.255  10.941  69.669  1.00  0.00    -0.233 F  
HETATM   33 CL   UNL     1      -6.388   9.865  67.672  1.00  0.00    -0.059 Cl 
HETATM   34  C   UNL     1      -7.691  10.948  65.588  1.00  0.00     0.012 A  
HETATM   35  C   UNL     1      -8.766  11.572  64.940  1.00  0.00     0.394 A  
ENDBRANCH  23  25
ENDBRANCH  21  23
ENDBRANCH  19  21
ENDBRANCH  16  19
ENDBRANCH  12  13
ENDBRANCH  10  12
ENDBRANCH   3   6
TORSDOF 7
ENDMDL
MODEL      388
REMARK 921   NORMALIZED FREE ENERGY PREDICTED BY IDOCK:   46.20 KCAL/MOL
REMARK 922        TOTAL FREE ENERGY PREDICTED BY IDOCK:   63.26 KCAL/MOL
REMARK 923 INTER-LIGAND FREE ENERGY PREDICTED BY IDOCK:   59.87 KCAL/MOL
REMARK 924 INTRA-LIGAND FREE ENERGY PREDICTED BY IDOCK:    3.39 KCAL/MOL
REMARK 927      BINDING AFFINITY PREDICTED BY RF-SCORE:    0.00 PKD
ROOT
HETATM    1  C   UNL     1     -13.097  16.986  69.129  1.00  0.00     5.906 C  
HETATM    2  N   UNL     1     -11.919  17.450  68.451  1.00  0.00     1.013 N  
HETATM    3  C   UNL     1     -10.699  16.833  68.625  1.00  0.00    -0.352 C  
HETATM    4  H   UNL     1     -11.987  18.254  67.827  1.00  0.00     0.000 HD 
HETATM    5  O   UNL     1     -10.526  15.872  69.367  1.00  0.00    -0.225 OA 
ENDROOT
BRANCH   3   6
HETATM    6  C   UNL     1      -9.574  17.406  67.816  1.00  0.00    -0.264 A  
HETATM    7  N   UNL     1      -9.571  18.755  67.620  1.00  0.00    -0.302 NA 
HETATM    8  C   UNL     1      -8.585  19.238  66.831  1.00  0.00    -0.298 A  
HETATM    9  C   UNL     1      -7.634  18.447  66.199  1.00  0.00    -0.270 A  
HETATM   10  C   UNL     1      -7.682  17.073  66.403  1.00  0.00    -0.315 A  
HETATM   11  C   UNL     1      -8.635  16.545  67.272  1.00  0.00    -0.202 A  
BRANCH  10  12
HETATM   12  O   UNL     1      -6.755  16.301  65.726  1.00  0.00     1.030 OA 
BRANCH  12  13
HETATM   13  C   UNL     1      -6.814  14.930  65.885  1.00  0.00     5.923 A  
HETATM   14  C   UNL     1      -6.853  14.326  67.135  1.00  0.00     0.412 A  
HETATM   15  C   UNL     1      -6.758  12.942  67.240  1.00  0.00    -0.056 A  
HETATM   16  C   UNL     1      -6.747  12.117  66.110  1.00  0.00     1.315 A  
HETATM   17  C   UNL     1      -6.801  12.726  64.852  1.00  0.00     8.865 A  
HETATM   18  C   UNL     1      -6.836  14.129  64.741  1.00  0.00    17.409 A  
BRANCH  16  19
HETATM   19  N   UNL     1      -6.678  10.702  66.208  1.00  0.00    -0.121 N  
HETATM   20  H   UNL     1      -5.892  10.286  66.707  1.00  0.00     0.000 HD 
BRANCH  19  21
HETATM   21  C   UNL     1      -7.634   9.858  65.655  1.00  0.00    -0.119 C  
HETATM   22  O   UNL     1      -7.426   9.182  64.655  1.00  0.00    -0.099 OA 
BRANCH  21  23
HETATM   23  N   UNL     1      -8.844   9.857  66.325  1.00  0.00    -0.141 N  
HETATM   24  H   UNL     1      -9.492   9.088  66.155  1.00  0.00     0.000 HD 
BRANCH  23  25
HETATM   25  C   UNL     1      -9.231  10.881  67.244  1.00  0.00    -0.151 A  
HETATM   26  C   UNL     1      -8.484  11.201  68.384  1.00  0.00    -0.151 A  
HETATM   27  C   UNL     1      -8.919  12.132  69.344  1.00  0.00     1.103 A  
HETATM   28  C   UNL     1      -8.102  12.344  70.589  1.00  0.00     6.171 C  
HETATM   29  C   UNL     1     -10.111  12.808  69.103  1.00  0.00     0.335 A  
HETATM   30  F   UNL     1      -8.794  12.080  71.733  1.00  0.00    11.734 F  
HETATM   31  F   UNL     1      -7.635  13.618  70.708  1.00  0.00     1.499 F  
HETATM   32  F   UNL     1      -6.992  11.552  70.656  1.00  0.00     0.391 F  
HETATM   33 CL   UNL     1     -10.726  13.989  70.200  1.00  0.00     0.348 Cl 
HETATM   34  C   UNL     1     -10.848  12.543  67.940  1.00  0.00    -0.251 A  
HETATM   35  C   UNL     1     -10.416  11.582  67.016  1.00  0.00    -0.263 A  
ENDBRANCH  23  25
ENDBRANCH  21  23
ENDBRANCH  19  21
ENDBRANCH  16  19
ENDBRANCH  12  13
ENDBRANCH  10  12
ENDBRANCH   3   6
TORSDOF 7
ENDMDL
