MODEL        1
REMARK 921   NORMALIZED FREE ENERGY PREDICTED BY IDOCK:   -4.85 KCAL/MOL
REMARK 922        TOTAL FREE ENERGY PREDICTED BY IDOCK:   -7.11 KCAL/MOL
REMARK 923 INTER-LIGAND FREE ENERGY PREDICTED BY IDOCK:   -6.27 KCAL/MOL
REMARK 924 INTRA-LIGAND FREE ENERGY PREDICTED BY IDOCK:   -0.85 KCAL/MOL
REMARK 927      BINDING AFFINITY PREDICTED BY RF-SCORE:    0.00 PKD
ROOT
HETATM    1  O   UNL     1     -11.569  11.385  62.851  1.00  0.00    -0.840 OA 
HETATM    2  C   UNL     1     -12.730  11.868  63.541  1.00  0.00    -0.405 C  
HETATM    3  H   UNL     1     -11.781  10.588  62.380  1.00  0.00     0.000 HD 
ENDROOT
BRANCH   2   4
HETATM    4  C   UNL     1     -12.388  13.154  64.301  1.00  0.00    -0.351 C  
HETATM    5  H   UNL     1     -12.204  15.064  63.846  1.00  0.00     0.000 HD 
HETATM    6  O   UNL     1     -12.416  14.267  63.375  1.00  0.00    -0.761 OA 
BRANCH   4   7
HETATM    7  C   UNL     1     -10.988  13.183  64.946  1.00  0.00    -0.318 C  
HETATM    8  O   UNL     1     -10.007  13.284  63.900  1.00  0.00    -0.753 OA 
HETATM    9  H   UNL     1      -9.145  13.302  64.298  1.00  0.00     0.000 HD 
BRANCH   7  10
HETATM   10  C   UNL     1     -10.719  14.258  66.020  1.00  0.00    -0.304 C  
HETATM   11  H   UNL     1     -11.783  15.455  67.201  1.00  0.00     0.000 HD 
HETATM   12  O   UNL     1     -11.948  14.793  66.540  1.00  0.00    -0.309 OA 
BRANCH  10  13
HETATM   13  C   UNL     1      -9.808  15.429  65.603  1.00  0.00    -0.352 C  
HETATM   14  H   UNL     1      -8.207  16.395  66.310  1.00  0.00     0.000 HD 
HETATM   15  O   UNL     1      -8.768  15.674  66.567  1.00  0.00    -0.260 OA 
BRANCH  13  16
HETATM   16  C   UNL     1     -10.556  16.744  65.354  1.00  0.00    -0.203 C  
HETATM   17  O   UNL     1     -11.272  16.626  64.115  1.00  0.00    -1.410 OA 
HETATM   18  H   UNL     1     -11.735  17.441  63.961  1.00  0.00     0.000 HD 
ENDBRANCH  13  16
ENDBRANCH  10  13
ENDBRANCH   7  10
ENDBRANCH   4   7
ENDBRANCH   2   4
TORSDOF 5
ENDMDL
MODEL        2
REMARK 921   NORMALIZED FREE ENERGY PREDICTED BY IDOCK:   -4.66 KCAL/MOL
REMARK 922        TOTAL FREE ENERGY PREDICTED BY IDOCK:   -6.87 KCAL/MOL
REMARK 923 INTER-LIGAND FREE ENERGY PREDICTED BY IDOCK:   -6.20 KCAL/MOL
REMARK 924 INTRA-LIGAND FREE ENERGY PREDICTED BY IDOCK:   -0.66 KCAL/MOL
REMARK 927      BINDING AFFINITY PREDICTED BY RF-SCORE:    0.00 PKD
ROOT
HETATM    1  O   UNL     1     -11.274  15.429  67.483  1.00  0.00    -0.327 OA 
HETATM    2  C   UNL     1     -10.732  16.373  66.549  1.00  0.00    -0.163 C  
HETATM    3  H   UNL     1     -11.166  15.753  68.369  1.00  0.00     0.000 HD 
ENDROOT
BRANCH   2   4
HETATM    4  C   UNL     1     -10.907  15.851  65.119  1.00  0.00    -0.421 C  
HETATM    5  H   UNL     1     -11.370  16.634  63.369  1.00  0.00     0.000 HD 
HETATM    6  O   UNL     1     -11.262  16.958  64.255  1.00  0.00    -1.204 OA 
BRANCH   4   7
HETATM    7  C   UNL     1     -12.023  14.804  64.935  1.00  0.00    -0.358 C  
HETATM    8  O   UNL     1     -12.733  15.105  63.721  1.00  0.00    -0.877 OA 
HETATM    9  H   UNL     1     -13.421  14.459  63.607  1.00  0.00     0.000 HD 
BRANCH   7  10
HETATM   10  C   UNL     1     -11.615  13.316  64.945  1.00  0.00    -0.325 C  
HETATM   11  H   UNL     1     -10.115  12.207  65.638  1.00  0.00     0.000 HD 
HETATM   12  O   UNL     1     -10.366  13.122  65.631  1.00  0.00    -0.276 OA 
BRANCH  10  13
HETATM   13  C   UNL     1     -11.536  12.618  63.572  1.00  0.00    -0.514 C  
HETATM   14  H   UNL     1     -12.764  11.666  62.313  1.00  0.00     0.000 HD 
HETATM   15  O   UNL     1     -12.813  12.096  63.159  1.00  0.00    -0.662 OA 
BRANCH  13  16
HETATM   16  C   UNL     1     -10.506  11.485  63.505  1.00  0.00    -0.428 C  
HETATM   17  O   UNL     1      -9.207  12.069  63.321  1.00  0.00    -0.650 OA 
HETATM   18  H   UNL     1      -8.569  11.368  63.280  1.00  0.00     0.000 HD 
ENDBRANCH  13  16
ENDBRANCH  10  13
ENDBRANCH   7  10
ENDBRANCH   4   7
ENDBRANCH   2   4
TORSDOF 5
ENDMDL
MODEL        3
REMARK 921   NORMALIZED FREE ENERGY PREDICTED BY IDOCK:   -4.63 KCAL/MOL
REMARK 922        TOTAL FREE ENERGY PREDICTED BY IDOCK:   -6.83 KCAL/MOL
REMARK 923 INTER-LIGAND FREE ENERGY PREDICTED BY IDOCK:   -6.01 KCAL/MOL
REMARK 924 INTRA-LIGAND FREE ENERGY PREDICTED BY IDOCK:   -0.82 KCAL/MOL
REMARK 927      BINDING AFFINITY PREDICTED BY RF-SCORE:    0.00 PKD
ROOT
HETATM    1  O   UNL     1     -12.526  13.939  62.797  1.00  0.00    -0.901 OA 
HETATM    2  C   UNL     1     -12.272  12.865  63.712  1.00  0.00    -0.476 C  
HETATM    3  H   UNL     1     -12.625  13.597  61.916  1.00  0.00     0.000 HD 
ENDROOT
BRANCH   2   4
HETATM    4  C   UNL     1     -12.112  13.416  65.132  1.00  0.00    -0.409 C  
HETATM    5  H   UNL     1     -13.208  14.494  66.369  1.00  0.00     0.000 HD 
HETATM    6  O   UNL     1     -13.308  14.152  65.488  1.00  0.00    -0.656 OA 
BRANCH   4   7
HETATM    7  C   UNL     1     -10.943  14.402  65.326  1.00  0.00    -0.350 C  
HETATM    8  O   UNL     1      -9.941  14.120  64.333  1.00  0.00    -0.674 OA 
HETATM    9  H   UNL     1      -9.221  14.728  64.452  1.00  0.00     0.000 HD 
BRANCH   7  10
HETATM   10  C   UNL     1     -11.272  15.910  65.322  1.00  0.00    -0.153 C  
HETATM   11  H   UNL     1     -11.644  17.330  63.979  1.00  0.00     0.000 HD 
HETATM   12  O   UNL     1     -11.442  16.402  63.982  1.00  0.00    -1.048 OA 
BRANCH  10  13
HETATM   13  C   UNL     1     -10.280  16.829  66.063  1.00  0.00    -0.346 C  
HETATM   14  H   UNL     1      -8.350  17.337  65.948  1.00  0.00     0.000 HD 
HETATM   15  O   UNL     1      -8.960  16.771  65.492  1.00  0.00    -0.383 OA 
BRANCH  13  16
HETATM   16  C   UNL     1     -10.170  16.546  67.565  1.00  0.00    -0.283 C  
HETATM   17  O   UNL     1     -10.127  17.803  68.257  1.00  0.00    -0.327 OA 
HETATM   18  H   UNL     1     -10.059  17.628  69.188  1.00  0.00     0.000 HD 
ENDBRANCH  13  16
ENDBRANCH  10  13
ENDBRANCH   7  10
ENDBRANCH   4   7
ENDBRANCH   2   4
TORSDOF 5
ENDMDL
MODEL        4
REMARK 921   NORMALIZED FREE ENERGY PREDICTED BY IDOCK:   -4.61 KCAL/MOL
REMARK 922        TOTAL FREE ENERGY PREDICTED BY IDOCK:   -6.80 KCAL/MOL
REMARK 923 INTER-LIGAND FREE ENERGY PREDICTED BY IDOCK:   -5.99 KCAL/MOL
REMARK 924 INTRA-LIGAND FREE ENERGY PREDICTED BY IDOCK:   -0.80 KCAL/MOL
REMARK 927      BINDING AFFINITY PREDICTED BY RF-SCORE:    0.00 PKD
ROOT
HETATM    1  O   UNL     1     -12.568  13.763  62.968  1.00  0.00    -1.005 OA 
HETATM    2  C   UNL     1     -12.391  12.697  63.911  1.00  0.00    -0.459 C  
HETATM    3  H   UNL     1     -12.735  13.406  62.104  1.00  0.00     0.000 HD 
ENDROOT
BRANCH   2   4
HETATM    4  C   UNL     1     -12.122  13.273  65.305  1.00  0.00    -0.418 C  
HETATM    5  H   UNL     1     -13.067  14.476  66.551  1.00  0.00     0.000 HD 
HETATM    6  O   UNL     1     -13.234  14.119  65.686  1.00  0.00    -0.615 OA 
BRANCH   4   7
HETATM    7  C   UNL     1     -10.866  14.161  65.417  1.00  0.00    -0.337 C  
HETATM    8  O   UNL     1     -10.017  13.892  64.288  1.00  0.00    -0.714 OA 
HETATM    9  H   UNL     1      -9.243  14.439  64.357  1.00  0.00     0.000 HD 
BRANCH   7  10
HETATM   10  C   UNL     1     -11.077  15.682  65.561  1.00  0.00    -0.226 C  
HETATM   11  H   UNL     1     -11.439  17.236  64.372  1.00  0.00     0.000 HD 
HETATM   12  O   UNL     1     -11.308  16.300  64.284  1.00  0.00    -0.741 OA 
BRANCH  10  13
HETATM   13  C   UNL     1      -9.965  16.462  66.292  1.00  0.00    -0.323 C  
HETATM   14  H   UNL     1      -8.809  16.244  67.908  1.00  0.00     0.000 HD 
HETATM   15  O   UNL     1      -9.494  15.763  67.459  1.00  0.00    -0.216 OA 
BRANCH  13  16
HETATM   16  C   UNL     1     -10.368  17.881  66.707  1.00  0.00    -0.355 C  
HETATM   17  O   UNL     1     -10.506  18.675  65.519  1.00  0.00    -0.585 OA 
HETATM   18  H   UNL     1     -10.755  19.555  65.777  1.00  0.00     0.000 HD 
ENDBRANCH  13  16
ENDBRANCH  10  13
ENDBRANCH   7  10
ENDBRANCH   4   7
ENDBRANCH   2   4
TORSDOF 5
ENDMDL
MODEL        5
REMARK 921   NORMALIZED FREE ENERGY PREDICTED BY IDOCK:   -4.60 KCAL/MOL
REMARK 922        TOTAL FREE ENERGY PREDICTED BY IDOCK:   -6.79 KCAL/MOL
REMARK 923 INTER-LIGAND FREE ENERGY PREDICTED BY IDOCK:   -6.55 KCAL/MOL
REMARK 924 INTRA-LIGAND FREE ENERGY PREDICTED BY IDOCK:   -0.24 KCAL/MOL
REMARK 927      BINDING AFFINITY PREDICTED BY RF-SCORE:    0.00 PKD
ROOT
HETATM    1  O   UNL     1     -11.614  16.454  63.650  1.00  0.00    -1.514 OA 
HETATM    2  C   UNL     1     -11.396  15.585  64.770  1.00  0.00    -0.357 C  
HETATM    3  H   UNL     1     -11.417  17.351  63.894  1.00  0.00     0.000 HD 
ENDROOT
BRANCH   2   4
HETATM    4  C   UNL     1     -11.713  14.138  64.377  1.00  0.00    -0.392 C  
HETATM    5  H   UNL     1     -12.777  13.250  62.974  1.00  0.00     0.000 HD 
HETATM    6  O   UNL     1     -12.580  14.147  63.217  1.00  0.00    -0.766 OA 
BRANCH   4   7
HETATM    7  C   UNL     1     -12.457  13.316  65.448  1.00  0.00    -0.489 C  
HETATM    8  O   UNL     1     -13.284  12.345  64.783  1.00  0.00    -0.784 OA 
HETATM    9  H   UNL     1     -13.742  11.839  65.443  1.00  0.00     0.000 HD 
BRANCH   7  10
HETATM   10  C   UNL     1     -11.607  12.621  66.533  1.00  0.00    -0.381 C  
HETATM   11  H   UNL     1     -11.008  10.775  66.973  1.00  0.00     0.000 HD 
HETATM   12  O   UNL     1     -11.531  11.203  66.306  1.00  0.00    -0.201 OA 
BRANCH  10  13
HETATM   13  C   UNL     1     -12.031  12.864  67.995  1.00  0.00    -0.275 C  
HETATM   14  H   UNL     1     -11.870  14.305  69.371  1.00  0.00     0.000 HD 
HETATM   15  O   UNL     1     -11.609  14.156  68.470  1.00  0.00    -0.278 OA 
BRANCH  13  16
HETATM   16  C   UNL     1     -11.528  11.799  68.976  1.00  0.00    -0.297 C  
HETATM   17  O   UNL     1     -12.291  10.601  68.769  1.00  0.00    -0.814 OA 
HETATM   18  H   UNL     1     -11.979   9.942  69.378  1.00  0.00     0.000 HD 
ENDBRANCH  13  16
ENDBRANCH  10  13
ENDBRANCH   7  10
ENDBRANCH   4   7
ENDBRANCH   2   4
TORSDOF 5
ENDMDL
MODEL        6
REMARK 921   NORMALIZED FREE ENERGY PREDICTED BY IDOCK:   -4.56 KCAL/MOL
REMARK 922        TOTAL FREE ENERGY PREDICTED BY IDOCK:   -6.74 KCAL/MOL
REMARK 923 INTER-LIGAND FREE ENERGY PREDICTED BY IDOCK:   -6.26 KCAL/MOL
REMARK 924 INTRA-LIGAND FREE ENERGY PREDICTED BY IDOCK:   -0.48 KCAL/MOL
REMARK 927      BINDING AFFINITY PREDICTED BY RF-SCORE:    0.00 PKD
ROOT
HETATM    1  O   UNL     1     -12.348  13.965  63.254  1.00  0.00    -1.115 OA 
HETATM    2  C   UNL     1     -12.654  14.241  64.628  1.00  0.00    -0.255 C  
HETATM    3  H   UNL     1     -13.143  13.743  62.784  1.00  0.00     0.000 HD 
ENDROOT
BRANCH   2   4
HETATM    4  C   UNL     1     -11.371  14.599  65.385  1.00  0.00    -0.344 C  
HETATM    5  H   UNL     1     -10.883  14.944  67.265  1.00  0.00     0.000 HD 
HETATM    6  O   UNL     1     -11.678  14.722  66.795  1.00  0.00    -0.366 OA 
BRANCH   4   7
HETATM    7  C   UNL     1     -10.722  15.938  64.982  1.00  0.00    -0.404 C  
HETATM    8  O   UNL     1     -11.494  16.514  63.913  1.00  0.00    -1.608 OA 
HETATM    9  H   UNL     1     -11.094  17.339  63.665  1.00  0.00     0.000 HD 
BRANCH   7  10
HETATM   10  C   UNL     1     -10.503  16.989  66.091  1.00  0.00    -0.271 C  
HETATM   11  H   UNL     1     -10.446  18.971  66.249  1.00  0.00     0.000 HD 
HETATM   12  O   UNL     1     -10.580  18.325  65.566  1.00  0.00    -0.632 OA 
BRANCH  10  13
HETATM   13  C   UNL     1      -9.206  16.856  66.913  1.00  0.00    -0.238 C  
HETATM   14  H   UNL     1      -8.351  17.726  68.497  1.00  0.00     0.000 HD 
HETATM   15  O   UNL     1      -9.150  17.809  67.991  1.00  0.00    -0.257 OA 
BRANCH  13  16
HETATM   16  C   UNL     1      -7.924  16.988  66.083  1.00  0.00    -0.264 C  
HETATM   17  O   UNL     1      -7.730  18.377  65.774  1.00  0.00    -0.509 OA 
HETATM   18  H   UNL     1      -6.936  18.459  65.260  1.00  0.00     0.000 HD 
ENDBRANCH  13  16
ENDBRANCH  10  13
ENDBRANCH   7  10
ENDBRANCH   4   7
ENDBRANCH   2   4
TORSDOF 5
ENDMDL
MODEL        7
REMARK 921   NORMALIZED FREE ENERGY PREDICTED BY IDOCK:   -4.55 KCAL/MOL
REMARK 922        TOTAL FREE ENERGY PREDICTED BY IDOCK:   -6.73 KCAL/MOL
REMARK 923 INTER-LIGAND FREE ENERGY PREDICTED BY IDOCK:   -6.21 KCAL/MOL
REMARK 924 INTRA-LIGAND FREE ENERGY PREDICTED BY IDOCK:   -0.52 KCAL/MOL
REMARK 927      BINDING AFFINITY PREDICTED BY RF-SCORE:    0.00 PKD
ROOT
HETATM    1  O   UNL     1     -12.505  13.566  62.719  1.00  0.00    -0.829 OA 
HETATM    2  C   UNL     1     -11.689  13.074  63.790  1.00  0.00    -0.485 C  
HETATM    3  H   UNL     1     -12.466  12.968  61.981  1.00  0.00     0.000 HD 
ENDROOT
BRANCH   2   4
HETATM    4  C   UNL     1     -11.752  14.038  64.979  1.00  0.00    -0.364 C  
HETATM    5  H   UNL     1     -13.178  14.921  66.017  1.00  0.00     0.000 HD 
HETATM    6  O   UNL     1     -13.139  14.323  65.280  1.00  0.00    -0.707 OA 
BRANCH   4   7
HETATM    7  C   UNL     1     -11.084  15.408  64.749  1.00  0.00    -0.403 C  
HETATM    8  O   UNL     1     -11.894  16.160  63.829  1.00  0.00    -1.408 OA 
HETATM    9  H   UNL     1     -11.483  17.004  63.687  1.00  0.00     0.000 HD 
BRANCH   7  10
HETATM   10  C   UNL     1     -10.773  16.268  65.992  1.00  0.00    -0.214 C  
HETATM   11  H   UNL     1      -9.411  17.609  66.549  1.00  0.00     0.000 HD 
HETATM   12  O   UNL     1      -9.604  17.079  65.785  1.00  0.00    -0.525 OA 
BRANCH  10  13
HETATM   13  C   UNL     1     -10.618  15.512  67.327  1.00  0.00    -0.299 C  
HETATM   14  H   UNL     1     -11.094  15.775  69.251  1.00  0.00     0.000 HD 
HETATM   15  O   UNL     1     -11.189  16.242  68.429  1.00  0.00    -0.354 OA 
BRANCH  13  16
HETATM   16  C   UNL     1      -9.169  15.158  67.680  1.00  0.00    -0.181 C  
HETATM   17  O   UNL     1      -8.602  14.435  66.577  1.00  0.00    -0.438 OA 
HETATM   18  H   UNL     1      -7.704  14.215  66.796  1.00  0.00     0.000 HD 
ENDBRANCH  13  16
ENDBRANCH  10  13
ENDBRANCH   7  10
ENDBRANCH   4   7
ENDBRANCH   2   4
TORSDOF 5
ENDMDL
MODEL        8
REMARK 921   NORMALIZED FREE ENERGY PREDICTED BY IDOCK:   -4.52 KCAL/MOL
REMARK 922        TOTAL FREE ENERGY PREDICTED BY IDOCK:   -6.68 KCAL/MOL
REMARK 923 INTER-LIGAND FREE ENERGY PREDICTED BY IDOCK:   -5.96 KCAL/MOL
REMARK 924 INTRA-LIGAND FREE ENERGY PREDICTED BY IDOCK:   -0.72 KCAL/MOL
REMARK 927      BINDING AFFINITY PREDICTED BY RF-SCORE:    0.00 PKD
ROOT
HETATM    1  O   UNL     1     -12.497  13.570  62.706  1.00  0.00    -0.829 OA 
HETATM    2  C   UNL     1     -12.346  12.416  63.544  1.00  0.00    -0.546 C  
HETATM    3  H   UNL     1     -12.610  13.302  61.802  1.00  0.00     0.000 HD 
ENDROOT
BRANCH   2   4
HETATM    4  C   UNL     1     -12.164  12.849  65.002  1.00  0.00    -0.464 C  
HETATM    5  H   UNL     1     -13.125  14.019  66.266  1.00  0.00     0.000 HD 
HETATM    6  O   UNL     1     -13.239  13.751  65.361  1.00  0.00    -0.722 OA 
BRANCH   4   7
HETATM    7  C   UNL     1     -10.859  13.615  65.301  1.00  0.00    -0.322 C  
HETATM    8  O   UNL     1     -10.027  13.571  64.129  1.00  0.00    -0.766 OA 
HETATM    9  H   UNL     1      -9.224  14.043  64.314  1.00  0.00     0.000 HD 
BRANCH   7  10
HETATM   10  C   UNL     1     -10.984  15.071  65.798  1.00  0.00    -0.350 C  
HETATM   11  H   UNL     1     -10.436  16.884  65.191  1.00  0.00     0.000 HD 
HETATM   12  O   UNL     1     -10.359  15.989  64.885  1.00  0.00    -0.543 OA 
BRANCH  10  13
HETATM   13  C   UNL     1     -10.460  15.356  67.220  1.00  0.00    -0.282 C  
HETATM   14  H   UNL     1      -9.263  14.490  68.567  1.00  0.00     0.000 HD 
HETATM   15  O   UNL     1      -9.586  14.313  67.692  1.00  0.00    -0.212 OA 
BRANCH  13  16
HETATM   16  C   UNL     1     -11.564  15.570  68.262  1.00  0.00    -0.334 C  
HETATM   17  O   UNL     1     -12.509  14.495  68.142  1.00  0.00    -0.589 OA 
HETATM   18  H   UNL     1     -13.193  14.628  68.787  1.00  0.00     0.000 HD 
ENDBRANCH  13  16
ENDBRANCH  10  13
ENDBRANCH   7  10
ENDBRANCH   4   7
ENDBRANCH   2   4
TORSDOF 5
ENDMDL
MODEL        9
REMARK 921   NORMALIZED FREE ENERGY PREDICTED BY IDOCK:   -4.45 KCAL/MOL
REMARK 922        TOTAL FREE ENERGY PREDICTED BY IDOCK:   -6.59 KCAL/MOL
REMARK 923 INTER-LIGAND FREE ENERGY PREDICTED BY IDOCK:   -6.03 KCAL/MOL
REMARK 924 INTRA-LIGAND FREE ENERGY PREDICTED BY IDOCK:   -0.56 KCAL/MOL
REMARK 927      BINDING AFFINITY PREDICTED BY RF-SCORE:    0.00 PKD
ROOT
HETATM    1  O   UNL     1     -11.848  16.367  63.626  1.00  0.00    -1.406 OA 
HETATM    2  C   UNL     1     -11.329  15.596  64.719  1.00  0.00    -0.343 C  
HETATM    3  H   UNL     1     -11.544  17.264  63.690  1.00  0.00     0.000 HD 
ENDROOT
BRANCH   2   4
HETATM    4  C   UNL     1     -11.819  14.148  64.615  1.00  0.00    -0.431 C  
HETATM    5  H   UNL     1     -13.415  13.145  65.196  1.00  0.00     0.000 HD 
HETATM    6  O   UNL     1     -13.111  14.043  65.260  1.00  0.00    -0.782 OA 
BRANCH   4   7
HETATM    7  C   UNL     1     -10.922  13.100  65.304  1.00  0.00    -0.285 C  
HETATM    8  O   UNL     1      -9.796  12.833  64.449  1.00  0.00    -0.570 OA 
HETATM    9  H   UNL     1      -9.244  12.187  64.874  1.00  0.00     0.000 HD 
BRANCH   7  10
HETATM   10  C   UNL     1     -10.429  13.411  66.733  1.00  0.00    -0.275 C  
HETATM   11  H   UNL     1      -8.705  13.416  67.726  1.00  0.00     0.000 HD 
HETATM   12  O   UNL     1      -9.008  13.225  66.846  1.00  0.00    -0.225 OA 
BRANCH  10  13
HETATM   13  C   UNL     1     -11.120  12.642  67.877  1.00  0.00    -0.247 C  
HETATM   14  H   UNL     1     -12.233  10.997  68.107  1.00  0.00     0.000 HD 
HETATM   15  O   UNL     1     -11.808  11.470  67.402  1.00  0.00    -0.607 OA 
BRANCH  13  16
HETATM   16  C   UNL     1     -12.108  13.487  68.689  1.00  0.00    -0.268 C  
HETATM   17  O   UNL     1     -12.291  14.739  68.012  1.00  0.00    -0.592 OA 
HETATM   18  H   UNL     1     -12.903  15.263  68.515  1.00  0.00     0.000 HD 
ENDBRANCH  13  16
ENDBRANCH  10  13
ENDBRANCH   7  10
ENDBRANCH   4   7
ENDBRANCH   2   4
TORSDOF 5
ENDMDL
MODEL       10
REMARK 921   NORMALIZED FREE ENERGY PREDICTED BY IDOCK:   -4.42 KCAL/MOL
REMARK 922        TOTAL FREE ENERGY PREDICTED BY IDOCK:   -6.56 KCAL/MOL
REMARK 923 INTER-LIGAND FREE ENERGY PREDICTED BY IDOCK:   -6.14 KCAL/MOL
REMARK 924 INTRA-LIGAND FREE ENERGY PREDICTED BY IDOCK:   -0.42 KCAL/MOL
REMARK 927      BINDING AFFINITY PREDICTED BY RF-SCORE:    0.00 PKD
ROOT
HETATM    1  O   UNL     1      -9.297  16.771  67.291  1.00  0.00    -0.226 OA 
HETATM    2  C   UNL     1     -10.505  16.895  66.529  1.00  0.00    -0.253 C  
HETATM    3  H   UNL     1      -9.390  17.221  68.122  1.00  0.00     0.000 HD 
ENDROOT
BRANCH   2   4
HETATM    4  C   UNL     1     -10.354  16.169  65.189  1.00  0.00    -0.171 C  
HETATM    5  H   UNL     1     -11.107  16.364  63.376  1.00  0.00     0.000 HD 
HETATM    6  O   UNL     1     -11.201  16.814  64.207  1.00  0.00    -1.163 OA 
BRANCH   4   7
HETATM    7  C   UNL     1     -10.777  14.686  65.194  1.00  0.00    -0.414 C  
HETATM    8  O   UNL     1     -10.736  14.207  66.549  1.00  0.00    -0.285 OA 
HETATM    9  H   UNL     1     -10.997  13.293  66.551  1.00  0.00     0.000 HD 
BRANCH   7  10
HETATM   10  C   UNL     1     -12.134  14.328  64.554  1.00  0.00    -0.480 C  
HETATM   11  H   UNL     1     -14.014  14.057  65.148  1.00  0.00     0.000 HD 
HETATM   12  O   UNL     1     -13.178  14.277  65.541  1.00  0.00    -0.641 OA 
BRANCH  10  13
HETATM   13  C   UNL     1     -12.179  13.031  63.721  1.00  0.00    -0.460 C  
HETATM   14  H   UNL     1     -13.198  11.312  63.697  1.00  0.00     0.000 HD 
HETATM   15  O   UNL     1     -13.171  12.110  64.210  1.00  0.00    -0.768 OA 
BRANCH  13  16
HETATM   16  C   UNL     1     -10.836  12.297  63.638  1.00  0.00    -0.469 C  
HETATM   17  O   UNL     1     -11.026  11.097  62.873  1.00  0.00    -0.809 OA 
HETATM   18  H   UNL     1     -10.194  10.642  62.822  1.00  0.00     0.000 HD 
ENDBRANCH  13  16
ENDBRANCH  10  13
ENDBRANCH   7  10
ENDBRANCH   4   7
ENDBRANCH   2   4
TORSDOF 5
ENDMDL
MODEL       11
REMARK 921   NORMALIZED FREE ENERGY PREDICTED BY IDOCK:   -4.42 KCAL/MOL
REMARK 922        TOTAL FREE ENERGY PREDICTED BY IDOCK:   -6.56 KCAL/MOL
REMARK 923 INTER-LIGAND FREE ENERGY PREDICTED BY IDOCK:   -6.21 KCAL/MOL
REMARK 924 INTRA-LIGAND FREE ENERGY PREDICTED BY IDOCK:   -0.35 KCAL/MOL
REMARK 927      BINDING AFFINITY PREDICTED BY RF-SCORE:    0.00 PKD
ROOT
HETATM    1  O   UNL     1     -12.016  11.847  67.225  1.00  0.00    -0.605 OA 
HETATM    2  C   UNL     1     -11.622  11.986  65.853  1.00  0.00    -0.300 C  
HETATM    3  H   UNL     1     -11.442  11.232  67.666  1.00  0.00     0.000 HD 
ENDROOT
BRANCH   2   4
HETATM    4  C   UNL     1     -12.548  12.978  65.142  1.00  0.00    -0.469 C  
HETATM    5  H   UNL     1     -13.974  12.865  63.784  1.00  0.00     0.000 HD 
HETATM    6  O   UNL     1     -13.400  12.250  64.225  1.00  0.00    -0.777 OA 
BRANCH   4   7
HETATM    7  C   UNL     1     -11.836  14.047  64.291  1.00  0.00    -0.410 C  
HETATM    8  O   UNL     1     -12.550  14.192  63.051  1.00  0.00    -1.002 OA 
HETATM    9  H   UNL     1     -12.110  14.851  62.527  1.00  0.00     0.000 HD 
BRANCH   7  10
HETATM   10  C   UNL     1     -11.611  15.435  64.929  1.00  0.00    -0.248 C  
HETATM   11  H   UNL     1     -11.518  17.330  64.331  1.00  0.00     0.000 HD 
HETATM   12  O   UNL     1     -11.656  16.476  63.939  1.00  0.00    -1.175 OA 
BRANCH  10  13
HETATM   13  C   UNL     1     -10.328  15.604  65.766  1.00  0.00    -0.365 C  
HETATM   14  H   UNL     1      -8.647  14.587  66.137  1.00  0.00     0.000 HD 
HETATM   15  O   UNL     1      -9.438  14.482  65.622  1.00  0.00    -0.222 OA 
BRANCH  13  16
HETATM   16  C   UNL     1     -10.582  15.831  67.261  1.00  0.00    -0.313 C  
HETATM   17  O   UNL     1     -11.450  14.789  67.732  1.00  0.00    -0.319 OA 
HETATM   18  H   UNL     1     -11.608  14.930  68.657  1.00  0.00     0.000 HD 
ENDBRANCH  13  16
ENDBRANCH  10  13
ENDBRANCH   7  10
ENDBRANCH   4   7
ENDBRANCH   2   4
TORSDOF 5
ENDMDL
MODEL       12
REMARK 921   NORMALIZED FREE ENERGY PREDICTED BY IDOCK:   -4.41 KCAL/MOL
REMARK 922        TOTAL FREE ENERGY PREDICTED BY IDOCK:   -6.55 KCAL/MOL
REMARK 923 INTER-LIGAND FREE ENERGY PREDICTED BY IDOCK:   -6.01 KCAL/MOL
REMARK 924 INTRA-LIGAND FREE ENERGY PREDICTED BY IDOCK:   -0.54 KCAL/MOL
REMARK 927      BINDING AFFINITY PREDICTED BY RF-SCORE:    0.00 PKD
ROOT
HETATM    1  O   UNL     1     -11.608  11.884  63.107  1.00  0.00    -0.685 OA 
HETATM    2  C   UNL     1     -10.266  11.780  63.601  1.00  0.00    -0.428 C  
HETATM    3  H   UNL     1     -11.598  12.015  62.166  1.00  0.00     0.000 HD 
ENDROOT
BRANCH   2   4
HETATM    4  C   UNL     1     -10.284  11.568  65.118  1.00  0.00    -0.274 C  
HETATM    5  H   UNL     1     -10.355  10.016  66.334  1.00  0.00     0.000 HD 
HETATM    6  O   UNL     1     -10.344  10.147  65.393  1.00  0.00    -0.257 OA 
BRANCH   4   7
HETATM    7  C   UNL     1     -11.489  12.187  65.854  1.00  0.00    -0.363 C  
HETATM    8  O   UNL     1     -11.828  11.339  66.965  1.00  0.00    -0.484 OA 
HETATM    9  H   UNL     1     -12.571  11.721  67.418  1.00  0.00     0.000 HD 
BRANCH   7  10
HETATM   10  C   UNL     1     -11.360  13.648  66.332  1.00  0.00    -0.316 C  
HETATM   11  H   UNL     1     -11.868  14.724  67.928  1.00  0.00     0.000 HD 
HETATM   12  O   UNL     1     -11.947  13.824  67.633  1.00  0.00    -0.358 OA 
BRANCH  10  13
HETATM   13  C   UNL     1     -11.921  14.730  65.387  1.00  0.00    -0.209 C  
HETATM   14  H   UNL     1     -13.114  14.836  63.787  1.00  0.00     0.000 HD 
HETATM   15  O   UNL     1     -12.769  14.169  64.368  1.00  0.00    -0.667 OA 
BRANCH  13  16
HETATM   16  C   UNL     1     -10.845  15.583  64.706  1.00  0.00    -0.363 C  
HETATM   17  O   UNL     1     -11.500  16.592  63.923  1.00  0.00    -1.608 OA 
HETATM   18  H   UNL     1     -10.833  17.120  63.501  1.00  0.00     0.000 HD 
ENDBRANCH  13  16
ENDBRANCH  10  13
ENDBRANCH   7  10
ENDBRANCH   4   7
ENDBRANCH   2   4
TORSDOF 5
ENDMDL
MODEL       13
REMARK 921   NORMALIZED FREE ENERGY PREDICTED BY IDOCK:   -4.38 KCAL/MOL
REMARK 922        TOTAL FREE ENERGY PREDICTED BY IDOCK:   -6.51 KCAL/MOL
REMARK 923 INTER-LIGAND FREE ENERGY PREDICTED BY IDOCK:   -6.10 KCAL/MOL
REMARK 924 INTRA-LIGAND FREE ENERGY PREDICTED BY IDOCK:   -0.41 KCAL/MOL
REMARK 927      BINDING AFFINITY PREDICTED BY RF-SCORE:    0.00 PKD
ROOT
HETATM    1  O   UNL     1     -11.656  16.365  63.654  1.00  0.00    -1.514 OA 
HETATM    2  C   UNL     1     -11.650  15.460  64.766  1.00  0.00    -0.286 C  
HETATM    3  H   UNL     1     -11.529  17.256  63.960  1.00  0.00     0.000 HD 
ENDROOT
BRANCH   2   4
HETATM    4  C   UNL     1     -11.855  14.025  64.272  1.00  0.00    -0.410 C  
HETATM    5  H   UNL     1     -12.667  13.170  62.691  1.00  0.00     0.000 HD 
HETATM    6  O   UNL     1     -12.540  14.060  62.997  1.00  0.00    -0.643 OA 
BRANCH   4   7
HETATM    7  C   UNL     1     -12.720  13.133  65.186  1.00  0.00    -0.405 C  
HETATM    8  O   UNL     1     -13.394  12.162  64.367  1.00  0.00    -0.740 OA 
HETATM    9  H   UNL     1     -13.927  11.613  64.930  1.00  0.00     0.000 HD 
BRANCH   7  10
HETATM   10  C   UNL     1     -12.019  12.425  66.364  1.00  0.00    -0.274 C  
HETATM   11  H   UNL     1     -11.232  12.925  68.122  1.00  0.00     0.000 HD 
HETATM   12  O   UNL     1     -11.663  13.360  67.396  1.00  0.00    -0.331 OA 
BRANCH  10  13
HETATM   13  C   UNL     1     -10.778  11.580  66.015  1.00  0.00    -0.281 C  
HETATM   14  H   UNL     1     -10.089  10.514  64.470  1.00  0.00     0.000 HD 
HETATM   15  O   UNL     1     -10.854  11.034  64.685  1.00  0.00    -0.296 OA 
BRANCH  13  16
HETATM   16  C   UNL     1     -10.507  10.433  66.994  1.00  0.00    -0.251 C  
HETATM   17  O   UNL     1     -11.578  10.396  67.950  1.00  0.00    -0.669 OA 
HETATM   18  H   UNL     1     -11.411   9.685  68.557  1.00  0.00     0.000 HD 
ENDBRANCH  13  16
ENDBRANCH  10  13
ENDBRANCH   7  10
ENDBRANCH   4   7
ENDBRANCH   2   4
TORSDOF 5
ENDMDL
MODEL       14
REMARK 921   NORMALIZED FREE ENERGY PREDICTED BY IDOCK:   -4.37 KCAL/MOL
REMARK 922        TOTAL FREE ENERGY PREDICTED BY IDOCK:   -6.50 KCAL/MOL
REMARK 923 INTER-LIGAND FREE ENERGY PREDICTED BY IDOCK:   -5.73 KCAL/MOL
REMARK 924 INTRA-LIGAND FREE ENERGY PREDICTED BY IDOCK:   -0.77 KCAL/MOL
REMARK 927      BINDING AFFINITY PREDICTED BY RF-SCORE:    0.00 PKD
ROOT
HETATM    1  O   UNL     1     -12.418  13.760  62.846  1.00  0.00    -1.009 OA 
HETATM    2  C   UNL     1     -12.036  12.655  63.677  1.00  0.00    -0.547 C  
HETATM    3  H   UNL     1     -12.034  13.663  61.982  1.00  0.00     0.000 HD 
ENDROOT
BRANCH   2   4
HETATM    4  C   UNL     1     -12.655  12.811  65.069  1.00  0.00    -0.468 C  
HETATM    5  H   UNL     1     -13.731  14.178  65.999  1.00  0.00     0.000 HD 
HETATM    6  O   UNL     1     -13.347  14.082  65.136  1.00  0.00    -0.703 OA 
BRANCH   4   7
HETATM    7  C   UNL     1     -11.649  12.822  66.237  1.00  0.00    -0.379 C  
HETATM    8  O   UNL     1     -11.411  11.464  66.645  1.00  0.00    -0.408 OA 
HETATM    9  H   UNL     1     -10.791  11.471  67.365  1.00  0.00     0.000 HD 
BRANCH   7  10
HETATM   10  C   UNL     1     -10.304  13.543  66.014  1.00  0.00    -0.303 C  
HETATM   11  H   UNL     1      -8.369  13.167  66.292  1.00  0.00     0.000 HD 
HETATM   12  O   UNL     1      -9.198  12.724  66.430  1.00  0.00    -0.221 OA 
BRANCH  10  13
HETATM   13  C   UNL     1     -10.157  14.935  66.661  1.00  0.00    -0.258 C  
HETATM   14  H   UNL     1     -11.138  16.076  67.978  1.00  0.00     0.000 HD 
HETATM   15  O   UNL     1     -11.229  15.218  67.579  1.00  0.00    -0.320 OA 
BRANCH  13  16
HETATM   16  C   UNL     1     -10.066  16.086  65.653  1.00  0.00    -0.354 C  
HETATM   17  O   UNL     1     -10.886  15.759  64.522  1.00  0.00    -0.760 OA 
HETATM   18  H   UNL     1     -10.830  16.472  63.897  1.00  0.00     0.000 HD 
ENDBRANCH  13  16
ENDBRANCH  10  13
ENDBRANCH   7  10
ENDBRANCH   4   7
ENDBRANCH   2   4
TORSDOF 5
ENDMDL
MODEL       15
REMARK 921   NORMALIZED FREE ENERGY PREDICTED BY IDOCK:   -4.35 KCAL/MOL
REMARK 922        TOTAL FREE ENERGY PREDICTED BY IDOCK:   -6.46 KCAL/MOL
REMARK 923 INTER-LIGAND FREE ENERGY PREDICTED BY IDOCK:   -5.90 KCAL/MOL
REMARK 924 INTRA-LIGAND FREE ENERGY PREDICTED BY IDOCK:   -0.56 KCAL/MOL
REMARK 927      BINDING AFFINITY PREDICTED BY RF-SCORE:    0.00 PKD
ROOT
HETATM    1  O   UNL     1     -11.371  15.420  67.342  1.00  0.00    -0.319 OA 
HETATM    2  C   UNL     1     -10.575  16.219  66.456  1.00  0.00    -0.256 C  
HETATM    3  H   UNL     1     -11.265  15.724  68.236  1.00  0.00     0.000 HD 
ENDROOT
BRANCH   2   4
HETATM    4  C   UNL     1     -10.746  15.730  65.015  1.00  0.00    -0.421 C  
HETATM    5  H   UNL     1     -11.452  16.484  63.334  1.00  0.00     0.000 HD 
HETATM    6  O   UNL     1     -11.345  16.788  64.228  1.00  0.00    -1.170 OA 
BRANCH   4   7
HETATM    7  C   UNL     1     -11.669  14.507  64.842  1.00  0.00    -0.402 C  
HETATM    8  O   UNL     1     -12.605  14.789  63.787  1.00  0.00    -0.998 OA 
HETATM    9  H   UNL     1     -13.173  14.036  63.681  1.00  0.00     0.000 HD 
BRANCH   7  10
HETATM   10  C   UNL     1     -11.002  13.138  64.596  1.00  0.00    -0.356 C  
HETATM   11  H   UNL     1     -11.017  11.726  63.194  1.00  0.00     0.000 HD 
HETATM   12  O   UNL     1     -11.427  12.568  63.346  1.00  0.00    -0.472 OA 
BRANCH  10  13
HETATM   13  C   UNL     1     -11.177  12.081  65.705  1.00  0.00    -0.327 C  
HETATM   14  H   UNL     1     -12.245  11.842  67.378  1.00  0.00     0.000 HD 
HETATM   15  O   UNL     1     -12.137  12.493  66.695  1.00  0.00    -0.562 OA 
BRANCH  13  16
HETATM   16  C   UNL     1      -9.875  11.704  66.420  1.00  0.00    -0.207 C  
HETATM   17  O   UNL     1      -8.862  12.646  66.034  1.00  0.00    -0.415 OA 
HETATM   18  H   UNL     1      -8.055  12.412  66.477  1.00  0.00     0.000 HD 
ENDBRANCH  13  16
ENDBRANCH  10  13
ENDBRANCH   7  10
ENDBRANCH   4   7
ENDBRANCH   2   4
TORSDOF 5
ENDMDL
MODEL       16
REMARK 921   NORMALIZED FREE ENERGY PREDICTED BY IDOCK:   -4.31 KCAL/MOL
REMARK 922        TOTAL FREE ENERGY PREDICTED BY IDOCK:   -6.42 KCAL/MOL
REMARK 923 INTER-LIGAND FREE ENERGY PREDICTED BY IDOCK:   -5.86 KCAL/MOL
REMARK 924 INTRA-LIGAND FREE ENERGY PREDICTED BY IDOCK:   -0.56 KCAL/MOL
REMARK 927      BINDING AFFINITY PREDICTED BY RF-SCORE:    0.00 PKD
ROOT
HETATM    1  O   UNL     1     -11.991  11.764  67.308  1.00  0.00    -0.618 OA 
HETATM    2  C   UNL     1     -11.744  12.227  65.973  1.00  0.00    -0.388 C  
HETATM    3  H   UNL     1     -11.777  10.841  67.375  1.00  0.00     0.000 HD 
ENDROOT
BRANCH   2   4
HETATM    4  C   UNL     1     -12.088  13.716  65.865  1.00  0.00    -0.439 C  
HETATM    5  H   UNL     1     -13.677  14.773  65.368  1.00  0.00     0.000 HD 
HETATM    6  O   UNL     1     -13.464  13.850  65.435  1.00  0.00    -0.672 OA 
BRANCH   4   7
HETATM    7  C   UNL     1     -11.252  14.510  64.842  1.00  0.00    -0.391 C  
HETATM    8  O   UNL     1     -12.150  15.237  63.987  1.00  0.00    -0.901 OA 
HETATM    9  H   UNL     1     -11.635  15.726  63.356  1.00  0.00     0.000 HD 
BRANCH   7  10
HETATM   10  C   UNL     1     -10.168  15.462  65.390  1.00  0.00    -0.377 C  
HETATM   11  H   UNL     1      -8.791  15.452  66.827  1.00  0.00     0.000 HD 
HETATM   12  O   UNL     1      -9.458  14.866  66.489  1.00  0.00    -0.251 OA 
BRANCH  10  13
HETATM   13  C   UNL     1     -10.642  16.867  65.814  1.00  0.00    -0.230 C  
HETATM   14  H   UNL     1     -11.311  18.538  64.944  1.00  0.00     0.000 HD 
HETATM   15  O   UNL     1     -11.020  17.673  64.682  1.00  0.00    -0.803 OA 
BRANCH  13  16
HETATM   16  C   UNL     1      -9.618  17.648  66.644  1.00  0.00    -0.295 C  
HETATM   17  O   UNL     1      -8.324  17.466  66.049  1.00  0.00    -0.498 OA 
HETATM   18  H   UNL     1      -7.689  17.950  66.563  1.00  0.00     0.000 HD 
ENDBRANCH  13  16
ENDBRANCH  10  13
ENDBRANCH   7  10
ENDBRANCH   4   7
ENDBRANCH   2   4
TORSDOF 5
ENDMDL
MODEL       17
REMARK 921   NORMALIZED FREE ENERGY PREDICTED BY IDOCK:   -4.29 KCAL/MOL
REMARK 922        TOTAL FREE ENERGY PREDICTED BY IDOCK:   -6.39 KCAL/MOL
REMARK 923 INTER-LIGAND FREE ENERGY PREDICTED BY IDOCK:   -5.80 KCAL/MOL
REMARK 924 INTRA-LIGAND FREE ENERGY PREDICTED BY IDOCK:   -0.59 KCAL/MOL
REMARK 927      BINDING AFFINITY PREDICTED BY RF-SCORE:    0.00 PKD
ROOT
HETATM    1  O   UNL     1     -11.898  12.610  63.015  1.00  0.00    -0.708 OA 
HETATM    2  C   UNL     1     -10.929  12.983  64.005  1.00  0.00    -0.389 C  
HETATM    3  H   UNL     1     -11.554  11.910  62.473  1.00  0.00     0.000 HD 
ENDROOT
BRANCH   2   4
HETATM    4  C   UNL     1     -11.485  14.112  64.879  1.00  0.00    -0.366 C  
HETATM    5  H   UNL     1     -13.073  15.281  64.848  1.00  0.00     0.000 HD 
HETATM    6  O   UNL     1     -12.728  14.581  64.305  1.00  0.00    -0.659 OA 
BRANCH   4   7
HETATM    7  C   UNL     1     -10.583  15.356  64.996  1.00  0.00    -0.420 C  
HETATM    8  O   UNL     1     -11.097  16.375  64.121  1.00  0.00    -1.226 OA 
HETATM    9  H   UNL     1     -10.541  17.141  64.193  1.00  0.00     0.000 HD 
BRANCH   7  10
HETATM   10  C   UNL     1     -10.357  15.945  66.404  1.00  0.00    -0.306 C  
HETATM   11  H   UNL     1     -11.123  15.730  68.228  1.00  0.00     0.000 HD 
HETATM   12  O   UNL     1     -11.262  15.369  67.361  1.00  0.00    -0.328 OA 
BRANCH  10  13
HETATM   13  C   UNL     1     -10.424  17.481  66.524  1.00  0.00    -0.270 C  
HETATM   14  H   UNL     1      -9.458  19.074  65.800  1.00  0.00     0.000 HD 
HETATM   15  O   UNL     1      -9.416  18.128  65.726  1.00  0.00    -0.483 OA 
BRANCH  13  16
HETATM   16  C   UNL     1     -10.312  18.000  67.962  1.00  0.00    -0.387 C  
HETATM   17  O   UNL     1      -9.419  17.139  68.683  1.00  0.00    -0.261 OA 
HETATM   18  H   UNL     1      -9.350  17.461  69.574  1.00  0.00     0.000 HD 
ENDBRANCH  13  16
ENDBRANCH  10  13
ENDBRANCH   7  10
ENDBRANCH   4   7
ENDBRANCH   2   4
TORSDOF 5
ENDMDL
MODEL       18
REMARK 921   NORMALIZED FREE ENERGY PREDICTED BY IDOCK:   -4.21 KCAL/MOL
REMARK 922        TOTAL FREE ENERGY PREDICTED BY IDOCK:   -6.29 KCAL/MOL
REMARK 923 INTER-LIGAND FREE ENERGY PREDICTED BY IDOCK:   -5.71 KCAL/MOL
REMARK 924 INTRA-LIGAND FREE ENERGY PREDICTED BY IDOCK:   -0.58 KCAL/MOL
REMARK 927      BINDING AFFINITY PREDICTED BY RF-SCORE:    0.00 PKD
ROOT
HETATM    1  O   UNL     1      -9.679  12.753  63.734  1.00  0.00    -0.678 OA 
HETATM    2  C   UNL     1     -10.759  11.892  63.349  1.00  0.00    -0.413 C  
HETATM    3  H   UNL     1      -8.966  12.677  63.111  1.00  0.00     0.000 HD 
ENDROOT
BRANCH   2   4
HETATM    4  C   UNL     1     -11.909  12.016  64.353  1.00  0.00    -0.313 C  
HETATM    5  H   UNL     1     -13.869  12.211  64.249  1.00  0.00     0.000 HD 
HETATM    6  O   UNL     1     -13.156  12.134  63.626  1.00  0.00    -0.787 OA 
BRANCH   4   7
HETATM    7  C   UNL     1     -11.845  13.249  65.276  1.00  0.00    -0.357 C  
HETATM    8  O   UNL     1     -13.081  13.973  65.154  1.00  0.00    -0.776 OA 
HETATM    9  H   UNL     1     -13.041  14.733  65.722  1.00  0.00     0.000 HD 
BRANCH   7  10
HETATM   10  C   UNL     1     -11.525  13.009  66.766  1.00  0.00    -0.345 C  
HETATM   11  H   UNL     1     -11.818  11.583  68.123  1.00  0.00     0.000 HD 
HETATM   12  O   UNL     1     -12.014  11.731  67.205  1.00  0.00    -0.618 OA 
BRANCH  10  13
HETATM   13  C   UNL     1     -12.012  14.089  67.753  1.00  0.00    -0.357 C  
HETATM   14  H   UNL     1     -11.783  16.054  68.042  1.00  0.00     0.000 HD 
HETATM   15  O   UNL     1     -11.483  15.389  67.434  1.00  0.00    -0.303 OA 
BRANCH  13  16
HETATM   16  C   UNL     1     -11.692  13.784  69.221  1.00  0.00    -0.327 C  
HETATM   17  O   UNL     1     -10.446  13.073  69.271  1.00  0.00    -0.432 OA 
HETATM   18  H   UNL     1     -10.248  12.884  70.180  1.00  0.00     0.000 HD 
ENDBRANCH  13  16
ENDBRANCH  10  13
ENDBRANCH   7  10
ENDBRANCH   4   7
ENDBRANCH   2   4
TORSDOF 5
ENDMDL
MODEL       19
REMARK 921   NORMALIZED FREE ENERGY PREDICTED BY IDOCK:   -4.19 KCAL/MOL
REMARK 922        TOTAL FREE ENERGY PREDICTED BY IDOCK:   -6.26 KCAL/MOL
REMARK 923 INTER-LIGAND FREE ENERGY PREDICTED BY IDOCK:   -5.92 KCAL/MOL
REMARK 924 INTRA-LIGAND FREE ENERGY PREDICTED BY IDOCK:   -0.35 KCAL/MOL
REMARK 927      BINDING AFFINITY PREDICTED BY RF-SCORE:    0.00 PKD
ROOT
HETATM    1  O   UNL     1      -9.445  12.340  63.217  1.00  0.00    -0.657 OA 
HETATM    2  C   UNL     1     -10.694  11.649  63.360  1.00  0.00    -0.391 C  
HETATM    3  H   UNL     1      -8.866  11.845  62.649  1.00  0.00     0.000 HD 
ENDROOT
BRANCH   2   4
HETATM    4  C   UNL     1     -11.629  12.447  64.275  1.00  0.00    -0.368 C  
HETATM    5  H   UNL     1     -13.575  12.737  64.411  1.00  0.00     0.000 HD 
HETATM    6  O   UNL     1     -12.996  12.242  63.844  1.00  0.00    -0.753 OA 
BRANCH   4   7
HETATM    7  C   UNL     1     -11.412  13.973  64.265  1.00  0.00    -0.297 C  
HETATM    8  O   UNL     1     -12.650  14.606  63.896  1.00  0.00    -0.931 OA 
HETATM    9  H   UNL     1     -12.516  15.546  63.890  1.00  0.00     0.000 HD 
BRANCH   7  10
HETATM   10  C   UNL     1     -10.856  14.624  65.549  1.00  0.00    -0.345 C  
HETATM   11  H   UNL     1     -11.126  14.464  67.515  1.00  0.00     0.000 HD 
HETATM   12  O   UNL     1     -11.468  14.064  66.724  1.00  0.00    -0.332 OA 
BRANCH  10  13
HETATM   13  C   UNL     1     -10.945  16.161  65.632  1.00  0.00    -0.140 C  
HETATM   14  H   UNL     1     -11.118  17.712  64.382  1.00  0.00     0.000 HD 
HETATM   15  O   UNL     1     -11.063  16.765  64.330  1.00  0.00    -1.072 OA 
BRANCH  13  16
HETATM   16  C   UNL     1      -9.769  16.816  66.364  1.00  0.00    -0.290 C  
HETATM   17  O   UNL     1     -10.297  17.746  67.321  1.00  0.00    -0.340 OA 
HETATM   18  H   UNL     1      -9.568  18.152  67.775  1.00  0.00     0.000 HD 
ENDBRANCH  13  16
ENDBRANCH  10  13
ENDBRANCH   7  10
ENDBRANCH   4   7
ENDBRANCH   2   4
TORSDOF 5
ENDMDL
MODEL       20
REMARK 921   NORMALIZED FREE ENERGY PREDICTED BY IDOCK:   -4.19 KCAL/MOL
REMARK 922        TOTAL FREE ENERGY PREDICTED BY IDOCK:   -6.26 KCAL/MOL
REMARK 923 INTER-LIGAND FREE ENERGY PREDICTED BY IDOCK:   -5.77 KCAL/MOL
REMARK 924 INTRA-LIGAND FREE ENERGY PREDICTED BY IDOCK:   -0.49 KCAL/MOL
REMARK 927      BINDING AFFINITY PREDICTED BY RF-SCORE:    0.00 PKD
ROOT
HETATM    1  O   UNL     1     -13.146  12.151  64.095  1.00  0.00    -0.694 OA 
HETATM    2  C   UNL     1     -12.039  13.001  63.766  1.00  0.00    -0.502 C  
HETATM    3  H   UNL     1     -13.087  11.338  63.606  1.00  0.00     0.000 HD 
ENDROOT
BRANCH   2   4
HETATM    4  C   UNL     1     -12.134  14.311  64.554  1.00  0.00    -0.480 C  
HETATM    5  H   UNL     1     -12.843  16.121  64.218  1.00  0.00     0.000 HD 
HETATM    6  O   UNL     1     -12.783  15.308  63.729  1.00  0.00    -0.687 OA 
BRANCH   4   7
HETATM    7  C   UNL     1     -10.784  14.927  64.970  1.00  0.00    -0.431 C  
HETATM    8  O   UNL     1     -10.769  16.306  64.564  1.00  0.00    -0.830 OA 
HETATM    9  H   UNL     1      -9.937  16.686  64.820  1.00  0.00     0.000 HD 
BRANCH   7  10
HETATM   10  C   UNL     1     -10.374  14.815  66.453  1.00  0.00    -0.293 C  
HETATM   11  H   UNL     1      -9.184  13.674  67.568  1.00  0.00     0.000 HD 
HETATM   12  O   UNL     1      -9.437  13.744  66.655  1.00  0.00    -0.267 OA 
BRANCH  10  13
HETATM   13  C   UNL     1     -11.523  14.664  67.471  1.00  0.00    -0.361 C  
HETATM   14  H   UNL     1     -12.225  15.626  69.076  1.00  0.00     0.000 HD 
HETATM   15  O   UNL     1     -11.517  15.720  68.450  1.00  0.00    -0.362 OA 
BRANCH  13  16
HETATM   16  C   UNL     1     -11.531  13.320  68.208  1.00  0.00    -0.316 C  
HETATM   17  O   UNL     1     -11.936  12.302  67.281  1.00  0.00    -0.546 OA 
HETATM   18  H   UNL     1     -11.941  11.469  67.738  1.00  0.00     0.000 HD 
ENDBRANCH  13  16
ENDBRANCH  10  13
ENDBRANCH   7  10
ENDBRANCH   4   7
ENDBRANCH   2   4
TORSDOF 5
ENDMDL
MODEL       21
REMARK 921   NORMALIZED FREE ENERGY PREDICTED BY IDOCK:   -4.19 KCAL/MOL
REMARK 922        TOTAL FREE ENERGY PREDICTED BY IDOCK:   -6.26 KCAL/MOL
REMARK 923 INTER-LIGAND FREE ENERGY PREDICTED BY IDOCK:   -5.84 KCAL/MOL
REMARK 924 INTRA-LIGAND FREE ENERGY PREDICTED BY IDOCK:   -0.42 KCAL/MOL
REMARK 927      BINDING AFFINITY PREDICTED BY RF-SCORE:    0.00 PKD
ROOT
HETATM    1  O   UNL     1     -11.198  13.434  69.628  1.00  0.00    -0.436 OA 
HETATM    2  C   UNL     1     -11.712  14.306  68.612  1.00  0.00    -0.345 C  
HETATM    3  H   UNL     1     -11.747  13.479  70.402  1.00  0.00     0.000 HD 
ENDROOT
BRANCH   2   4
HETATM    4  C   UNL     1     -10.826  14.232  67.365  1.00  0.00    -0.285 C  
HETATM    5  H   UNL     1     -10.292  15.473  65.927  1.00  0.00     0.000 HD 
HETATM    6  O   UNL     1     -10.841  15.519  66.701  1.00  0.00    -0.311 OA 
BRANCH   4   7
HETATM    7  C   UNL     1     -11.272  13.209  66.302  1.00  0.00    -0.301 C  
HETATM    8  O   UNL     1     -12.153  12.259  66.926  1.00  0.00    -0.583 OA 
HETATM    9  H   UNL     1     -12.428  11.629  66.271  1.00  0.00     0.000 HD 
BRANCH   7  10
HETATM   10  C   UNL     1     -11.922  13.755  65.013  1.00  0.00    -0.383 C  
HETATM   11  H   UNL     1     -13.722  14.359  64.416  1.00  0.00     0.000 HD 
HETATM   12  O   UNL     1     -13.321  14.022  65.209  1.00  0.00    -0.741 OA 
BRANCH  10  13
HETATM   13  C   UNL     1     -11.757  12.894  63.745  1.00  0.00    -0.492 C  
HETATM   14  H   UNL     1     -12.827  11.575  62.691  1.00  0.00     0.000 HD 
HETATM   15  O   UNL     1     -12.930  12.105  63.472  1.00  0.00    -0.794 OA 
BRANCH  13  16
HETATM   16  C   UNL     1     -10.542  11.960  63.778  1.00  0.00    -0.422 C  
HETATM   17  O   UNL     1     -10.659  11.032  62.689  1.00  0.00    -0.743 OA 
HETATM   18  H   UNL     1      -9.906  10.454  62.710  1.00  0.00     0.000 HD 
ENDBRANCH  13  16
ENDBRANCH  10  13
ENDBRANCH   7  10
ENDBRANCH   4   7
ENDBRANCH   2   4
TORSDOF 5
ENDMDL
MODEL       22
REMARK 921   NORMALIZED FREE ENERGY PREDICTED BY IDOCK:   -4.18 KCAL/MOL
REMARK 922        TOTAL FREE ENERGY PREDICTED BY IDOCK:   -6.25 KCAL/MOL
REMARK 923 INTER-LIGAND FREE ENERGY PREDICTED BY IDOCK:   -5.84 KCAL/MOL
REMARK 924 INTRA-LIGAND FREE ENERGY PREDICTED BY IDOCK:   -0.41 KCAL/MOL
REMARK 927      BINDING AFFINITY PREDICTED BY RF-SCORE:    0.00 PKD
ROOT
HETATM    1  O   UNL     1     -10.972  11.129  62.869  1.00  0.00    -0.809 OA 
HETATM    2  C   UNL     1     -10.763  12.390  63.519  1.00  0.00    -0.430 C  
HETATM    3  H   UNL     1     -10.149  10.803  62.524  1.00  0.00     0.000 HD 
ENDROOT
BRANCH   2   4
HETATM    4  C   UNL     1     -12.090  12.916  64.076  1.00  0.00    -0.455 C  
HETATM    5  H   UNL     1     -13.494  14.158  63.462  1.00  0.00     0.000 HD 
HETATM    6  O   UNL     1     -12.672  13.832  63.116  1.00  0.00    -0.743 OA 
BRANCH   4   7
HETATM    7  C   UNL     1     -11.981  13.708  65.394  1.00  0.00    -0.378 C  
HETATM    8  O   UNL     1     -12.171  12.795  66.490  1.00  0.00    -0.494 OA 
HETATM    9  H   UNL     1     -12.104  13.283  67.302  1.00  0.00     0.000 HD 
BRANCH   7  10
HETATM   10  C   UNL     1     -10.701  14.539  65.624  1.00  0.00    -0.327 C  
HETATM   11  H   UNL     1      -9.167  14.557  66.891  1.00  0.00     0.000 HD 
HETATM   12  O   UNL     1      -9.954  14.046  66.749  1.00  0.00    -0.255 OA 
BRANCH  10  13
HETATM   13  C   UNL     1     -10.894  16.060  65.789  1.00  0.00    -0.230 C  
HETATM   14  H   UNL     1     -11.171  17.661  64.624  1.00  0.00     0.000 HD 
HETATM   15  O   UNL     1     -11.052  16.724  64.522  1.00  0.00    -0.989 OA 
BRANCH  13  16
HETATM   16  C   UNL     1      -9.764  16.753  66.560  1.00  0.00    -0.283 C  
HETATM   17  O   UNL     1      -8.537  16.539  65.847  1.00  0.00    -0.441 OA 
HETATM   18  H   UNL     1      -7.837  16.968  66.325  1.00  0.00     0.000 HD 
ENDBRANCH  13  16
ENDBRANCH  10  13
ENDBRANCH   7  10
ENDBRANCH   4   7
ENDBRANCH   2   4
TORSDOF 5
ENDMDL
MODEL       23
REMARK 921   NORMALIZED FREE ENERGY PREDICTED BY IDOCK:   -4.16 KCAL/MOL
REMARK 922        TOTAL FREE ENERGY PREDICTED BY IDOCK:   -6.23 KCAL/MOL
REMARK 923 INTER-LIGAND FREE ENERGY PREDICTED BY IDOCK:   -5.67 KCAL/MOL
REMARK 924 INTRA-LIGAND FREE ENERGY PREDICTED BY IDOCK:   -0.56 KCAL/MOL
REMARK 927      BINDING AFFINITY PREDICTED BY RF-SCORE:    0.00 PKD
ROOT
HETATM    1  O   UNL     1     -11.945  16.461  71.346  1.00  0.00    -0.638 OA 
HETATM    2  C   UNL     1     -11.309  15.423  70.588  1.00  0.00    -0.332 C  
HETATM    3  H   UNL     1     -11.590  16.483  72.227  1.00  0.00     0.000 HD 
ENDROOT
BRANCH   2   4
HETATM    4  C   UNL     1     -11.881  15.388  69.168  1.00  0.00    -0.335 C  
HETATM    5  H   UNL     1     -12.125  14.019  67.769  1.00  0.00     0.000 HD 
HETATM    6  O   UNL     1     -11.769  14.040  68.650  1.00  0.00    -0.310 OA 
BRANCH   4   7
HETATM    7  C   UNL     1     -11.159  16.289  68.146  1.00  0.00    -0.329 C  
HETATM    8  O   UNL     1     -10.456  17.317  68.864  1.00  0.00    -0.336 OA 
HETATM    9  H   UNL     1     -10.011  17.873  68.235  1.00  0.00     0.000 HD 
BRANCH   7  10
HETATM   10  C   UNL     1     -10.205  15.608  67.142  1.00  0.00    -0.270 C  
HETATM   11  H   UNL     1      -8.265  15.188  67.010  1.00  0.00     0.000 HD 
HETATM   12  O   UNL     1      -8.852  15.607  67.628  1.00  0.00    -0.172 OA 
BRANCH  10  13
HETATM   13  C   UNL     1     -10.213  16.166  65.705  1.00  0.00    -0.364 C  
HETATM   14  H   UNL     1     -10.465  17.926  64.792  1.00  0.00     0.000 HD 
HETATM   15  O   UNL     1     -10.461  17.583  65.677  1.00  0.00    -0.588 OA 
BRANCH  13  16
HETATM   16  C   UNL     1     -11.220  15.480  64.774  1.00  0.00    -0.390 C  
HETATM   17  O   UNL     1     -11.646  16.435  63.791  1.00  0.00    -1.605 OA 
HETATM   18  H   UNL     1     -12.270  16.010  63.215  1.00  0.00     0.000 HD 
ENDBRANCH  13  16
ENDBRANCH  10  13
ENDBRANCH   7  10
ENDBRANCH   4   7
ENDBRANCH   2   4
TORSDOF 5
ENDMDL
MODEL       24
REMARK 921   NORMALIZED FREE ENERGY PREDICTED BY IDOCK:   -4.15 KCAL/MOL
REMARK 922        TOTAL FREE ENERGY PREDICTED BY IDOCK:   -6.21 KCAL/MOL
REMARK 923 INTER-LIGAND FREE ENERGY PREDICTED BY IDOCK:   -5.24 KCAL/MOL
REMARK 924 INTRA-LIGAND FREE ENERGY PREDICTED BY IDOCK:   -0.96 KCAL/MOL
REMARK 927      BINDING AFFINITY PREDICTED BY RF-SCORE:    0.00 PKD
ROOT
HETATM    1  O   UNL     1     -11.387  11.278  62.905  1.00  0.00    -0.826 OA 
HETATM    2  C   UNL     1     -12.610  11.873  63.361  1.00  0.00    -0.431 C  
HETATM    3  H   UNL     1     -11.494  10.957  62.017  1.00  0.00     0.000 HD 
ENDROOT
BRANCH   2   4
HETATM    4  C   UNL     1     -12.436  12.390  64.792  1.00  0.00    -0.401 C  
HETATM    5  H   UNL     1     -12.688  14.113  65.718  1.00  0.00     0.000 HD 
HETATM    6  O   UNL     1     -12.795  13.793  64.831  1.00  0.00    -0.690 OA 
BRANCH   4   7
HETATM    7  C   UNL     1     -11.001  12.311  65.349  1.00  0.00    -0.301 C  
HETATM    8  O   UNL     1     -10.240  13.401  64.800  1.00  0.00    -0.480 OA 
HETATM    9  H   UNL     1      -9.355  13.352  65.144  1.00  0.00     0.000 HD 
BRANCH   7  10
HETATM   10  C   UNL     1     -10.831  12.277  66.882  1.00  0.00    -0.251 C  
HETATM   11  H   UNL     1     -11.922  11.783  68.472  1.00  0.00     0.000 HD 
HETATM   12  O   UNL     1     -12.026  11.805  67.529  1.00  0.00    -0.607 OA 
BRANCH  10  13
HETATM   13  C   UNL     1     -10.395  13.595  67.553  1.00  0.00    -0.241 C  
HETATM   14  H   UNL     1      -8.916  14.249  68.728  1.00  0.00     0.000 HD 
HETATM   15  O   UNL     1      -9.184  13.437  68.315  1.00  0.00    -0.204 OA 
BRANCH  13  16
HETATM   16  C   UNL     1     -11.462  14.215  68.463  1.00  0.00    -0.300 C  
HETATM   17  O   UNL     1     -12.599  14.553  67.656  1.00  0.00    -0.513 OA 
HETATM   18  H   UNL     1     -13.260  14.938  68.219  1.00  0.00     0.000 HD 
ENDBRANCH  13  16
ENDBRANCH  10  13
ENDBRANCH   7  10
ENDBRANCH   4   7
ENDBRANCH   2   4
TORSDOF 5
ENDMDL
MODEL       25
REMARK 921   NORMALIZED FREE ENERGY PREDICTED BY IDOCK:   -4.14 KCAL/MOL
REMARK 922        TOTAL FREE ENERGY PREDICTED BY IDOCK:   -6.20 KCAL/MOL
REMARK 923 INTER-LIGAND FREE ENERGY PREDICTED BY IDOCK:   -5.68 KCAL/MOL
REMARK 924 INTRA-LIGAND FREE ENERGY PREDICTED BY IDOCK:   -0.52 KCAL/MOL
REMARK 927      BINDING AFFINITY PREDICTED BY RF-SCORE:    0.00 PKD
ROOT
HETATM    1  O   UNL     1     -11.620  16.124  63.757  1.00  0.00    -1.390 OA 
HETATM    2  C   UNL     1     -12.329  15.084  64.444  1.00  0.00    -0.266 C  
HETATM    3  H   UNL     1     -11.928  16.974  64.051  1.00  0.00     0.000 HD 
ENDROOT
BRANCH   2   4
HETATM    4  C   UNL     1     -11.832  13.714  63.972  1.00  0.00    -0.400 C  
HETATM    5  H   UNL     1     -12.630  11.931  63.700  1.00  0.00     0.000 HD 
HETATM    6  O   UNL     1     -12.938  12.780  63.993  1.00  0.00    -0.690 OA 
BRANCH   4   7
HETATM    7  C   UNL     1     -10.732  13.078  64.845  1.00  0.00    -0.332 C  
HETATM    8  O   UNL     1      -9.729  14.074  65.111  1.00  0.00    -0.578 OA 
HETATM    9  H   UNL     1      -9.052  13.682  65.649  1.00  0.00     0.000 HD 
BRANCH   7  10
HETATM   10  C   UNL     1     -11.166  12.408  66.165  1.00  0.00    -0.322 C  
HETATM   11  H   UNL     1     -12.099  12.933  67.843  1.00  0.00     0.000 HD 
HETATM   12  O   UNL     1     -11.832  13.345  67.030  1.00  0.00    -0.363 OA 
BRANCH  10  13
HETATM   13  C   UNL     1     -10.059  11.696  66.969  1.00  0.00    -0.209 C  
HETATM   14  H   UNL     1      -8.416  10.617  66.606  1.00  0.00     0.000 HD 
HETATM   15  O   UNL     1      -9.098  11.055  66.110  1.00  0.00    -0.180 OA 
BRANCH  13  16
HETATM   16  C   UNL     1     -10.583  10.659  67.969  1.00  0.00    -0.211 C  
HETATM   17  O   UNL     1     -12.016  10.646  67.894  1.00  0.00    -0.737 OA 
HETATM   18  H   UNL     1     -12.340  10.004  68.514  1.00  0.00     0.000 HD 
ENDBRANCH  13  16
ENDBRANCH  10  13
ENDBRANCH   7  10
ENDBRANCH   4   7
ENDBRANCH   2   4
TORSDOF 5
ENDMDL
MODEL       26
REMARK 921   NORMALIZED FREE ENERGY PREDICTED BY IDOCK:   -4.11 KCAL/MOL
REMARK 922        TOTAL FREE ENERGY PREDICTED BY IDOCK:   -6.16 KCAL/MOL
REMARK 923 INTER-LIGAND FREE ENERGY PREDICTED BY IDOCK:   -5.84 KCAL/MOL
REMARK 924 INTRA-LIGAND FREE ENERGY PREDICTED BY IDOCK:   -0.32 KCAL/MOL
REMARK 927      BINDING AFFINITY PREDICTED BY RF-SCORE:    0.00 PKD
ROOT
HETATM    1  O   UNL     1     -11.187  15.877  68.340  1.00  0.00    -0.334 OA 
HETATM    2  C   UNL     1     -11.995  14.710  68.132  1.00  0.00    -0.246 C  
HETATM    3  H   UNL     1     -11.742  16.635  68.477  1.00  0.00     0.000 HD 
ENDROOT
BRANCH   2   4
HETATM    4  C   UNL     1     -11.099  13.488  67.910  1.00  0.00    -0.265 C  
HETATM    5  H   UNL     1      -9.167  13.169  67.666  1.00  0.00     0.000 HD 
HETATM    6  O   UNL     1      -9.723  13.927  67.803  1.00  0.00    -0.215 OA 
BRANCH   4   7
HETATM    7  C   UNL     1     -11.383  12.690  66.622  1.00  0.00    -0.326 C  
HETATM    8  O   UNL     1     -12.022  11.454  66.985  1.00  0.00    -0.492 OA 
HETATM    9  H   UNL     1     -12.197  10.962  66.191  1.00  0.00     0.000 HD 
BRANCH   7  10
HETATM   10  C   UNL     1     -12.195  13.391  65.513  1.00  0.00    -0.455 C  
HETATM   11  H   UNL     1     -13.636  12.919  64.223  1.00  0.00     0.000 HD 
HETATM   12  O   UNL     1     -13.136  12.488  64.906  1.00  0.00    -0.833 OA 
BRANCH  10  13
HETATM   13  C   UNL     1     -11.381  14.077  64.398  1.00  0.00    -0.319 C  
HETATM   14  H   UNL     1      -9.711  13.741  63.352  1.00  0.00     0.000 HD 
HETATM   15  O   UNL     1     -10.212  13.318  64.038  1.00  0.00    -0.366 OA 
BRANCH  13  16
HETATM   16  C   UNL     1     -10.945  15.508  64.735  1.00  0.00    -0.399 C  
HETATM   17  O   UNL     1     -11.447  16.383  63.713  1.00  0.00    -1.590 OA 
HETATM   18  H   UNL     1     -11.176  17.269  63.922  1.00  0.00     0.000 HD 
ENDBRANCH  13  16
ENDBRANCH  10  13
ENDBRANCH   7  10
ENDBRANCH   4   7
ENDBRANCH   2   4
TORSDOF 5
ENDMDL
MODEL       27
REMARK 921   NORMALIZED FREE ENERGY PREDICTED BY IDOCK:   -4.09 KCAL/MOL
REMARK 922        TOTAL FREE ENERGY PREDICTED BY IDOCK:   -6.12 KCAL/MOL
REMARK 923 INTER-LIGAND FREE ENERGY PREDICTED BY IDOCK:   -5.25 KCAL/MOL
REMARK 924 INTRA-LIGAND FREE ENERGY PREDICTED BY IDOCK:   -0.87 KCAL/MOL
REMARK 927      BINDING AFFINITY PREDICTED BY RF-SCORE:    0.00 PKD
ROOT
HETATM    1  O   UNL     1     -12.522  13.732  62.536  1.00  0.00    -0.606 OA 
HETATM    2  C   UNL     1     -12.165  12.672  63.434  1.00  0.00    -0.517 C  
HETATM    3  H   UNL     1     -12.729  13.374  61.680  1.00  0.00     0.000 HD 
ENDROOT
BRANCH   2   4
HETATM    4  C   UNL     1     -11.832  13.248  64.814  1.00  0.00    -0.371 C  
HETATM    5  H   UNL     1     -12.808  14.243  66.209  1.00  0.00     0.000 HD 
HETATM    6  O   UNL     1     -13.015  13.886  65.354  1.00  0.00    -0.722 OA 
BRANCH   4   7
HETATM    7  C   UNL     1     -10.732  14.328  64.827  1.00  0.00    -0.416 C  
HETATM    8  O   UNL     1     -11.299  15.560  64.348  1.00  0.00    -0.680 OA 
HETATM    9  H   UNL     1     -10.621  16.225  64.356  1.00  0.00     0.000 HD 
BRANCH   7  10
HETATM   10  C   UNL     1      -9.991  14.577  66.157  1.00  0.00    -0.311 C  
HETATM   11  H   UNL     1      -9.451  13.526  67.759  1.00  0.00     0.000 HD 
HETATM   12  O   UNL     1      -9.908  13.374  66.940  1.00  0.00    -0.242 OA 
BRANCH  10  13
HETATM   13  C   UNL     1     -10.544  15.707  67.048  1.00  0.00    -0.311 C  
HETATM   14  H   UNL     1      -9.956  17.496  67.719  1.00  0.00     0.000 HD 
HETATM   15  O   UNL     1      -9.615  16.800  67.171  1.00  0.00    -0.229 OA 
BRANCH  13  16
HETATM   16  C   UNL     1     -10.946  15.253  68.455  1.00  0.00    -0.266 C  
HETATM   17  O   UNL     1     -12.204  14.568  68.364  1.00  0.00    -0.579 OA 
HETATM   18  H   UNL     1     -12.454  14.287  69.236  1.00  0.00     0.000 HD 
ENDBRANCH  13  16
ENDBRANCH  10  13
ENDBRANCH   7  10
ENDBRANCH   4   7
ENDBRANCH   2   4
TORSDOF 5
ENDMDL
MODEL       28
REMARK 921   NORMALIZED FREE ENERGY PREDICTED BY IDOCK:   -4.06 KCAL/MOL
REMARK 922        TOTAL FREE ENERGY PREDICTED BY IDOCK:   -6.10 KCAL/MOL
REMARK 923 INTER-LIGAND FREE ENERGY PREDICTED BY IDOCK:   -5.68 KCAL/MOL
REMARK 924 INTRA-LIGAND FREE ENERGY PREDICTED BY IDOCK:   -0.41 KCAL/MOL
REMARK 927      BINDING AFFINITY PREDICTED BY RF-SCORE:    0.00 PKD
ROOT
HETATM    1  O   UNL     1     -12.519  10.811  68.849  1.00  0.00    -0.782 OA 
HETATM    2  C   UNL     1     -11.297  11.412  69.301  1.00  0.00    -0.289 C  
HETATM    3  H   UNL     1     -12.672   9.999  69.316  1.00  0.00     0.000 HD 
ENDROOT
BRANCH   2   4
HETATM    4  C   UNL     1     -11.050  12.722  68.547  1.00  0.00    -0.266 C  
HETATM    5  H   UNL     1     -12.023  14.419  68.293  1.00  0.00     0.000 HD 
HETATM    6  O   UNL     1     -12.177  13.606  68.761  1.00  0.00    -0.339 OA 
BRANCH   4   7
HETATM    7  C   UNL     1     -10.912  12.584  67.018  1.00  0.00    -0.267 C  
HETATM    8  O   UNL     1     -10.954  11.186  66.682  1.00  0.00    -0.274 OA 
HETATM    9  H   UNL     1     -10.869  11.101  65.740  1.00  0.00     0.000 HD 
BRANCH   7  10
HETATM   10  C   UNL     1     -11.911  13.362  66.137  1.00  0.00    -0.413 C  
HETATM   11  H   UNL     1     -13.314  12.950  64.787  1.00  0.00     0.000 HD 
HETATM   12  O   UNL     1     -12.698  12.471  65.329  1.00  0.00    -0.654 OA 
BRANCH  10  13
HETATM   13  C   UNL     1     -11.316  14.457  65.229  1.00  0.00    -0.346 C  
HETATM   14  H   UNL     1     -10.359  16.200  65.429  1.00  0.00     0.000 HD 
HETATM   15  O   UNL     1     -10.726  15.527  65.989  1.00  0.00    -0.316 OA 
BRANCH  13  16
HETATM   16  C   UNL     1     -12.319  15.061  64.240  1.00  0.00    -0.226 C  
HETATM   17  O   UNL     1     -11.756  16.272  63.712  1.00  0.00    -1.511 OA 
HETATM   18  H   UNL     1     -12.378  16.646  63.100  1.00  0.00     0.000 HD 
ENDBRANCH  13  16
ENDBRANCH  10  13
ENDBRANCH   7  10
ENDBRANCH   4   7
ENDBRANCH   2   4
TORSDOF 5
ENDMDL
MODEL       29
REMARK 921   NORMALIZED FREE ENERGY PREDICTED BY IDOCK:   -4.06 KCAL/MOL
REMARK 922        TOTAL FREE ENERGY PREDICTED BY IDOCK:   -6.09 KCAL/MOL
REMARK 923 INTER-LIGAND FREE ENERGY PREDICTED BY IDOCK:   -5.84 KCAL/MOL
REMARK 924 INTRA-LIGAND FREE ENERGY PREDICTED BY IDOCK:   -0.25 KCAL/MOL
REMARK 927      BINDING AFFINITY PREDICTED BY RF-SCORE:    0.00 PKD
ROOT
HETATM    1  O   UNL     1     -10.296  17.604  65.931  1.00  0.00    -0.508 OA 
HETATM    2  C   UNL     1     -10.609  16.216  66.113  1.00  0.00    -0.283 C  
HETATM    3  H   UNL     1     -10.154  18.017  66.775  1.00  0.00     0.000 HD 
ENDROOT
BRANCH   2   4
HETATM    4  C   UNL     1     -10.837  15.551  64.752  1.00  0.00    -0.363 C  
HETATM    5  H   UNL     1     -11.438  16.139  62.968  1.00  0.00     0.000 HD 
HETATM    6  O   UNL     1     -11.296  16.552  63.811  1.00  0.00    -0.966 OA 
BRANCH   4   7
HETATM    7  C   UNL     1     -11.908  14.441  64.735  1.00  0.00    -0.433 C  
HETATM    8  O   UNL     1     -12.559  14.457  63.453  1.00  0.00    -1.054 OA 
HETATM    9  H   UNL     1     -13.218  13.773  63.444  1.00  0.00     0.000 HD 
BRANCH   7  10
HETATM   10  C   UNL     1     -11.453  13.006  65.072  1.00  0.00    -0.313 C  
HETATM   11  H   UNL     1     -12.286  11.211  65.286  1.00  0.00     0.000 HD 
HETATM   12  O   UNL     1     -12.565  12.095  65.079  1.00  0.00    -0.514 OA 
BRANCH  10  13
HETATM   13  C   UNL     1     -10.662  12.828  66.384  1.00  0.00    -0.262 C  
HETATM   14  H   UNL     1      -9.475  11.462  67.233  1.00  0.00     0.000 HD 
HETATM   15  O   UNL     1      -9.962  11.571  66.425  1.00  0.00    -0.200 OA 
BRANCH  13  16
HETATM   16  C   UNL     1     -11.518  12.946  67.650  1.00  0.00    -0.334 C  
HETATM   17  O   UNL     1     -12.119  11.668  67.908  1.00  0.00    -0.613 OA 
HETATM   18  H   UNL     1     -12.649  11.741  68.692  1.00  0.00     0.000 HD 
ENDBRANCH  13  16
ENDBRANCH  10  13
ENDBRANCH   7  10
ENDBRANCH   4   7
ENDBRANCH   2   4
TORSDOF 5
ENDMDL
MODEL       30
REMARK 921   NORMALIZED FREE ENERGY PREDICTED BY IDOCK:   -4.05 KCAL/MOL
REMARK 922        TOTAL FREE ENERGY PREDICTED BY IDOCK:   -6.08 KCAL/MOL
REMARK 923 INTER-LIGAND FREE ENERGY PREDICTED BY IDOCK:   -5.59 KCAL/MOL
REMARK 924 INTRA-LIGAND FREE ENERGY PREDICTED BY IDOCK:   -0.50 KCAL/MOL
REMARK 927      BINDING AFFINITY PREDICTED BY RF-SCORE:    0.00 PKD
ROOT
HETATM    1  O   UNL     1      -9.701  15.854  67.990  1.00  0.00    -0.214 OA 
HETATM    2  C   UNL     1     -10.911  15.760  67.225  1.00  0.00    -0.298 C  
HETATM    3  H   UNL     1      -9.908  15.955  68.911  1.00  0.00     0.000 HD 
ENDROOT
BRANCH   2   4
HETATM    4  C   UNL     1     -10.577  15.597  65.739  1.00  0.00    -0.361 C  
HETATM    5  H   UNL     1      -9.897  16.762  64.301  1.00  0.00     0.000 HD 
HETATM    6  O   UNL     1     -10.104  16.864  65.222  1.00  0.00    -0.577 OA 
BRANCH   4   7
HETATM    7  C   UNL     1     -11.764  15.197  64.840  1.00  0.00    -0.290 C  
HETATM    8  O   UNL     1     -11.852  16.139  63.757  1.00  0.00    -1.408 OA 
HETATM    9  H   UNL     1     -12.583  15.892  63.203  1.00  0.00     0.000 HD 
BRANCH   7  10
HETATM   10  C   UNL     1     -11.785  13.758  64.283  1.00  0.00    -0.395 C  
HETATM   11  H   UNL     1     -13.012  12.191  64.300  1.00  0.00     0.000 HD 
HETATM   12  O   UNL     1     -12.998  13.077  64.643  1.00  0.00    -0.720 OA 
BRANCH  10  13
HETATM   13  C   UNL     1     -10.587  12.862  64.655  1.00  0.00    -0.363 C  
HETATM   14  H   UNL     1      -9.213  11.748  63.723  1.00  0.00     0.000 HD 
HETATM   15  O   UNL     1      -9.951  12.300  63.492  1.00  0.00    -0.388 OA 
BRANCH  13  16
HETATM   16  C   UNL     1     -10.936  11.719  65.616  1.00  0.00    -0.295 C  
HETATM   17  O   UNL     1     -11.278  12.290  66.888  1.00  0.00    -0.276 OA 
HETATM   18  H   UNL     1     -11.495  11.582  67.483  1.00  0.00     0.000 HD 
ENDBRANCH  13  16
ENDBRANCH  10  13
ENDBRANCH   7  10
ENDBRANCH   4   7
ENDBRANCH   2   4
TORSDOF 5
ENDMDL
MODEL       31
REMARK 921   NORMALIZED FREE ENERGY PREDICTED BY IDOCK:   -4.04 KCAL/MOL
REMARK 922        TOTAL FREE ENERGY PREDICTED BY IDOCK:   -6.06 KCAL/MOL
REMARK 923 INTER-LIGAND FREE ENERGY PREDICTED BY IDOCK:   -5.61 KCAL/MOL
REMARK 924 INTRA-LIGAND FREE ENERGY PREDICTED BY IDOCK:   -0.46 KCAL/MOL
REMARK 927      BINDING AFFINITY PREDICTED BY RF-SCORE:    0.00 PKD
ROOT
HETATM    1  O   UNL     1      -8.467  12.005  65.840  1.00  0.00    -0.378 OA 
HETATM    2  C   UNL     1      -9.219  10.829  66.171  1.00  0.00    -0.180 C  
HETATM    3  H   UNL     1      -7.977  12.300  66.599  1.00  0.00     0.000 HD 
ENDROOT
BRANCH   2   4
HETATM    4  C   UNL     1     -10.008  10.353  64.947  1.00  0.00    -0.339 C  
HETATM    5  H   UNL     1      -9.689   9.112  63.447  1.00  0.00     0.000 HD 
HETATM    6  O   UNL     1      -9.199   9.408  64.206  1.00  0.00    -0.186 OA 
BRANCH   4   7
HETATM    7  C   UNL     1     -10.388  11.457  63.941  1.00  0.00    -0.379 C  
HETATM    8  O   UNL     1     -10.630  10.843  62.663  1.00  0.00    -0.761 OA 
HETATM    9  H   UNL     1     -10.864  11.524  62.043  1.00  0.00     0.000 HD 
BRANCH   7  10
HETATM   10  C   UNL     1     -11.567  12.382  64.307  1.00  0.00    -0.368 C  
HETATM   11  H   UNL     1     -13.338  12.878  63.548  1.00  0.00     0.000 HD 
HETATM   12  O   UNL     1     -12.612  12.309  63.323  1.00  0.00    -0.656 OA 
BRANCH  10  13
HETATM   13  C   UNL     1     -11.223  13.865  64.551  1.00  0.00    -0.365 C  
HETATM   14  H   UNL     1     -10.455  14.995  66.011  1.00  0.00     0.000 HD 
HETATM   15  O   UNL     1     -10.667  14.081  65.861  1.00  0.00    -0.284 OA 
BRANCH  13  16
HETATM   16  C   UNL     1     -12.408  14.820  64.365  1.00  0.00    -0.368 C  
HETATM   17  O   UNL     1     -11.936  15.996  63.691  1.00  0.00    -1.344 OA 
HETATM   18  H   UNL     1     -12.670  16.587  63.576  1.00  0.00     0.000 HD 
ENDBRANCH  13  16
ENDBRANCH  10  13
ENDBRANCH   7  10
ENDBRANCH   4   7
ENDBRANCH   2   4
TORSDOF 5
ENDMDL
MODEL       32
REMARK 921   NORMALIZED FREE ENERGY PREDICTED BY IDOCK:   -4.02 KCAL/MOL
REMARK 922        TOTAL FREE ENERGY PREDICTED BY IDOCK:   -6.05 KCAL/MOL
REMARK 923 INTER-LIGAND FREE ENERGY PREDICTED BY IDOCK:   -5.44 KCAL/MOL
REMARK 924 INTRA-LIGAND FREE ENERGY PREDICTED BY IDOCK:   -0.61 KCAL/MOL
REMARK 927      BINDING AFFINITY PREDICTED BY RF-SCORE:    0.00 PKD
ROOT
HETATM    1  O   UNL     1     -12.503  13.739  62.984  1.00  0.00    -1.068 OA 
HETATM    2  C   UNL     1     -12.218  12.380  63.344  1.00  0.00    -0.523 C  
HETATM    3  H   UNL     1     -13.419  13.826  62.748  1.00  0.00     0.000 HD 
ENDROOT
BRANCH   2   4
HETATM    4  C   UNL     1     -10.741  12.240  63.724  1.00  0.00    -0.449 C  
HETATM    5  H   UNL     1      -9.566  10.780  64.341  1.00  0.00     0.000 HD 
HETATM    6  O   UNL     1     -10.482  10.867  64.105  1.00  0.00    -0.364 OA 
BRANCH   4   7
HETATM    7  C   UNL     1     -10.287  13.098  64.922  1.00  0.00    -0.334 C  
HETATM    8  O   UNL     1     -10.048  14.437  64.458  1.00  0.00    -0.605 OA 
HETATM    9  H   UNL     1      -9.768  14.965  65.196  1.00  0.00     0.000 HD 
BRANCH   7  10
HETATM   10  C   UNL     1     -11.204  13.132  66.163  1.00  0.00    -0.295 C  
HETATM   11  H   UNL     1     -11.866  14.483  67.466  1.00  0.00     0.000 HD 
HETATM   12  O   UNL     1     -11.302  14.461  66.702  1.00  0.00    -0.332 OA 
BRANCH  10  13
HETATM   13  C   UNL     1     -10.845  12.162  67.307  1.00  0.00    -0.244 C  
HETATM   14  H   UNL     1     -11.784  11.165  68.763  1.00  0.00     0.000 HD 
HETATM   15  O   UNL     1     -12.005  11.763  68.059  1.00  0.00    -0.553 OA 
BRANCH  13  16
HETATM   16  C   UNL     1      -9.798  12.708  68.284  1.00  0.00    -0.227 C  
HETATM   17  O   UNL     1     -10.484  13.424  69.323  1.00  0.00    -0.441 OA 
HETATM   18  H   UNL     1      -9.835  13.762  69.928  1.00  0.00     0.000 HD 
ENDBRANCH  13  16
ENDBRANCH  10  13
ENDBRANCH   7  10
ENDBRANCH   4   7
ENDBRANCH   2   4
TORSDOF 5
ENDMDL
MODEL       33
REMARK 921   NORMALIZED FREE ENERGY PREDICTED BY IDOCK:   -3.97 KCAL/MOL
REMARK 922        TOTAL FREE ENERGY PREDICTED BY IDOCK:   -5.97 KCAL/MOL
REMARK 923 INTER-LIGAND FREE ENERGY PREDICTED BY IDOCK:   -5.50 KCAL/MOL
REMARK 924 INTRA-LIGAND FREE ENERGY PREDICTED BY IDOCK:   -0.47 KCAL/MOL
REMARK 927      BINDING AFFINITY PREDICTED BY RF-SCORE:    0.00 PKD
ROOT
HETATM    1  O   UNL     1     -12.424  13.538  62.709  1.00  0.00    -0.829 OA 
HETATM    2  C   UNL     1     -12.420  12.330  63.482  1.00  0.00    -0.534 C  
HETATM    3  H   UNL     1     -12.521  13.332  61.786  1.00  0.00     0.000 HD 
ENDROOT
BRANCH   2   4
HETATM    4  C   UNL     1     -12.264  12.664  64.969  1.00  0.00    -0.476 C  
HETATM    5  H   UNL     1     -12.954  14.047  66.194  1.00  0.00     0.000 HD 
HETATM    6  O   UNL     1     -13.051  13.841  65.271  1.00  0.00    -0.756 OA 
BRANCH   4   7
HETATM    7  C   UNL     1     -10.827  12.995  65.420  1.00  0.00    -0.284 C  
HETATM    8  O   UNL     1     -10.186  13.749  64.378  1.00  0.00    -0.644 OA 
HETATM    9  H   UNL     1      -9.301  13.953  64.656  1.00  0.00     0.000 HD 
BRANCH   7  10
HETATM   10  C   UNL     1     -10.653  13.719  66.771  1.00  0.00    -0.273 C  
HETATM   11  H   UNL     1      -9.481  15.131  67.542  1.00  0.00     0.000 HD 
HETATM   12  O   UNL     1      -9.589  14.685  66.711  1.00  0.00    -0.232 OA 
BRANCH  10  13
HETATM   13  C   UNL     1     -10.435  12.822  68.006  1.00  0.00    -0.226 C  
HETATM   14  H   UNL     1      -9.520  11.102  68.455  1.00  0.00     0.000 HD 
HETATM   15  O   UNL     1      -9.654  11.654  67.694  1.00  0.00    -0.175 OA 
BRANCH  13  16
HETATM   16  C   UNL     1     -11.732  12.370  68.686  1.00  0.00    -0.326 C  
HETATM   17  O   UNL     1     -12.091  11.084  68.159  1.00  0.00    -0.743 OA 
HETATM   18  H   UNL     1     -12.895  10.804  68.580  1.00  0.00     0.000 HD 
ENDBRANCH  13  16
ENDBRANCH  10  13
ENDBRANCH   7  10
ENDBRANCH   4   7
ENDBRANCH   2   4
TORSDOF 5
ENDMDL
MODEL       34
REMARK 921   NORMALIZED FREE ENERGY PREDICTED BY IDOCK:   -3.95 KCAL/MOL
REMARK 922        TOTAL FREE ENERGY PREDICTED BY IDOCK:   -5.95 KCAL/MOL
REMARK 923 INTER-LIGAND FREE ENERGY PREDICTED BY IDOCK:   -5.52 KCAL/MOL
REMARK 924 INTRA-LIGAND FREE ENERGY PREDICTED BY IDOCK:   -0.43 KCAL/MOL
REMARK 927      BINDING AFFINITY PREDICTED BY RF-SCORE:    0.00 PKD
ROOT
HETATM    1  O   UNL     1      -9.781  11.504  69.162  1.00  0.00    -0.410 OA 
HETATM    2  C   UNL     1     -11.164  11.648  69.511  1.00  0.00    -0.213 C  
HETATM    3  H   UNL     1      -9.268  11.319  69.940  1.00  0.00     0.000 HD 
ENDROOT
BRANCH   2   4
HETATM    4  C   UNL     1     -11.991  11.945  68.257  1.00  0.00    -0.167 C  
HETATM    5  H   UNL     1     -12.170  11.160  66.456  1.00  0.00     0.000 HD 
HETATM    6  O   UNL     1     -11.657  10.976  67.234  1.00  0.00    -0.496 OA 
BRANCH   4   7
HETATM    7  C   UNL     1     -11.744  13.327  67.619  1.00  0.00    -0.366 C  
HETATM    8  O   UNL     1     -10.827  14.055  68.454  1.00  0.00    -0.235 OA 
HETATM    9  H   UNL     1     -10.675  14.907  68.061  1.00  0.00     0.000 HD 
BRANCH   7  10
HETATM   10  C   UNL     1     -11.256  13.361  66.156  1.00  0.00    -0.295 C  
HETATM   11  H   UNL     1      -9.521  13.465  65.185  1.00  0.00     0.000 HD 
HETATM   12  O   UNL     1      -9.822  13.444  66.086  1.00  0.00    -0.284 OA 
BRANCH  10  13
HETATM   13  C   UNL     1     -11.857  14.462  65.259  1.00  0.00    -0.373 C  
HETATM   14  H   UNL     1     -12.789  14.601  63.496  1.00  0.00     0.000 HD 
HETATM   15  O   UNL     1     -12.419  13.923  64.048  1.00  0.00    -0.679 OA 
BRANCH  13  16
HETATM   16  C   UNL     1     -10.869  15.571  64.883  1.00  0.00    -0.427 C  
HETATM   17  O   UNL     1     -11.485  16.405  63.891  1.00  0.00    -1.569 OA 
HETATM   18  H   UNL     1     -10.872  17.092  63.658  1.00  0.00     0.000 HD 
ENDBRANCH  13  16
ENDBRANCH  10  13
ENDBRANCH   7  10
ENDBRANCH   4   7
ENDBRANCH   2   4
TORSDOF 5
ENDMDL
MODEL       35
REMARK 921   NORMALIZED FREE ENERGY PREDICTED BY IDOCK:   -3.92 KCAL/MOL
REMARK 922        TOTAL FREE ENERGY PREDICTED BY IDOCK:   -5.91 KCAL/MOL
REMARK 923 INTER-LIGAND FREE ENERGY PREDICTED BY IDOCK:   -5.14 KCAL/MOL
REMARK 924 INTRA-LIGAND FREE ENERGY PREDICTED BY IDOCK:   -0.76 KCAL/MOL
REMARK 927      BINDING AFFINITY PREDICTED BY RF-SCORE:    0.00 PKD
ROOT
HETATM    1  O   UNL     1     -12.870  15.028  69.836  1.00  0.00    -0.597 OA 
HETATM    2  C   UNL     1     -11.970  13.919  69.969  1.00  0.00    -0.336 C  
HETATM    3  H   UNL     1     -13.081  15.378  70.694  1.00  0.00     0.000 HD 
ENDROOT
BRANCH   2   4
HETATM    4  C   UNL     1     -11.629  13.356  68.586  1.00  0.00    -0.327 C  
HETATM    5  H   UNL     1      -9.991  12.773  67.655  1.00  0.00     0.000 HD 
HETATM    6  O   UNL     1     -10.202  13.122  68.513  1.00  0.00    -0.239 OA 
BRANCH   4   7
HETATM    7  C   UNL     1     -11.962  14.282  67.399  1.00  0.00    -0.391 C  
HETATM    8  O   UNL     1     -11.032  15.378  67.403  1.00  0.00    -0.305 OA 
HETATM    9  H   UNL     1     -11.237  15.949  66.672  1.00  0.00     0.000 HD 
BRANCH   7  10
HETATM   10  C   UNL     1     -12.017  13.649  65.993  1.00  0.00    -0.413 C  
HETATM   11  H   UNL     1     -12.405  11.867  65.196  1.00  0.00     0.000 HD 
HETATM   12  O   UNL     1     -12.371  12.257  66.061  1.00  0.00    -0.609 OA 
BRANCH  10  13
HETATM   13  C   UNL     1     -10.749  13.794  65.127  1.00  0.00    -0.358 C  
HETATM   14  H   UNL     1      -9.820  15.217  64.075  1.00  0.00     0.000 HD 
HETATM   15  O   UNL     1     -10.600  15.128  64.608  1.00  0.00    -0.339 OA 
BRANCH  13  16
HETATM   16  C   UNL     1     -10.677  12.808  63.956  1.00  0.00    -0.426 C  
HETATM   17  O   UNL     1     -11.793  13.059  63.088  1.00  0.00    -0.806 OA 
HETATM   18  H   UNL     1     -11.748  12.448  62.362  1.00  0.00     0.000 HD 
ENDBRANCH  13  16
ENDBRANCH  10  13
ENDBRANCH   7  10
ENDBRANCH   4   7
ENDBRANCH   2   4
TORSDOF 5
ENDMDL
MODEL       36
REMARK 921   NORMALIZED FREE ENERGY PREDICTED BY IDOCK:   -3.91 KCAL/MOL
REMARK 922        TOTAL FREE ENERGY PREDICTED BY IDOCK:   -5.89 KCAL/MOL
REMARK 923 INTER-LIGAND FREE ENERGY PREDICTED BY IDOCK:   -5.51 KCAL/MOL
REMARK 924 INTRA-LIGAND FREE ENERGY PREDICTED BY IDOCK:   -0.39 KCAL/MOL
REMARK 927      BINDING AFFINITY PREDICTED BY RF-SCORE:    0.00 PKD
ROOT
HETATM    1  O   UNL     1     -12.085  12.064  67.217  1.00  0.00    -0.572 OA 
HETATM    2  C   UNL     1     -11.135  13.053  66.795  1.00  0.00    -0.286 C  
HETATM    3  H   UNL     1     -11.631  11.327  67.610  1.00  0.00     0.000 HD 
ENDROOT
BRANCH   2   4
HETATM    4  C   UNL     1     -11.866  14.241  66.162  1.00  0.00    -0.402 C  
HETATM    5  H   UNL     1     -13.428  14.482  64.983  1.00  0.00     0.000 HD 
HETATM    6  O   UNL     1     -12.975  13.745  65.375  1.00  0.00    -0.706 OA 
BRANCH   4   7
HETATM    7  C   UNL     1     -11.019  15.096  65.198  1.00  0.00    -0.417 C  
HETATM    8  O   UNL     1     -11.692  15.151  63.929  1.00  0.00    -0.795 OA 
HETATM    9  H   UNL     1     -11.170  15.677  63.335  1.00  0.00     0.000 HD 
BRANCH   7  10
HETATM   10  C   UNL     1     -10.642  16.522  65.652  1.00  0.00    -0.304 C  
HETATM   11  H   UNL     1     -10.850  18.382  64.977  1.00  0.00     0.000 HD 
HETATM   12  O   UNL     1     -11.081  17.504  64.699  1.00  0.00    -0.978 OA 
BRANCH  10  13
HETATM   13  C   UNL     1      -9.153  16.770  65.965  1.00  0.00    -0.190 C  
HETATM   14  H   UNL     1      -7.598  15.753  66.702  1.00  0.00     0.000 HD 
HETATM   15  O   UNL     1      -8.515  15.600  66.509  1.00  0.00    -0.266 OA 
BRANCH  13  16
HETATM   16  C   UNL     1      -8.903  17.945  66.917  1.00  0.00    -0.253 C  
HETATM   17  O   UNL     1      -9.172  19.163  66.207  1.00  0.00    -0.337 OA 
HETATM   18  H   UNL     1      -9.017  19.891  66.797  1.00  0.00     0.000 HD 
ENDBRANCH  13  16
ENDBRANCH  10  13
ENDBRANCH   7  10
ENDBRANCH   4   7
ENDBRANCH   2   4
TORSDOF 5
ENDMDL
MODEL       37
REMARK 921   NORMALIZED FREE ENERGY PREDICTED BY IDOCK:   -3.90 KCAL/MOL
REMARK 922        TOTAL FREE ENERGY PREDICTED BY IDOCK:   -5.89 KCAL/MOL
REMARK 923 INTER-LIGAND FREE ENERGY PREDICTED BY IDOCK:   -5.46 KCAL/MOL
REMARK 924 INTRA-LIGAND FREE ENERGY PREDICTED BY IDOCK:   -0.42 KCAL/MOL
REMARK 927      BINDING AFFINITY PREDICTED BY RF-SCORE:    0.00 PKD
ROOT
HETATM    1  O   UNL     1      -9.734  14.323  69.296  1.00  0.00    -0.415 OA 
HETATM    2  C   UNL     1     -11.097  14.768  69.248  1.00  0.00    -0.266 C  
HETATM    3  H   UNL     1      -9.158  15.062  69.456  1.00  0.00     0.000 HD 
ENDROOT
BRANCH   2   4
HETATM    4  C   UNL     1     -12.025  13.577  68.992  1.00  0.00    -0.335 C  
HETATM    5  H   UNL     1     -12.968  12.247  70.103  1.00  0.00     0.000 HD 
HETATM    6  O   UNL     1     -12.392  12.986  70.262  1.00  0.00    -0.310 OA 
BRANCH   4   7
HETATM    7  C   UNL     1     -11.412  12.433  68.160  1.00  0.00    -0.318 C  
HETATM    8  O   UNL     1     -12.209  11.252  68.353  1.00  0.00    -0.604 OA 
HETATM    9  H   UNL     1     -11.831  10.547  67.841  1.00  0.00     0.000 HD 
BRANCH   7  10
HETATM   10  C   UNL     1     -11.202  12.680  66.651  1.00  0.00    -0.300 C  
HETATM   11  H   UNL     1      -9.790  13.428  65.466  1.00  0.00     0.000 HD 
HETATM   12  O   UNL     1      -9.920  13.276  66.394  1.00  0.00    -0.274 OA 
BRANCH  10  13
HETATM   13  C   UNL     1     -12.286  13.512  65.937  1.00  0.00    -0.460 C  
HETATM   14  H   UNL     1     -13.742  13.224  64.598  1.00  0.00     0.000 HD 
HETATM   15  O   UNL     1     -13.075  12.711  65.038  1.00  0.00    -0.808 OA 
BRANCH  13  16
HETATM   16  C   UNL     1     -11.738  14.714  65.160  1.00  0.00    -0.364 C  
HETATM   17  O   UNL     1     -12.490  14.844  63.944  1.00  0.00    -1.009 OA 
HETATM   18  H   UNL     1     -12.151  15.589  63.463  1.00  0.00     0.000 HD 
ENDBRANCH  13  16
ENDBRANCH  10  13
ENDBRANCH   7  10
ENDBRANCH   4   7
ENDBRANCH   2   4
TORSDOF 5
ENDMDL
MODEL       38
REMARK 921   NORMALIZED FREE ENERGY PREDICTED BY IDOCK:   -3.90 KCAL/MOL
REMARK 922        TOTAL FREE ENERGY PREDICTED BY IDOCK:   -5.88 KCAL/MOL
REMARK 923 INTER-LIGAND FREE ENERGY PREDICTED BY IDOCK:   -5.36 KCAL/MOL
REMARK 924 INTRA-LIGAND FREE ENERGY PREDICTED BY IDOCK:   -0.53 KCAL/MOL
REMARK 927      BINDING AFFINITY PREDICTED BY RF-SCORE:    0.00 PKD
ROOT
HETATM    1  O   UNL     1      -9.730  16.378  67.608  1.00  0.00    -0.234 OA 
HETATM    2  C   UNL     1     -10.768  15.985  68.517  1.00  0.00    -0.287 C  
HETATM    3  H   UNL     1      -9.165  17.022  68.021  1.00  0.00     0.000 HD 
ENDROOT
BRANCH   2   4
HETATM    4  C   UNL     1     -11.678  14.948  67.851  1.00  0.00    -0.321 C  
HETATM    5  H   UNL     1     -12.554  13.268  68.400  1.00  0.00     0.000 HD 
HETATM    6  O   UNL     1     -11.990  13.911  68.813  1.00  0.00    -0.341 OA 
BRANCH   4   7
HETATM    7  C   UNL     1     -11.066  14.221  66.637  1.00  0.00    -0.321 C  
HETATM    8  O   UNL     1     -10.093  13.277  67.116  1.00  0.00    -0.235 OA 
HETATM    9  H   UNL     1      -9.716  12.829  66.368  1.00  0.00     0.000 HD 
BRANCH   7  10
HETATM   10  C   UNL     1     -12.035  13.521  65.661  1.00  0.00    -0.397 C  
HETATM   11  H   UNL     1     -12.875  11.729  65.454  1.00  0.00     0.000 HD 
HETATM   12  O   UNL     1     -12.278  12.160  66.054  1.00  0.00    -0.609 OA 
BRANCH  10  13
HETATM   13  C   UNL     1     -11.639  13.541  64.171  1.00  0.00    -0.376 C  
HETATM   14  H   UNL     1     -12.466  14.029  62.418  1.00  0.00     0.000 HD 
HETATM   15  O   UNL     1     -12.710  14.017  63.335  1.00  0.00    -0.796 OA 
BRANCH  13  16
HETATM   16  C   UNL     1     -11.170  12.185  63.632  1.00  0.00    -0.464 C  
HETATM   17  O   UNL     1     -12.301  11.515  63.054  1.00  0.00    -0.975 OA 
HETATM   18  H   UNL     1     -12.010  10.675  62.720  1.00  0.00     0.000 HD 
ENDBRANCH  13  16
ENDBRANCH  10  13
ENDBRANCH   7  10
ENDBRANCH   4   7
ENDBRANCH   2   4
TORSDOF 5
ENDMDL
MODEL       39
REMARK 921   NORMALIZED FREE ENERGY PREDICTED BY IDOCK:   -3.89 KCAL/MOL
REMARK 922        TOTAL FREE ENERGY PREDICTED BY IDOCK:   -5.87 KCAL/MOL
REMARK 923 INTER-LIGAND FREE ENERGY PREDICTED BY IDOCK:   -5.67 KCAL/MOL
REMARK 924 INTRA-LIGAND FREE ENERGY PREDICTED BY IDOCK:   -0.20 KCAL/MOL
REMARK 927      BINDING AFFINITY PREDICTED BY RF-SCORE:    0.00 PKD
ROOT
HETATM    1  O   UNL     1     -12.597  10.635  68.997  1.00  0.00    -0.746 OA 
HETATM    2  C   UNL     1     -11.363  11.297  68.688  1.00  0.00    -0.273 C  
HETATM    3  H   UNL     1     -12.566   9.735  68.695  1.00  0.00     0.000 HD 
ENDROOT
BRANCH   2   4
HETATM    4  C   UNL     1     -11.413  12.748  69.175  1.00  0.00    -0.306 C  
HETATM    5  H   UNL     1     -12.265  13.715  70.668  1.00  0.00     0.000 HD 
HETATM    6  O   UNL     1     -12.234  12.815  70.366  1.00  0.00    -0.350 OA 
BRANCH   4   7
HETATM    7  C   UNL     1     -12.033  13.753  68.184  1.00  0.00    -0.358 C  
HETATM    8  O   UNL     1     -12.164  15.023  68.845  1.00  0.00    -0.553 OA 
HETATM    9  H   UNL     1     -12.546  15.641  68.234  1.00  0.00     0.000 HD 
BRANCH   7  10
HETATM   10  C   UNL     1     -11.328  13.942  66.824  1.00  0.00    -0.333 C  
HETATM   11  H   UNL     1     -10.355  15.386  65.861  1.00  0.00     0.000 HD 
HETATM   12  O   UNL     1     -10.789  15.269  66.697  1.00  0.00    -0.308 OA 
BRANCH  10  13
HETATM   13  C   UNL     1     -12.166  13.628  65.568  1.00  0.00    -0.443 C  
HETATM   14  H   UNL     1     -13.130  12.068  64.773  1.00  0.00     0.000 HD 
HETATM   15  O   UNL     1     -12.614  12.261  65.547  1.00  0.00    -0.548 OA 
BRANCH  13  16
HETATM   16  C   UNL     1     -11.446  13.923  64.248  1.00  0.00    -0.318 C  
HETATM   17  O   UNL     1     -12.433  14.280  63.268  1.00  0.00    -1.133 OA 
HETATM   18  H   UNL     1     -11.987  14.463  62.450  1.00  0.00     0.000 HD 
ENDBRANCH  13  16
ENDBRANCH  10  13
ENDBRANCH   7  10
ENDBRANCH   4   7
ENDBRANCH   2   4
TORSDOF 5
ENDMDL
MODEL       40
REMARK 921   NORMALIZED FREE ENERGY PREDICTED BY IDOCK:   -3.88 KCAL/MOL
REMARK 922        TOTAL FREE ENERGY PREDICTED BY IDOCK:   -5.86 KCAL/MOL
REMARK 923 INTER-LIGAND FREE ENERGY PREDICTED BY IDOCK:   -5.21 KCAL/MOL
REMARK 924 INTRA-LIGAND FREE ENERGY PREDICTED BY IDOCK:   -0.65 KCAL/MOL
REMARK 927      BINDING AFFINITY PREDICTED BY RF-SCORE:    0.00 PKD
ROOT
HETATM    1  O   UNL     1     -12.425  15.324  63.672  1.00  0.00    -0.932 OA 
HETATM    2  C   UNL     1     -11.381  15.133  64.636  1.00  0.00    -0.356 C  
HETATM    3  H   UNL     1     -12.062  15.673  62.867  1.00  0.00     0.000 HD 
ENDROOT
BRANCH   2   4
HETATM    4  C   UNL     1     -11.967  14.570  65.935  1.00  0.00    -0.309 C  
HETATM    5  H   UNL     1     -11.381  14.432  67.814  1.00  0.00     0.000 HD 
HETATM    6  O   UNL     1     -11.017  14.781  67.008  1.00  0.00    -0.308 OA 
BRANCH   4   7
HETATM    7  C   UNL     1     -12.255  13.056  65.924  1.00  0.00    -0.432 C  
HETATM    8  O   UNL     1     -13.247  12.789  64.919  1.00  0.00    -0.808 OA 
HETATM    9  H   UNL     1     -13.425  11.856  64.912  1.00  0.00     0.000 HD 
BRANCH   7  10
HETATM   10  C   UNL     1     -11.056  12.102  65.739  1.00  0.00    -0.319 C  
HETATM   11  H   UNL     1     -10.405  10.804  64.379  1.00  0.00     0.000 HD 
HETATM   12  O   UNL     1     -11.143  11.391  64.493  1.00  0.00    -0.309 OA 
BRANCH  10  13
HETATM   13  C   UNL     1     -10.808  11.086  66.872  1.00  0.00    -0.269 C  
HETATM   14  H   UNL     1     -11.772  10.378  68.474  1.00  0.00     0.000 HD 
HETATM   15  O   UNL     1     -11.925  11.004  67.777  1.00  0.00    -0.609 OA 
BRANCH  13  16
HETATM   16  C   UNL     1      -9.541  11.359  67.690  1.00  0.00    -0.169 C  
HETATM   17  O   UNL     1      -9.870  12.293  68.730  1.00  0.00    -0.387 OA 
HETATM   18  H   UNL     1      -9.085  12.462  69.236  1.00  0.00     0.000 HD 
ENDBRANCH  13  16
ENDBRANCH  10  13
ENDBRANCH   7  10
ENDBRANCH   4   7
ENDBRANCH   2   4
TORSDOF 5
ENDMDL
MODEL       41
REMARK 921   NORMALIZED FREE ENERGY PREDICTED BY IDOCK:   -3.86 KCAL/MOL
REMARK 922        TOTAL FREE ENERGY PREDICTED BY IDOCK:   -5.83 KCAL/MOL
REMARK 923 INTER-LIGAND FREE ENERGY PREDICTED BY IDOCK:   -5.48 KCAL/MOL
REMARK 924 INTRA-LIGAND FREE ENERGY PREDICTED BY IDOCK:   -0.35 KCAL/MOL
REMARK 927      BINDING AFFINITY PREDICTED BY RF-SCORE:    0.00 PKD
ROOT
HETATM    1  O   UNL     1     -11.121   9.322  67.852  1.00  0.00    -0.506 OA 
HETATM    2  C   UNL     1     -10.656  10.441  67.085  1.00  0.00    -0.261 C  
HETATM    3  H   UNL     1     -10.755   8.517  67.504  1.00  0.00     0.000 HD 
ENDROOT
BRANCH   2   4
HETATM    4  C   UNL     1     -11.246  11.739  67.647  1.00  0.00    -0.281 C  
HETATM    5  H   UNL     1     -12.680  12.214  68.915  1.00  0.00     0.000 HD 
HETATM    6  O   UNL     1     -12.314  11.409  68.567  1.00  0.00    -0.504 OA 
BRANCH   4   7
HETATM    7  C   UNL     1     -11.874  12.682  66.600  1.00  0.00    -0.380 C  
HETATM    8  O   UNL     1     -12.329  13.868  67.273  1.00  0.00    -0.484 OA 
HETATM    9  H   UNL     1     -12.715  14.449  66.628  1.00  0.00     0.000 HD 
BRANCH   7  10
HETATM   10  C   UNL     1     -11.011  13.071  65.382  1.00  0.00    -0.275 C  
HETATM   11  H   UNL     1      -9.641  14.440  64.927  1.00  0.00     0.000 HD 
HETATM   12  O   UNL     1     -10.172  14.201  65.676  1.00  0.00    -0.310 OA 
BRANCH  10  13
HETATM   13  C   UNL     1     -11.768  13.348  64.067  1.00  0.00    -0.416 C  
HETATM   14  H   UNL     1     -13.229  14.547  63.415  1.00  0.00     0.000 HD 
HETATM   15  O   UNL     1     -12.763  14.376  64.225  1.00  0.00    -0.657 OA 
BRANCH  13  16
HETATM   16  C   UNL     1     -12.441  12.112  63.462  1.00  0.00    -0.555 C  
HETATM   17  O   UNL     1     -11.414  11.227  62.988  1.00  0.00    -0.852 OA 
HETATM   18  H   UNL     1     -11.832  10.461  62.613  1.00  0.00     0.000 HD 
ENDBRANCH  13  16
ENDBRANCH  10  13
ENDBRANCH   7  10
ENDBRANCH   4   7
ENDBRANCH   2   4
TORSDOF 5
ENDMDL
MODEL       42
REMARK 921   NORMALIZED FREE ENERGY PREDICTED BY IDOCK:   -3.84 KCAL/MOL
REMARK 922        TOTAL FREE ENERGY PREDICTED BY IDOCK:   -5.81 KCAL/MOL
REMARK 923 INTER-LIGAND FREE ENERGY PREDICTED BY IDOCK:   -5.28 KCAL/MOL
REMARK 924 INTRA-LIGAND FREE ENERGY PREDICTED BY IDOCK:   -0.53 KCAL/MOL
REMARK 927      BINDING AFFINITY PREDICTED BY RF-SCORE:    0.00 PKD
ROOT
HETATM    1  O   UNL     1     -11.582  12.354  70.001  1.00  0.00    -0.485 OA 
HETATM    2  C   UNL     1     -12.039  13.713  70.012  1.00  0.00    -0.348 C  
HETATM    3  H   UNL     1     -12.161  11.813  70.525  1.00  0.00     0.000 HD 
ENDROOT
BRANCH   2   4
HETATM    4  C   UNL     1     -11.105  14.585  69.166  1.00  0.00    -0.263 C  
HETATM    5  H   UNL     1     -11.125  16.433  68.477  1.00  0.00     0.000 HD 
HETATM    6  O   UNL     1     -11.704  15.893  69.002  1.00  0.00    -0.385 OA 
BRANCH   4   7
HETATM    7  C   UNL     1     -10.838  14.066  67.739  1.00  0.00    -0.247 C  
HETATM    8  O   UNL     1      -9.838  13.035  67.810  1.00  0.00    -0.212 OA 
HETATM    9  H   UNL     1      -9.673  12.716  66.930  1.00  0.00     0.000 HD 
BRANCH   7  10
HETATM   10  C   UNL     1     -12.048  13.564  66.923  1.00  0.00    -0.368 C  
HETATM   11  H   UNL     1     -12.787  11.822  66.309  1.00  0.00     0.000 HD 
HETATM   12  O   UNL     1     -12.042  12.131  66.811  1.00  0.00    -0.609 OA 
BRANCH  10  13
HETATM   13  C   UNL     1     -12.222  14.169  65.515  1.00  0.00    -0.432 C  
HETATM   14  H   UNL     1     -13.079  13.673  63.779  1.00  0.00     0.000 HD 
HETATM   15  O   UNL     1     -12.972  13.301  64.645  1.00  0.00    -0.692 OA 
BRANCH  13  16
HETATM   16  C   UNL     1     -10.903  14.528  64.822  1.00  0.00    -0.393 C  
HETATM   17  O   UNL     1     -10.984  15.892  64.382  1.00  0.00    -0.849 OA 
HETATM   18  H   UNL     1     -10.167  16.115  63.953  1.00  0.00     0.000 HD 
ENDBRANCH  13  16
ENDBRANCH  10  13
ENDBRANCH   7  10
ENDBRANCH   4   7
ENDBRANCH   2   4
TORSDOF 5
ENDMDL
MODEL       43
REMARK 921   NORMALIZED FREE ENERGY PREDICTED BY IDOCK:   -3.83 KCAL/MOL
REMARK 922        TOTAL FREE ENERGY PREDICTED BY IDOCK:   -5.80 KCAL/MOL
REMARK 923 INTER-LIGAND FREE ENERGY PREDICTED BY IDOCK:   -5.29 KCAL/MOL
REMARK 924 INTRA-LIGAND FREE ENERGY PREDICTED BY IDOCK:   -0.51 KCAL/MOL
REMARK 927      BINDING AFFINITY PREDICTED BY RF-SCORE:    0.00 PKD
ROOT
HETATM    1  O   UNL     1      -9.646  13.625  68.882  1.00  0.00    -0.405 OA 
HETATM    2  C   UNL     1     -10.114  12.425  68.252  1.00  0.00    -0.227 C  
HETATM    3  H   UNL     1      -8.727  13.535  69.106  1.00  0.00     0.000 HD 
ENDROOT
BRANCH   2   4
HETATM    4  C   UNL     1     -11.596  12.570  67.890  1.00  0.00    -0.347 C  
HETATM    5  H   UNL     1     -12.937  11.483  66.935  1.00  0.00     0.000 HD 
HETATM    6  O   UNL     1     -12.018  11.393  67.160  1.00  0.00    -0.532 OA 
BRANCH   4   7
HETATM    7  C   UNL     1     -11.935  13.769  66.982  1.00  0.00    -0.413 C  
HETATM    8  O   UNL     1     -12.115  14.930  67.810  1.00  0.00    -0.537 OA 
HETATM    9  H   UNL     1     -12.324  15.669  67.251  1.00  0.00     0.000 HD 
BRANCH   7  10
HETATM   10  C   UNL     1     -10.957  14.094  65.833  1.00  0.00    -0.297 C  
HETATM   11  H   UNL     1      -9.729  15.573  65.321  1.00  0.00     0.000 HD 
HETATM   12  O   UNL     1     -10.331  15.373  66.027  1.00  0.00    -0.287 OA 
BRANCH  10  13
HETATM   13  C   UNL     1     -11.537  14.040  64.405  1.00  0.00    -0.369 C  
HETATM   14  H   UNL     1     -13.195  14.615  63.448  1.00  0.00     0.000 HD 
HETATM   15  O   UNL     1     -12.839  14.648  64.328  1.00  0.00    -0.621 OA 
BRANCH  13  16
HETATM   16  C   UNL     1     -11.628  12.625  63.821  1.00  0.00    -0.476 C  
HETATM   17  O   UNL     1     -13.015  12.276  63.703  1.00  0.00    -0.777 OA 
HETATM   18  H   UNL     1     -13.071  11.400  63.342  1.00  0.00     0.000 HD 
ENDBRANCH  13  16
ENDBRANCH  10  13
ENDBRANCH   7  10
ENDBRANCH   4   7
ENDBRANCH   2   4
TORSDOF 5
ENDMDL
MODEL       44
REMARK 921   NORMALIZED FREE ENERGY PREDICTED BY IDOCK:   -3.80 KCAL/MOL
REMARK 922        TOTAL FREE ENERGY PREDICTED BY IDOCK:   -5.75 KCAL/MOL
REMARK 923 INTER-LIGAND FREE ENERGY PREDICTED BY IDOCK:   -5.47 KCAL/MOL
REMARK 924 INTRA-LIGAND FREE ENERGY PREDICTED BY IDOCK:   -0.28 KCAL/MOL
REMARK 927      BINDING AFFINITY PREDICTED BY RF-SCORE:    0.00 PKD
ROOT
HETATM    1  O   UNL     1     -12.650  13.922  62.916  1.00  0.00    -0.966 OA 
HETATM    2  C   UNL     1     -11.855  12.895  63.523  1.00  0.00    -0.536 C  
HETATM    3  H   UNL     1     -13.224  13.542  62.261  1.00  0.00     0.000 HD 
ENDROOT
BRANCH   2   4
HETATM    4  C   UNL     1     -10.929  13.507  64.580  1.00  0.00    -0.394 C  
HETATM    5  H   UNL     1      -9.514  12.844  65.783  1.00  0.00     0.000 HD 
HETATM    6  O   UNL     1     -10.088  12.464  65.128  1.00  0.00    -0.277 OA 
BRANCH   4   7
HETATM    7  C   UNL     1     -11.644  14.145  65.788  1.00  0.00    -0.343 C  
HETATM    8  O   UNL     1     -13.063  14.063  65.572  1.00  0.00    -0.713 OA 
HETATM    9  H   UNL     1     -13.503  14.456  66.316  1.00  0.00     0.000 HD 
BRANCH   7  10
HETATM   10  C   UNL     1     -11.298  13.602  67.190  1.00  0.00    -0.319 C  
HETATM   11  H   UNL     1     -11.901  12.134  68.390  1.00  0.00     0.000 HD 
HETATM   12  O   UNL     1     -12.114  12.468  67.527  1.00  0.00    -0.453 OA 
BRANCH  10  13
HETATM   13  C   UNL     1     -11.359  14.616  68.351  1.00  0.00    -0.292 C  
HETATM   14  H   UNL     1     -10.087  15.696  69.452  1.00  0.00     0.000 HD 
HETATM   15  O   UNL     1     -10.049  15.072  68.738  1.00  0.00    -0.216 OA 
BRANCH  13  16
HETATM   16  C   UNL     1     -12.078  14.093  69.599  1.00  0.00    -0.349 C  
HETATM   17  O   UNL     1     -13.081  15.049  69.973  1.00  0.00    -0.615 OA 
HETATM   18  H   UNL     1     -13.526  14.725  70.747  1.00  0.00     0.000 HD 
ENDBRANCH  13  16
ENDBRANCH  10  13
ENDBRANCH   7  10
ENDBRANCH   4   7
ENDBRANCH   2   4
TORSDOF 5
ENDMDL
MODEL       45
REMARK 921   NORMALIZED FREE ENERGY PREDICTED BY IDOCK:   -3.79 KCAL/MOL
REMARK 922        TOTAL FREE ENERGY PREDICTED BY IDOCK:   -5.75 KCAL/MOL
REMARK 923 INTER-LIGAND FREE ENERGY PREDICTED BY IDOCK:   -5.34 KCAL/MOL
REMARK 924 INTRA-LIGAND FREE ENERGY PREDICTED BY IDOCK:   -0.41 KCAL/MOL
REMARK 927      BINDING AFFINITY PREDICTED BY RF-SCORE:    0.00 PKD
ROOT
HETATM    1  O   UNL     1      -9.292  11.371  69.136  1.00  0.00    -0.408 OA 
HETATM    2  C   UNL     1      -9.287  10.800  67.820  1.00  0.00    -0.152 C  
HETATM    3  H   UNL     1      -8.990  10.729  69.768  1.00  0.00     0.000 HD 
ENDROOT
BRANCH   2   4
HETATM    4  C   UNL     1      -9.774  11.835  66.800  1.00  0.00    -0.197 C  
HETATM    5  H   UNL     1      -9.465  13.754  66.468  1.00  0.00     0.000 HD 
HETATM    6  O   UNL     1      -9.162  13.113  67.100  1.00  0.00    -0.211 OA 
BRANCH   4   7
HETATM    7  C   UNL     1     -11.294  12.090  66.799  1.00  0.00    -0.339 C  
HETATM    8  O   UNL     1     -11.849  11.535  68.004  1.00  0.00    -0.545 OA 
HETATM    9  H   UNL     1     -12.786  11.692  68.003  1.00  0.00     0.000 HD 
BRANCH   7  10
HETATM   10  C   UNL     1     -11.774  13.546  66.626  1.00  0.00    -0.387 C  
HETATM   11  H   UNL     1     -12.691  14.933  67.720  1.00  0.00     0.000 HD 
HETATM   12  O   UNL     1     -12.396  14.036  67.826  1.00  0.00    -0.249 OA 
BRANCH  10  13
HETATM   13  C   UNL     1     -12.715  13.820  65.436  1.00  0.00    -0.472 C  
HETATM   14  H   UNL     1     -13.756  12.771  64.089  1.00  0.00     0.000 HD 
HETATM   15  O   UNL     1     -13.176  12.602  64.822  1.00  0.00    -0.846 OA 
BRANCH  13  16
HETATM   16  C   UNL     1     -12.104  14.709  64.348  1.00  0.00    -0.462 C  
HETATM   17  O   UNL     1     -12.265  14.049  63.083  1.00  0.00    -1.071 OA 
HETATM   18  H   UNL     1     -11.886  14.600  62.410  1.00  0.00     0.000 HD 
ENDBRANCH  13  16
ENDBRANCH  10  13
ENDBRANCH   7  10
ENDBRANCH   4   7
ENDBRANCH   2   4
TORSDOF 5
ENDMDL
MODEL       46
REMARK 921   NORMALIZED FREE ENERGY PREDICTED BY IDOCK:   -3.79 KCAL/MOL
REMARK 922        TOTAL FREE ENERGY PREDICTED BY IDOCK:   -5.74 KCAL/MOL
REMARK 923 INTER-LIGAND FREE ENERGY PREDICTED BY IDOCK:   -5.48 KCAL/MOL
REMARK 924 INTRA-LIGAND FREE ENERGY PREDICTED BY IDOCK:   -0.25 KCAL/MOL
REMARK 927      BINDING AFFINITY PREDICTED BY RF-SCORE:    0.00 PKD
ROOT
HETATM    1  O   UNL     1      -9.003  12.295  66.066  1.00  0.00    -0.412 OA 
HETATM    2  C   UNL     1      -9.184  13.329  67.043  1.00  0.00    -0.237 C  
HETATM    3  H   UNL     1      -8.086  12.233  65.825  1.00  0.00     0.000 HD 
ENDROOT
BRANCH   2   4
HETATM    4  C   UNL     1     -10.662  13.428  67.430  1.00  0.00    -0.262 C  
HETATM    5  H   UNL     1     -12.305  12.410  67.034  1.00  0.00     0.000 HD 
HETATM    6  O   UNL     1     -11.388  12.349  66.793  1.00  0.00    -0.295 OA 
BRANCH   4   7
HETATM    7  C   UNL     1     -11.372  14.724  66.990  1.00  0.00    -0.353 C  
HETATM    8  O   UNL     1     -11.648  15.511  68.162  1.00  0.00    -0.353 OA 
HETATM    9  H   UNL     1     -12.085  16.310  67.890  1.00  0.00     0.000 HD 
BRANCH   7  10
HETATM   10  C   UNL     1     -10.670  15.597  65.929  1.00  0.00    -0.329 C  
HETATM   11  H   UNL     1     -10.220  17.518  65.667  1.00  0.00     0.000 HD 
HETATM   12  O   UNL     1     -10.652  16.980  66.320  1.00  0.00    -0.282 OA 
BRANCH  10  13
HETATM   13  C   UNL     1     -11.217  15.498  64.491  1.00  0.00    -0.315 C  
HETATM   14  H   UNL     1     -11.952  16.720  63.090  1.00  0.00     0.000 HD 
HETATM   15  O   UNL     1     -11.615  16.782  63.976  1.00  0.00    -1.195 OA 
BRANCH  13  16
HETATM   16  C   UNL     1     -12.393  14.528  64.335  1.00  0.00    -0.413 C  
HETATM   17  O   UNL     1     -12.256  13.853  63.076  1.00  0.00    -1.039 OA 
HETATM   18  H   UNL     1     -12.985  13.252  62.979  1.00  0.00     0.000 HD 
ENDBRANCH  13  16
ENDBRANCH  10  13
ENDBRANCH   7  10
ENDBRANCH   4   7
ENDBRANCH   2   4
TORSDOF 5
ENDMDL
MODEL       47
REMARK 921   NORMALIZED FREE ENERGY PREDICTED BY IDOCK:   -3.75 KCAL/MOL
REMARK 922        TOTAL FREE ENERGY PREDICTED BY IDOCK:   -5.69 KCAL/MOL
REMARK 923 INTER-LIGAND FREE ENERGY PREDICTED BY IDOCK:   -4.97 KCAL/MOL
REMARK 924 INTRA-LIGAND FREE ENERGY PREDICTED BY IDOCK:   -0.72 KCAL/MOL
REMARK 927      BINDING AFFINITY PREDICTED BY RF-SCORE:    0.00 PKD
ROOT
HETATM    1  O   UNL     1     -14.141   8.895  73.363  1.00  0.00    -1.256 OA 
HETATM    2  C   UNL     1     -14.144   8.658  71.949  1.00  0.00    -0.443 C  
HETATM    3  H   UNL     1     -14.977   9.258  73.632  1.00  0.00     0.000 HD 
ENDROOT
BRANCH   2   4
HETATM    4  C   UNL     1     -12.797   8.072  71.515  1.00  0.00    -0.311 C  
HETATM    5  H   UNL     1     -11.993   6.273  71.430  1.00  0.00     0.000 HD 
HETATM    6  O   UNL     1     -12.828   6.636  71.699  1.00  0.00    -0.323 OA 
BRANCH   4   7
HETATM    7  C   UNL     1     -11.577   8.568  72.316  1.00  0.00    -0.374 C  
HETATM    8  O   UNL     1     -11.184   7.534  73.235  1.00  0.00    -0.567 OA 
HETATM    9  H   UNL     1     -10.432   7.840  73.728  1.00  0.00     0.000 HD 
BRANCH   7  10
HETATM   10  C   UNL     1     -10.347   9.052  71.518  1.00  0.00    -0.342 C  
HETATM   11  H   UNL     1      -9.814   9.243  69.611  1.00  0.00     0.000 HD 
HETATM   12  O   UNL     1     -10.571   8.946  70.102  1.00  0.00    -0.210 OA 
BRANCH  10  13
HETATM   13  C   UNL     1      -9.003   8.378  71.858  1.00  0.00    -0.214 C  
HETATM   14  H   UNL     1      -7.745   8.261  73.407  1.00  0.00     0.000 HD 
HETATM   15  O   UNL     1      -8.574   8.676  73.199  1.00  0.00    -0.393 OA 
BRANCH  13  16
HETATM   16  C   UNL     1      -7.865   8.735  70.895  1.00  0.00    -0.120 C  
HETATM   17  O   UNL     1      -7.990  10.122  70.546  1.00  0.00    -0.423 OA 
HETATM   18  H   UNL     1      -7.285  10.343  69.949  1.00  0.00     0.000 HD 
ENDBRANCH  13  16
ENDBRANCH  10  13
ENDBRANCH   7  10
ENDBRANCH   4   7
ENDBRANCH   2   4
TORSDOF 5
ENDMDL
MODEL       48
REMARK 921   NORMALIZED FREE ENERGY PREDICTED BY IDOCK:   -3.73 KCAL/MOL
REMARK 922        TOTAL FREE ENERGY PREDICTED BY IDOCK:   -5.66 KCAL/MOL
REMARK 923 INTER-LIGAND FREE ENERGY PREDICTED BY IDOCK:   -5.27 KCAL/MOL
REMARK 924 INTRA-LIGAND FREE ENERGY PREDICTED BY IDOCK:   -0.40 KCAL/MOL
REMARK 927      BINDING AFFINITY PREDICTED BY RF-SCORE:    0.00 PKD
ROOT
HETATM    1  O   UNL     1      -9.448   8.774  65.364  1.00  0.00    -0.443 OA 
HETATM    2  C   UNL     1      -9.842  10.117  65.675  1.00  0.00    -0.280 C  
HETATM    3  H   UNL     1      -9.110   8.347  66.143  1.00  0.00     0.000 HD 
ENDROOT
BRANCH   2   4
HETATM    4  C   UNL     1     -10.387  10.805  64.419  1.00  0.00    -0.335 C  
HETATM    5  H   UNL     1      -9.700  11.222  62.618  1.00  0.00     0.000 HD 
HETATM    6  O   UNL     1      -9.362  10.795  63.396  1.00  0.00    -0.228 OA 
BRANCH   4   7
HETATM    7  C   UNL     1     -10.783  12.284  64.599  1.00  0.00    -0.308 C  
HETATM    8  O   UNL     1     -10.179  13.048  63.542  1.00  0.00    -0.602 OA 
HETATM    9  H   UNL     1     -10.423  13.960  63.653  1.00  0.00     0.000 HD 
BRANCH   7  10
HETATM   10  C   UNL     1     -12.288  12.614  64.689  1.00  0.00    -0.476 C  
HETATM   11  H   UNL     1     -13.884  12.534  63.503  1.00  0.00     0.000 HD 
HETATM   12  O   UNL     1     -12.958  12.331  63.449  1.00  0.00    -0.753 OA 
BRANCH  10  13
HETATM   13  C   UNL     1     -12.649  14.047  65.129  1.00  0.00    -0.428 C  
HETATM   14  H   UNL     1     -12.730  15.876  64.324  1.00  0.00     0.000 HD 
HETATM   15  O   UNL     1     -12.507  14.993  64.053  1.00  0.00    -0.796 OA 
BRANCH  13  16
HETATM   16  C   UNL     1     -11.842  14.554  66.329  1.00  0.00    -0.344 C  
HETATM   17  O   UNL     1     -11.077  15.693  65.907  1.00  0.00    -0.272 OA 
HETATM   18  H   UNL     1     -10.576  16.007  66.651  1.00  0.00     0.000 HD 
ENDBRANCH  13  16
ENDBRANCH  10  13
ENDBRANCH   7  10
ENDBRANCH   4   7
ENDBRANCH   2   4
TORSDOF 5
ENDMDL
MODEL       49
REMARK 921   NORMALIZED FREE ENERGY PREDICTED BY IDOCK:   -3.68 KCAL/MOL
REMARK 922        TOTAL FREE ENERGY PREDICTED BY IDOCK:   -5.61 KCAL/MOL
REMARK 923 INTER-LIGAND FREE ENERGY PREDICTED BY IDOCK:   -5.07 KCAL/MOL
REMARK 924 INTRA-LIGAND FREE ENERGY PREDICTED BY IDOCK:   -0.53 KCAL/MOL
REMARK 927      BINDING AFFINITY PREDICTED BY RF-SCORE:    0.00 PKD
ROOT
HETATM    1  O   UNL     1     -12.224  10.522  68.858  1.00  0.00    -0.753 OA 
HETATM    2  C   UNL     1     -11.219  11.533  68.704  1.00  0.00    -0.248 C  
HETATM    3  H   UNL     1     -12.575  10.545  69.741  1.00  0.00     0.000 HD 
ENDROOT
BRANCH   2   4
HETATM    4  C   UNL     1     -10.655  11.496  67.281  1.00  0.00    -0.228 C  
HETATM    5  H   UNL     1      -9.093  10.681  66.394  1.00  0.00     0.000 HD 
HETATM    6  O   UNL     1      -9.442  10.704  67.277  1.00  0.00    -0.157 OA 
BRANCH   4   7
HETATM    7  C   UNL     1     -10.260  12.866  66.695  1.00  0.00    -0.247 C  
HETATM    8  O   UNL     1      -8.853  12.845  66.396  1.00  0.00    -0.420 OA 
HETATM    9  H   UNL     1      -8.610  13.689  66.035  1.00  0.00     0.000 HD 
BRANCH   7  10
HETATM   10  C   UNL     1     -11.046  13.372  65.467  1.00  0.00    -0.282 C  
HETATM   11  H   UNL     1     -12.855  14.104  65.079  1.00  0.00     0.000 HD 
HETATM   12  O   UNL     1     -12.371  13.793  65.834  1.00  0.00    -0.434 OA 
BRANCH  10  13
HETATM   13  C   UNL     1     -11.150  12.401  64.274  1.00  0.00    -0.349 C  
HETATM   14  H   UNL     1     -10.011  11.788  62.750  1.00  0.00     0.000 HD 
HETATM   15  O   UNL     1      -9.946  12.386  63.485  1.00  0.00    -0.374 OA 
BRANCH  13  16
HETATM   16  C   UNL     1     -12.335  12.682  63.342  1.00  0.00    -0.456 C  
HETATM   17  O   UNL     1     -12.431  14.102  63.153  1.00  0.00    -1.126 OA 
HETATM   18  H   UNL     1     -13.165  14.275  62.576  1.00  0.00     0.000 HD 
ENDBRANCH  13  16
ENDBRANCH  10  13
ENDBRANCH   7  10
ENDBRANCH   4   7
ENDBRANCH   2   4
TORSDOF 5
ENDMDL
MODEL       50
REMARK 921   NORMALIZED FREE ENERGY PREDICTED BY IDOCK:   -3.68 KCAL/MOL
REMARK 922        TOTAL FREE ENERGY PREDICTED BY IDOCK:   -5.60 KCAL/MOL
REMARK 923 INTER-LIGAND FREE ENERGY PREDICTED BY IDOCK:   -5.19 KCAL/MOL
REMARK 924 INTRA-LIGAND FREE ENERGY PREDICTED BY IDOCK:   -0.40 KCAL/MOL
REMARK 927      BINDING AFFINITY PREDICTED BY RF-SCORE:    0.00 PKD
ROOT
HETATM    1  O   UNL     1     -12.472  14.014  62.840  1.00  0.00    -1.028 OA 
HETATM    2  C   UNL     1     -11.984  14.261  64.166  1.00  0.00    -0.373 C  
HETATM    3  H   UNL     1     -12.423  14.810  62.324  1.00  0.00     0.000 HD 
ENDROOT
BRANCH   2   4
HETATM    4  C   UNL     1     -12.063  12.977  64.997  1.00  0.00    -0.427 C  
HETATM    5  H   UNL     1     -13.395  11.550  65.284  1.00  0.00     0.000 HD 
HETATM    6  O   UNL     1     -13.347  12.347  64.768  1.00  0.00    -0.718 OA 
BRANCH   4   7
HETATM    7  C   UNL     1     -11.963  13.175  66.523  1.00  0.00    -0.398 C  
HETATM    8  O   UNL     1     -12.023  11.885  67.154  1.00  0.00    -0.611 OA 
HETATM    9  H   UNL     1     -11.961  12.007  68.094  1.00  0.00     0.000 HD 
BRANCH   7  10
HETATM   10  C   UNL     1     -10.751  13.964  67.062  1.00  0.00    -0.283 C  
HETATM   11  H   UNL     1      -8.766  13.848  66.979  1.00  0.00     0.000 HD 
HETATM   12  O   UNL     1      -9.512  13.363  66.648  1.00  0.00    -0.253 OA 
BRANCH  10  13
HETATM   13  C   UNL     1     -10.704  14.190  68.587  1.00  0.00    -0.254 C  
HETATM   14  H   UNL     1     -11.944  14.764  70.045  1.00  0.00     0.000 HD 
HETATM   15  O   UNL     1     -11.974  14.625  69.106  1.00  0.00    -0.308 OA 
BRANCH  13  16
HETATM   16  C   UNL     1      -9.629  15.185  69.038  1.00  0.00    -0.229 C  
HETATM   17  O   UNL     1      -8.388  14.475  69.172  1.00  0.00    -0.312 OA 
HETATM   18  H   UNL     1      -7.722  15.092  69.452  1.00  0.00     0.000 HD 
ENDBRANCH  13  16
ENDBRANCH  10  13
ENDBRANCH   7  10
ENDBRANCH   4   7
ENDBRANCH   2   4
TORSDOF 5
ENDMDL
MODEL       51
REMARK 921   NORMALIZED FREE ENERGY PREDICTED BY IDOCK:   -3.67 KCAL/MOL
REMARK 922        TOTAL FREE ENERGY PREDICTED BY IDOCK:   -5.58 KCAL/MOL
REMARK 923 INTER-LIGAND FREE ENERGY PREDICTED BY IDOCK:   -5.34 KCAL/MOL
REMARK 924 INTRA-LIGAND FREE ENERGY PREDICTED BY IDOCK:   -0.24 KCAL/MOL
REMARK 927      BINDING AFFINITY PREDICTED BY RF-SCORE:    0.00 PKD
ROOT
HETATM    1  O   UNL     1     -12.083  11.105  68.194  1.00  0.00    -0.676 OA 
HETATM    2  C   UNL     1     -10.676  11.364  68.100  1.00  0.00    -0.202 C  
HETATM    3  H   UNL     1     -12.354  11.113  69.105  1.00  0.00     0.000 HD 
ENDROOT
BRANCH   2   4
HETATM    4  C   UNL     1     -10.240  11.352  66.631  1.00  0.00    -0.222 C  
HETATM    5  H   UNL     1      -8.527  11.447  65.658  1.00  0.00     0.000 HD 
HETATM    6  O   UNL     1      -8.797  11.455  66.569  1.00  0.00    -0.176 OA 
BRANCH   4   7
HETATM    7  C   UNL     1     -10.779  12.517  65.778  1.00  0.00    -0.269 C  
HETATM    8  O   UNL     1     -12.155  12.250  65.460  1.00  0.00    -0.523 OA 
HETATM    9  H   UNL     1     -12.487  12.968  64.934  1.00  0.00     0.000 HD 
BRANCH   7  10
HETATM   10  C   UNL     1     -10.643  13.944  66.350  1.00  0.00    -0.280 C  
HETATM   11  H   UNL     1     -11.662  15.144  67.566  1.00  0.00     0.000 HD 
HETATM   12  O   UNL     1     -11.745  14.267  67.214  1.00  0.00    -0.356 OA 
BRANCH  10  13
HETATM   13  C   UNL     1     -10.473  15.081  65.322  1.00  0.00    -0.403 C  
HETATM   14  H   UNL     1     -10.091  17.043  65.321  1.00  0.00     0.000 HD 
HETATM   15  O   UNL     1     -10.196  16.343  65.955  1.00  0.00    -0.332 OA 
BRANCH  13  16
HETATM   16  C   UNL     1     -11.674  15.261  64.386  1.00  0.00    -0.285 C  
HETATM   17  O   UNL     1     -11.597  16.571  63.803  1.00  0.00    -1.617 OA 
HETATM   18  H   UNL     1     -12.341  16.682  63.224  1.00  0.00     0.000 HD 
ENDBRANCH  13  16
ENDBRANCH  10  13
ENDBRANCH   7  10
ENDBRANCH   4   7
ENDBRANCH   2   4
TORSDOF 5
ENDMDL
MODEL       52
REMARK 921   NORMALIZED FREE ENERGY PREDICTED BY IDOCK:   -3.66 KCAL/MOL
REMARK 922        TOTAL FREE ENERGY PREDICTED BY IDOCK:   -5.58 KCAL/MOL
REMARK 923 INTER-LIGAND FREE ENERGY PREDICTED BY IDOCK:   -5.14 KCAL/MOL
REMARK 924 INTRA-LIGAND FREE ENERGY PREDICTED BY IDOCK:   -0.44 KCAL/MOL
REMARK 927      BINDING AFFINITY PREDICTED BY RF-SCORE:    0.00 PKD
ROOT
HETATM    1  O   UNL     1     -12.321  13.757  62.979  1.00  0.00    -1.089 OA 
HETATM    2  C   UNL     1     -12.089  12.514  63.656  1.00  0.00    -0.554 C  
HETATM    3  H   UNL     1     -12.745  13.597  62.144  1.00  0.00     0.000 HD 
ENDROOT
BRANCH   2   4
HETATM    4  C   UNL     1     -11.405  12.773  65.002  1.00  0.00    -0.309 C  
HETATM    5  H   UNL     1     -11.413  11.928  66.785  1.00  0.00     0.000 HD 
HETATM    6  O   UNL     1     -11.838  11.768  65.950  1.00  0.00    -0.414 OA 
BRANCH   4   7
HETATM    7  C   UNL     1     -11.732  14.131  65.655  1.00  0.00    -0.357 C  
HETATM    8  O   UNL     1     -13.162  14.268  65.725  1.00  0.00    -0.577 OA 
HETATM    9  H   UNL     1     -13.364  15.105  66.128  1.00  0.00     0.000 HD 
BRANCH   7  10
HETATM   10  C   UNL     1     -11.111  14.428  67.036  1.00  0.00    -0.313 C  
HETATM   11  H   UNL     1     -11.731  14.621  68.917  1.00  0.00     0.000 HD 
HETATM   12  O   UNL     1     -12.113  14.438  68.067  1.00  0.00    -0.320 OA 
BRANCH  10  13
HETATM   13  C   UNL     1     -10.275  15.719  67.147  1.00  0.00    -0.279 C  
HETATM   14  H   UNL     1      -9.944  17.375  66.078  1.00  0.00     0.000 HD 
HETATM   15  O   UNL     1     -10.459  16.580  66.008  1.00  0.00    -0.328 OA 
BRANCH  13  16
HETATM   16  C   UNL     1      -8.773  15.476  67.333  1.00  0.00    -0.178 C  
HETATM   17  O   UNL     1      -8.424  14.269  66.640  1.00  0.00    -0.424 OA 
HETATM   18  H   UNL     1      -7.493  14.118  66.755  1.00  0.00     0.000 HD 
ENDBRANCH  13  16
ENDBRANCH  10  13
ENDBRANCH   7  10
ENDBRANCH   4   7
ENDBRANCH   2   4
TORSDOF 5
ENDMDL
MODEL       53
REMARK 921   NORMALIZED FREE ENERGY PREDICTED BY IDOCK:   -3.65 KCAL/MOL
REMARK 922        TOTAL FREE ENERGY PREDICTED BY IDOCK:   -5.56 KCAL/MOL
REMARK 923 INTER-LIGAND FREE ENERGY PREDICTED BY IDOCK:   -4.93 KCAL/MOL
REMARK 924 INTRA-LIGAND FREE ENERGY PREDICTED BY IDOCK:   -0.63 KCAL/MOL
REMARK 927      BINDING AFFINITY PREDICTED BY RF-SCORE:    0.00 PKD
ROOT
HETATM    1  O   UNL     1      -7.586  10.817  64.774  1.00  0.00    -0.353 OA 
HETATM    2  C   UNL     1      -8.395   9.778  64.204  1.00  0.00    -0.168 C  
HETATM    3  H   UNL     1      -6.784  10.447  65.124  1.00  0.00     0.000 HD 
ENDROOT
BRANCH   2   4
HETATM    4  C   UNL     1      -9.688  10.374  63.639  1.00  0.00    -0.277 C  
HETATM    5  H   UNL     1     -10.152  11.818  62.378  1.00  0.00     0.000 HD 
HETATM    6  O   UNL     1      -9.350  11.449  62.729  1.00  0.00    -0.369 OA 
BRANCH   4   7
HETATM    7  C   UNL     1     -10.636  10.995  64.684  1.00  0.00    -0.299 C  
HETATM    8  O   UNL     1     -10.409  10.345  65.947  1.00  0.00    -0.245 OA 
HETATM    9  H   UNL     1     -10.994  10.728  66.590  1.00  0.00     0.000 HD 
BRANCH   7  10
HETATM   10  C   UNL     1     -10.590  12.526  64.870  1.00  0.00    -0.301 C  
HETATM   11  H   UNL     1      -9.569  13.847  65.952  1.00  0.00     0.000 HD 
HETATM   12  O   UNL     1      -9.597  12.904  65.838  1.00  0.00    -0.224 OA 
BRANCH  10  13
HETATM   13  C   UNL     1     -11.922  13.212  65.235  1.00  0.00    -0.398 C  
HETATM   14  H   UNL     1     -13.879  12.827  65.107  1.00  0.00     0.000 HD 
HETATM   15  O   UNL     1     -13.059  12.404  64.881  1.00  0.00    -0.765 OA 
BRANCH  13  16
HETATM   16  C   UNL     1     -12.101  14.600  64.611  1.00  0.00    -0.454 C  
HETATM   17  O   UNL     1     -12.398  14.431  63.216  1.00  0.00    -1.079 OA 
HETATM   18  H   UNL     1     -12.509  15.291  62.830  1.00  0.00     0.000 HD 
ENDBRANCH  13  16
ENDBRANCH  10  13
ENDBRANCH   7  10
ENDBRANCH   4   7
ENDBRANCH   2   4
TORSDOF 5
ENDMDL
MODEL       54
REMARK 921   NORMALIZED FREE ENERGY PREDICTED BY IDOCK:   -3.65 KCAL/MOL
REMARK 922        TOTAL FREE ENERGY PREDICTED BY IDOCK:   -5.56 KCAL/MOL
REMARK 923 INTER-LIGAND FREE ENERGY PREDICTED BY IDOCK:   -5.20 KCAL/MOL
REMARK 924 INTRA-LIGAND FREE ENERGY PREDICTED BY IDOCK:   -0.37 KCAL/MOL
REMARK 927      BINDING AFFINITY PREDICTED BY RF-SCORE:    0.00 PKD
ROOT
HETATM    1  O   UNL     1     -11.696  12.198  70.288  1.00  0.00    -0.497 OA 
HETATM    2  C   UNL     1     -11.814  10.794  70.553  1.00  0.00    -0.356 C  
HETATM    3  H   UNL     1     -10.898  12.370  69.802  1.00  0.00     0.000 HD 
ENDROOT
BRANCH   2   4
HETATM    4  C   UNL     1     -13.101  10.517  71.337  1.00  0.00    -0.410 C  
HETATM    5  H   UNL     1     -14.139  11.444  72.734  1.00  0.00     0.000 HD 
HETATM    6  O   UNL     1     -13.341  11.616  72.248  1.00  0.00    -0.443 OA 
BRANCH   4   7
HETATM    7  C   UNL     1     -13.077   9.247  72.212  1.00  0.00    -0.441 C  
HETATM    8  O   UNL     1     -14.286   9.208  72.989  1.00  0.00    -1.082 OA 
HETATM    9  H   UNL     1     -14.271   8.426  73.528  1.00  0.00     0.000 HD 
BRANCH   7  10
HETATM   10  C   UNL     1     -12.869   7.894  71.500  1.00  0.00    -0.317 C  
HETATM   11  H   UNL     1     -13.980   6.338  70.947  1.00  0.00     0.000 HD 
HETATM   12  O   UNL     1     -14.107   7.171  71.385  1.00  0.00    -0.381 OA 
BRANCH  10  13
HETATM   13  C   UNL     1     -11.805   6.957  72.107  1.00  0.00    -0.281 C  
HETATM   14  H   UNL     1     -10.331   7.053  73.454  1.00  0.00     0.000 HD 
HETATM   15  O   UNL     1     -10.986   7.631  73.080  1.00  0.00    -0.392 OA 
BRANCH  13  16
HETATM   16  C   UNL     1     -10.885   6.303  71.070  1.00  0.00    -0.271 C  
HETATM   17  O   UNL     1     -11.647   6.073  69.875  1.00  0.00    -0.326 OA 
HETATM   18  H   UNL     1     -11.077   5.667  69.233  1.00  0.00     0.000 HD 
ENDBRANCH  13  16
ENDBRANCH  10  13
ENDBRANCH   7  10
ENDBRANCH   4   7
ENDBRANCH   2   4
TORSDOF 5
ENDMDL
MODEL       55
REMARK 921   NORMALIZED FREE ENERGY PREDICTED BY IDOCK:   -3.64 KCAL/MOL
REMARK 922        TOTAL FREE ENERGY PREDICTED BY IDOCK:   -5.55 KCAL/MOL
REMARK 923 INTER-LIGAND FREE ENERGY PREDICTED BY IDOCK:   -5.01 KCAL/MOL
REMARK 924 INTRA-LIGAND FREE ENERGY PREDICTED BY IDOCK:   -0.54 KCAL/MOL
REMARK 927      BINDING AFFINITY PREDICTED BY RF-SCORE:    0.00 PKD
ROOT
HETATM    1  O   UNL     1     -14.326   8.740  73.193  1.00  0.00    -1.119 OA 
HETATM    2  C   UNL     1     -14.082   8.275  71.858  1.00  0.00    -0.424 C  
HETATM    3  H   UNL     1     -15.059   8.269  73.571  1.00  0.00     0.000 HD 
ENDROOT
BRANCH   2   4
HETATM    4  C   UNL     1     -12.900   9.034  71.248  1.00  0.00    -0.245 C  
HETATM    5  H   UNL     1     -11.047   9.444  71.787  1.00  0.00     0.000 HD 
HETATM    6  O   UNL     1     -11.780   8.973  72.165  1.00  0.00    -0.356 OA 
BRANCH   4   7
HETATM    7  C   UNL     1     -13.146  10.534  70.989  1.00  0.00    -0.330 C  
HETATM    8  O   UNL     1     -13.508  11.157  72.233  1.00  0.00    -0.608 OA 
HETATM    9  H   UNL     1     -13.660  12.081  72.073  1.00  0.00     0.000 HD 
BRANCH   7  10
HETATM   10  C   UNL     1     -12.015  11.336  70.313  1.00  0.00    -0.379 C  
HETATM   11  H   UNL     1     -11.410  13.230  70.215  1.00  0.00     0.000 HD 
HETATM   12  O   UNL     1     -12.107  12.735  70.631  1.00  0.00    -0.353 OA 
BRANCH  10  13
HETATM   13  C   UNL     1     -11.888  11.186  68.784  1.00  0.00    -0.320 C  
HETATM   14  H   UNL     1     -11.032   9.938  67.476  1.00  0.00     0.000 HD 
HETATM   15  O   UNL     1     -11.110  10.031  68.418  1.00  0.00    -0.237 OA 
BRANCH  13  16
HETATM   16  C   UNL     1     -11.292  12.412  68.083  1.00  0.00    -0.291 C  
HETATM   17  O   UNL     1     -10.006  12.679  68.662  1.00  0.00    -0.349 OA 
HETATM   18  H   UNL     1      -9.637  13.439  68.227  1.00  0.00     0.000 HD 
ENDBRANCH  13  16
ENDBRANCH  10  13
ENDBRANCH   7  10
ENDBRANCH   4   7
ENDBRANCH   2   4
TORSDOF 5
ENDMDL
MODEL       56
REMARK 921   NORMALIZED FREE ENERGY PREDICTED BY IDOCK:   -3.63 KCAL/MOL
REMARK 922        TOTAL FREE ENERGY PREDICTED BY IDOCK:   -5.53 KCAL/MOL
REMARK 923 INTER-LIGAND FREE ENERGY PREDICTED BY IDOCK:   -5.07 KCAL/MOL
REMARK 924 INTRA-LIGAND FREE ENERGY PREDICTED BY IDOCK:   -0.47 KCAL/MOL
REMARK 927      BINDING AFFINITY PREDICTED BY RF-SCORE:    0.00 PKD
ROOT
HETATM    1  O   UNL     1      -9.791  18.591  68.261  1.00  0.00    -0.324 OA 
HETATM    2  C   UNL     1     -10.138  17.278  68.721  1.00  0.00    -0.337 C  
HETATM    3  H   UNL     1      -9.393  19.087  68.967  1.00  0.00     0.000 HD 
ENDROOT
BRANCH   2   4
HETATM    4  C   UNL     1     -10.779  16.479  67.582  1.00  0.00    -0.311 C  
HETATM    5  H   UNL     1     -12.207  15.127  67.424  1.00  0.00     0.000 HD 
HETATM    6  O   UNL     1     -11.810  15.623  68.131  1.00  0.00    -0.286 OA 
BRANCH   4   7
HETATM    7  C   UNL     1      -9.822  15.542  66.818  1.00  0.00    -0.241 C  
HETATM    8  O   UNL     1      -9.681  14.324  67.570  1.00  0.00    -0.217 OA 
HETATM    9  H   UNL     1      -9.091  13.747  67.100  1.00  0.00     0.000 HD 
BRANCH   7  10
HETATM   10  C   UNL     1     -10.166  15.211  65.351  1.00  0.00    -0.372 C  
HETATM   11  H   UNL     1     -11.120  16.075  63.833  1.00  0.00     0.000 HD 
HETATM   12  O   UNL     1     -10.909  16.278  64.736  1.00  0.00    -0.671 OA 
BRANCH  10  13
HETATM   13  C   UNL     1     -10.913  13.885  65.104  1.00  0.00    -0.350 C  
HETATM   14  H   UNL     1     -10.737  12.272  63.937  1.00  0.00     0.000 HD 
HETATM   15  O   UNL     1     -10.277  13.088  64.088  1.00  0.00    -0.397 OA 
BRANCH  13  16
HETATM   16  C   UNL     1     -12.389  14.060  64.728  1.00  0.00    -0.413 C  
HETATM   17  O   UNL     1     -12.477  14.189  63.302  1.00  0.00    -1.146 OA 
HETATM   18  H   UNL     1     -13.391  14.298  63.069  1.00  0.00     0.000 HD 
ENDBRANCH  13  16
ENDBRANCH  10  13
ENDBRANCH   7  10
ENDBRANCH   4   7
ENDBRANCH   2   4
TORSDOF 5
ENDMDL
MODEL       57
REMARK 921   NORMALIZED FREE ENERGY PREDICTED BY IDOCK:   -3.61 KCAL/MOL
REMARK 922        TOTAL FREE ENERGY PREDICTED BY IDOCK:   -5.51 KCAL/MOL
REMARK 923 INTER-LIGAND FREE ENERGY PREDICTED BY IDOCK:   -5.31 KCAL/MOL
REMARK 924 INTRA-LIGAND FREE ENERGY PREDICTED BY IDOCK:   -0.21 KCAL/MOL
REMARK 927      BINDING AFFINITY PREDICTED BY RF-SCORE:    0.00 PKD
ROOT
HETATM    1  O   UNL     1      -9.683   9.134  65.225  1.00  0.00    -0.462 OA 
HETATM    2  C   UNL     1      -9.718  10.567  65.292  1.00  0.00    -0.270 C  
HETATM    3  H   UNL     1      -9.233   8.786  65.986  1.00  0.00     0.000 HD 
ENDROOT
BRANCH   2   4
HETATM    4  C   UNL     1     -10.445  11.128  64.065  1.00  0.00    -0.383 C  
HETATM    5  H   UNL     1      -9.955  11.579  62.209  1.00  0.00     0.000 HD 
HETATM    6  O   UNL     1      -9.504  11.231  62.969  1.00  0.00    -0.324 OA 
BRANCH   4   7
HETATM    7  C   UNL     1     -11.037  12.540  64.242  1.00  0.00    -0.356 C  
HETATM    8  O   UNL     1     -11.734  12.896  63.036  1.00  0.00    -0.831 OA 
HETATM    9  H   UNL     1     -12.099  13.766  63.145  1.00  0.00     0.000 HD 
BRANCH   7  10
HETATM   10  C   UNL     1     -11.949  12.785  65.463  1.00  0.00    -0.449 C  
HETATM   11  H   UNL     1     -13.799  13.428  65.811  1.00  0.00     0.000 HD 
HETATM   12  O   UNL     1     -13.238  13.277  65.060  1.00  0.00    -0.698 OA 
BRANCH  10  13
HETATM   13  C   UNL     1     -11.388  13.710  66.562  1.00  0.00    -0.319 C  
HETATM   14  H   UNL     1      -9.612  14.406  67.159  1.00  0.00     0.000 HD 
HETATM   15  O   UNL     1      -9.957  13.836  66.482  1.00  0.00    -0.272 OA 
BRANCH  13  16
HETATM   16  C   UNL     1     -11.758  13.282  67.987  1.00  0.00    -0.359 C  
HETATM   17  O   UNL     1     -12.447  14.372  68.618  1.00  0.00    -0.583 OA 
HETATM   18  H   UNL     1     -12.676  14.106  69.501  1.00  0.00     0.000 HD 
ENDBRANCH  13  16
ENDBRANCH  10  13
ENDBRANCH   7  10
ENDBRANCH   4   7
ENDBRANCH   2   4
TORSDOF 5
ENDMDL
MODEL       58
REMARK 921   NORMALIZED FREE ENERGY PREDICTED BY IDOCK:   -3.58 KCAL/MOL
REMARK 922        TOTAL FREE ENERGY PREDICTED BY IDOCK:   -5.47 KCAL/MOL
REMARK 923 INTER-LIGAND FREE ENERGY PREDICTED BY IDOCK:   -4.83 KCAL/MOL
REMARK 924 INTRA-LIGAND FREE ENERGY PREDICTED BY IDOCK:   -0.64 KCAL/MOL
REMARK 927      BINDING AFFINITY PREDICTED BY RF-SCORE:    0.00 PKD
ROOT
HETATM    1  O   UNL     1     -10.649  14.035  66.242  1.00  0.00    -0.276 OA 
HETATM    2  C   UNL     1     -10.688  14.274  64.828  1.00  0.00    -0.416 C  
HETATM    3  H   UNL     1      -9.927  14.516  66.632  1.00  0.00     0.000 HD 
ENDROOT
BRANCH   2   4
HETATM    4  C   UNL     1     -11.851  13.500  64.201  1.00  0.00    -0.437 C  
HETATM    5  H   UNL     1     -13.741  13.164  64.653  1.00  0.00     0.000 HD 
HETATM    6  O   UNL     1     -13.020  13.644  65.043  1.00  0.00    -0.724 OA 
BRANCH   4   7
HETATM    7  C   UNL     1     -11.626  11.982  64.055  1.00  0.00    -0.411 C  
HETATM    8  O   UNL     1     -12.350  11.524  62.899  1.00  0.00    -0.958 OA 
HETATM    9  H   UNL     1     -12.211  10.589  62.810  1.00  0.00     0.000 HD 
BRANCH   7  10
HETATM   10  C   UNL     1     -10.169  11.478  63.991  1.00  0.00    -0.345 C  
HETATM   11  H   UNL     1      -9.003  10.509  62.703  1.00  0.00     0.000 HD 
HETATM   12  O   UNL     1      -9.899  10.819  62.743  1.00  0.00    -0.296 OA 
BRANCH  10  13
HETATM   13  C   UNL     1      -9.711  10.561  65.143  1.00  0.00    -0.282 C  
HETATM   14  H   UNL     1      -9.100  10.742  67.038  1.00  0.00     0.000 HD 
HETATM   15  O   UNL     1      -9.382  11.308  66.329  1.00  0.00    -0.194 OA 
BRANCH  13  16
HETATM   16  C   UNL     1      -8.519   9.664  64.790  1.00  0.00    -0.159 C  
HETATM   17  O   UNL     1      -7.409  10.507  64.445  1.00  0.00    -0.328 OA 
HETATM   18  H   UNL     1      -6.671   9.951  64.226  1.00  0.00     0.000 HD 
ENDBRANCH  13  16
ENDBRANCH  10  13
ENDBRANCH   7  10
ENDBRANCH   4   7
ENDBRANCH   2   4
TORSDOF 5
ENDMDL
MODEL       59
REMARK 921   NORMALIZED FREE ENERGY PREDICTED BY IDOCK:   -3.57 KCAL/MOL
REMARK 922        TOTAL FREE ENERGY PREDICTED BY IDOCK:   -5.46 KCAL/MOL
REMARK 923 INTER-LIGAND FREE ENERGY PREDICTED BY IDOCK:   -5.10 KCAL/MOL
REMARK 924 INTRA-LIGAND FREE ENERGY PREDICTED BY IDOCK:   -0.36 KCAL/MOL
REMARK 927      BINDING AFFINITY PREDICTED BY RF-SCORE:    0.00 PKD
ROOT
HETATM    1  O   UNL     1     -11.783  16.306  63.897  1.00  0.00    -1.441 OA 
HETATM    2  C   UNL     1     -11.174  15.531  64.939  1.00  0.00    -0.389 C  
HETATM    3  H   UNL     1     -12.100  15.732  63.210  1.00  0.00     0.000 HD 
ENDROOT
BRANCH   2   4
HETATM    4  C   UNL     1     -10.663  16.457  66.047  1.00  0.00    -0.191 C  
HETATM    5  H   UNL     1      -9.066  17.579  66.336  1.00  0.00     0.000 HD 
HETATM    6  O   UNL     1      -9.383  17.005  65.649  1.00  0.00    -0.523 OA 
BRANCH   4   7
HETATM    7  C   UNL     1     -10.421  15.779  67.410  1.00  0.00    -0.297 C  
HETATM    8  O   UNL     1      -9.019  15.481  67.527  1.00  0.00    -0.183 OA 
HETATM    9  H   UNL     1      -8.870  15.063  68.367  1.00  0.00     0.000 HD 
BRANCH   7  10
HETATM   10  C   UNL     1     -10.903  16.522  68.674  1.00  0.00    -0.345 C  
HETATM   11  H   UNL     1     -10.472  18.204  69.645  1.00  0.00     0.000 HD 
HETATM   12  O   UNL     1     -10.175  17.747  68.868  1.00  0.00    -0.368 OA 
BRANCH  10  13
HETATM   13  C   UNL     1     -10.880  15.720  69.990  1.00  0.00    -0.342 C  
HETATM   14  H   UNL     1     -10.401  13.880  70.605  1.00  0.00     0.000 HD 
HETATM   15  O   UNL     1     -10.415  14.373  69.793  1.00  0.00    -0.031 OA 
BRANCH  13  16
HETATM   16  C   UNL     1     -12.232  15.665  70.711  1.00  0.00    -0.418 C  
HETATM   17  O   UNL     1     -12.189  16.577  71.819  1.00  0.00    -0.574 OA 
HETATM   18  H   UNL     1     -13.026  16.542  72.266  1.00  0.00     0.000 HD 
ENDBRANCH  13  16
ENDBRANCH  10  13
ENDBRANCH   7  10
ENDBRANCH   4   7
ENDBRANCH   2   4
TORSDOF 5
ENDMDL
MODEL       60
REMARK 921   NORMALIZED FREE ENERGY PREDICTED BY IDOCK:   -3.57 KCAL/MOL
REMARK 922        TOTAL FREE ENERGY PREDICTED BY IDOCK:   -5.46 KCAL/MOL
REMARK 923 INTER-LIGAND FREE ENERGY PREDICTED BY IDOCK:   -5.12 KCAL/MOL
REMARK 924 INTRA-LIGAND FREE ENERGY PREDICTED BY IDOCK:   -0.33 KCAL/MOL
REMARK 927      BINDING AFFINITY PREDICTED BY RF-SCORE:    0.00 PKD
ROOT
HETATM    1  O   UNL     1     -14.264   8.850  73.456  1.00  0.00    -1.194 OA 
HETATM    2  C   UNL     1     -13.754   9.354  72.214  1.00  0.00    -0.426 C  
HETATM    3  H   UNL     1     -14.575   9.568  73.994  1.00  0.00     0.000 HD 
ENDROOT
BRANCH   2   4
HETATM    4  C   UNL     1     -13.254   8.195  71.347  1.00  0.00    -0.217 C  
HETATM    5  H   UNL     1     -13.910   6.399  70.861  1.00  0.00     0.000 HD 
HETATM    6  O   UNL     1     -14.221   7.118  71.399  1.00  0.00    -0.381 OA 
BRANCH   4   7
HETATM    7  C   UNL     1     -11.914   7.574  71.789  1.00  0.00    -0.301 C  
HETATM    8  O   UNL     1     -12.183   6.302  72.404  1.00  0.00    -0.516 OA 
HETATM    9  H   UNL     1     -11.357   5.920  72.677  1.00  0.00     0.000 HD 
BRANCH   7  10
HETATM   10  C   UNL     1     -10.813   7.414  70.720  1.00  0.00    -0.241 C  
HETATM   11  H   UNL     1      -9.801   8.580  69.464  1.00  0.00     0.000 HD 
HETATM   12  O   UNL     1     -10.479   8.678  70.122  1.00  0.00    -0.206 OA 
BRANCH  10  13
HETATM   13  C   UNL     1     -11.093   6.396  69.596  1.00  0.00    -0.401 C  
HETATM   14  H   UNL     1     -10.701   4.478  69.192  1.00  0.00     0.000 HD 
HETATM   15  O   UNL     1     -10.528   5.104  69.885  1.00  0.00    -0.295 OA 
BRANCH  13  16
HETATM   16  C   UNL     1     -10.603   6.842  68.214  1.00  0.00    -0.230 C  
HETATM   17  O   UNL     1     -11.526   6.353  67.230  1.00  0.00    -0.714 OA 
HETATM   18  H   UNL     1     -11.222   6.629  66.373  1.00  0.00     0.000 HD 
ENDBRANCH  13  16
ENDBRANCH  10  13
ENDBRANCH   7  10
ENDBRANCH   4   7
ENDBRANCH   2   4
TORSDOF 5
ENDMDL
MODEL       61
REMARK 921   NORMALIZED FREE ENERGY PREDICTED BY IDOCK:   -3.57 KCAL/MOL
REMARK 922        TOTAL FREE ENERGY PREDICTED BY IDOCK:   -5.46 KCAL/MOL
REMARK 923 INTER-LIGAND FREE ENERGY PREDICTED BY IDOCK:   -4.58 KCAL/MOL
REMARK 924 INTRA-LIGAND FREE ENERGY PREDICTED BY IDOCK:   -0.88 KCAL/MOL
REMARK 927      BINDING AFFINITY PREDICTED BY RF-SCORE:    0.00 PKD
ROOT
HETATM    1  O   UNL     1      -7.975  10.736  64.828  1.00  0.00    -0.353 OA 
HETATM    2  C   UNL     1      -7.975  11.009  66.236  1.00  0.00    -0.148 C  
HETATM    3  H   UNL     1      -7.083  10.618  64.521  1.00  0.00     0.000 HD 
ENDROOT
BRANCH   2   4
HETATM    4  C   UNL     1      -9.412  11.199  66.730  1.00  0.00    -0.184 C  
HETATM    5  H   UNL     1     -11.056  10.110  66.768  1.00  0.00     0.000 HD 
HETATM    6  O   UNL     1     -10.165   9.992  66.461  1.00  0.00    -0.228 OA 
BRANCH   4   7
HETATM    7  C   UNL     1     -10.195  12.339  66.049  1.00  0.00    -0.243 C  
HETATM    8  O   UNL     1      -9.271  13.391  65.719  1.00  0.00    -0.460 OA 
HETATM    9  H   UNL     1      -9.754  14.093  65.299  1.00  0.00     0.000 HD 
BRANCH   7  10
HETATM   10  C   UNL     1     -11.043  11.982  64.811  1.00  0.00    -0.317 C  
HETATM   11  H   UNL     1     -10.857  12.049  62.831  1.00  0.00     0.000 HD 
HETATM   12  O   UNL     1     -10.335  12.269  63.593  1.00  0.00    -0.412 OA 
BRANCH  10  13
HETATM   13  C   UNL     1     -12.442  12.626  64.730  1.00  0.00    -0.484 C  
HETATM   14  H   UNL     1     -13.844  12.973  63.348  1.00  0.00     0.000 HD 
HETATM   15  O   UNL     1     -12.983  12.577  63.397  1.00  0.00    -0.685 OA 
BRANCH  13  16
HETATM   16  C   UNL     1     -12.491  14.078  65.220  1.00  0.00    -0.475 C  
HETATM   17  O   UNL     1     -11.651  14.868  64.365  1.00  0.00    -0.592 OA 
HETATM   18  H   UNL     1     -11.681  15.768  64.668  1.00  0.00     0.000 HD 
ENDBRANCH  13  16
ENDBRANCH  10  13
ENDBRANCH   7  10
ENDBRANCH   4   7
ENDBRANCH   2   4
TORSDOF 5
ENDMDL
MODEL       62
REMARK 921   NORMALIZED FREE ENERGY PREDICTED BY IDOCK:   -3.57 KCAL/MOL
REMARK 922        TOTAL FREE ENERGY PREDICTED BY IDOCK:   -5.45 KCAL/MOL
REMARK 923 INTER-LIGAND FREE ENERGY PREDICTED BY IDOCK:   -5.05 KCAL/MOL
REMARK 924 INTRA-LIGAND FREE ENERGY PREDICTED BY IDOCK:   -0.40 KCAL/MOL
REMARK 927      BINDING AFFINITY PREDICTED BY RF-SCORE:    0.00 PKD
ROOT
HETATM    1  O   UNL     1      -9.684  11.588  69.350  1.00  0.00    -0.390 OA 
HETATM    2  C   UNL     1     -10.968  11.741  68.728  1.00  0.00    -0.234 C  
HETATM    3  H   UNL     1      -9.566  10.688  69.632  1.00  0.00     0.000 HD 
ENDROOT
BRANCH   2   4
HETATM    4  C   UNL     1     -11.158  13.192  68.274  1.00  0.00    -0.266 C  
HETATM    5  H   UNL     1     -12.264  14.723  68.841  1.00  0.00     0.000 HD 
HETATM    6  O   UNL     1     -12.147  13.824  69.122  1.00  0.00    -0.346 OA 
BRANCH   4   7
HETATM    7  C   UNL     1     -11.672  13.366  66.831  1.00  0.00    -0.389 C  
HETATM    8  O   UNL     1     -12.455  14.571  66.770  1.00  0.00    -0.519 OA 
HETATM    9  H   UNL     1     -12.772  14.678  65.881  1.00  0.00     0.000 HD 
BRANCH   7  10
HETATM   10  C   UNL     1     -10.628  13.364  65.695  1.00  0.00    -0.282 C  
HETATM   11  H   UNL     1      -9.844  14.671  64.416  1.00  0.00     0.000 HD 
HETATM   12  O   UNL     1     -10.487  14.672  65.115  1.00  0.00    -0.365 OA 
BRANCH  10  13
HETATM   13  C   UNL     1     -10.851  12.342  64.562  1.00  0.00    -0.321 C  
HETATM   14  H   UNL     1      -9.969  11.800  62.853  1.00  0.00     0.000 HD 
HETATM   15  O   UNL     1      -9.831  12.429  63.550  1.00  0.00    -0.354 OA 
BRANCH  13  16
HETATM   16  C   UNL     1     -12.220  12.453  63.882  1.00  0.00    -0.513 C  
HETATM   17  O   UNL     1     -12.288  13.722  63.214  1.00  0.00    -1.069 OA 
HETATM   18  H   UNL     1     -13.136  13.791  62.792  1.00  0.00     0.000 HD 
ENDBRANCH  13  16
ENDBRANCH  10  13
ENDBRANCH   7  10
ENDBRANCH   4   7
ENDBRANCH   2   4
TORSDOF 5
ENDMDL
MODEL       63
REMARK 921   NORMALIZED FREE ENERGY PREDICTED BY IDOCK:   -3.56 KCAL/MOL
REMARK 922        TOTAL FREE ENERGY PREDICTED BY IDOCK:   -5.45 KCAL/MOL
REMARK 923 INTER-LIGAND FREE ENERGY PREDICTED BY IDOCK:   -4.75 KCAL/MOL
REMARK 924 INTRA-LIGAND FREE ENERGY PREDICTED BY IDOCK:   -0.70 KCAL/MOL
REMARK 927      BINDING AFFINITY PREDICTED BY RF-SCORE:    0.00 PKD
ROOT
HETATM    1  O   UNL     1     -14.236   8.985  73.304  1.00  0.00    -1.192 OA 
HETATM    2  C   UNL     1     -13.875   9.337  71.962  1.00  0.00    -0.382 C  
HETATM    3  H   UNL     1     -15.158   8.756  73.341  1.00  0.00     0.000 HD 
ENDROOT
BRANCH   2   4
HETATM    4  C   UNL     1     -12.389   9.706  71.902  1.00  0.00    -0.357 C  
HETATM    5  H   UNL     1     -11.172  10.482  70.557  1.00  0.00     0.000 HD 
HETATM    6  O   UNL     1     -12.093  10.253  70.594  1.00  0.00    -0.291 OA 
BRANCH   4   7
HETATM    7  C   UNL     1     -11.412   8.529  72.092  1.00  0.00    -0.376 C  
HETATM    8  O   UNL     1     -11.768   7.833  73.299  1.00  0.00    -0.659 OA 
HETATM    9  H   UNL     1     -11.166   7.108  73.416  1.00  0.00     0.000 HD 
BRANCH   7  10
HETATM   10  C   UNL     1     -11.272   7.522  70.931  1.00  0.00    -0.269 C  
HETATM   11  H   UNL     1     -11.503   5.567  70.645  1.00  0.00     0.000 HD 
HETATM   12  O   UNL     1     -11.589   6.187  71.359  1.00  0.00    -0.289 OA 
BRANCH  10  13
HETATM   13  C   UNL     1      -9.912   7.498  70.206  1.00  0.00    -0.192 C  
HETATM   14  H   UNL     1      -8.141   8.417  70.332  1.00  0.00     0.000 HD 
HETATM   15  O   UNL     1      -8.978   8.432  70.779  1.00  0.00    -0.140 OA 
BRANCH  13  16
HETATM   16  C   UNL     1     -10.003   7.768  68.700  1.00  0.00    -0.182 C  
HETATM   17  O   UNL     1     -10.800   8.945  68.501  1.00  0.00    -0.418 OA 
HETATM   18  H   UNL     1     -10.856   9.112  67.568  1.00  0.00     0.000 HD 
ENDBRANCH  13  16
ENDBRANCH  10  13
ENDBRANCH   7  10
ENDBRANCH   4   7
ENDBRANCH   2   4
TORSDOF 5
ENDMDL
MODEL       64
REMARK 921   NORMALIZED FREE ENERGY PREDICTED BY IDOCK:   -3.56 KCAL/MOL
REMARK 922        TOTAL FREE ENERGY PREDICTED BY IDOCK:   -5.45 KCAL/MOL
REMARK 923 INTER-LIGAND FREE ENERGY PREDICTED BY IDOCK:   -4.84 KCAL/MOL
REMARK 924 INTRA-LIGAND FREE ENERGY PREDICTED BY IDOCK:   -0.60 KCAL/MOL
REMARK 927      BINDING AFFINITY PREDICTED BY RF-SCORE:    0.00 PKD
ROOT
HETATM    1  O   UNL     1      -9.519  15.080  65.359  1.00  0.00    -0.419 OA 
HETATM    2  C   UNL     1     -10.801  15.461  64.841  1.00  0.00    -0.425 C  
HETATM    3  H   UNL     1      -9.021  15.855  65.592  1.00  0.00     0.000 HD 
ENDROOT
BRANCH   2   4
HETATM    4  C   UNL     1     -11.604  14.211  64.465  1.00  0.00    -0.389 C  
HETATM    5  H   UNL     1     -12.860  13.710  63.029  1.00  0.00     0.000 HD 
HETATM    6  O   UNL     1     -12.362  14.485  63.262  1.00  0.00    -0.460 OA 
BRANCH   4   7
HETATM    7  C   UNL     1     -12.637  13.755  65.515  1.00  0.00    -0.512 C  
HETATM    8  O   UNL     1     -13.220  12.518  65.070  1.00  0.00    -0.700 OA 
HETATM    9  H   UNL     1     -13.857  12.237  65.717  1.00  0.00     0.000 HD 
BRANCH   7  10
HETATM   10  C   UNL     1     -12.156  13.610  66.974  1.00  0.00    -0.380 C  
HETATM   11  H   UNL     1     -11.419  14.782  68.403  1.00  0.00     0.000 HD 
HETATM   12  O   UNL     1     -11.715  14.871  67.505  1.00  0.00    -0.360 OA 
BRANCH  10  13
HETATM   13  C   UNL     1     -11.061  12.555  67.232  1.00  0.00    -0.274 C  
HETATM   14  H   UNL     1     -10.938  10.589  67.571  1.00  0.00     0.000 HD 
HETATM   15  O   UNL     1     -11.612  11.238  67.412  1.00  0.00    -0.519 OA 
BRANCH  13  16
HETATM   16  C   UNL     1     -10.161  12.872  68.432  1.00  0.00    -0.227 C  
HETATM   17  O   UNL     1      -9.086  13.708  67.980  1.00  0.00    -0.178 OA 
HETATM   18  H   UNL     1      -8.528  13.904  68.723  1.00  0.00     0.000 HD 
ENDBRANCH  13  16
ENDBRANCH  10  13
ENDBRANCH   7  10
ENDBRANCH   4   7
ENDBRANCH   2   4
TORSDOF 5
ENDMDL
MODEL       65
REMARK 921   NORMALIZED FREE ENERGY PREDICTED BY IDOCK:   -3.53 KCAL/MOL
REMARK 922        TOTAL FREE ENERGY PREDICTED BY IDOCK:   -5.40 KCAL/MOL
REMARK 923 INTER-LIGAND FREE ENERGY PREDICTED BY IDOCK:   -4.59 KCAL/MOL
REMARK 924 INTRA-LIGAND FREE ENERGY PREDICTED BY IDOCK:   -0.81 KCAL/MOL
REMARK 927      BINDING AFFINITY PREDICTED BY RF-SCORE:    0.00 PKD
ROOT
HETATM    1  O   UNL     1     -14.258   8.847  73.335  1.00  0.00    -1.241 OA 
HETATM    2  C   UNL     1     -13.708   9.141  72.044  1.00  0.00    -0.448 C  
HETATM    3  H   UNL     1     -15.099   9.278  73.434  1.00  0.00     0.000 HD 
ENDROOT
BRANCH   2   4
HETATM    4  C   UNL     1     -12.352   8.446  71.885  1.00  0.00    -0.347 C  
HETATM    5  H   UNL     1     -10.811   8.602  70.662  1.00  0.00     0.000 HD 
HETATM    6  O   UNL     1     -11.652   9.033  70.761  1.00  0.00    -0.276 OA 
BRANCH   4   7
HETATM    7  C   UNL     1     -12.419   6.934  71.590  1.00  0.00    -0.375 C  
HETATM    8  O   UNL     1     -12.282   6.740  70.172  1.00  0.00    -0.634 OA 
HETATM    9  H   UNL     1     -12.324   5.809  69.991  1.00  0.00     0.000 HD 
BRANCH   7  10
HETATM   10  C   UNL     1     -11.432   6.016  72.340  1.00  0.00    -0.308 C  
HETATM   11  H   UNL     1     -10.110   6.174  73.820  1.00  0.00     0.000 HD 
HETATM   12  O   UNL     1     -10.718   6.738  73.357  1.00  0.00    -0.292 OA 
BRANCH  10  13
HETATM   13  C   UNL     1     -10.413   5.251  71.472  1.00  0.00    -0.210 C  
HETATM   14  H   UNL     1      -9.574   3.437  71.410  1.00  0.00     0.000 HD 
HETATM   15  O   UNL     1     -10.201   3.908  71.945  1.00  0.00    -0.161 OA 
BRANCH  13  16
HETATM   16  C   UNL     1      -9.051   5.943  71.352  1.00  0.00    -0.140 C  
HETATM   17  O   UNL     1      -9.249   7.219  70.725  1.00  0.00    -0.156 OA 
HETATM   18  H   UNL     1      -8.404   7.647  70.651  1.00  0.00     0.000 HD 
ENDBRANCH  13  16
ENDBRANCH  10  13
ENDBRANCH   7  10
ENDBRANCH   4   7
ENDBRANCH   2   4
TORSDOF 5
ENDMDL
MODEL       66
REMARK 921   NORMALIZED FREE ENERGY PREDICTED BY IDOCK:   -3.52 KCAL/MOL
REMARK 922        TOTAL FREE ENERGY PREDICTED BY IDOCK:   -5.39 KCAL/MOL
REMARK 923 INTER-LIGAND FREE ENERGY PREDICTED BY IDOCK:   -5.01 KCAL/MOL
REMARK 924 INTRA-LIGAND FREE ENERGY PREDICTED BY IDOCK:   -0.38 KCAL/MOL
REMARK 927      BINDING AFFINITY PREDICTED BY RF-SCORE:    0.00 PKD
ROOT
HETATM    1  O   UNL     1      -6.675  19.774  68.027  1.00  0.00    -0.238 OA 
HETATM    2  C   UNL     1      -7.653  18.785  68.376  1.00  0.00    -0.301 C  
HETATM    3  H   UNL     1      -6.027  19.847  68.719  1.00  0.00     0.000 HD 
ENDROOT
BRANCH   2   4
HETATM    4  C   UNL     1      -8.697  18.668  67.260  1.00  0.00    -0.270 C  
HETATM    5  H   UNL     1      -9.661  19.920  66.081  1.00  0.00     0.000 HD 
HETATM    6  O   UNL     1      -9.015  19.994  66.773  1.00  0.00    -0.328 OA 
BRANCH   4   7
HETATM    7  C   UNL     1     -10.042  18.044  67.683  1.00  0.00    -0.347 C  
HETATM    8  O   UNL     1     -11.068  19.042  67.545  1.00  0.00    -0.381 OA 
HETATM    9  H   UNL     1     -11.897  18.658  67.805  1.00  0.00     0.000 HD 
BRANCH   7  10
HETATM   10  C   UNL     1     -10.480  16.744  66.976  1.00  0.00    -0.285 C  
HETATM   11  H   UNL     1      -9.954  14.825  66.969  1.00  0.00     0.000 HD 
HETATM   12  O   UNL     1      -9.685  15.625  67.404  1.00  0.00    -0.221 OA 
BRANCH  10  13
HETATM   13  C   UNL     1     -10.498  16.776  65.434  1.00  0.00    -0.193 C  
HETATM   14  H   UNL     1     -11.100  18.004  63.977  1.00  0.00     0.000 HD 
HETATM   15  O   UNL     1     -11.089  17.986  64.927  1.00  0.00    -0.738 OA 
BRANCH  13  16
HETATM   16  C   UNL     1     -11.214  15.581  64.794  1.00  0.00    -0.390 C  
HETATM   17  O   UNL     1     -12.089  16.078  63.770  1.00  0.00    -1.318 OA 
HETATM   18  H   UNL     1     -12.533  15.338  63.374  1.00  0.00     0.000 HD 
ENDBRANCH  13  16
ENDBRANCH  10  13
ENDBRANCH   7  10
ENDBRANCH   4   7
ENDBRANCH   2   4
TORSDOF 5
ENDMDL
MODEL       67
REMARK 921   NORMALIZED FREE ENERGY PREDICTED BY IDOCK:   -3.51 KCAL/MOL
REMARK 922        TOTAL FREE ENERGY PREDICTED BY IDOCK:   -5.38 KCAL/MOL
REMARK 923 INTER-LIGAND FREE ENERGY PREDICTED BY IDOCK:   -4.60 KCAL/MOL
REMARK 924 INTRA-LIGAND FREE ENERGY PREDICTED BY IDOCK:   -0.78 KCAL/MOL
REMARK 927      BINDING AFFINITY PREDICTED BY RF-SCORE:    0.00 PKD
ROOT
HETATM    1  O   UNL     1     -12.464  12.543  65.567  1.00  0.00    -0.646 OA 
HETATM    2  C   UNL     1     -12.150  13.881  65.976  1.00  0.00    -0.437 C  
HETATM    3  H   UNL     1     -12.500  12.494  64.619  1.00  0.00     0.000 HD 
ENDROOT
BRANCH   2   4
HETATM    4  C   UNL     1     -12.093  13.959  67.505  1.00  0.00    -0.331 C  
HETATM    5  H   UNL     1     -11.837  15.384  68.844  1.00  0.00     0.000 HD 
HETATM    6  O   UNL     1     -11.873  15.336  67.896  1.00  0.00    -0.303 OA 
BRANCH   4   7
HETATM    7  C   UNL     1     -10.955  13.152  68.161  1.00  0.00    -0.251 C  
HETATM    8  O   UNL     1     -10.171  14.046  68.969  1.00  0.00    -0.368 OA 
HETATM    9  H   UNL     1      -9.470  13.548  69.374  1.00  0.00     0.000 HD 
BRANCH   7  10
HETATM   10  C   UNL     1     -11.346  11.909  68.987  1.00  0.00    -0.279 C  
HETATM   11  H   UNL     1     -12.066  10.085  68.648  1.00  0.00     0.000 HD 
HETATM   12  O   UNL     1     -11.826  10.850  68.141  1.00  0.00    -0.564 OA 
BRANCH  10  13
HETATM   13  C   UNL     1     -12.366  12.133  70.121  1.00  0.00    -0.145 C  
HETATM   14  H   UNL     1     -12.775  13.518  71.504  1.00  0.00     0.000 HD 
HETATM   15  O   UNL     1     -12.146  13.381  70.805  1.00  0.00    -0.342 OA 
BRANCH  13  16
HETATM   16  C   UNL     1     -12.400  11.009  71.163  1.00  0.00    -0.359 C  
HETATM   17  O   UNL     1     -13.059   9.875  70.579  1.00  0.00    -0.577 OA 
HETATM   18  H   UNL     1     -13.080   9.179  71.224  1.00  0.00     0.000 HD 
ENDBRANCH  13  16
ENDBRANCH  10  13
ENDBRANCH   7  10
ENDBRANCH   4   7
ENDBRANCH   2   4
TORSDOF 5
ENDMDL
MODEL       68
REMARK 921   NORMALIZED FREE ENERGY PREDICTED BY IDOCK:   -3.51 KCAL/MOL
REMARK 922        TOTAL FREE ENERGY PREDICTED BY IDOCK:   -5.38 KCAL/MOL
REMARK 923 INTER-LIGAND FREE ENERGY PREDICTED BY IDOCK:   -4.97 KCAL/MOL
REMARK 924 INTRA-LIGAND FREE ENERGY PREDICTED BY IDOCK:   -0.41 KCAL/MOL
REMARK 927      BINDING AFFINITY PREDICTED BY RF-SCORE:    0.00 PKD
ROOT
HETATM    1  O   UNL     1     -12.389  13.956  63.186  1.00  0.00    -1.122 OA 
HETATM    2  C   UNL     1     -12.368  14.813  64.335  1.00  0.00    -0.368 C  
HETATM    3  H   UNL     1     -12.834  14.389  62.467  1.00  0.00     0.000 HD 
ENDROOT
BRANCH   2   4
HETATM    4  C   UNL     1     -11.649  14.114  65.494  1.00  0.00    -0.337 C  
HETATM    5  H   UNL     1     -10.566  14.682  67.041  1.00  0.00     0.000 HD 
HETATM    6  O   UNL     1     -11.011  15.115  66.323  1.00  0.00    -0.337 OA 
BRANCH   4   7
HETATM    7  C   UNL     1     -10.529  13.140  65.080  1.00  0.00    -0.342 C  
HETATM    8  O   UNL     1      -9.295  13.592  65.662  1.00  0.00    -0.478 OA 
HETATM    9  H   UNL     1      -8.604  12.991  65.406  1.00  0.00     0.000 HD 
BRANCH   7  10
HETATM   10  C   UNL     1     -10.734  11.642  65.390  1.00  0.00    -0.287 C  
HETATM   11  H   UNL     1     -10.764  10.463  66.993  1.00  0.00     0.000 HD 
HETATM   12  O   UNL     1     -10.637  11.384  66.801  1.00  0.00    -0.233 OA 
BRANCH  10  13
HETATM   13  C   UNL     1      -9.814  10.655  64.644  1.00  0.00    -0.321 C  
HETATM   14  H   UNL     1      -7.865  10.222  64.544  1.00  0.00     0.000 HD 
HETATM   15  O   UNL     1      -8.432  10.830  65.004  1.00  0.00    -0.163 OA 
BRANCH  13  16
HETATM   16  C   UNL     1      -9.929  10.727  63.117  1.00  0.00    -0.290 C  
HETATM   17  O   UNL     1     -11.228  11.243  62.788  1.00  0.00    -0.692 OA 
HETATM   18  H   UNL     1     -11.299  11.287  61.842  1.00  0.00     0.000 HD 
ENDBRANCH  13  16
ENDBRANCH  10  13
ENDBRANCH   7  10
ENDBRANCH   4   7
ENDBRANCH   2   4
TORSDOF 5
ENDMDL
MODEL       69
REMARK 921   NORMALIZED FREE ENERGY PREDICTED BY IDOCK:   -3.51 KCAL/MOL
REMARK 922        TOTAL FREE ENERGY PREDICTED BY IDOCK:   -5.38 KCAL/MOL
REMARK 923 INTER-LIGAND FREE ENERGY PREDICTED BY IDOCK:   -4.62 KCAL/MOL
REMARK 924 INTRA-LIGAND FREE ENERGY PREDICTED BY IDOCK:   -0.76 KCAL/MOL
REMARK 927      BINDING AFFINITY PREDICTED BY RF-SCORE:    0.00 PKD
ROOT
HETATM    1  O   UNL     1      -9.451  13.820  68.271  1.00  0.00    -0.207 OA 
HETATM    2  C   UNL     1     -10.494  12.923  67.865  1.00  0.00    -0.224 C  
HETATM    3  H   UNL     1      -8.604  13.411  68.140  1.00  0.00     0.000 HD 
ENDROOT
BRANCH   2   4
HETATM    4  C   UNL     1     -11.861  13.581  68.077  1.00  0.00    -0.365 C  
HETATM    5  H   UNL     1     -12.705  15.292  67.576  1.00  0.00     0.000 HD 
HETATM    6  O   UNL     1     -11.857  14.884  67.445  1.00  0.00    -0.348 OA 
BRANCH   4   7
HETATM    7  C   UNL     1     -12.247  13.833  69.548  1.00  0.00    -0.293 C  
HETATM    8  O   UNL     1     -11.471  12.953  70.379  1.00  0.00    -0.499 OA 
HETATM    9  H   UNL     1     -11.709  13.108  71.286  1.00  0.00     0.000 HD 
BRANCH   7  10
HETATM   10  C   UNL     1     -12.142  15.278  70.077  1.00  0.00    -0.352 C  
HETATM   11  H   UNL     1     -10.704  16.570  70.552  1.00  0.00     0.000 HD 
HETATM   12  O   UNL     1     -10.769  15.680  70.226  1.00  0.00    -0.311 OA 
BRANCH  10  13
HETATM   13  C   UNL     1     -12.890  15.583  71.391  1.00  0.00    -0.465 C  
HETATM   14  H   UNL     1     -12.547  15.482  73.358  1.00  0.00     0.000 HD 
HETATM   15  O   UNL     1     -12.086  15.294  72.549  1.00  0.00    -0.351 OA 
BRANCH  13  16
HETATM   16  C   UNL     1     -14.227  14.847  71.533  1.00  0.00    -0.527 C  
HETATM   17  O   UNL     1     -14.134  13.959  72.657  1.00  0.00    -0.679 OA 
HETATM   18  H   UNL     1     -14.962  13.503  72.744  1.00  0.00     0.000 HD 
ENDBRANCH  13  16
ENDBRANCH  10  13
ENDBRANCH   7  10
ENDBRANCH   4   7
ENDBRANCH   2   4
TORSDOF 5
ENDMDL
MODEL       70
REMARK 921   NORMALIZED FREE ENERGY PREDICTED BY IDOCK:   -3.49 KCAL/MOL
REMARK 922        TOTAL FREE ENERGY PREDICTED BY IDOCK:   -5.36 KCAL/MOL
REMARK 923 INTER-LIGAND FREE ENERGY PREDICTED BY IDOCK:   -4.94 KCAL/MOL
REMARK 924 INTRA-LIGAND FREE ENERGY PREDICTED BY IDOCK:   -0.42 KCAL/MOL
REMARK 927      BINDING AFFINITY PREDICTED BY RF-SCORE:    0.00 PKD
ROOT
HETATM    1  O   UNL     1     -11.872  16.502  71.217  1.00  0.00    -0.626 OA 
HETATM    2  C   UNL     1     -11.273  15.259  70.825  1.00  0.00    -0.318 C  
HETATM    3  H   UNL     1     -11.306  16.953  71.832  1.00  0.00     0.000 HD 
ENDROOT
BRANCH   2   4
HETATM    4  C   UNL     1     -12.185  14.531  69.832  1.00  0.00    -0.328 C  
HETATM    5  H   UNL     1     -12.356  12.688  69.149  1.00  0.00     0.000 HD 
HETATM    6  O   UNL     1     -11.790  13.139  69.765  1.00  0.00    -0.307 OA 
BRANCH   4   7
HETATM    7  C   UNL     1     -12.126  15.052  68.383  1.00  0.00    -0.104 C  
HETATM    8  O   UNL     1     -11.273  16.209  68.350  1.00  0.00    -0.345 OA 
HETATM    9  H   UNL     1     -11.237  16.530  67.457  1.00  0.00     0.000 HD 
BRANCH   7  10
HETATM   10  C   UNL     1     -11.699  14.057  67.283  1.00  0.00    -0.389 C  
HETATM   11  H   UNL     1     -10.077  13.674  66.196  1.00  0.00     0.000 HD 
HETATM   12  O   UNL     1     -10.340  14.286  66.873  1.00  0.00    -0.265 OA 
BRANCH  10  13
HETATM   13  C   UNL     1     -12.591  14.001  66.027  1.00  0.00    -0.414 C  
HETATM   14  H   UNL     1     -13.168  12.651  64.669  1.00  0.00     0.000 HD 
HETATM   15  O   UNL     1     -12.618  12.686  65.443  1.00  0.00    -0.641 OA 
BRANCH  13  16
HETATM   16  C   UNL     1     -12.199  15.006  64.937  1.00  0.00    -0.148 C  
HETATM   17  O   UNL     1     -12.296  14.349  63.664  1.00  0.00    -1.051 OA 
HETATM   18  H   UNL     1     -12.053  14.972  62.990  1.00  0.00     0.000 HD 
ENDBRANCH  13  16
ENDBRANCH  10  13
ENDBRANCH   7  10
ENDBRANCH   4   7
ENDBRANCH   2   4
TORSDOF 5
ENDMDL
MODEL       71
REMARK 921   NORMALIZED FREE ENERGY PREDICTED BY IDOCK:   -3.49 KCAL/MOL
REMARK 922        TOTAL FREE ENERGY PREDICTED BY IDOCK:   -5.36 KCAL/MOL
REMARK 923 INTER-LIGAND FREE ENERGY PREDICTED BY IDOCK:   -5.04 KCAL/MOL
REMARK 924 INTRA-LIGAND FREE ENERGY PREDICTED BY IDOCK:   -0.32 KCAL/MOL
REMARK 927      BINDING AFFINITY PREDICTED BY RF-SCORE:    0.00 PKD
ROOT
HETATM    1  O   UNL     1     -11.990  10.801  67.965  1.00  0.00    -0.780 OA 
HETATM    2  C   UNL     1     -11.219  11.284  66.856  1.00  0.00    -0.230 C  
HETATM    3  H   UNL     1     -11.687   9.937  68.218  1.00  0.00     0.000 HD 
ENDROOT
BRANCH   2   4
HETATM    4  C   UNL     1     -11.707  12.678  66.449  1.00  0.00    -0.405 C  
HETATM    5  H   UNL     1     -12.883  13.417  65.048  1.00  0.00     0.000 HD 
HETATM    6  O   UNL     1     -12.580  12.552  65.300  1.00  0.00    -0.645 OA 
BRANCH   4   7
HETATM    7  C   UNL     1     -10.600  13.664  66.025  1.00  0.00    -0.290 C  
HETATM    8  O   UNL     1     -10.029  13.203  64.789  1.00  0.00    -0.541 OA 
HETATM    9  H   UNL     1      -9.347  13.810  64.528  1.00  0.00     0.000 HD 
BRANCH   7  10
HETATM   10  C   UNL     1     -10.980  15.154  65.901  1.00  0.00    -0.339 C  
HETATM   11  H   UNL     1     -11.646  16.389  64.489  1.00  0.00     0.000 HD 
HETATM   12  O   UNL     1     -11.411  15.472  64.566  1.00  0.00    -0.408 OA 
BRANCH  10  13
HETATM   13  C   UNL     1      -9.905  16.173  66.328  1.00  0.00    -0.307 C  
HETATM   14  H   UNL     1      -8.432  16.308  67.672  1.00  0.00     0.000 HD 
HETATM   15  O   UNL     1      -9.094  15.680  67.409  1.00  0.00    -0.189 OA 
BRANCH  13  16
HETATM   16  C   UNL     1     -10.467  17.542  66.729  1.00  0.00    -0.270 C  
HETATM   17  O   UNL     1     -10.653  18.319  65.536  1.00  0.00    -0.632 OA 
HETATM   18  H   UNL     1     -11.000  19.167  65.785  1.00  0.00     0.000 HD 
ENDBRANCH  13  16
ENDBRANCH  10  13
ENDBRANCH   7  10
ENDBRANCH   4   7
ENDBRANCH   2   4
TORSDOF 5
ENDMDL
MODEL       72
REMARK 921   NORMALIZED FREE ENERGY PREDICTED BY IDOCK:   -3.47 KCAL/MOL
REMARK 922        TOTAL FREE ENERGY PREDICTED BY IDOCK:   -5.33 KCAL/MOL
REMARK 923 INTER-LIGAND FREE ENERGY PREDICTED BY IDOCK:   -5.11 KCAL/MOL
REMARK 924 INTRA-LIGAND FREE ENERGY PREDICTED BY IDOCK:   -0.22 KCAL/MOL
REMARK 927      BINDING AFFINITY PREDICTED BY RF-SCORE:    0.00 PKD
ROOT
HETATM    1  O   UNL     1     -10.513  12.764  67.225  1.00  0.00    -0.231 OA 
HETATM    2  C   UNL     1     -11.535  12.219  66.380  1.00  0.00    -0.378 C  
HETATM    3  H   UNL     1      -9.995  12.062  67.601  1.00  0.00     0.000 HD 
ENDROOT
BRANCH   2   4
HETATM    4  C   UNL     1     -12.370  13.351  65.774  1.00  0.00    -0.460 C  
HETATM    5  H   UNL     1     -13.889  13.481  64.522  1.00  0.00     0.000 HD 
HETATM    6  O   UNL     1     -13.371  12.779  64.898  1.00  0.00    -0.736 OA 
BRANCH   4   7
HETATM    7  C   UNL     1     -11.583  14.356  64.909  1.00  0.00    -0.395 C  
HETATM    8  O   UNL     1     -12.140  14.348  63.583  1.00  0.00    -0.873 OA 
HETATM    9  H   UNL     1     -11.655  14.967  63.050  1.00  0.00     0.000 HD 
BRANCH   7  10
HETATM   10  C   UNL     1     -11.475  15.808  65.420  1.00  0.00     0.086 C  
HETATM   11  H   UNL     1     -11.333  17.634  64.643  1.00  0.00     0.000 HD 
HETATM   12  O   UNL     1     -11.399  16.741  64.329  1.00  0.00    -1.170 OA 
BRANCH  10  13
HETATM   13  C   UNL     1     -10.325  16.104  66.403  1.00  0.00    -0.315 C  
HETATM   14  H   UNL     1      -9.857  17.479  67.777  1.00  0.00     0.000 HD 
HETATM   15  O   UNL     1     -10.565  17.297  67.171  1.00  0.00    -0.324 OA 
BRANCH  13  16
HETATM   16  C   UNL     1      -8.950  16.226  65.737  1.00  0.00    -0.030 C  
HETATM   17  O   UNL     1      -8.090  15.221  66.294  1.00  0.00    -0.284 OA 
HETATM   18  H   UNL     1      -7.238  15.296  65.881  1.00  0.00     0.000 HD 
ENDBRANCH  13  16
ENDBRANCH  10  13
ENDBRANCH   7  10
ENDBRANCH   4   7
ENDBRANCH   2   4
TORSDOF 5
ENDMDL
MODEL       73
REMARK 921   NORMALIZED FREE ENERGY PREDICTED BY IDOCK:   -3.47 KCAL/MOL
REMARK 922        TOTAL FREE ENERGY PREDICTED BY IDOCK:   -5.33 KCAL/MOL
REMARK 923 INTER-LIGAND FREE ENERGY PREDICTED BY IDOCK:   -4.55 KCAL/MOL
REMARK 924 INTRA-LIGAND FREE ENERGY PREDICTED BY IDOCK:   -0.78 KCAL/MOL
REMARK 927      BINDING AFFINITY PREDICTED BY RF-SCORE:    0.00 PKD
ROOT
HETATM    1  O   UNL     1     -14.155   8.737  73.299  1.00  0.00    -1.180 OA 
HETATM    2  C   UNL     1     -13.949   9.279  71.987  1.00  0.00    -0.327 C  
HETATM    3  H   UNL     1     -15.073   8.526  73.422  1.00  0.00     0.000 HD 
ENDROOT
BRANCH   2   4
HETATM    4  C   UNL     1     -12.469   9.618  71.789  1.00  0.00    -0.402 C  
HETATM    5  H   UNL     1     -11.375  10.414  70.353  1.00  0.00     0.000 HD 
HETATM    6  O   UNL     1     -12.293  10.204  70.476  1.00  0.00    -0.281 OA 
BRANCH   4   7
HETATM    7  C   UNL     1     -11.507   8.414  71.841  1.00  0.00    -0.318 C  
HETATM    8  O   UNL     1     -11.298   8.058  73.218  1.00  0.00    -0.436 OA 
HETATM    9  H   UNL     1     -10.705   7.317  73.250  1.00  0.00     0.000 HD 
BRANCH   7  10
HETATM   10  C   UNL     1     -11.889   7.159  71.030  1.00  0.00    -0.333 C  
HETATM   11  H   UNL     1     -12.563   5.322  71.393  1.00  0.00     0.000 HD 
HETATM   12  O   UNL     1     -12.327   6.094  71.892  1.00  0.00    -0.251 OA 
BRANCH  10  13
HETATM   13  C   UNL     1     -10.814   6.607  70.072  1.00  0.00    -0.280 C  
HETATM   14  H   UNL     1     -10.697   5.932  68.194  1.00  0.00     0.000 HD 
HETATM   15  O   UNL     1     -11.360   6.271  68.784  1.00  0.00    -0.356 OA 
BRANCH  13  16
HETATM   16  C   UNL     1     -10.063   5.385  70.614  1.00  0.00    -0.231 C  
HETATM   17  O   UNL     1      -9.520   5.724  71.899  1.00  0.00    -0.151 OA 
HETATM   18  H   UNL     1      -9.055   4.967  72.234  1.00  0.00     0.000 HD 
ENDBRANCH  13  16
ENDBRANCH  10  13
ENDBRANCH   7  10
ENDBRANCH   4   7
ENDBRANCH   2   4
TORSDOF 5
ENDMDL
MODEL       74
REMARK 921   NORMALIZED FREE ENERGY PREDICTED BY IDOCK:   -3.47 KCAL/MOL
REMARK 922        TOTAL FREE ENERGY PREDICTED BY IDOCK:   -5.32 KCAL/MOL
REMARK 923 INTER-LIGAND FREE ENERGY PREDICTED BY IDOCK:   -4.97 KCAL/MOL
REMARK 924 INTRA-LIGAND FREE ENERGY PREDICTED BY IDOCK:   -0.36 KCAL/MOL
REMARK 927      BINDING AFFINITY PREDICTED BY RF-SCORE:    0.00 PKD
ROOT
HETATM    1  O   UNL     1     -13.108  13.863  65.527  1.00  0.00    -0.699 OA 
HETATM    2  C   UNL     1     -12.571  14.212  64.243  1.00  0.00    -0.122 C  
HETATM    3  H   UNL     1     -14.044  14.024  65.541  1.00  0.00     0.000 HD 
ENDROOT
BRANCH   2   4
HETATM    4  C   UNL     1     -11.062  13.952  64.220  1.00  0.00    -0.233 C  
HETATM    5  H   UNL     1      -9.895  12.395  63.893  1.00  0.00     0.000 HD 
HETATM    6  O   UNL     1     -10.831  12.557  63.907  1.00  0.00    -0.366 OA 
BRANCH   4   7
HETATM    7  C   UNL     1     -10.331  14.206  65.554  1.00  0.00    -0.351 C  
HETATM    8  O   UNL     1      -9.420  13.118  65.788  1.00  0.00    -0.463 OA 
HETATM    9  H   UNL     1      -8.970  13.275  66.610  1.00  0.00     0.000 HD 
BRANCH   7  10
HETATM   10  C   UNL     1      -9.592  15.550  65.718  1.00  0.00    -0.332 C  
HETATM   11  H   UNL     1      -8.217  16.335  66.924  1.00  0.00     0.000 HD 
HETATM   12  O   UNL     1      -8.673  15.508  66.822  1.00  0.00    -0.223 OA 
BRANCH  10  13
HETATM   13  C   UNL     1     -10.477  16.805  65.861  1.00  0.00    -0.301 C  
HETATM   14  H   UNL     1     -11.515  18.038  64.678  1.00  0.00     0.000 HD 
HETATM   15  O   UNL     1     -10.970  17.265  64.589  1.00  0.00    -1.013 OA 
BRANCH  13  16
HETATM   16  C   UNL     1      -9.787  17.979  66.566  1.00  0.00    -0.353 C  
HETATM   17  O   UNL     1      -8.508  18.185  65.947  1.00  0.00    -0.509 OA 
HETATM   18  H   UNL     1      -8.080  18.912  66.384  1.00  0.00     0.000 HD 
ENDBRANCH  13  16
ENDBRANCH  10  13
ENDBRANCH   7  10
ENDBRANCH   4   7
ENDBRANCH   2   4
TORSDOF 5
ENDMDL
MODEL       75
REMARK 921   NORMALIZED FREE ENERGY PREDICTED BY IDOCK:   -3.45 KCAL/MOL
REMARK 922        TOTAL FREE ENERGY PREDICTED BY IDOCK:   -5.30 KCAL/MOL
REMARK 923 INTER-LIGAND FREE ENERGY PREDICTED BY IDOCK:   -4.24 KCAL/MOL
REMARK 924 INTRA-LIGAND FREE ENERGY PREDICTED BY IDOCK:   -1.06 KCAL/MOL
REMARK 927      BINDING AFFINITY PREDICTED BY RF-SCORE:    0.00 PKD
ROOT
HETATM    1  O   UNL     1      -9.996  12.990  68.755  1.00  0.00    -0.395 OA 
HETATM    2  C   UNL     1     -10.045  11.586  69.046  1.00  0.00    -0.054 C  
HETATM    3  H   UNL     1     -10.165  13.490  69.546  1.00  0.00     0.000 HD 
ENDROOT
BRANCH   2   4
HETATM    4  C   UNL     1      -9.773  10.780  67.772  1.00  0.00    -0.162 C  
HETATM    5  H   UNL     1      -8.308  10.655  66.457  1.00  0.00     0.000 HD 
HETATM    6  O   UNL     1      -8.477  11.155  67.247  1.00  0.00    -0.132 OA 
BRANCH   4   7
HETATM    7  C   UNL     1     -10.773  11.014  66.621  1.00  0.00    -0.249 C  
HETATM    8  O   UNL     1     -12.003  11.505  67.181  1.00  0.00    -0.581 OA 
HETATM    9  H   UNL     1     -12.618  11.649  66.472  1.00  0.00     0.000 HD 
BRANCH   7  10
HETATM   10  C   UNL     1     -10.325  11.927  65.461  1.00  0.00    -0.264 C  
HETATM   11  H   UNL     1     -10.321  13.871  65.037  1.00  0.00     0.000 HD 
HETATM   12  O   UNL     1     -10.597  13.309  65.750  1.00  0.00    -0.276 OA 
BRANCH  10  13
HETATM   13  C   UNL     1     -10.896  11.593  64.068  1.00  0.00    -0.392 C  
HETATM   14  H   UNL     1     -10.237  11.440  62.187  1.00  0.00     0.000 HD 
HETATM   15  O   UNL     1      -9.885  11.646  63.045  1.00  0.00    -0.393 OA 
BRANCH  13  16
HETATM   16  C   UNL     1     -12.064  12.489  63.641  1.00  0.00    -0.554 C  
HETATM   17  O   UNL     1     -13.138  12.302  64.574  1.00  0.00    -0.791 OA 
HETATM   18  H   UNL     1     -13.862  12.857  64.309  1.00  0.00     0.000 HD 
ENDBRANCH  13  16
ENDBRANCH  10  13
ENDBRANCH   7  10
ENDBRANCH   4   7
ENDBRANCH   2   4
TORSDOF 5
ENDMDL
MODEL       76
REMARK 921   NORMALIZED FREE ENERGY PREDICTED BY IDOCK:   -3.45 KCAL/MOL
REMARK 922        TOTAL FREE ENERGY PREDICTED BY IDOCK:   -5.30 KCAL/MOL
REMARK 923 INTER-LIGAND FREE ENERGY PREDICTED BY IDOCK:   -4.54 KCAL/MOL
REMARK 924 INTRA-LIGAND FREE ENERGY PREDICTED BY IDOCK:   -0.76 KCAL/MOL
REMARK 927      BINDING AFFINITY PREDICTED BY RF-SCORE:    0.00 PKD
ROOT
HETATM    1  O   UNL     1     -12.175  12.638  67.307  1.00  0.00    -0.425 OA 
HETATM    2  C   UNL     1     -12.021  12.805  65.890  1.00  0.00    -0.449 C  
HETATM    3  H   UNL     1     -12.666  11.845  67.488  1.00  0.00     0.000 HD 
ENDROOT
BRANCH   2   4
HETATM    4  C   UNL     1     -11.229  14.083  65.599  1.00  0.00    -0.310 C  
HETATM    5  H   UNL     1     -10.005  14.702  64.181  1.00  0.00     0.000 HD 
HETATM    6  O   UNL     1     -10.496  13.909  64.362  1.00  0.00    -0.397 OA 
BRANCH   4   7
HETATM    7  C   UNL     1     -10.174  14.458  66.659  1.00  0.00    -0.277 C  
HETATM    8  O   UNL     1      -8.888  14.524  66.018  1.00  0.00    -0.450 OA 
HETATM    9  H   UNL     1      -8.239  14.755  66.671  1.00  0.00     0.000 HD 
BRANCH   7  10
HETATM   10  C   UNL     1     -10.413  15.741  67.482  1.00  0.00    -0.288 C  
HETATM   11  H   UNL     1     -11.787  16.450  68.735  1.00  0.00     0.000 HD 
HETATM   12  O   UNL     1     -11.640  15.661  68.228  1.00  0.00    -0.362 OA 
BRANCH  10  13
HETATM   13  C   UNL     1     -10.398  17.069  66.699  1.00  0.00    -0.299 C  
HETATM   14  H   UNL     1      -9.256  17.981  65.335  1.00  0.00     0.000 HD 
HETATM   15  O   UNL     1      -9.265  17.163  65.817  1.00  0.00    -0.524 OA 
BRANCH  13  16
HETATM   16  C   UNL     1     -10.424  18.318  67.587  1.00  0.00    -0.411 C  
HETATM   17  O   UNL     1      -9.811  17.989  68.843  1.00  0.00    -0.352 OA 
HETATM   18  H   UNL     1      -9.827  18.763  69.393  1.00  0.00     0.000 HD 
ENDBRANCH  13  16
ENDBRANCH  10  13
ENDBRANCH   7  10
ENDBRANCH   4   7
ENDBRANCH   2   4
TORSDOF 5
ENDMDL
MODEL       77
REMARK 921   NORMALIZED FREE ENERGY PREDICTED BY IDOCK:   -3.40 KCAL/MOL
REMARK 922        TOTAL FREE ENERGY PREDICTED BY IDOCK:   -5.24 KCAL/MOL
REMARK 923 INTER-LIGAND FREE ENERGY PREDICTED BY IDOCK:   -4.59 KCAL/MOL
REMARK 924 INTRA-LIGAND FREE ENERGY PREDICTED BY IDOCK:   -0.65 KCAL/MOL
REMARK 927      BINDING AFFINITY PREDICTED BY RF-SCORE:    0.00 PKD
ROOT
HETATM    1  O   UNL     1     -11.988  14.545  65.344  1.00  0.00    -0.362 OA 
HETATM    2  C   UNL     1     -12.584  13.437  66.033  1.00  0.00    -0.296 C  
HETATM    3  H   UNL     1     -12.623  14.944  64.761  1.00  0.00     0.000 HD 
ENDROOT
BRANCH   2   4
HETATM    4  C   UNL     1     -11.559  12.795  66.973  1.00  0.00    -0.360 C  
HETATM    5  H   UNL     1     -11.578  11.363  68.329  1.00  0.00     0.000 HD 
HETATM    6  O   UNL     1     -12.214  11.761  67.746  1.00  0.00    -0.536 OA 
BRANCH   4   7
HETATM    7  C   UNL     1     -10.927  13.750  68.006  1.00  0.00    -0.250 C  
HETATM    8  O   UNL     1      -9.921  14.535  67.343  1.00  0.00    -0.226 OA 
HETATM    9  H   UNL     1      -9.532  15.123  67.980  1.00  0.00     0.000 HD 
BRANCH   7  10
HETATM   10  C   UNL     1     -11.875  14.676  68.796  1.00  0.00    -0.313 C  
HETATM   11  H   UNL     1     -12.244  16.627  68.939  1.00  0.00     0.000 HD 
HETATM   12  O   UNL     1     -11.661  16.056  68.454  1.00  0.00    -0.364 OA 
BRANCH  10  13
HETATM   13  C   UNL     1     -11.845  14.539  70.331  1.00  0.00    -0.311 C  
HETATM   14  H   UNL     1     -12.238  13.145  71.709  1.00  0.00     0.000 HD 
HETATM   15  O   UNL     1     -12.257  13.229  70.763  1.00  0.00    -0.358 OA 
BRANCH  13  16
HETATM   16  C   UNL     1     -12.693  15.581  71.069  1.00  0.00    -0.467 C  
HETATM   17  O   UNL     1     -13.997  15.606  70.468  1.00  0.00    -0.745 OA 
HETATM   18  H   UNL     1     -14.522  16.252  70.925  1.00  0.00     0.000 HD 
ENDBRANCH  13  16
ENDBRANCH  10  13
ENDBRANCH   7  10
ENDBRANCH   4   7
ENDBRANCH   2   4
TORSDOF 5
ENDMDL
MODEL       78
REMARK 921   NORMALIZED FREE ENERGY PREDICTED BY IDOCK:   -3.38 KCAL/MOL
REMARK 922        TOTAL FREE ENERGY PREDICTED BY IDOCK:   -5.21 KCAL/MOL
REMARK 923 INTER-LIGAND FREE ENERGY PREDICTED BY IDOCK:   -4.87 KCAL/MOL
REMARK 924 INTRA-LIGAND FREE ENERGY PREDICTED BY IDOCK:   -0.34 KCAL/MOL
REMARK 927      BINDING AFFINITY PREDICTED BY RF-SCORE:    0.00 PKD
ROOT
HETATM    1  O   UNL     1     -11.015   8.080  67.377  1.00  0.00    -0.512 OA 
HETATM    2  C   UNL     1     -10.272   9.095  66.687  1.00  0.00    -0.258 C  
HETATM    3  H   UNL     1     -10.978   7.265  66.891  1.00  0.00     0.000 HD 
ENDROOT
BRANCH   2   4
HETATM    4  C   UNL     1     -10.332  10.409  67.472  1.00  0.00    -0.224 C  
HETATM    5  H   UNL     1     -10.876  10.955  69.288  1.00  0.00     0.000 HD 
HETATM    6  O   UNL     1     -10.839  10.140  68.801  1.00  0.00    -0.208 OA 
BRANCH   4   7
HETATM    7  C   UNL     1     -11.263  11.486  66.880  1.00  0.00    -0.298 C  
HETATM    8  O   UNL     1     -12.248  11.829  67.869  1.00  0.00    -0.538 OA 
HETATM    9  H   UNL     1     -12.822  12.492  67.504  1.00  0.00     0.000 HD 
BRANCH   7  10
HETATM   10  C   UNL     1     -10.609  12.770  66.327  1.00  0.00    -0.257 C  
HETATM   11  H   UNL     1      -9.732  14.402  67.052  1.00  0.00     0.000 HD 
HETATM   12  O   UNL     1     -10.134  13.612  67.391  1.00  0.00    -0.236 OA 
BRANCH  10  13
HETATM   13  C   UNL     1     -11.470  13.620  65.372  1.00  0.00    -0.311 C  
HETATM   14  H   UNL     1     -13.322  14.371  65.307  1.00  0.00     0.000 HD 
HETATM   15  O   UNL     1     -12.792  13.847  65.895  1.00  0.00    -0.472 OA 
BRANCH  13  16
HETATM   16  C   UNL     1     -11.602  13.035  63.962  1.00  0.00    -0.430 C  
HETATM   17  O   UNL     1     -12.407  13.927  63.178  1.00  0.00    -1.122 OA 
HETATM   18  H   UNL     1     -12.489  13.564  62.304  1.00  0.00     0.000 HD 
ENDBRANCH  13  16
ENDBRANCH  10  13
ENDBRANCH   7  10
ENDBRANCH   4   7
ENDBRANCH   2   4
TORSDOF 5
ENDMDL
MODEL       79
REMARK 921   NORMALIZED FREE ENERGY PREDICTED BY IDOCK:   -3.36 KCAL/MOL
REMARK 922        TOTAL FREE ENERGY PREDICTED BY IDOCK:   -5.19 KCAL/MOL
REMARK 923 INTER-LIGAND FREE ENERGY PREDICTED BY IDOCK:   -4.53 KCAL/MOL
REMARK 924 INTRA-LIGAND FREE ENERGY PREDICTED BY IDOCK:   -0.66 KCAL/MOL
REMARK 927      BINDING AFFINITY PREDICTED BY RF-SCORE:    0.00 PKD
ROOT
HETATM    1  O   UNL     1     -12.326  14.293  63.669  1.00  0.00    -1.035 OA 
HETATM    2  C   UNL     1     -12.197  13.987  65.065  1.00  0.00    -0.433 C  
HETATM    3  H   UNL     1     -12.331  15.235  63.543  1.00  0.00     0.000 HD 
ENDROOT
BRANCH   2   4
HETATM    4  C   UNL     1     -12.190  12.469  65.267  1.00  0.00    -0.433 C  
HETATM    5  H   UNL     1     -12.375  11.240  66.799  1.00  0.00     0.000 HD 
HETATM    6  O   UNL     1     -12.379  12.182  66.674  1.00  0.00    -0.453 OA 
BRANCH   4   7
HETATM    7  C   UNL     1     -10.880  11.760  64.869  1.00  0.00    -0.298 C  
HETATM    8  O   UNL     1     -10.055  12.697  64.156  1.00  0.00    -0.522 OA 
HETATM    9  H   UNL     1      -9.248  12.259  63.910  1.00  0.00     0.000 HD 
BRANCH   7  10
HETATM   10  C   UNL     1     -10.060  11.092  65.992  1.00  0.00    -0.247 C  
HETATM   11  H   UNL     1      -8.545  11.569  67.191  1.00  0.00     0.000 HD 
HETATM   12  O   UNL     1      -9.050  11.980  66.499  1.00  0.00    -0.201 OA 
BRANCH  10  13
HETATM   13  C   UNL     1      -9.401   9.741  65.648  1.00  0.00    -0.227 C  
HETATM   14  H   UNL     1      -7.996   8.535  66.402  1.00  0.00     0.000 HD 
HETATM   15  O   UNL     1      -8.402   9.367  66.614  1.00  0.00    -0.117 OA 
BRANCH  13  16
HETATM   16  C   UNL     1      -8.768   9.692  64.253  1.00  0.00    -0.206 C  
HETATM   17  O   UNL     1      -7.837  10.779  64.144  1.00  0.00    -0.357 OA 
HETATM   18  H   UNL     1      -7.444  10.749  63.280  1.00  0.00     0.000 HD 
ENDBRANCH  13  16
ENDBRANCH  10  13
ENDBRANCH   7  10
ENDBRANCH   4   7
ENDBRANCH   2   4
TORSDOF 5
ENDMDL
MODEL       80
REMARK 921   NORMALIZED FREE ENERGY PREDICTED BY IDOCK:   -3.36 KCAL/MOL
REMARK 922        TOTAL FREE ENERGY PREDICTED BY IDOCK:   -5.19 KCAL/MOL
REMARK 923 INTER-LIGAND FREE ENERGY PREDICTED BY IDOCK:   -4.45 KCAL/MOL
REMARK 924 INTRA-LIGAND FREE ENERGY PREDICTED BY IDOCK:   -0.74 KCAL/MOL
REMARK 927      BINDING AFFINITY PREDICTED BY RF-SCORE:    0.00 PKD
ROOT
HETATM    1  O   UNL     1     -11.663  10.868  67.817  1.00  0.00    -0.581 OA 
HETATM    2  C   UNL     1     -11.098  10.008  68.816  1.00  0.00    -0.173 C  
HETATM    3  H   UNL     1     -11.616  10.449  66.965  1.00  0.00     0.000 HD 
ENDROOT
BRANCH   2   4
HETATM    4  C   UNL     1     -11.174  10.683  70.189  1.00  0.00    -0.302 C  
HETATM    5  H   UNL     1     -10.868  10.135  72.059  1.00  0.00     0.000 HD 
HETATM    6  O   UNL     1     -10.821   9.716  71.207  1.00  0.00    -0.350 OA 
BRANCH   4   7
HETATM    7  C   UNL     1     -12.567  11.214  70.583  1.00  0.00    -0.318 C  
HETATM    8  O   UNL     1     -12.871  10.752  71.910  1.00  0.00    -0.436 OA 
HETATM    9  H   UNL     1     -13.729  11.079  72.153  1.00  0.00     0.000 HD 
BRANCH   7  10
HETATM   10  C   UNL     1     -12.802  12.737  70.494  1.00  0.00     0.129 C  
HETATM   11  H   UNL     1     -11.894  14.321  69.703  1.00  0.00     0.000 HD 
HETATM   12  O   UNL     1     -11.750  13.384  69.758  1.00  0.00    -0.293 OA 
BRANCH  10  13
HETATM   13  C   UNL     1     -12.998  13.479  71.831  1.00  0.00    -0.337 C  
HETATM   14  H   UNL     1     -14.364  13.588  73.287  1.00  0.00     0.000 HD 
HETATM   15  O   UNL     1     -14.244  13.130  72.463  1.00  0.00    -0.654 OA 
BRANCH  13  16
HETATM   16  C   UNL     1     -12.924  15.005  71.715  1.00  0.00    -0.347 C  
HETATM   17  O   UNL     1     -13.773  15.415  70.632  1.00  0.00    -0.785 OA 
HETATM   18  H   UNL     1     -13.727  16.361  70.560  1.00  0.00     0.000 HD 
ENDBRANCH  13  16
ENDBRANCH  10  13
ENDBRANCH   7  10
ENDBRANCH   4   7
ENDBRANCH   2   4
TORSDOF 5
ENDMDL
MODEL       81
REMARK 921   NORMALIZED FREE ENERGY PREDICTED BY IDOCK:   -3.34 KCAL/MOL
REMARK 922        TOTAL FREE ENERGY PREDICTED BY IDOCK:   -5.17 KCAL/MOL
REMARK 923 INTER-LIGAND FREE ENERGY PREDICTED BY IDOCK:   -4.66 KCAL/MOL
REMARK 924 INTRA-LIGAND FREE ENERGY PREDICTED BY IDOCK:   -0.51 KCAL/MOL
REMARK 927      BINDING AFFINITY PREDICTED BY RF-SCORE:    0.00 PKD
ROOT
HETATM    1  O   UNL     1     -10.548  13.312  69.284  1.00  0.00    -0.432 OA 
HETATM    2  C   UNL     1     -11.333  12.346  68.571  1.00  0.00    -0.293 C  
HETATM    3  H   UNL     1     -10.043  13.834  68.671  1.00  0.00     0.000 HD 
ENDROOT
BRANCH   2   4
HETATM    4  C   UNL     1     -12.147  11.504  69.559  1.00  0.00    -0.284 C  
HETATM    5  H   UNL     1     -12.897  11.765  71.364  1.00  0.00     0.000 HD 
HETATM    6  O   UNL     1     -12.392  12.287  70.752  1.00  0.00    -0.377 OA 
BRANCH   4   7
HETATM    7  C   UNL     1     -11.461  10.211  70.041  1.00  0.00    -0.277 C  
HETATM    8  O   UNL     1     -10.037  10.406  69.991  1.00  0.00    -0.419 OA 
HETATM    9  H   UNL     1      -9.614   9.609  70.289  1.00  0.00     0.000 HD 
BRANCH   7  10
HETATM   10  C   UNL     1     -11.864   9.662  71.426  1.00  0.00    -0.406 C  
HETATM   11  H   UNL     1     -11.007   8.663  72.918  1.00  0.00     0.000 HD 
HETATM   12  O   UNL     1     -10.760   9.000  72.066  1.00  0.00    -0.349 OA 
BRANCH  10  13
HETATM   13  C   UNL     1     -13.088   8.726  71.462  1.00  0.00    -0.318 C  
HETATM   14  H   UNL     1     -14.707   8.434  72.598  1.00  0.00     0.000 HD 
HETATM   15  O   UNL     1     -13.953   9.011  72.577  1.00  0.00    -0.478 OA 
BRANCH  13  16
HETATM   16  C   UNL     1     -12.733   7.235  71.492  1.00  0.00    -0.384 C  
HETATM   17  O   UNL     1     -12.284   6.853  70.184  1.00  0.00    -0.638 OA 
HETATM   18  H   UNL     1     -12.064   5.929  70.203  1.00  0.00     0.000 HD 
ENDBRANCH  13  16
ENDBRANCH  10  13
ENDBRANCH   7  10
ENDBRANCH   4   7
ENDBRANCH   2   4
TORSDOF 5
ENDMDL
MODEL       82
REMARK 921   NORMALIZED FREE ENERGY PREDICTED BY IDOCK:   -3.34 KCAL/MOL
REMARK 922        TOTAL FREE ENERGY PREDICTED BY IDOCK:   -5.17 KCAL/MOL
REMARK 923 INTER-LIGAND FREE ENERGY PREDICTED BY IDOCK:   -4.44 KCAL/MOL
REMARK 924 INTRA-LIGAND FREE ENERGY PREDICTED BY IDOCK:   -0.73 KCAL/MOL
REMARK 927      BINDING AFFINITY PREDICTED BY RF-SCORE:    0.00 PKD
ROOT
HETATM    1  O   UNL     1     -12.388  11.573  70.663  1.00  0.00    -0.361 OA 
HETATM    2  C   UNL     1     -11.962  10.589  69.711  1.00  0.00    -0.238 C  
HETATM    3  H   UNL     1     -12.495  11.171  71.518  1.00  0.00     0.000 HD 
ENDROOT
BRANCH   2   4
HETATM    4  C   UNL     1     -11.790  11.237  68.333  1.00  0.00    -0.261 C  
HETATM    5  H   UNL     1     -10.480  11.120  66.863  1.00  0.00     0.000 HD 
HETATM    6  O   UNL     1     -10.586  10.718  67.718  1.00  0.00    -0.197 OA 
BRANCH   4   7
HETATM    7  C   UNL     1     -11.626  12.769  68.345  1.00  0.00    -0.325 C  
HETATM    8  O   UNL     1     -10.374  13.088  68.975  1.00  0.00    -0.424 OA 
HETATM    9  H   UNL     1     -10.273  14.033  68.982  1.00  0.00     0.000 HD 
BRANCH   7  10
HETATM   10  C   UNL     1     -11.734  13.509  66.995  1.00  0.00    -0.383 C  
HETATM   11  H   UNL     1     -12.469  13.157  65.179  1.00  0.00     0.000 HD 
HETATM   12  O   UNL     1     -12.402  12.702  66.010  1.00  0.00    -0.587 OA 
BRANCH  10  13
HETATM   13  C   UNL     1     -10.414  14.030  66.392  1.00  0.00    -0.284 C  
HETATM   14  H   UNL     1      -9.020  15.398  66.817  1.00  0.00     0.000 HD 
HETATM   15  O   UNL     1      -9.833  15.078  67.189  1.00  0.00    -0.229 OA 
BRANCH  13  16
HETATM   16  C   UNL     1     -10.541  14.532  64.949  1.00  0.00    -0.427 C  
HETATM   17  O   UNL     1     -10.211  13.451  64.065  1.00  0.00    -0.718 OA 
HETATM   18  H   UNL     1     -10.290  13.763  63.172  1.00  0.00     0.000 HD 
ENDBRANCH  13  16
ENDBRANCH  10  13
ENDBRANCH   7  10
ENDBRANCH   4   7
ENDBRANCH   2   4
TORSDOF 5
ENDMDL
MODEL       83
REMARK 921   NORMALIZED FREE ENERGY PREDICTED BY IDOCK:   -3.34 KCAL/MOL
REMARK 922        TOTAL FREE ENERGY PREDICTED BY IDOCK:   -5.16 KCAL/MOL
REMARK 923 INTER-LIGAND FREE ENERGY PREDICTED BY IDOCK:   -4.72 KCAL/MOL
REMARK 924 INTRA-LIGAND FREE ENERGY PREDICTED BY IDOCK:   -0.44 KCAL/MOL
REMARK 927      BINDING AFFINITY PREDICTED BY RF-SCORE:    0.00 PKD
ROOT
HETATM    1  O   UNL     1      -8.123  16.407  67.846  1.00  0.00    -0.154 OA 
HETATM    2  C   UNL     1      -9.035  17.314  67.210  1.00  0.00    -0.227 C  
HETATM    3  H   UNL     1      -7.229  16.686  67.692  1.00  0.00     0.000 HD 
ENDROOT
BRANCH   2   4
HETATM    4  C   UNL     1     -10.478  16.863  67.459  1.00  0.00    -0.328 C  
HETATM    5  H   UNL     1     -11.399  15.707  68.766  1.00  0.00     0.000 HD 
HETATM    6  O   UNL     1     -10.504  15.987  68.612  1.00  0.00    -0.231 OA 
BRANCH   4   7
HETATM    7  C   UNL     1     -11.122  16.060  66.311  1.00  0.00     0.037 C  
HETATM    8  O   UNL     1     -10.595  16.547  65.064  1.00  0.00    -0.670 OA 
HETATM    9  H   UNL     1     -10.992  16.053  64.357  1.00  0.00     0.000 HD 
BRANCH   7  10
HETATM   10  C   UNL     1     -11.004  14.522  66.361  1.00  0.00    -0.324 C  
HETATM   11  H   UNL     1      -9.665  13.133  65.876  1.00  0.00     0.000 HD 
HETATM   12  O   UNL     1      -9.738  14.079  65.845  1.00  0.00    -0.285 OA 
BRANCH  10  13
HETATM   13  C   UNL     1     -12.126  13.727  65.664  1.00  0.00    -0.418 C  
HETATM   14  H   UNL     1     -12.975  11.922  65.796  1.00  0.00     0.000 HD 
HETATM   15  O   UNL     1     -12.283  12.411  66.225  1.00  0.00    -0.620 OA 
BRANCH  13  16
HETATM   16  C   UNL     1     -11.944  13.588  64.148  1.00  0.00    -0.448 C  
HETATM   17  O   UNL     1     -12.422  14.790  63.526  1.00  0.00    -1.053 OA 
HETATM   18  H   UNL     1     -12.310  14.704  62.587  1.00  0.00     0.000 HD 
ENDBRANCH  13  16
ENDBRANCH  10  13
ENDBRANCH   7  10
ENDBRANCH   4   7
ENDBRANCH   2   4
TORSDOF 5
ENDMDL
MODEL       84
REMARK 921   NORMALIZED FREE ENERGY PREDICTED BY IDOCK:   -3.33 KCAL/MOL
REMARK 922        TOTAL FREE ENERGY PREDICTED BY IDOCK:   -5.14 KCAL/MOL
REMARK 923 INTER-LIGAND FREE ENERGY PREDICTED BY IDOCK:   -4.55 KCAL/MOL
REMARK 924 INTRA-LIGAND FREE ENERGY PREDICTED BY IDOCK:   -0.60 KCAL/MOL
REMARK 927      BINDING AFFINITY PREDICTED BY RF-SCORE:    0.00 PKD
ROOT
HETATM    1  O   UNL     1     -12.994  13.041  64.936  1.00  0.00    -0.739 OA 
HETATM    2  C   UNL     1     -12.243  14.117  64.356  1.00  0.00    -0.439 C  
HETATM    3  H   UNL     1     -13.581  12.670  64.288  1.00  0.00     0.000 HD 
ENDROOT
BRANCH   2   4
HETATM    4  C   UNL     1     -11.295  14.714  65.401  1.00  0.00    -0.344 C  
HETATM    5  H   UNL     1     -10.191  16.342  65.551  1.00  0.00     0.000 HD 
HETATM    6  O   UNL     1     -10.779  15.972  64.903  1.00  0.00    -0.576 OA 
BRANCH   4   7
HETATM    7  C   UNL     1     -10.058  13.856  65.731  1.00  0.00    -0.320 C  
HETATM    8  O   UNL     1      -8.956  14.736  66.011  1.00  0.00    -0.492 OA 
HETATM    9  H   UNL     1      -8.193  14.208  66.214  1.00  0.00     0.000 HD 
BRANCH   7  10
HETATM   10  C   UNL     1     -10.192  12.813  66.861  1.00  0.00    -0.236 C  
HETATM   11  H   UNL     1     -10.855  10.949  67.070  1.00  0.00     0.000 HD 
HETATM   12  O   UNL     1     -10.772  11.591  66.376  1.00  0.00    -0.254 OA 
BRANCH  10  13
HETATM   13  C   UNL     1     -10.965  13.261  68.118  1.00  0.00    -0.255 C  
HETATM   14  H   UNL     1     -10.886  14.732  69.469  1.00  0.00     0.000 HD 
HETATM   15  O   UNL     1     -10.409  14.457  68.696  1.00  0.00    -0.234 OA 
BRANCH  13  16
HETATM   16  C   UNL     1     -11.053  12.191  69.211  1.00  0.00    -0.167 C  
HETATM   17  O   UNL     1     -11.883  12.695  70.268  1.00  0.00    -0.489 OA 
HETATM   18  H   UNL     1     -11.937  12.032  70.946  1.00  0.00     0.000 HD 
ENDBRANCH  13  16
ENDBRANCH  10  13
ENDBRANCH   7  10
ENDBRANCH   4   7
ENDBRANCH   2   4
TORSDOF 5
ENDMDL
MODEL       85
REMARK 921   NORMALIZED FREE ENERGY PREDICTED BY IDOCK:   -3.32 KCAL/MOL
REMARK 922        TOTAL FREE ENERGY PREDICTED BY IDOCK:   -5.14 KCAL/MOL
REMARK 923 INTER-LIGAND FREE ENERGY PREDICTED BY IDOCK:   -4.47 KCAL/MOL
REMARK 924 INTRA-LIGAND FREE ENERGY PREDICTED BY IDOCK:   -0.67 KCAL/MOL
REMARK 927      BINDING AFFINITY PREDICTED BY RF-SCORE:    0.00 PKD
ROOT
HETATM    1  O   UNL     1     -14.187   8.105  70.956  1.00  0.00    -0.646 OA 
HETATM    2  C   UNL     1     -14.207   8.841  72.187  1.00  0.00    -0.426 C  
HETATM    3  H   UNL     1     -14.944   7.533  70.909  1.00  0.00     0.000 HD 
ENDROOT
BRANCH   2   4
HETATM    4  C   UNL     1     -12.986   9.763  72.263  1.00  0.00    -0.333 C  
HETATM    5  H   UNL     1     -12.650  11.695  72.045  1.00  0.00     0.000 HD 
HETATM    6  O   UNL     1     -13.407  11.123  71.997  1.00  0.00    -0.454 OA 
BRANCH   4   7
HETATM    7  C   UNL     1     -11.872   9.464  71.240  1.00  0.00    -0.360 C  
HETATM    8  O   UNL     1     -11.356  10.714  70.751  1.00  0.00    -0.374 OA 
HETATM    9  H   UNL     1     -10.670  10.529  70.120  1.00  0.00     0.000 HD 
BRANCH   7  10
HETATM   10  C   UNL     1     -10.706   8.562  71.697  1.00  0.00    -0.281 C  
HETATM   11  H   UNL     1      -8.729   8.492  71.483  1.00  0.00     0.000 HD 
HETATM   12  O   UNL     1      -9.447   9.047  71.202  1.00  0.00    -0.241 OA 
BRANCH  10  13
HETATM   13  C   UNL     1     -10.826   7.063  71.356  1.00  0.00    -0.229 C  
HETATM   14  H   UNL     1     -11.782   5.909  70.032  1.00  0.00     0.000 HD 
HETATM   15  O   UNL     1     -11.709   6.832  70.242  1.00  0.00    -0.363 OA 
BRANCH  13  16
HETATM   16  C   UNL     1     -11.288   6.191  72.528  1.00  0.00    -0.286 C  
HETATM   17  O   UNL     1     -11.253   6.987  73.722  1.00  0.00    -0.473 OA 
HETATM   18  H   UNL     1     -11.539   6.446  74.449  1.00  0.00     0.000 HD 
ENDBRANCH  13  16
ENDBRANCH  10  13
ENDBRANCH   7  10
ENDBRANCH   4   7
ENDBRANCH   2   4
TORSDOF 5
ENDMDL
MODEL       86
REMARK 921   NORMALIZED FREE ENERGY PREDICTED BY IDOCK:   -3.30 KCAL/MOL
REMARK 922        TOTAL FREE ENERGY PREDICTED BY IDOCK:   -5.11 KCAL/MOL
REMARK 923 INTER-LIGAND FREE ENERGY PREDICTED BY IDOCK:   -4.40 KCAL/MOL
REMARK 924 INTRA-LIGAND FREE ENERGY PREDICTED BY IDOCK:   -0.70 KCAL/MOL
REMARK 927      BINDING AFFINITY PREDICTED BY RF-SCORE:    0.00 PKD
ROOT
HETATM    1  O   UNL     1     -12.270  10.531  68.360  1.00  0.00    -0.787 OA 
HETATM    2  C   UNL     1     -11.132  10.959  67.599  1.00  0.00    -0.313 C  
HETATM    3  H   UNL     1     -12.437   9.609  68.201  1.00  0.00     0.000 HD 
ENDROOT
BRANCH   2   4
HETATM    4  C   UNL     1     -10.863  12.445  67.856  1.00  0.00    -0.222 C  
HETATM    5  H   UNL     1      -9.362  13.515  68.560  1.00  0.00     0.000 HD 
HETATM    6  O   UNL     1      -9.529  12.593  68.401  1.00  0.00    -0.214 OA 
BRANCH   4   7
HETATM    7  C   UNL     1     -11.806  13.117  68.873  1.00  0.00    -0.320 C  
HETATM    8  O   UNL     1     -11.525  12.581  70.178  1.00  0.00    -0.523 OA 
HETATM    9  H   UNL     1     -12.106  12.995  70.804  1.00  0.00     0.000 HD 
BRANCH   7  10
HETATM   10  C   UNL     1     -11.810  14.659  68.933  1.00  0.00    -0.309 C  
HETATM   11  H   UNL     1     -11.539  16.180  67.679  1.00  0.00     0.000 HD 
HETATM   12  O   UNL     1     -11.536  15.232  67.643  1.00  0.00    -0.326 OA 
BRANCH  10  13
HETATM   13  C   UNL     1     -10.870  15.307  69.970  1.00  0.00    -0.286 C  
HETATM   14  H   UNL     1     -10.952  16.734  71.367  1.00  0.00     0.000 HD 
HETATM   15  O   UNL     1     -11.532  16.336  70.729  1.00  0.00    -0.401 OA 
BRANCH  13  16
HETATM   16  C   UNL     1      -9.589  15.897  69.368  1.00  0.00    -0.265 C  
HETATM   17  O   UNL     1      -8.491  15.043  69.724  1.00  0.00    -0.438 OA 
HETATM   18  H   UNL     1      -7.698  15.409  69.352  1.00  0.00     0.000 HD 
ENDBRANCH  13  16
ENDBRANCH  10  13
ENDBRANCH   7  10
ENDBRANCH   4   7
ENDBRANCH   2   4
TORSDOF 5
ENDMDL
MODEL       87
REMARK 921   NORMALIZED FREE ENERGY PREDICTED BY IDOCK:   -3.29 KCAL/MOL
REMARK 922        TOTAL FREE ENERGY PREDICTED BY IDOCK:   -5.10 KCAL/MOL
REMARK 923 INTER-LIGAND FREE ENERGY PREDICTED BY IDOCK:   -4.66 KCAL/MOL
REMARK 924 INTRA-LIGAND FREE ENERGY PREDICTED BY IDOCK:   -0.44 KCAL/MOL
REMARK 927      BINDING AFFINITY PREDICTED BY RF-SCORE:    0.00 PKD
ROOT
HETATM    1  O   UNL     1     -12.459  11.300  62.838  1.00  0.00    -0.906 OA 
HETATM    2  C   UNL     1     -12.649  12.286  63.862  1.00  0.00    -0.440 C  
HETATM    3  H   UNL     1     -13.288  10.881  62.634  1.00  0.00     0.000 HD 
ENDROOT
BRANCH   2   4
HETATM    4  C   UNL     1     -11.314  12.962  64.190  1.00  0.00    -0.393 C  
HETATM    5  H   UNL     1      -9.423  12.675  63.709  1.00  0.00     0.000 HD 
HETATM    6  O   UNL     1     -10.251  12.256  63.506  1.00  0.00    -0.427 OA 
BRANCH   4   7
HETATM    7  C   UNL     1     -10.925  12.958  65.682  1.00  0.00    -0.271 C  
HETATM    8  O   UNL     1     -11.574  14.069  66.323  1.00  0.00    -0.341 OA 
HETATM    9  H   UNL     1     -11.334  14.067  67.242  1.00  0.00     0.000 HD 
BRANCH   7  10
HETATM   10  C   UNL     1     -11.187  11.667  66.485  1.00  0.00    -0.294 C  
HETATM   11  H   UNL     1     -12.140  11.138  68.150  1.00  0.00     0.000 HD 
HETATM   12  O   UNL     1     -11.978  11.932  67.655  1.00  0.00    -0.575 OA 
BRANCH  10  13
HETATM   13  C   UNL     1      -9.944  10.856  66.903  1.00  0.00    -0.194 C  
HETATM   14  H   UNL     1      -9.158   9.051  66.557  1.00  0.00     0.000 HD 
HETATM   15  O   UNL     1      -9.924   9.550  66.299  1.00  0.00    -0.249 OA 
BRANCH  13  16
HETATM   16  C   UNL     1      -9.787  10.692  68.419  1.00  0.00    -0.161 C  
HETATM   17  O   UNL     1      -9.419  11.964  68.973  1.00  0.00    -0.406 OA 
HETATM   18  H   UNL     1      -9.321  11.861  69.912  1.00  0.00     0.000 HD 
ENDBRANCH  13  16
ENDBRANCH  10  13
ENDBRANCH   7  10
ENDBRANCH   4   7
ENDBRANCH   2   4
TORSDOF 5
ENDMDL
MODEL       88
REMARK 921   NORMALIZED FREE ENERGY PREDICTED BY IDOCK:   -3.29 KCAL/MOL
REMARK 922        TOTAL FREE ENERGY PREDICTED BY IDOCK:   -5.10 KCAL/MOL
REMARK 923 INTER-LIGAND FREE ENERGY PREDICTED BY IDOCK:   -4.43 KCAL/MOL
REMARK 924 INTRA-LIGAND FREE ENERGY PREDICTED BY IDOCK:   -0.67 KCAL/MOL
REMARK 927      BINDING AFFINITY PREDICTED BY RF-SCORE:    0.00 PKD
ROOT
HETATM    1  O   UNL     1     -14.208   8.757  73.361  1.00  0.00    -1.173 OA 
HETATM    2  C   UNL     1     -13.804   9.034  72.013  1.00  0.00    -0.444 C  
HETATM    3  H   UNL     1     -15.151   8.644  73.399  1.00  0.00     0.000 HD 
ENDROOT
BRANCH   2   4
HETATM    4  C   UNL     1     -12.284   9.215  71.952  1.00  0.00    -0.379 C  
HETATM    5  H   UNL     1     -10.920   9.292  70.529  1.00  0.00     0.000 HD 
HETATM    6  O   UNL     1     -11.862   9.179  70.567  1.00  0.00    -0.218 OA 
BRANCH   4   7
HETATM    7  C   UNL     1     -11.463   8.124  72.667  1.00  0.00    -0.387 C  
HETATM    8  O   UNL     1     -12.156   6.871  72.530  1.00  0.00    -0.492 OA 
HETATM    9  H   UNL     1     -11.650   6.198  72.970  1.00  0.00     0.000 HD 
BRANCH   7  10
HETATM   10  C   UNL     1      -9.987   7.952  72.250  1.00  0.00    -0.219 C  
HETATM   11  H   UNL     1      -8.883   6.625  71.259  1.00  0.00     0.000 HD 
HETATM   12  O   UNL     1      -9.791   6.731  71.516  1.00  0.00    -0.172 OA 
BRANCH  10  13
HETATM   13  C   UNL     1      -8.943   8.019  73.383  1.00  0.00    -0.274 C  
HETATM   14  H   UNL     1      -7.108   8.756  73.675  1.00  0.00     0.000 HD 
HETATM   15  O   UNL     1      -7.751   8.715  72.976  1.00  0.00    -0.361 OA 
BRANCH  13  16
HETATM   16  C   UNL     1      -8.538   6.650  73.940  1.00  0.00    -0.137 C  
HETATM   17  O   UNL     1      -9.730   5.956  74.338  1.00  0.00    -0.171 OA 
HETATM   18  H   UNL     1      -9.479   5.108  74.683  1.00  0.00     0.000 HD 
ENDBRANCH  13  16
ENDBRANCH  10  13
ENDBRANCH   7  10
ENDBRANCH   4   7
ENDBRANCH   2   4
TORSDOF 5
ENDMDL
MODEL       89
REMARK 921   NORMALIZED FREE ENERGY PREDICTED BY IDOCK:   -3.27 KCAL/MOL
REMARK 922        TOTAL FREE ENERGY PREDICTED BY IDOCK:   -5.07 KCAL/MOL
REMARK 923 INTER-LIGAND FREE ENERGY PREDICTED BY IDOCK:   -4.36 KCAL/MOL
REMARK 924 INTRA-LIGAND FREE ENERGY PREDICTED BY IDOCK:   -0.72 KCAL/MOL
REMARK 927      BINDING AFFINITY PREDICTED BY RF-SCORE:    0.00 PKD
ROOT
HETATM    1  O   UNL     1     -10.615  19.225  65.357  1.00  0.00    -0.492 OA 
HETATM    2  C   UNL     1     -10.567  19.613  66.737  1.00  0.00    -0.486 C  
HETATM    3  H   UNL     1     -10.640  19.997  64.804  1.00  0.00     0.000 HD 
ENDROOT
BRANCH   2   4
HETATM    4  C   UNL     1     -10.527  18.368  67.628  1.00  0.00    -0.419 C  
HETATM    5  H   UNL     1     -10.005  17.970  69.488  1.00  0.00     0.000 HD 
HETATM    6  O   UNL     1     -10.030  18.742  68.936  1.00  0.00    -0.400 OA 
BRANCH   4   7
HETATM    7  C   UNL     1      -9.598  17.239  67.137  1.00  0.00    -0.257 C  
HETATM    8  O   UNL     1      -8.811  16.781  68.250  1.00  0.00    -0.213 OA 
HETATM    9  H   UNL     1      -8.240  16.085  67.947  1.00  0.00     0.000 HD 
BRANCH   7  10
HETATM   10  C   UNL     1     -10.252  16.034  66.429  1.00  0.00    -0.305 C  
HETATM   11  H   UNL     1     -11.001  15.611  64.635  1.00  0.00     0.000 HD 
HETATM   12  O   UNL     1     -10.599  16.352  65.071  1.00  0.00    -0.651 OA 
BRANCH  10  13
HETATM   13  C   UNL     1     -11.486  15.419  67.122  1.00  0.00    -0.133 C  
HETATM   14  H   UNL     1     -12.081  14.967  68.976  1.00  0.00     0.000 HD 
HETATM   15  O   UNL     1     -11.321  15.345  68.550  1.00  0.00    -0.299 OA 
BRANCH  13  16
HETATM   16  C   UNL     1     -11.863  14.027  66.604  1.00  0.00    -0.419 C  
HETATM   17  O   UNL     1     -10.673  13.393  66.110  1.00  0.00    -0.280 OA 
HETATM   18  H   UNL     1     -10.907  12.531  65.790  1.00  0.00     0.000 HD 
ENDBRANCH  13  16
ENDBRANCH  10  13
ENDBRANCH   7  10
ENDBRANCH   4   7
ENDBRANCH   2   4
TORSDOF 5
ENDMDL
MODEL       90
REMARK 921   NORMALIZED FREE ENERGY PREDICTED BY IDOCK:   -3.27 KCAL/MOL
REMARK 922        TOTAL FREE ENERGY PREDICTED BY IDOCK:   -5.07 KCAL/MOL
REMARK 923 INTER-LIGAND FREE ENERGY PREDICTED BY IDOCK:   -4.43 KCAL/MOL
REMARK 924 INTRA-LIGAND FREE ENERGY PREDICTED BY IDOCK:   -0.63 KCAL/MOL
REMARK 927      BINDING AFFINITY PREDICTED BY RF-SCORE:    0.00 PKD
ROOT
HETATM    1  O   UNL     1      -9.027  16.969  66.430  1.00  0.00    -0.256 OA 
HETATM    2  C   UNL     1      -9.098  15.629  65.923  1.00  0.00    -0.242 C  
HETATM    3  H   UNL     1      -8.201  17.102  66.879  1.00  0.00     0.000 HD 
ENDROOT
BRANCH   2   4
HETATM    4  C   UNL     1     -10.430  15.415  65.198  1.00  0.00    -0.411 C  
HETATM    5  H   UNL     1     -11.639  16.517  64.095  1.00  0.00     0.000 HD 
HETATM    6  O   UNL     1     -10.813  16.650  64.545  1.00  0.00    -0.847 OA 
BRANCH   4   7
HETATM    7  C   UNL     1     -11.619  15.037  66.105  1.00  0.00    -0.159 C  
HETATM    8  O   UNL     1     -12.354  13.977  65.471  1.00  0.00    -0.430 OA 
HETATM    9  H   UNL     1     -13.087  13.744  66.030  1.00  0.00     0.000 HD 
BRANCH   7  10
HETATM   10  C   UNL     1     -11.308  14.656  67.567  1.00  0.00    -0.348 C  
HETATM   11  H   UNL     1     -11.845  13.247  68.866  1.00  0.00     0.000 HD 
HETATM   12  O   UNL     1     -12.036  13.482  67.966  1.00  0.00    -0.355 OA 
BRANCH  10  13
HETATM   13  C   UNL     1     -11.530  15.757  68.624  1.00  0.00    -0.386 C  
HETATM   14  H   UNL     1     -11.392  17.747  68.752  1.00  0.00     0.000 HD 
HETATM   15  O   UNL     1     -11.255  17.069  68.101  1.00  0.00    -0.272 OA 
BRANCH  13  16
HETATM   16  C   UNL     1     -10.712  15.565  69.906  1.00  0.00    -0.311 C  
HETATM   17  O   UNL     1      -9.795  14.481  69.697  1.00  0.00    -0.417 OA 
HETATM   18  H   UNL     1      -9.289  14.362  70.491  1.00  0.00     0.000 HD 
ENDBRANCH  13  16
ENDBRANCH  10  13
ENDBRANCH   7  10
ENDBRANCH   4   7
ENDBRANCH   2   4
TORSDOF 5
ENDMDL
MODEL       91
REMARK 921   NORMALIZED FREE ENERGY PREDICTED BY IDOCK:   -3.26 KCAL/MOL
REMARK 922        TOTAL FREE ENERGY PREDICTED BY IDOCK:   -5.06 KCAL/MOL
REMARK 923 INTER-LIGAND FREE ENERGY PREDICTED BY IDOCK:   -4.59 KCAL/MOL
REMARK 924 INTRA-LIGAND FREE ENERGY PREDICTED BY IDOCK:   -0.47 KCAL/MOL
REMARK 927      BINDING AFFINITY PREDICTED BY RF-SCORE:    0.00 PKD
ROOT
HETATM    1  O   UNL     1     -12.020  16.663  71.907  1.00  0.00    -0.630 OA 
HETATM    2  C   UNL     1     -12.775  15.595  71.317  1.00  0.00    -0.475 C  
HETATM    3  H   UNL     1     -12.376  16.878  72.761  1.00  0.00     0.000 HD 
ENDROOT
BRANCH   2   4
HETATM    4  C   UNL     1     -12.201  15.249  69.940  1.00  0.00    -0.323 C  
HETATM    5  H   UNL     1     -11.506  13.627  69.058  1.00  0.00     0.000 HD 
HETATM    6  O   UNL     1     -11.862  13.842  69.912  1.00  0.00    -0.297 OA 
BRANCH   4   7
HETATM    7  C   UNL     1     -10.907  15.997  69.561  1.00  0.00    -0.317 C  
HETATM    8  O   UNL     1      -9.784  15.203  69.978  1.00  0.00    -0.474 OA 
HETATM    9  H   UNL     1      -8.987  15.664  69.744  1.00  0.00     0.000 HD 
BRANCH   7  10
HETATM   10  C   UNL     1     -10.731  16.417  68.087  1.00  0.00    -0.336 C  
HETATM   11  H   UNL     1     -10.120  15.588  66.384  1.00  0.00     0.000 HD 
HETATM   12  O   UNL     1     -10.228  15.330  67.291  1.00  0.00    -0.243 OA 
BRANCH  10  13
HETATM   13  C   UNL     1      -9.857  17.662  67.829  1.00  0.00    -0.292 C  
HETATM   14  H   UNL     1      -8.429  18.699  68.767  1.00  0.00     0.000 HD 
HETATM   15  O   UNL     1      -8.967  17.932  68.927  1.00  0.00    -0.233 OA 
BRANCH  13  16
HETATM   16  C   UNL     1     -10.657  18.934  67.528  1.00  0.00    -0.451 C  
HETATM   17  O   UNL     1     -10.580  19.794  68.675  1.00  0.00    -0.517 OA 
HETATM   18  H   UNL     1     -11.076  20.583  68.489  1.00  0.00     0.000 HD 
ENDBRANCH  13  16
ENDBRANCH  10  13
ENDBRANCH   7  10
ENDBRANCH   4   7
ENDBRANCH   2   4
TORSDOF 5
ENDMDL
MODEL       92
REMARK 921   NORMALIZED FREE ENERGY PREDICTED BY IDOCK:   -3.25 KCAL/MOL
REMARK 922        TOTAL FREE ENERGY PREDICTED BY IDOCK:   -5.05 KCAL/MOL
REMARK 923 INTER-LIGAND FREE ENERGY PREDICTED BY IDOCK:   -4.50 KCAL/MOL
REMARK 924 INTRA-LIGAND FREE ENERGY PREDICTED BY IDOCK:   -0.55 KCAL/MOL
REMARK 927      BINDING AFFINITY PREDICTED BY RF-SCORE:    0.00 PKD
ROOT
HETATM    1  O   UNL     1      -8.311  18.092  66.896  1.00  0.00    -0.231 OA 
HETATM    2  C   UNL     1      -8.224  16.795  66.292  1.00  0.00    -0.324 C  
HETATM    3  H   UNL     1      -7.440  18.435  67.056  1.00  0.00     0.000 HD 
ENDROOT
BRANCH   2   4
HETATM    4  C   UNL     1      -9.629  16.243  66.035  1.00  0.00    -0.337 C  
HETATM    5  H   UNL     1     -11.357  16.983  65.437  1.00  0.00     0.000 HD 
HETATM    6  O   UNL     1     -10.486  17.325  65.597  1.00  0.00    -0.561 OA 
BRANCH   4   7
HETATM    7  C   UNL     1     -10.329  15.628  67.264  1.00  0.00    -0.277 C  
HETATM    8  O   UNL     1     -10.604  16.681  68.204  1.00  0.00    -0.306 OA 
HETATM    9  H   UNL     1     -11.035  16.303  68.961  1.00  0.00     0.000 HD 
BRANCH   7  10
HETATM   10  C   UNL     1     -11.607  14.800  67.018  1.00  0.00    -0.339 C  
HETATM   11  H   UNL     1     -12.586  13.309  67.900  1.00  0.00     0.000 HD 
HETATM   12  O   UNL     1     -11.799  13.819  68.051  1.00  0.00    -0.341 OA 
BRANCH  10  13
HETATM   13  C   UNL     1     -11.718  14.102  65.648  1.00  0.00    -0.357 C  
HETATM   14  H   UNL     1     -13.151  13.569  64.360  1.00  0.00     0.000 HD 
HETATM   15  O   UNL     1     -13.084  13.999  65.204  1.00  0.00    -0.776 OA 
BRANCH  13  16
HETATM   16  C   UNL     1     -11.088  12.706  65.606  1.00  0.00    -0.292 C  
HETATM   17  O   UNL     1     -12.138  11.735  65.739  1.00  0.00    -0.357 OA 
HETATM   18  H   UNL     1     -11.747  10.870  65.713  1.00  0.00     0.000 HD 
ENDBRANCH  13  16
ENDBRANCH  10  13
ENDBRANCH   7  10
ENDBRANCH   4   7
ENDBRANCH   2   4
TORSDOF 5
ENDMDL
MODEL       93
REMARK 921   NORMALIZED FREE ENERGY PREDICTED BY IDOCK:   -3.25 KCAL/MOL
REMARK 922        TOTAL FREE ENERGY PREDICTED BY IDOCK:   -5.04 KCAL/MOL
REMARK 923 INTER-LIGAND FREE ENERGY PREDICTED BY IDOCK:   -4.48 KCAL/MOL
REMARK 924 INTRA-LIGAND FREE ENERGY PREDICTED BY IDOCK:   -0.56 KCAL/MOL
REMARK 927      BINDING AFFINITY PREDICTED BY RF-SCORE:    0.00 PKD
ROOT
HETATM    1  O   UNL     1     -11.416   9.475  69.444  1.00  0.00    -0.440 OA 
HETATM    2  C   UNL     1     -10.391   9.950  68.560  1.00  0.00    -0.196 C  
HETATM    3  H   UNL     1     -11.174   9.655  70.345  1.00  0.00     0.000 HD 
ENDROOT
BRANCH   2   4
HETATM    4  C   UNL     1     -10.781   9.661  67.107  1.00  0.00    -0.188 C  
HETATM    5  H   UNL     1     -10.687   8.108  65.894  1.00  0.00     0.000 HD 
HETATM    6  O   UNL     1     -10.445   8.287  66.795  1.00  0.00    -0.318 OA 
BRANCH   4   7
HETATM    7  C   UNL     1     -10.057  10.518  66.049  1.00  0.00    -0.256 C  
HETATM    8  O   UNL     1      -9.597   9.650  64.999  1.00  0.00    -0.335 OA 
HETATM    9  H   UNL     1      -9.151  10.179  64.348  1.00  0.00     0.000 HD 
BRANCH   7  10
HETATM   10  C   UNL     1     -10.831  11.707  65.443  1.00  0.00    -0.280 C  
HETATM   11  H   UNL     1     -12.542  12.669  65.769  1.00  0.00     0.000 HD 
HETATM   12  O   UNL     1     -12.065  11.937  66.142  1.00  0.00    -0.519 OA 
BRANCH  10  13
HETATM   13  C   UNL     1     -11.126  11.632  63.931  1.00  0.00    -0.401 C  
HETATM   14  H   UNL     1     -10.118  11.747  62.209  1.00  0.00     0.000 HD 
HETATM   15  O   UNL     1      -9.935  11.793  63.140  1.00  0.00    -0.409 OA 
BRANCH  13  16
HETATM   16  C   UNL     1     -12.169  12.646  63.448  1.00  0.00    -0.517 C  
HETATM   17  O   UNL     1     -11.775  13.949  63.904  1.00  0.00    -0.622 OA 
HETATM   18  H   UNL     1     -12.421  14.577  63.605  1.00  0.00     0.000 HD 
ENDBRANCH  13  16
ENDBRANCH  10  13
ENDBRANCH   7  10
ENDBRANCH   4   7
ENDBRANCH   2   4
TORSDOF 5
ENDMDL
MODEL       94
REMARK 921   NORMALIZED FREE ENERGY PREDICTED BY IDOCK:   -3.25 KCAL/MOL
REMARK 922        TOTAL FREE ENERGY PREDICTED BY IDOCK:   -5.04 KCAL/MOL
REMARK 923 INTER-LIGAND FREE ENERGY PREDICTED BY IDOCK:   -4.66 KCAL/MOL
REMARK 924 INTRA-LIGAND FREE ENERGY PREDICTED BY IDOCK:   -0.38 KCAL/MOL
REMARK 927      BINDING AFFINITY PREDICTED BY RF-SCORE:    0.00 PKD
ROOT
HETATM    1  O   UNL     1     -14.033   8.904  73.255  1.00  0.00    -1.203 OA 
HETATM    2  C   UNL     1     -13.373   9.515  72.138  1.00  0.00    -0.461 C  
HETATM    3  H   UNL     1     -14.805   9.406  73.489  1.00  0.00     0.000 HD 
ENDROOT
BRANCH   2   4
HETATM    4  C   UNL     1     -12.129   8.706  71.761  1.00  0.00    -0.340 C  
HETATM    5  H   UNL     1     -10.835   7.564  72.717  1.00  0.00     0.000 HD 
HETATM    6  O   UNL     1     -11.607   8.066  72.951  1.00  0.00    -0.397 OA 
BRANCH   4   7
HETATM    7  C   UNL     1     -10.960   9.529  71.183  1.00  0.00    -0.368 C  
HETATM    8  O   UNL     1      -9.764   9.191  71.906  1.00  0.00    -0.282 OA 
HETATM    9  H   UNL     1      -9.044   9.698  71.550  1.00  0.00     0.000 HD 
BRANCH   7  10
HETATM   10  C   UNL     1     -10.698   9.430  69.666  1.00  0.00    -0.235 C  
HETATM   11  H   UNL     1      -9.187   8.952  68.462  1.00  0.00     0.000 HD 
HETATM   12  O   UNL     1      -9.349   9.014  69.396  1.00  0.00    -0.153 OA 
BRANCH  10  13
HETATM   13  C   UNL     1     -11.001  10.692  68.834  1.00  0.00    -0.249 C  
HETATM   14  H   UNL     1     -12.591  11.788  68.316  1.00  0.00     0.000 HD 
HETATM   15  O   UNL     1     -12.405  11.010  68.828  1.00  0.00    -0.533 OA 
BRANCH  13  16
HETATM   16  C   UNL     1     -10.516  10.615  67.382  1.00  0.00    -0.235 C  
HETATM   17  O   UNL     1     -10.743   9.281  66.903  1.00  0.00    -0.206 OA 
HETATM   18  H   UNL     1     -10.442   9.233  66.004  1.00  0.00     0.000 HD 
ENDBRANCH  13  16
ENDBRANCH  10  13
ENDBRANCH   7  10
ENDBRANCH   4   7
ENDBRANCH   2   4
TORSDOF 5
ENDMDL
MODEL       95
REMARK 921   NORMALIZED FREE ENERGY PREDICTED BY IDOCK:   -3.22 KCAL/MOL
REMARK 922        TOTAL FREE ENERGY PREDICTED BY IDOCK:   -5.01 KCAL/MOL
REMARK 923 INTER-LIGAND FREE ENERGY PREDICTED BY IDOCK:   -4.43 KCAL/MOL
REMARK 924 INTRA-LIGAND FREE ENERGY PREDICTED BY IDOCK:   -0.58 KCAL/MOL
REMARK 927      BINDING AFFINITY PREDICTED BY RF-SCORE:    0.00 PKD
ROOT
HETATM    1  O   UNL     1     -12.282  16.441  71.994  1.00  0.00    -0.583 OA 
HETATM    2  C   UNL     1     -11.339  15.370  71.841  1.00  0.00    -0.384 C  
HETATM    3  H   UNL     1     -12.628  16.443  72.878  1.00  0.00     0.000 HD 
ENDROOT
BRANCH   2   4
HETATM    4  C   UNL     1     -10.781  15.367  70.414  1.00  0.00    -0.286 C  
HETATM    5  H   UNL     1     -10.498  16.710  68.997  1.00  0.00     0.000 HD 
HETATM    6  O   UNL     1     -10.845  16.712  69.882  1.00  0.00    -0.333 OA 
BRANCH   4   7
HETATM    7  C   UNL     1     -11.550  14.484  69.410  1.00  0.00    -0.303 C  
HETATM    8  O   UNL     1     -12.954  14.573  69.709  1.00  0.00    -0.515 OA 
HETATM    9  H   UNL     1     -13.427  14.029  69.091  1.00  0.00     0.000 HD 
BRANCH   7  10
HETATM   10  C   UNL     1     -11.319  14.746  67.907  1.00  0.00    -0.316 C  
HETATM   11  H   UNL     1     -12.108  14.164  66.175  1.00  0.00     0.000 HD 
HETATM   12  O   UNL     1     -12.249  14.003  67.100  1.00  0.00    -0.419 OA 
BRANCH  10  13
HETATM   13  C   UNL     1      -9.894  14.491  67.378  1.00  0.00    -0.227 C  
HETATM   14  H   UNL     1      -8.381  15.545  66.606  1.00  0.00     0.000 HD 
HETATM   15  O   UNL     1      -9.259  15.703  66.931  1.00  0.00    -0.213 OA 
BRANCH  13  16
HETATM   16  C   UNL     1      -9.823  13.461  66.245  1.00  0.00    -0.290 C  
HETATM   17  O   UNL     1      -9.976  14.155  64.997  1.00  0.00    -0.562 OA 
HETATM   18  H   UNL     1      -9.932  13.517  64.295  1.00  0.00     0.000 HD 
ENDBRANCH  13  16
ENDBRANCH  10  13
ENDBRANCH   7  10
ENDBRANCH   4   7
ENDBRANCH   2   4
TORSDOF 5
ENDMDL
MODEL       96
REMARK 921   NORMALIZED FREE ENERGY PREDICTED BY IDOCK:   -3.20 KCAL/MOL
REMARK 922        TOTAL FREE ENERGY PREDICTED BY IDOCK:   -4.98 KCAL/MOL
REMARK 923 INTER-LIGAND FREE ENERGY PREDICTED BY IDOCK:   -4.67 KCAL/MOL
REMARK 924 INTRA-LIGAND FREE ENERGY PREDICTED BY IDOCK:   -0.32 KCAL/MOL
REMARK 927      BINDING AFFINITY PREDICTED BY RF-SCORE:    0.00 PKD
ROOT
HETATM    1  O   UNL     1     -11.650   6.536  66.825  1.00  0.00    -0.731 OA 
HETATM    2  C   UNL     1     -10.666   5.834  67.597  1.00  0.00    -0.229 C  
HETATM    3  H   UNL     1     -11.879   6.028  66.055  1.00  0.00     0.000 HD 
ENDROOT
BRANCH   2   4
HETATM    4  C   UNL     1     -10.296   6.653  68.838  1.00  0.00    -0.193 C  
HETATM    5  H   UNL     1      -8.850   6.622  70.180  1.00  0.00     0.000 HD 
HETATM    6  O   UNL     1      -9.080   6.114  69.410  1.00  0.00    -0.133 OA 
BRANCH   4   7
HETATM    7  C   UNL     1     -11.338   6.629  69.974  1.00  0.00    -0.382 C  
HETATM    8  O   UNL     1     -11.006   5.557  70.873  1.00  0.00    -0.226 OA 
HETATM    9  H   UNL     1     -11.648   5.542  71.573  1.00  0.00     0.000 HD 
BRANCH   7  10
HETATM   10  C   UNL     1     -11.552   7.932  70.774  1.00  0.00    -0.247 C  
HETATM   11  H   UNL     1     -10.439   9.245  71.772  1.00  0.00     0.000 HD 
HETATM   12  O   UNL     1     -10.307   8.443  71.280  1.00  0.00    -0.197 OA 
BRANCH  10  13
HETATM   13  C   UNL     1     -12.566   7.865  71.933  1.00  0.00    -0.319 C  
HETATM   14  H   UNL     1     -14.225   6.853  72.403  1.00  0.00     0.000 HD 
HETATM   15  O   UNL     1     -13.601   6.894  71.689  1.00  0.00    -0.317 OA 
BRANCH  13  16
HETATM   16  C   UNL     1     -13.230   9.208  72.260  1.00  0.00    -0.461 C  
HETATM   17  O   UNL     1     -14.111   9.013  73.376  1.00  0.00    -1.231 OA 
HETATM   18  H   UNL     1     -14.522   9.845  73.579  1.00  0.00     0.000 HD 
ENDBRANCH  13  16
ENDBRANCH  10  13
ENDBRANCH   7  10
ENDBRANCH   4   7
ENDBRANCH   2   4
TORSDOF 5
ENDMDL
MODEL       97
REMARK 921   NORMALIZED FREE ENERGY PREDICTED BY IDOCK:   -3.19 KCAL/MOL
REMARK 922        TOTAL FREE ENERGY PREDICTED BY IDOCK:   -4.97 KCAL/MOL
REMARK 923 INTER-LIGAND FREE ENERGY PREDICTED BY IDOCK:   -4.41 KCAL/MOL
REMARK 924 INTRA-LIGAND FREE ENERGY PREDICTED BY IDOCK:   -0.56 KCAL/MOL
REMARK 927      BINDING AFFINITY PREDICTED BY RF-SCORE:    0.00 PKD
ROOT
HETATM    1  O   UNL     1      -9.116  13.493  68.208  1.00  0.00    -0.192 OA 
HETATM    2  C   UNL     1      -9.416  12.757  67.014  1.00  0.00    -0.233 C  
HETATM    3  H   UNL     1      -8.316  13.162  68.600  1.00  0.00     0.000 HD 
ENDROOT
BRANCH   2   4
HETATM    4  C   UNL     1     -10.705  13.290  66.382  1.00  0.00    -0.285 C  
HETATM    5  H   UNL     1     -12.166  12.540  65.290  1.00  0.00     0.000 HD 
HETATM    6  O   UNL     1     -11.367  12.209  65.682  1.00  0.00    -0.328 OA 
BRANCH   4   7
HETATM    7  C   UNL     1     -10.511  14.407  65.337  1.00  0.00    -0.373 C  
HETATM    8  O   UNL     1     -11.238  14.050  64.149  1.00  0.00    -0.585 OA 
HETATM    9  H   UNL     1     -11.118  14.738  63.506  1.00  0.00     0.000 HD 
BRANCH   7  10
HETATM   10  C   UNL     1     -10.871  15.848  65.756  1.00  0.00    -0.254 C  
HETATM   11  H   UNL     1     -11.219  17.594  64.869  1.00  0.00     0.000 HD 
HETATM   12  O   UNL     1     -10.997  16.708  64.611  1.00  0.00    -0.793 OA 
BRANCH  10  13
HETATM   13  C   UNL     1      -9.929  16.520  66.776  1.00  0.00    -0.276 C  
HETATM   14  H   UNL     1      -9.842  16.815  68.751  1.00  0.00     0.000 HD 
HETATM   15  O   UNL     1     -10.422  16.401  68.123  1.00  0.00    -0.276 OA 
BRANCH  13  16
HETATM   16  C   UNL     1      -9.653  18.000  66.490  1.00  0.00    -0.315 C  
HETATM   17  O   UNL     1      -8.437  18.092  65.732  1.00  0.00    -0.499 OA 
HETATM   18  H   UNL     1      -8.266  19.009  65.555  1.00  0.00     0.000 HD 
ENDBRANCH  13  16
ENDBRANCH  10  13
ENDBRANCH   7  10
ENDBRANCH   4   7
ENDBRANCH   2   4
TORSDOF 5
ENDMDL
MODEL       98
REMARK 921   NORMALIZED FREE ENERGY PREDICTED BY IDOCK:   -3.19 KCAL/MOL
REMARK 922        TOTAL FREE ENERGY PREDICTED BY IDOCK:   -4.97 KCAL/MOL
REMARK 923 INTER-LIGAND FREE ENERGY PREDICTED BY IDOCK:   -4.70 KCAL/MOL
REMARK 924 INTRA-LIGAND FREE ENERGY PREDICTED BY IDOCK:   -0.27 KCAL/MOL
REMARK 927      BINDING AFFINITY PREDICTED BY RF-SCORE:    0.00 PKD
ROOT
HETATM    1  O   UNL     1     -10.565  12.246  69.212  1.00  0.00    -0.435 OA 
HETATM    2  C   UNL     1     -11.565  12.375  68.192  1.00  0.00    -0.341 C  
HETATM    3  H   UNL     1     -10.795  11.539  69.803  1.00  0.00     0.000 HD 
ENDROOT
BRANCH   2   4
HETATM    4  C   UNL     1     -11.193  13.515  67.238  1.00  0.00    -0.298 C  
HETATM    5  H   UNL     1     -12.173  14.759  66.062  1.00  0.00     0.000 HD 
HETATM    6  O   UNL     1     -12.404  14.052  66.654  1.00  0.00    -0.451 OA 
BRANCH   4   7
HETATM    7  C   UNL     1     -10.300  13.110  66.048  1.00  0.00    -0.287 C  
HETATM    8  O   UNL     1      -9.072  13.854  66.129  1.00  0.00    -0.485 OA 
HETATM    9  H   UNL     1      -8.521  13.604  65.395  1.00  0.00     0.000 HD 
BRANCH   7  10
HETATM   10  C   UNL     1      -9.990  11.609  65.866  1.00  0.00    -0.231 C  
HETATM   11  H   UNL     1      -8.390  10.427  65.870  1.00  0.00     0.000 HD 
HETATM   12  O   UNL     1      -8.581  11.350  65.982  1.00  0.00    -0.169 OA 
BRANCH  10  13
HETATM   13  C   UNL     1     -10.507  10.957  64.568  1.00  0.00    -0.323 C  
HETATM   14  H   UNL     1      -9.846   9.681  63.178  1.00  0.00     0.000 HD 
HETATM   15  O   UNL     1      -9.527  10.082  63.978  1.00  0.00    -0.279 OA 
BRANCH  13  16
HETATM   16  C   UNL     1     -10.964  11.960  63.504  1.00  0.00    -0.432 C  
HETATM   17  O   UNL     1     -12.267  11.568  63.046  1.00  0.00    -0.968 OA 
HETATM   18  H   UNL     1     -12.550  12.189  62.387  1.00  0.00     0.000 HD 
ENDBRANCH  13  16
ENDBRANCH  10  13
ENDBRANCH   7  10
ENDBRANCH   4   7
ENDBRANCH   2   4
TORSDOF 5
ENDMDL
MODEL       99
REMARK 921   NORMALIZED FREE ENERGY PREDICTED BY IDOCK:   -3.19 KCAL/MOL
REMARK 922        TOTAL FREE ENERGY PREDICTED BY IDOCK:   -4.97 KCAL/MOL
REMARK 923 INTER-LIGAND FREE ENERGY PREDICTED BY IDOCK:   -3.96 KCAL/MOL
REMARK 924 INTRA-LIGAND FREE ENERGY PREDICTED BY IDOCK:   -1.00 KCAL/MOL
REMARK 927      BINDING AFFINITY PREDICTED BY RF-SCORE:    0.00 PKD
ROOT
HETATM    1  O   UNL     1      -7.551  19.284  68.745  1.00  0.00    -0.336 OA 
HETATM    2  C   UNL     1      -8.253  20.092  67.790  1.00  0.00    -0.292 C  
HETATM    3  H   UNL     1      -6.637  19.542  68.776  1.00  0.00     0.000 HD 
ENDROOT
BRANCH   2   4
HETATM    4  C   UNL     1      -9.727  19.677  67.740  1.00  0.00    -0.371 C  
HETATM    5  H   UNL     1     -11.152  19.339  69.062  1.00  0.00     0.000 HD 
HETATM    6  O   UNL     1     -10.238  19.596  69.093  1.00  0.00    -0.394 OA 
BRANCH   4   7
HETATM    7  C   UNL     1      -9.999  18.297  67.109  1.00  0.00    -0.337 C  
HETATM    8  O   UNL     1      -8.937  18.002  66.185  1.00  0.00    -0.469 OA 
HETATM    9  H   UNL     1      -9.106  17.152  65.796  1.00  0.00     0.000 HD 
BRANCH   7  10
HETATM   10  C   UNL     1     -10.207  17.103  68.064  1.00  0.00    -0.332 C  
HETATM   11  H   UNL     1      -9.079  15.879  69.155  1.00  0.00     0.000 HD 
HETATM   12  O   UNL     1      -8.952  16.614  68.567  1.00  0.00    -0.217 OA 
BRANCH  10  13
HETATM   13  C   UNL     1     -11.013  15.912  67.506  1.00  0.00    -0.280 C  
HETATM   14  H   UNL     1     -12.458  14.675  68.120  1.00  0.00     0.000 HD 
HETATM   15  O   UNL     1     -11.962  15.408  68.464  1.00  0.00    -0.316 OA 
BRANCH  13  16
HETATM   16  C   UNL     1     -10.146  14.744  67.023  1.00  0.00    -0.245 C  
HETATM   17  O   UNL     1      -9.395  15.184  65.882  1.00  0.00    -0.374 OA 
HETATM   18  H   UNL     1      -8.858  14.460  65.582  1.00  0.00     0.000 HD 
ENDBRANCH  13  16
ENDBRANCH  10  13
ENDBRANCH   7  10
ENDBRANCH   4   7
ENDBRANCH   2   4
TORSDOF 5
ENDMDL
MODEL      100
REMARK 921   NORMALIZED FREE ENERGY PREDICTED BY IDOCK:   -3.18 KCAL/MOL
REMARK 922        TOTAL FREE ENERGY PREDICTED BY IDOCK:   -4.96 KCAL/MOL
REMARK 923 INTER-LIGAND FREE ENERGY PREDICTED BY IDOCK:   -4.40 KCAL/MOL
REMARK 924 INTRA-LIGAND FREE ENERGY PREDICTED BY IDOCK:   -0.56 KCAL/MOL
REMARK 927      BINDING AFFINITY PREDICTED BY RF-SCORE:    0.00 PKD
ROOT
HETATM    1  O   UNL     1     -11.188   7.960  68.065  1.00  0.00    -0.350 OA 
HETATM    2  C   UNL     1     -10.140   8.362  68.958  1.00  0.00    -0.203 C  
HETATM    3  H   UNL     1     -11.194   7.014  67.977  1.00  0.00     0.000 HD 
ENDROOT
BRANCH   2   4
HETATM    4  C   UNL     1     -10.132   9.887  69.100  1.00  0.00    -0.200 C  
HETATM    5  H   UNL     1     -10.706  11.189  70.466  1.00  0.00     0.000 HD 
HETATM    6  O   UNL     1     -10.712  10.243  70.378  1.00  0.00    -0.292 OA 
BRANCH   4   7
HETATM    7  C   UNL     1     -10.954  10.649  68.042  1.00  0.00    -0.282 C  
HETATM    8  O   UNL     1     -12.307  10.765  68.514  1.00  0.00    -0.825 OA 
HETATM    9  H   UNL     1     -12.813  11.235  67.862  1.00  0.00     0.000 HD 
BRANCH   7  10
HETATM   10  C   UNL     1     -10.436  12.033  67.597  1.00  0.00    -0.205 C  
HETATM   11  H   UNL     1     -10.406  13.891  68.309  1.00  0.00     0.000 HD 
HETATM   12  O   UNL     1     -10.725  13.039  68.582  1.00  0.00    -0.247 OA 
BRANCH  10  13
HETATM   13  C   UNL     1     -10.921  12.536  66.222  1.00  0.00    -0.277 C  
HETATM   14  H   UNL     1     -12.636  12.656  65.201  1.00  0.00     0.000 HD 
HETATM   15  O   UNL     1     -12.338  12.346  66.048  1.00  0.00    -0.627 OA 
BRANCH  13  16
HETATM   16  C   UNL     1     -10.197  11.897  65.032  1.00  0.00    -0.278 C  
HETATM   17  O   UNL     1      -9.839  12.938  64.112  1.00  0.00    -0.616 OA 
HETATM   18  H   UNL     1      -9.391  12.542  63.374  1.00  0.00     0.000 HD 
ENDBRANCH  13  16
ENDBRANCH  10  13
ENDBRANCH   7  10
ENDBRANCH   4   7
ENDBRANCH   2   4
TORSDOF 5
ENDMDL
MODEL      101
REMARK 921   NORMALIZED FREE ENERGY PREDICTED BY IDOCK:   -3.18 KCAL/MOL
REMARK 922        TOTAL FREE ENERGY PREDICTED BY IDOCK:   -4.95 KCAL/MOL
REMARK 923 INTER-LIGAND FREE ENERGY PREDICTED BY IDOCK:   -4.78 KCAL/MOL
REMARK 924 INTRA-LIGAND FREE ENERGY PREDICTED BY IDOCK:   -0.18 KCAL/MOL
REMARK 927      BINDING AFFINITY PREDICTED BY RF-SCORE:    0.00 PKD
ROOT
HETATM    1  O   UNL     1     -11.450  16.552  63.854  1.00  0.00    -1.608 OA 
HETATM    2  C   UNL     1     -10.929  15.718  64.898  1.00  0.00    -0.427 C  
HETATM    3  H   UNL     1     -11.687  16.021  63.103  1.00  0.00     0.000 HD 
ENDROOT
BRANCH   2   4
HETATM    4  C   UNL     1     -10.547  16.574  66.109  1.00  0.00    -0.236 C  
HETATM    5  H   UNL     1      -9.327  18.086  66.451  1.00  0.00     0.000 HD 
HETATM    6  O   UNL     1      -9.563  17.555  65.700  1.00  0.00    -0.510 OA 
BRANCH   4   7
HETATM    7  C   UNL     1      -9.907  15.805  67.282  1.00  0.00    -0.230 C  
HETATM    8  O   UNL     1      -9.592  16.744  68.324  1.00  0.00    -0.231 OA 
HETATM    9  H   UNL     1      -9.198  16.270  69.046  1.00  0.00     0.000 HD 
BRANCH   7  10
HETATM   10  C   UNL     1     -10.695  14.617  67.871  1.00  0.00    -0.250 C  
HETATM   11  H   UNL     1     -12.076  14.318  69.273  1.00  0.00     0.000 HD 
HETATM   12  O   UNL     1     -11.590  15.049  68.910  1.00  0.00    -0.294 OA 
BRANCH  10  13
HETATM   13  C   UNL     1      -9.859  13.435  68.401  1.00  0.00    -0.216 C  
HETATM   14  H   UNL     1      -8.040  12.655  68.120  1.00  0.00     0.000 HD 
HETATM   15  O   UNL     1      -8.555  13.382  67.793  1.00  0.00    -0.168 OA 
BRANCH  13  16
HETATM   16  C   UNL     1     -10.529  12.067  68.227  1.00  0.00    -0.204 C  
HETATM   17  O   UNL     1     -11.015  11.639  69.508  1.00  0.00    -0.403 OA 
HETATM   18  H   UNL     1     -11.430  10.792  69.400  1.00  0.00     0.000 HD 
ENDBRANCH  13  16
ENDBRANCH  10  13
ENDBRANCH   7  10
ENDBRANCH   4   7
ENDBRANCH   2   4
TORSDOF 5
ENDMDL
MODEL      102
REMARK 921   NORMALIZED FREE ENERGY PREDICTED BY IDOCK:   -3.16 KCAL/MOL
REMARK 922        TOTAL FREE ENERGY PREDICTED BY IDOCK:   -4.93 KCAL/MOL
REMARK 923 INTER-LIGAND FREE ENERGY PREDICTED BY IDOCK:   -4.45 KCAL/MOL
REMARK 924 INTRA-LIGAND FREE ENERGY PREDICTED BY IDOCK:   -0.48 KCAL/MOL
REMARK 927      BINDING AFFINITY PREDICTED BY RF-SCORE:    0.00 PKD
ROOT
HETATM    1  O   UNL     1     -12.272  13.935  63.819  1.00  0.00    -0.746 OA 
HETATM    2  C   UNL     1     -11.157  14.374  64.608  1.00  0.00    -0.354 C  
HETATM    3  H   UNL     1     -12.099  13.068  63.469  1.00  0.00     0.000 HD 
ENDROOT
BRANCH   2   4
HETATM    4  C   UNL     1     -11.436  15.771  65.171  1.00  0.00    -0.048 C  
HETATM    5  H   UNL     1     -11.358  17.619  64.486  1.00  0.00     0.000 HD 
HETATM    6  O   UNL     1     -11.186  16.753  64.137  1.00  0.00    -1.155 OA 
BRANCH   4   7
HETATM    7  C   UNL     1     -10.550  16.186  66.363  1.00  0.00    -0.269 C  
HETATM    8  O   UNL     1     -10.916  15.387  67.501  1.00  0.00    -0.304 OA 
HETATM    9  H   UNL     1     -10.371  15.643  68.236  1.00  0.00     0.000 HD 
BRANCH   7  10
HETATM   10  C   UNL     1      -9.021  16.143  66.166  1.00  0.00    -0.337 C  
HETATM   11  H   UNL     1      -7.482  15.068  66.826  1.00  0.00     0.000 HD 
HETATM   12  O   UNL     1      -8.423  15.095  66.948  1.00  0.00    -0.219 OA 
BRANCH  10  13
HETATM   13  C   UNL     1      -8.258  17.455  66.436  1.00  0.00    -0.271 C  
HETATM   14  H   UNL     1      -6.363  18.066  66.619  1.00  0.00     0.000 HD 
HETATM   15  O   UNL     1      -6.832  17.257  66.453  1.00  0.00    -0.224 OA 
BRANCH  13  16
HETATM   16  C   UNL     1      -8.664  18.157  67.737  1.00  0.00    -0.255 C  
HETATM   17  O   UNL     1      -8.649  17.187  68.795  1.00  0.00    -0.268 OA 
HETATM   18  H   UNL     1      -8.901  17.622  69.600  1.00  0.00     0.000 HD 
ENDBRANCH  13  16
ENDBRANCH  10  13
ENDBRANCH   7  10
ENDBRANCH   4   7
ENDBRANCH   2   4
TORSDOF 5
ENDMDL
MODEL      103
REMARK 921   NORMALIZED FREE ENERGY PREDICTED BY IDOCK:   -3.15 KCAL/MOL
REMARK 922        TOTAL FREE ENERGY PREDICTED BY IDOCK:   -4.92 KCAL/MOL
REMARK 923 INTER-LIGAND FREE ENERGY PREDICTED BY IDOCK:   -4.56 KCAL/MOL
REMARK 924 INTRA-LIGAND FREE ENERGY PREDICTED BY IDOCK:   -0.36 KCAL/MOL
REMARK 927      BINDING AFFINITY PREDICTED BY RF-SCORE:    0.00 PKD
ROOT
HETATM    1  O   UNL     1      -9.618  12.585  63.984  1.00  0.00    -0.559 OA 
HETATM    2  C   UNL     1     -10.910  12.309  63.425  1.00  0.00    -0.403 C  
HETATM    3  H   UNL     1      -8.983  12.703  63.288  1.00  0.00     0.000 HD 
ENDROOT
BRANCH   2   4
HETATM    4  C   UNL     1     -11.935  12.119  64.547  1.00  0.00    -0.337 C  
HETATM    5  H   UNL     1     -13.886  12.334  64.739  1.00  0.00     0.000 HD 
HETATM    6  O   UNL     1     -13.251  12.452  64.043  1.00  0.00    -0.748 OA 
BRANCH   4   7
HETATM    7  C   UNL     1     -11.725  13.012  65.786  1.00  0.00    -0.382 C  
HETATM    8  O   UNL     1     -12.826  13.932  65.876  1.00  0.00    -0.472 OA 
HETATM    9  H   UNL     1     -12.696  14.482  66.639  1.00  0.00     0.000 HD 
BRANCH   7  10
HETATM   10  C   UNL     1     -11.519  12.310  67.145  1.00  0.00    -0.352 C  
HETATM   11  H   UNL     1     -11.708  12.758  69.075  1.00  0.00     0.000 HD 
HETATM   12  O   UNL     1     -11.834  13.189  68.238  1.00  0.00    -0.333 OA 
BRANCH  10  13
HETATM   13  C   UNL     1     -10.128  11.693  67.394  1.00  0.00    -0.198 C  
HETATM   14  H   UNL     1      -9.296  10.338  68.605  1.00  0.00     0.000 HD 
HETATM   15  O   UNL     1     -10.153  10.718  68.452  1.00  0.00    -0.158 OA 
BRANCH  13  16
HETATM   16  C   UNL     1      -9.036  12.721  67.708  1.00  0.00    -0.190 C  
HETATM   17  O   UNL     1      -8.614  13.320  66.473  1.00  0.00    -0.430 OA 
HETATM   18  H   UNL     1      -7.937  13.957  66.668  1.00  0.00     0.000 HD 
ENDBRANCH  13  16
ENDBRANCH  10  13
ENDBRANCH   7  10
ENDBRANCH   4   7
ENDBRANCH   2   4
TORSDOF 5
ENDMDL
MODEL      104
REMARK 921   NORMALIZED FREE ENERGY PREDICTED BY IDOCK:   -3.13 KCAL/MOL
REMARK 922        TOTAL FREE ENERGY PREDICTED BY IDOCK:   -4.89 KCAL/MOL
REMARK 923 INTER-LIGAND FREE ENERGY PREDICTED BY IDOCK:   -4.35 KCAL/MOL
REMARK 924 INTRA-LIGAND FREE ENERGY PREDICTED BY IDOCK:   -0.54 KCAL/MOL
REMARK 927      BINDING AFFINITY PREDICTED BY RF-SCORE:    0.00 PKD
ROOT
HETATM    1  O   UNL     1     -11.926   7.563  70.120  1.00  0.00    -0.494 OA 
HETATM    2  C   UNL     1     -10.821   8.333  70.612  1.00  0.00    -0.236 C  
HETATM    3  H   UNL     1     -11.624   6.710  69.832  1.00  0.00     0.000 HD 
ENDROOT
BRANCH   2   4
HETATM    4  C   UNL     1     -11.310   9.709  71.076  1.00  0.00    -0.374 C  
HETATM    5  H   UNL     1     -12.632  10.382  72.376  1.00  0.00     0.000 HD 
HETATM    6  O   UNL     1     -12.329   9.529  72.088  1.00  0.00    -0.340 OA 
BRANCH   4   7
HETATM    7  C   UNL     1     -11.959  10.579  69.981  1.00  0.00    -0.288 C  
HETATM    8  O   UNL     1     -13.370  10.304  69.958  1.00  0.00    -0.492 OA 
HETATM    9  H   UNL     1     -13.769  10.840  69.283  1.00  0.00     0.000 HD 
BRANCH   7  10
HETATM   10  C   UNL     1     -11.725  12.103  70.048  1.00  0.00    -0.252 C  
HETATM   11  H   UNL     1     -12.499  13.669  71.001  1.00  0.00     0.000 HD 
HETATM   12  O   UNL     1     -12.642  12.731  70.959  1.00  0.00    -0.363 OA 
BRANCH  10  13
HETATM   13  C   UNL     1     -11.767  12.861  68.706  1.00  0.00    -0.323 C  
HETATM   14  H   UNL     1     -12.186  12.475  66.790  1.00  0.00     0.000 HD 
HETATM   15  O   UNL     1     -12.161  12.008  67.616  1.00  0.00    -0.547 OA 
BRANCH  13  16
HETATM   16  C   UNL     1     -10.445  13.543  68.333  1.00  0.00    -0.246 C  
HETATM   17  O   UNL     1     -10.146  14.523  69.339  1.00  0.00    -0.396 OA 
HETATM   18  H   UNL     1      -9.327  14.945  69.108  1.00  0.00     0.000 HD 
ENDBRANCH  13  16
ENDBRANCH  10  13
ENDBRANCH   7  10
ENDBRANCH   4   7
ENDBRANCH   2   4
TORSDOF 5
ENDMDL
MODEL      105
REMARK 921   NORMALIZED FREE ENERGY PREDICTED BY IDOCK:   -3.13 KCAL/MOL
REMARK 922        TOTAL FREE ENERGY PREDICTED BY IDOCK:   -4.89 KCAL/MOL
REMARK 923 INTER-LIGAND FREE ENERGY PREDICTED BY IDOCK:   -4.31 KCAL/MOL
REMARK 924 INTRA-LIGAND FREE ENERGY PREDICTED BY IDOCK:   -0.58 KCAL/MOL
REMARK 927      BINDING AFFINITY PREDICTED BY RF-SCORE:    0.00 PKD
ROOT
HETATM    1  O   UNL     1     -10.120   7.143  74.229  1.00  0.00    -0.444 OA 
HETATM    2  C   UNL     1     -10.828   6.632  73.092  1.00  0.00    -0.269 C  
HETATM    3  H   UNL     1      -9.679   6.433  74.682  1.00  0.00     0.000 HD 
ENDROOT
BRANCH   2   4
HETATM    4  C   UNL     1     -11.538   7.777  72.362  1.00  0.00    -0.356 C  
HETATM    5  H   UNL     1     -12.525   7.984  70.667  1.00  0.00     0.000 HD 
HETATM    6  O   UNL     1     -12.085   7.274  71.119  1.00  0.00    -0.316 OA 
BRANCH   4   7
HETATM    7  C   UNL     1     -10.637   8.965  71.971  1.00  0.00    -0.318 C  
HETATM    8  O   UNL     1      -9.264   8.555  72.096  1.00  0.00    -0.227 OA 
HETATM    9  H   UNL     1      -8.709   9.288  71.855  1.00  0.00     0.000 HD 
BRANCH   7  10
HETATM   10  C   UNL     1     -10.865   9.609  70.587  1.00  0.00    -0.320 C  
HETATM   11  H   UNL     1      -9.758  10.265  69.069  1.00  0.00     0.000 HD 
HETATM   12  O   UNL     1      -9.618   9.869  69.921  1.00  0.00    -0.222 OA 
BRANCH  10  13
HETATM   13  C   UNL     1     -11.715  10.895  70.562  1.00  0.00    -0.342 C  
HETATM   14  H   UNL     1     -13.575  11.459  71.029  1.00  0.00     0.000 HD 
HETATM   15  O   UNL     1     -13.052  10.667  71.044  1.00  0.00    -0.362 OA 
BRANCH  13  16
HETATM   16  C   UNL     1     -11.805  11.557  69.182  1.00  0.00    -0.340 C  
HETATM   17  O   UNL     1     -12.064  10.535  68.209  1.00  0.00    -0.797 OA 
HETATM   18  H   UNL     1     -12.119  10.945  67.354  1.00  0.00     0.000 HD 
ENDBRANCH  13  16
ENDBRANCH  10  13
ENDBRANCH   7  10
ENDBRANCH   4   7
ENDBRANCH   2   4
TORSDOF 5
ENDMDL
MODEL      106
REMARK 921   NORMALIZED FREE ENERGY PREDICTED BY IDOCK:   -3.13 KCAL/MOL
REMARK 922        TOTAL FREE ENERGY PREDICTED BY IDOCK:   -4.89 KCAL/MOL
REMARK 923 INTER-LIGAND FREE ENERGY PREDICTED BY IDOCK:   -4.68 KCAL/MOL
REMARK 924 INTRA-LIGAND FREE ENERGY PREDICTED BY IDOCK:   -0.21 KCAL/MOL
REMARK 927      BINDING AFFINITY PREDICTED BY RF-SCORE:    0.00 PKD
ROOT
HETATM    1  O   UNL     1     -11.412   9.593  68.155  1.00  0.00    -0.504 OA 
HETATM    2  C   UNL     1     -10.362   9.669  67.181  1.00  0.00    -0.254 C  
HETATM    3  H   UNL     1     -11.796   8.723  68.150  1.00  0.00     0.000 HD 
ENDROOT
BRANCH   2   4
HETATM    4  C   UNL     1      -9.744  11.071  67.189  1.00  0.00    -0.174 C  
HETATM    5  H   UNL     1      -9.889  12.679  68.322  1.00  0.00     0.000 HD 
HETATM    6  O   UNL     1     -10.272  11.810  68.317  1.00  0.00    -0.192 OA 
BRANCH   4   7
HETATM    7  C   UNL     1     -10.050  11.930  65.947  1.00  0.00    -0.234 C  
HETATM    8  O   UNL     1      -8.817  12.171  65.246  1.00  0.00    -0.236 OA 
HETATM    9  H   UNL     1      -9.006  12.701  64.481  1.00  0.00     0.000 HD 
BRANCH   7  10
HETATM   10  C   UNL     1     -11.116  11.408  64.961  1.00  0.00    -0.145 C  
HETATM   11  H   UNL     1     -11.168  10.580  63.153  1.00  0.00     0.000 HD 
HETATM   12  O   UNL     1     -10.512  10.902  63.759  1.00  0.00    -0.353 OA 
BRANCH  10  13
HETATM   13  C   UNL     1     -12.233  12.397  64.573  1.00  0.00    -0.431 C  
HETATM   14  H   UNL     1     -13.773  12.480  63.301  1.00  0.00     0.000 HD 
HETATM   15  O   UNL     1     -13.085  11.870  63.540  1.00  0.00    -0.715 OA 
BRANCH  13  16
HETATM   16  C   UNL     1     -11.722  13.771  64.125  1.00  0.00    -0.364 C  
HETATM   17  O   UNL     1     -12.463  14.169  62.962  1.00  0.00    -1.077 OA 
HETATM   18  H   UNL     1     -12.147  15.020  62.684  1.00  0.00     0.000 HD 
ENDBRANCH  13  16
ENDBRANCH  10  13
ENDBRANCH   7  10
ENDBRANCH   4   7
ENDBRANCH   2   4
TORSDOF 5
ENDMDL
MODEL      107
REMARK 921   NORMALIZED FREE ENERGY PREDICTED BY IDOCK:   -3.12 KCAL/MOL
REMARK 922        TOTAL FREE ENERGY PREDICTED BY IDOCK:   -4.88 KCAL/MOL
REMARK 923 INTER-LIGAND FREE ENERGY PREDICTED BY IDOCK:   -4.41 KCAL/MOL
REMARK 924 INTRA-LIGAND FREE ENERGY PREDICTED BY IDOCK:   -0.47 KCAL/MOL
REMARK 927      BINDING AFFINITY PREDICTED BY RF-SCORE:    0.00 PKD
ROOT
HETATM    1  O   UNL     1     -11.005  18.426  65.047  1.00  0.00    -0.644 OA 
HETATM    2  C   UNL     1     -10.411  18.686  66.326  1.00  0.00    -0.444 C  
HETATM    3  H   UNL     1     -11.453  19.202  64.734  1.00  0.00     0.000 HD 
ENDROOT
BRANCH   2   4
HETATM    4  C   UNL     1      -9.687  17.433  66.830  1.00  0.00    -0.286 C  
HETATM    5  H   UNL     1      -8.467  16.091  66.056  1.00  0.00     0.000 HD 
HETATM    6  O   UNL     1      -8.916  16.867  65.743  1.00  0.00    -0.524 OA 
BRANCH   4   7
HETATM    7  C   UNL     1     -10.606  16.299  67.325  1.00  0.00    -0.298 C  
HETATM    8  O   UNL     1     -10.855  15.404  66.227  1.00  0.00    -0.313 OA 
HETATM    9  H   UNL     1     -11.421  14.705  66.532  1.00  0.00     0.000 HD 
BRANCH   7  10
HETATM   10  C   UNL     1     -10.147  15.495  68.560  1.00  0.00    -0.211 C  
HETATM   11  H   UNL     1      -8.729  14.173  69.010  1.00  0.00     0.000 HD 
HETATM   12  O   UNL     1      -9.012  14.668  68.250  1.00  0.00    -0.172 OA 
BRANCH  10  13
HETATM   13  C   UNL     1     -11.218  14.626  69.249  1.00  0.00    -0.282 C  
HETATM   14  H   UNL     1     -12.761  13.469  68.722  1.00  0.00     0.000 HD 
HETATM   15  O   UNL     1     -12.101  14.004  68.297  1.00  0.00    -0.355 OA 
BRANCH  13  16
HETATM   16  C   UNL     1     -12.068  15.381  70.277  1.00  0.00    -0.369 C  
HETATM   17  O   UNL     1     -11.392  16.604  70.608  1.00  0.00    -0.518 OA 
HETATM   18  H   UNL     1     -11.919  17.071  71.245  1.00  0.00     0.000 HD 
ENDBRANCH  13  16
ENDBRANCH  10  13
ENDBRANCH   7  10
ENDBRANCH   4   7
ENDBRANCH   2   4
TORSDOF 5
ENDMDL
MODEL      108
REMARK 921   NORMALIZED FREE ENERGY PREDICTED BY IDOCK:   -3.10 KCAL/MOL
REMARK 922        TOTAL FREE ENERGY PREDICTED BY IDOCK:   -4.85 KCAL/MOL
REMARK 923 INTER-LIGAND FREE ENERGY PREDICTED BY IDOCK:   -4.09 KCAL/MOL
REMARK 924 INTRA-LIGAND FREE ENERGY PREDICTED BY IDOCK:   -0.76 KCAL/MOL
REMARK 927      BINDING AFFINITY PREDICTED BY RF-SCORE:    0.00 PKD
ROOT
HETATM    1  O   UNL     1      -8.879  11.038  69.472  1.00  0.00    -0.380 OA 
HETATM    2  C   UNL     1      -9.916  11.129  68.486  1.00  0.00    -0.199 C  
HETATM    3  H   UNL     1      -8.081  11.432  69.140  1.00  0.00     0.000 HD 
ENDROOT
BRANCH   2   4
HETATM    4  C   UNL     1     -11.203  10.493  69.022  1.00  0.00    -0.259 C  
HETATM    5  H   UNL     1     -13.136  10.708  68.694  1.00  0.00     0.000 HD 
HETATM    6  O   UNL     1     -12.338  11.102  68.361  1.00  0.00    -0.556 OA 
BRANCH   4   7
HETATM    7  C   UNL     1     -11.448  10.680  70.532  1.00  0.00    -0.317 C  
HETATM    8  O   UNL     1     -12.772  11.211  70.715  1.00  0.00    -0.330 OA 
HETATM    9  H   UNL     1     -12.923  11.327  71.646  1.00  0.00     0.000 HD 
BRANCH   7  10
HETATM   10  C   UNL     1     -11.247   9.454  71.446  1.00  0.00    -0.381 C  
HETATM   11  H   UNL     1      -9.753   8.261  71.999  1.00  0.00     0.000 HD 
HETATM   12  O   UNL     1      -9.878   9.015  71.436  1.00  0.00    -0.278 OA 
BRANCH  10  13
HETATM   13  C   UNL     1     -12.156   8.239  71.172  1.00  0.00    -0.252 C  
HETATM   14  H   UNL     1     -14.023   7.654  71.581  1.00  0.00     0.000 HD 
HETATM   15  O   UNL     1     -13.463   8.402  71.750  1.00  0.00    -0.342 OA 
BRANCH  13  16
HETATM   16  C   UNL     1     -11.576   6.904  71.654  1.00  0.00    -0.287 C  
HETATM   17  O   UNL     1     -11.599   6.897  73.090  1.00  0.00    -0.508 OA 
HETATM   18  H   UNL     1     -11.239   6.070  73.388  1.00  0.00     0.000 HD 
ENDBRANCH  13  16
ENDBRANCH  10  13
ENDBRANCH   7  10
ENDBRANCH   4   7
ENDBRANCH   2   4
TORSDOF 5
ENDMDL
MODEL      109
REMARK 921   NORMALIZED FREE ENERGY PREDICTED BY IDOCK:   -3.10 KCAL/MOL
REMARK 922        TOTAL FREE ENERGY PREDICTED BY IDOCK:   -4.85 KCAL/MOL
REMARK 923 INTER-LIGAND FREE ENERGY PREDICTED BY IDOCK:   -4.20 KCAL/MOL
REMARK 924 INTRA-LIGAND FREE ENERGY PREDICTED BY IDOCK:   -0.65 KCAL/MOL
REMARK 927      BINDING AFFINITY PREDICTED BY RF-SCORE:    0.00 PKD
ROOT
HETATM    1  O   UNL     1     -11.557   6.496  66.859  1.00  0.00    -0.725 OA 
HETATM    2  C   UNL     1     -10.622   7.525  67.208  1.00  0.00    -0.324 C  
HETATM    3  H   UNL     1     -11.733   6.521  65.926  1.00  0.00     0.000 HD 
ENDROOT
BRANCH   2   4
HETATM    4  C   UNL     1     -10.338   7.483  68.713  1.00  0.00    -0.200 C  
HETATM    5  H   UNL     1      -8.832   6.925  69.859  1.00  0.00     0.000 HD 
HETATM    6  O   UNL     1      -9.008   6.950  68.926  1.00  0.00    -0.132 OA 
BRANCH   4   7
HETATM    7  C   UNL     1     -11.284   6.586  69.535  1.00  0.00    -0.372 C  
HETATM    8  O   UNL     1     -10.715   5.266  69.601  1.00  0.00    -0.273 OA 
HETATM    9  H   UNL     1     -11.298   4.713  70.108  1.00  0.00     0.000 HD 
BRANCH   7  10
HETATM   10  C   UNL     1     -11.666   7.060  70.953  1.00  0.00    -0.343 C  
HETATM   11  H   UNL     1     -13.328   7.341  72.012  1.00  0.00     0.000 HD 
HETATM   12  O   UNL     1     -13.092   7.049  71.139  1.00  0.00    -0.345 OA 
BRANCH  10  13
HETATM   13  C   UNL     1     -11.123   8.437  71.384  1.00  0.00    -0.255 C  
HETATM   14  H   UNL     1      -9.972   9.198  72.830  1.00  0.00     0.000 HD 
HETATM   15  O   UNL     1     -10.306   8.349  72.566  1.00  0.00    -0.315 OA 
BRANCH  13  16
HETATM   16  C   UNL     1     -12.211   9.490  71.625  1.00  0.00    -0.398 C  
HETATM   17  O   UNL     1     -12.684   9.948  70.349  1.00  0.00    -0.516 OA 
HETATM   18  H   UNL     1     -13.358  10.600  70.498  1.00  0.00     0.000 HD 
ENDBRANCH  13  16
ENDBRANCH  10  13
ENDBRANCH   7  10
ENDBRANCH   4   7
ENDBRANCH   2   4
TORSDOF 5
ENDMDL
MODEL      110
REMARK 921   NORMALIZED FREE ENERGY PREDICTED BY IDOCK:   -3.09 KCAL/MOL
REMARK 922        TOTAL FREE ENERGY PREDICTED BY IDOCK:   -4.84 KCAL/MOL
REMARK 923 INTER-LIGAND FREE ENERGY PREDICTED BY IDOCK:   -4.54 KCAL/MOL
REMARK 924 INTRA-LIGAND FREE ENERGY PREDICTED BY IDOCK:   -0.30 KCAL/MOL
REMARK 927      BINDING AFFINITY PREDICTED BY RF-SCORE:    0.00 PKD
ROOT
HETATM    1  O   UNL     1      -9.206   9.028  64.754  1.00  0.00    -0.438 OA 
HETATM    2  C   UNL     1      -9.924   9.529  65.890  1.00  0.00    -0.272 C  
HETATM    3  H   UNL     1      -9.639   8.254  64.413  1.00  0.00     0.000 HD 
ENDROOT
BRANCH   2   4
HETATM    4  C   UNL     1      -9.227  10.778  66.439  1.00  0.00    -0.170 C  
HETATM    5  H   UNL     1      -9.159  11.720  68.170  1.00  0.00     0.000 HD 
HETATM    6  O   UNL     1      -9.591  10.945  67.830  1.00  0.00    -0.161 OA 
BRANCH   4   7
HETATM    7  C   UNL     1      -9.609  12.101  65.746  1.00  0.00    -0.197 C  
HETATM    8  O   UNL     1      -9.705  11.862  64.331  1.00  0.00    -0.399 OA 
HETATM    9  H   UNL     1      -9.940  12.677  63.904  1.00  0.00     0.000 HD 
BRANCH   7  10
HETATM   10  C   UNL     1     -10.879  12.825  66.240  1.00  0.00    -0.275 C  
HETATM   11  H   UNL     1     -12.821  12.431  66.419  1.00  0.00     0.000 HD 
HETATM   12  O   UNL     1     -12.040  11.986  66.115  1.00  0.00    -0.582 OA 
BRANCH  10  13
HETATM   13  C   UNL     1     -11.185  14.190  65.590  1.00  0.00    -0.308 C  
HETATM   14  H   UNL     1     -11.315  16.107  66.144  1.00  0.00     0.000 HD 
HETATM   15  O   UNL     1     -11.127  15.266  66.544  1.00  0.00    -0.325 OA 
BRANCH  13  16
HETATM   16  C   UNL     1     -12.539  14.251  64.874  1.00  0.00    -0.324 C  
HETATM   17  O   UNL     1     -12.297  14.386  63.466  1.00  0.00    -1.091 OA 
HETATM   18  H   UNL     1     -13.136  14.424  63.023  1.00  0.00     0.000 HD 
ENDBRANCH  13  16
ENDBRANCH  10  13
ENDBRANCH   7  10
ENDBRANCH   4   7
ENDBRANCH   2   4
TORSDOF 5
ENDMDL
MODEL      111
REMARK 921   NORMALIZED FREE ENERGY PREDICTED BY IDOCK:   -3.08 KCAL/MOL
REMARK 922        TOTAL FREE ENERGY PREDICTED BY IDOCK:   -4.83 KCAL/MOL
REMARK 923 INTER-LIGAND FREE ENERGY PREDICTED BY IDOCK:   -4.08 KCAL/MOL
REMARK 924 INTRA-LIGAND FREE ENERGY PREDICTED BY IDOCK:   -0.75 KCAL/MOL
REMARK 927      BINDING AFFINITY PREDICTED BY RF-SCORE:    0.00 PKD
ROOT
HETATM    1  O   UNL     1      -7.507  20.224  67.441  1.00  0.00    -0.277 OA 
HETATM    2  C   UNL     1      -7.765  19.568  68.690  1.00  0.00    -0.355 C  
HETATM    3  H   UNL     1      -7.102  21.069  67.597  1.00  0.00     0.000 HD 
ENDROOT
BRANCH   2   4
HETATM    4  C   UNL     1      -8.418  18.206  68.438  1.00  0.00    -0.299 C  
HETATM    5  H   UNL     1      -7.785  16.372  68.080  1.00  0.00     0.000 HD 
HETATM    6  O   UNL     1      -7.380  17.217  68.236  1.00  0.00    -0.197 OA 
BRANCH   4   7
HETATM    7  C   UNL     1      -9.316  18.129  67.186  1.00  0.00    -0.263 C  
HETATM    8  O   UNL     1      -8.484  17.848  66.047  1.00  0.00    -0.498 OA 
HETATM    9  H   UNL     1      -9.037  17.801  65.277  1.00  0.00     0.000 HD 
BRANCH   7  10
HETATM   10  C   UNL     1     -10.505  17.147  67.220  1.00  0.00    -0.313 C  
HETATM   11  H   UNL     1     -11.688  16.315  68.587  1.00  0.00     0.000 HD 
HETATM   12  O   UNL     1     -10.956  16.919  68.566  1.00  0.00    -0.350 OA 
BRANCH  10  13
HETATM   13  C   UNL     1     -10.286  15.782  66.536  1.00  0.00    -0.294 C  
HETATM   14  H   UNL     1     -10.675  14.920  64.775  1.00  0.00     0.000 HD 
HETATM   15  O   UNL     1     -10.811  15.761  65.196  1.00  0.00    -0.400 OA 
BRANCH  13  16
HETATM   16  C   UNL     1     -10.876  14.596  67.306  1.00  0.00    -0.305 C  
HETATM   17  O   UNL     1     -12.302  14.615  67.137  1.00  0.00    -0.533 OA 
HETATM   18  H   UNL     1     -12.667  13.880  67.615  1.00  0.00     0.000 HD 
ENDBRANCH  13  16
ENDBRANCH  10  13
ENDBRANCH   7  10
ENDBRANCH   4   7
ENDBRANCH   2   4
TORSDOF 5
ENDMDL
MODEL      112
REMARK 921   NORMALIZED FREE ENERGY PREDICTED BY IDOCK:   -3.08 KCAL/MOL
REMARK 922        TOTAL FREE ENERGY PREDICTED BY IDOCK:   -4.83 KCAL/MOL
REMARK 923 INTER-LIGAND FREE ENERGY PREDICTED BY IDOCK:   -4.29 KCAL/MOL
REMARK 924 INTRA-LIGAND FREE ENERGY PREDICTED BY IDOCK:   -0.54 KCAL/MOL
REMARK 927      BINDING AFFINITY PREDICTED BY RF-SCORE:    0.00 PKD
ROOT
HETATM    1  O   UNL     1     -11.273  15.363  64.519  1.00  0.00    -0.629 OA 
HETATM    2  C   UNL     1     -10.647  14.087  64.709  1.00  0.00    -0.421 C  
HETATM    3  H   UNL     1     -11.218  15.618  63.606  1.00  0.00     0.000 HD 
ENDROOT
BRANCH   2   4
HETATM    4  C   UNL     1     -10.736  13.675  66.181  1.00  0.00    -0.286 C  
HETATM    5  H   UNL     1     -11.553  12.192  67.193  1.00  0.00     0.000 HD 
HETATM    6  O   UNL     1     -11.498  12.447  66.280  1.00  0.00    -0.330 OA 
BRANCH   4   7
HETATM    7  C   UNL     1     -11.450  14.684  67.103  1.00  0.00    -0.368 C  
HETATM    8  O   UNL     1     -12.519  14.002  67.782  1.00  0.00    -0.490 OA 
HETATM    9  H   UNL     1     -12.958  14.624  68.350  1.00  0.00     0.000 HD 
BRANCH   7  10
HETATM   10  C   UNL     1     -10.587  15.451  68.126  1.00  0.00    -0.263 C  
HETATM   11  H   UNL     1     -10.835  16.901  69.466  1.00  0.00     0.000 HD 
HETATM   12  O   UNL     1     -11.366  16.429  68.836  1.00  0.00    -0.332 OA 
BRANCH  10  13
HETATM   13  C   UNL     1      -9.319  16.135  67.577  1.00  0.00    -0.217 C  
HETATM   14  H   UNL     1      -7.422  16.426  68.137  1.00  0.00     0.000 HD 
HETATM   15  O   UNL     1      -8.203  16.004  68.476  1.00  0.00    -0.164 OA 
BRANCH  13  16
HETATM   16  C   UNL     1      -9.504  17.621  67.247  1.00  0.00    -0.257 C  
HETATM   17  O   UNL     1      -9.931  17.728  65.881  1.00  0.00    -0.527 OA 
HETATM   18  H   UNL     1     -10.045  18.649  65.677  1.00  0.00     0.000 HD 
ENDBRANCH  13  16
ENDBRANCH  10  13
ENDBRANCH   7  10
ENDBRANCH   4   7
ENDBRANCH   2   4
TORSDOF 5
ENDMDL
MODEL      113
REMARK 921   NORMALIZED FREE ENERGY PREDICTED BY IDOCK:   -3.08 KCAL/MOL
REMARK 922        TOTAL FREE ENERGY PREDICTED BY IDOCK:   -4.83 KCAL/MOL
REMARK 923 INTER-LIGAND FREE ENERGY PREDICTED BY IDOCK:   -4.30 KCAL/MOL
REMARK 924 INTRA-LIGAND FREE ENERGY PREDICTED BY IDOCK:   -0.52 KCAL/MOL
REMARK 927      BINDING AFFINITY PREDICTED BY RF-SCORE:    0.00 PKD
ROOT
HETATM    1  O   UNL     1     -11.716  10.463  67.973  1.00  0.00    -0.729 OA 
HETATM    2  C   UNL     1     -10.679  10.399  66.984  1.00  0.00    -0.235 C  
HETATM    3  H   UNL     1     -11.584   9.785  68.626  1.00  0.00     0.000 HD 
ENDROOT
BRANCH   2   4
HETATM    4  C   UNL     1     -10.893  11.493  65.933  1.00  0.00    -0.260 C  
HETATM    5  H   UNL     1     -10.807  11.606  63.966  1.00  0.00     0.000 HD 
HETATM    6  O   UNL     1     -10.675  10.928  64.617  1.00  0.00    -0.308 OA 
BRANCH   4   7
HETATM    7  C   UNL     1      -9.935  12.697  66.034  1.00  0.00    -0.258 C  
HETATM    8  O   UNL     1     -10.001  13.435  64.802  1.00  0.00    -0.582 OA 
HETATM    9  H   UNL     1      -9.411  14.176  64.864  1.00  0.00     0.000 HD 
BRANCH   7  10
HETATM   10  C   UNL     1     -10.120  13.658  67.228  1.00  0.00    -0.239 C  
HETATM   11  H   UNL     1      -9.473  13.815  69.103  1.00  0.00     0.000 HD 
HETATM   12  O   UNL     1      -9.360  13.224  68.368  1.00  0.00    -0.205 OA 
BRANCH  10  13
HETATM   13  C   UNL     1     -11.571  13.924  67.675  1.00  0.00    -0.348 C  
HETATM   14  H   UNL     1     -13.288  14.550  66.863  1.00  0.00     0.000 HD 
HETATM   15  O   UNL     1     -12.394  14.386  66.588  1.00  0.00    -0.409 OA 
BRANCH  13  16
HETATM   16  C   UNL     1     -11.695  14.919  68.833  1.00  0.00    -0.315 C  
HETATM   17  O   UNL     1     -11.277  14.260  70.038  1.00  0.00    -0.414 OA 
HETATM   18  H   UNL     1     -11.355  14.877  70.756  1.00  0.00     0.000 HD 
ENDBRANCH  13  16
ENDBRANCH  10  13
ENDBRANCH   7  10
ENDBRANCH   4   7
ENDBRANCH   2   4
TORSDOF 5
ENDMDL
MODEL      114
REMARK 921   NORMALIZED FREE ENERGY PREDICTED BY IDOCK:   -3.07 KCAL/MOL
REMARK 922        TOTAL FREE ENERGY PREDICTED BY IDOCK:   -4.82 KCAL/MOL
REMARK 923 INTER-LIGAND FREE ENERGY PREDICTED BY IDOCK:   -4.51 KCAL/MOL
REMARK 924 INTRA-LIGAND FREE ENERGY PREDICTED BY IDOCK:   -0.31 KCAL/MOL
REMARK 927      BINDING AFFINITY PREDICTED BY RF-SCORE:    0.00 PKD
ROOT
HETATM    1  O   UNL     1     -11.251  14.056  70.616  1.00  0.00    -0.487 OA 
HETATM    2  C   UNL     1     -12.368  14.316  69.754  1.00  0.00    -0.292 C  
HETATM    3  H   UNL     1     -11.547  13.613  71.403  1.00  0.00     0.000 HD 
ENDROOT
BRANCH   2   4
HETATM    4  C   UNL     1     -11.891  15.030  68.485  1.00  0.00    -0.291 C  
HETATM    5  H   UNL     1     -10.461  14.756  67.154  1.00  0.00     0.000 HD 
HETATM    6  O   UNL     1     -10.756  14.314  67.941  1.00  0.00    -0.237 OA 
BRANCH   4   7
HETATM    7  C   UNL     1     -11.411  16.480  68.688  1.00  0.00    -0.237 C  
HETATM    8  O   UNL     1     -11.120  16.671  70.084  1.00  0.00    -0.451 OA 
HETATM    9  H   UNL     1     -10.824  17.565  70.209  1.00  0.00     0.000 HD 
BRANCH   7  10
HETATM   10  C   UNL     1     -10.219  16.964  67.836  1.00  0.00    -0.308 C  
HETATM   11  H   UNL     1      -8.377  17.655  68.141  1.00  0.00     0.000 HD 
HETATM   12  O   UNL     1      -9.112  17.358  68.665  1.00  0.00    -0.270 OA 
BRANCH  10  13
HETATM   13  C   UNL     1     -10.510  18.097  66.832  1.00  0.00    -0.357 C  
HETATM   14  H   UNL     1     -10.704  18.320  64.855  1.00  0.00     0.000 HD 
HETATM   15  O   UNL     1     -10.525  17.622  65.473  1.00  0.00    -0.636 OA 
BRANCH  13  16
HETATM   16  C   UNL     1      -9.535  19.277  66.921  1.00  0.00    -0.325 C  
HETATM   17  O   UNL     1      -9.877  20.221  65.896  1.00  0.00    -0.617 OA 
HETATM   18  H   UNL     1      -9.273  20.952  65.951  1.00  0.00     0.000 HD 
ENDBRANCH  13  16
ENDBRANCH  10  13
ENDBRANCH   7  10
ENDBRANCH   4   7
ENDBRANCH   2   4
TORSDOF 5
ENDMDL
MODEL      115
REMARK 921   NORMALIZED FREE ENERGY PREDICTED BY IDOCK:   -3.07 KCAL/MOL
REMARK 922        TOTAL FREE ENERGY PREDICTED BY IDOCK:   -4.81 KCAL/MOL
REMARK 923 INTER-LIGAND FREE ENERGY PREDICTED BY IDOCK:   -4.59 KCAL/MOL
REMARK 924 INTRA-LIGAND FREE ENERGY PREDICTED BY IDOCK:   -0.22 KCAL/MOL
REMARK 927      BINDING AFFINITY PREDICTED BY RF-SCORE:    0.00 PKD
ROOT
HETATM    1  O   UNL     1     -12.249  11.355  62.951  1.00  0.00    -0.940 OA 
HETATM    2  C   UNL     1     -12.275  12.714  63.408  1.00  0.00    -0.517 C  
HETATM    3  H   UNL     1     -12.166  11.333  62.005  1.00  0.00     0.000 HD 
ENDROOT
BRANCH   2   4
HETATM    4  C   UNL     1     -12.409  12.749  64.933  1.00  0.00    -0.490 C  
HETATM    5  H   UNL     1     -13.246  13.948  66.257  1.00  0.00     0.000 HD 
HETATM    6  O   UNL     1     -13.163  13.926  65.311  1.00  0.00    -0.774 OA 
BRANCH   4   7
HETATM    7  C   UNL     1     -11.079  12.839  65.708  1.00  0.00    -0.285 C  
HETATM    8  O   UNL     1     -11.095  14.037  66.502  1.00  0.00    -0.306 OA 
HETATM    9  H   UNL     1     -10.276  14.093  66.979  1.00  0.00     0.000 HD 
BRANCH   7  10
HETATM   10  C   UNL     1     -10.683  11.635  66.588  1.00  0.00    -0.270 C  
HETATM   11  H   UNL     1     -10.419  11.251  68.523  1.00  0.00     0.000 HD 
HETATM   12  O   UNL     1     -10.663  11.992  67.980  1.00  0.00    -0.199 OA 
BRANCH  10  13
HETATM   13  C   UNL     1      -9.352  10.939  66.238  1.00  0.00    -0.179 C  
HETATM   14  H   UNL     1      -8.232  10.597  64.618  1.00  0.00     0.000 HD 
HETATM   15  O   UNL     1      -9.052  11.026  64.833  1.00  0.00    -0.197 OA 
BRANCH  13  16
HETATM   16  C   UNL     1      -9.288   9.466  66.657  1.00  0.00    -0.163 C  
HETATM   17  O   UNL     1     -10.486   8.818  66.203  1.00  0.00    -0.274 OA 
HETATM   18  H   UNL     1     -10.446   7.905  66.463  1.00  0.00     0.000 HD 
ENDBRANCH  13  16
ENDBRANCH  10  13
ENDBRANCH   7  10
ENDBRANCH   4   7
ENDBRANCH   2   4
TORSDOF 5
ENDMDL
MODEL      116
REMARK 921   NORMALIZED FREE ENERGY PREDICTED BY IDOCK:   -3.06 KCAL/MOL
REMARK 922        TOTAL FREE ENERGY PREDICTED BY IDOCK:   -4.80 KCAL/MOL
REMARK 923 INTER-LIGAND FREE ENERGY PREDICTED BY IDOCK:   -4.65 KCAL/MOL
REMARK 924 INTRA-LIGAND FREE ENERGY PREDICTED BY IDOCK:   -0.15 KCAL/MOL
REMARK 927      BINDING AFFINITY PREDICTED BY RF-SCORE:    0.00 PKD
ROOT
HETATM    1  O   UNL     1     -11.784  16.261  63.714  1.00  0.00    -1.511 OA 
HETATM    2  C   UNL     1     -11.365  15.612  64.922  1.00  0.00    -0.315 C  
HETATM    3  H   UNL     1     -12.641  15.943  63.456  1.00  0.00     0.000 HD 
ENDROOT
BRANCH   2   4
HETATM    4  C   UNL     1      -9.983  16.125  65.339  1.00  0.00    -0.106 C  
HETATM    5  H   UNL     1      -8.374  15.350  66.176  1.00  0.00     0.000 HD 
HETATM    6  O   UNL     1      -9.231  15.031  65.918  1.00  0.00    -0.280 OA 
BRANCH   4   7
HETATM    7  C   UNL     1      -9.990  17.238  66.406  1.00  0.00    -0.311 C  
HETATM    8  O   UNL     1     -10.957  16.895  67.414  1.00  0.00    -0.221 OA 
HETATM    9  H   UNL     1     -10.961  17.581  68.071  1.00  0.00     0.000 HD 
BRANCH   7  10
HETATM   10  C   UNL     1      -8.646  17.596  67.073  1.00  0.00    -0.237 C  
HETATM   11  H   UNL     1      -7.899  17.700  68.915  1.00  0.00     0.000 HD 
HETATM   12  O   UNL     1      -8.727  17.480  68.504  1.00  0.00    -0.274 OA 
BRANCH  10  13
HETATM   13  C   UNL     1      -8.053  18.975  66.722  1.00  0.00    -0.269 C  
HETATM   14  H   UNL     1      -6.301  19.738  66.135  1.00  0.00     0.000 HD 
HETATM   15  O   UNL     1      -6.666  18.888  66.351  1.00  0.00    -0.192 OA 
BRANCH  13  16
HETATM   16  C   UNL     1      -8.191  20.016  67.840  1.00  0.00    -0.254 C  
HETATM   17  O   UNL     1      -7.812  21.296  67.311  1.00  0.00    -0.678 OA 
HETATM   18  H   UNL     1      -7.897  21.940  68.003  1.00  0.00     0.000 HD 
ENDBRANCH  13  16
ENDBRANCH  10  13
ENDBRANCH   7  10
ENDBRANCH   4   7
ENDBRANCH   2   4
TORSDOF 5
ENDMDL
MODEL      117
REMARK 921   NORMALIZED FREE ENERGY PREDICTED BY IDOCK:   -3.06 KCAL/MOL
REMARK 922        TOTAL FREE ENERGY PREDICTED BY IDOCK:   -4.80 KCAL/MOL
REMARK 923 INTER-LIGAND FREE ENERGY PREDICTED BY IDOCK:   -4.22 KCAL/MOL
REMARK 924 INTRA-LIGAND FREE ENERGY PREDICTED BY IDOCK:   -0.58 KCAL/MOL
REMARK 927      BINDING AFFINITY PREDICTED BY RF-SCORE:    0.00 PKD
ROOT
HETATM    1  O   UNL     1      -8.448  10.951  64.769  1.00  0.00    -0.347 OA 
HETATM    2  C   UNL     1      -9.661  10.246  64.473  1.00  0.00    -0.329 C  
HETATM    3  H   UNL     1      -7.747  10.332  64.937  1.00  0.00     0.000 HD 
ENDROOT
BRANCH   2   4
HETATM    4  C   UNL     1     -10.791  11.244  64.203  1.00  0.00    -0.337 C  
HETATM    5  H   UNL     1     -11.083  12.759  62.974  1.00  0.00     0.000 HD 
HETATM    6  O   UNL     1     -10.382  12.141  63.141  1.00  0.00    -0.389 OA 
BRANCH   4   7
HETATM    7  C   UNL     1     -11.166  12.150  65.392  1.00  0.00    -0.333 C  
HETATM    8  O   UNL     1     -10.945  11.417  66.609  1.00  0.00    -0.281 OA 
HETATM    9  H   UNL     1     -11.176  11.975  67.342  1.00  0.00     0.000 HD 
BRANCH   7  10
HETATM   10  C   UNL     1     -10.482  13.530  65.483  1.00  0.00    -0.299 C  
HETATM   11  H   UNL     1      -8.978  14.363  66.484  1.00  0.00     0.000 HD 
HETATM   12  O   UNL     1      -9.399  13.514  66.428  1.00  0.00    -0.248 OA 
BRANCH  10  13
HETATM   13  C   UNL     1     -11.398  14.729  65.802  1.00  0.00    -0.336 C  
HETATM   14  H   UNL     1     -11.695  16.592  65.141  1.00  0.00     0.000 HD 
HETATM   15  O   UNL     1     -11.131  15.854  64.945  1.00  0.00    -0.428 OA 
BRANCH  13  16
HETATM   16  C   UNL     1     -11.324  15.201  67.258  1.00  0.00    -0.303 C  
HETATM   17  O   UNL     1     -12.474  14.697  67.953  1.00  0.00    -0.586 OA 
HETATM   18  H   UNL     1     -12.428  14.990  68.855  1.00  0.00     0.000 HD 
ENDBRANCH  13  16
ENDBRANCH  10  13
ENDBRANCH   7  10
ENDBRANCH   4   7
ENDBRANCH   2   4
TORSDOF 5
ENDMDL
MODEL      118
REMARK 921   NORMALIZED FREE ENERGY PREDICTED BY IDOCK:   -3.05 KCAL/MOL
REMARK 922        TOTAL FREE ENERGY PREDICTED BY IDOCK:   -4.78 KCAL/MOL
REMARK 923 INTER-LIGAND FREE ENERGY PREDICTED BY IDOCK:   -4.30 KCAL/MOL
REMARK 924 INTRA-LIGAND FREE ENERGY PREDICTED BY IDOCK:   -0.48 KCAL/MOL
REMARK 927      BINDING AFFINITY PREDICTED BY RF-SCORE:    0.00 PKD
ROOT
HETATM    1  O   UNL     1     -10.254  10.302  65.807  1.00  0.00    -0.257 OA 
HETATM    2  C   UNL     1      -9.165  11.153  65.422  1.00  0.00    -0.205 C  
HETATM    3  H   UNL     1     -10.401   9.643  65.139  1.00  0.00     0.000 HD 
ENDROOT
BRANCH   2   4
HETATM    4  C   UNL     1      -8.929  12.217  66.499  1.00  0.00    -0.179 C  
HETATM    5  H   UNL     1      -8.909  12.260  68.471  1.00  0.00     0.000 HD 
HETATM    6  O   UNL     1      -9.056  11.600  67.804  1.00  0.00    -0.164 OA 
BRANCH   4   7
HETATM    7  C   UNL     1      -9.929  13.390  66.494  1.00  0.00    -0.286 C  
HETATM    8  O   UNL     1      -9.337  14.496  67.197  1.00  0.00    -0.202 OA 
HETATM    9  H   UNL     1      -9.953  15.219  67.193  1.00  0.00     0.000 HD 
BRANCH   7  10
HETATM   10  C   UNL     1     -10.463  13.867  65.127  1.00  0.00    -0.393 C  
HETATM   11  H   UNL     1     -10.718  15.592  64.167  1.00  0.00     0.000 HD 
HETATM   12  O   UNL     1     -10.390  15.298  65.008  1.00  0.00    -0.388 OA 
BRANCH  10  13
HETATM   13  C   UNL     1     -11.888  13.414  64.752  1.00  0.00    -0.380 C  
HETATM   14  H   UNL     1     -13.291  12.177  65.459  1.00  0.00     0.000 HD 
HETATM   15  O   UNL     1     -12.413  12.456  65.690  1.00  0.00    -0.640 OA 
BRANCH  13  16
HETATM   16  C   UNL     1     -12.006  12.825  63.342  1.00  0.00    -0.535 C  
HETATM   17  O   UNL     1     -13.127  11.928  63.321  1.00  0.00    -0.674 OA 
HETATM   18  H   UNL     1     -13.199  11.564  62.447  1.00  0.00     0.000 HD 
ENDBRANCH  13  16
ENDBRANCH  10  13
ENDBRANCH   7  10
ENDBRANCH   4   7
ENDBRANCH   2   4
TORSDOF 5
ENDMDL
MODEL      119
REMARK 921   NORMALIZED FREE ENERGY PREDICTED BY IDOCK:   -3.02 KCAL/MOL
REMARK 922        TOTAL FREE ENERGY PREDICTED BY IDOCK:   -4.75 KCAL/MOL
REMARK 923 INTER-LIGAND FREE ENERGY PREDICTED BY IDOCK:   -4.41 KCAL/MOL
REMARK 924 INTRA-LIGAND FREE ENERGY PREDICTED BY IDOCK:   -0.35 KCAL/MOL
REMARK 927      BINDING AFFINITY PREDICTED BY RF-SCORE:    0.00 PKD
ROOT
HETATM    1  O   UNL     1      -8.353   5.759  69.698  1.00  0.00    -0.109 OA 
HETATM    2  C   UNL     1      -9.270   6.290  70.665  1.00  0.00    -0.158 C  
HETATM    3  H   UNL     1      -7.467   5.790  70.042  1.00  0.00     0.000 HD 
ENDROOT
BRANCH   2   4
HETATM    4  C   UNL     1     -10.698   6.239  70.112  1.00  0.00    -0.286 C  
HETATM    5  H   UNL     1     -11.630   6.944  68.523  1.00  0.00     0.000 HD 
HETATM    6  O   UNL     1     -10.744   6.976  68.866  1.00  0.00    -0.216 OA 
BRANCH   4   7
HETATM    7  C   UNL     1     -11.774   6.876  71.013  1.00  0.00    -0.345 C  
HETATM    8  O   UNL     1     -11.887   6.089  72.211  1.00  0.00    -0.319 OA 
HETATM    9  H   UNL     1     -12.550   6.482  72.767  1.00  0.00     0.000 HD 
BRANCH   7  10
HETATM   10  C   UNL     1     -11.608   8.366  71.381  1.00  0.00    -0.284 C  
HETATM   11  H   UNL     1     -10.965   9.435  72.931  1.00  0.00     0.000 HD 
HETATM   12  O   UNL     1     -11.068   8.519  72.704  1.00  0.00    -0.323 OA 
BRANCH  10  13
HETATM   13  C   UNL     1     -12.867   9.246  71.257  1.00  0.00    -0.288 C  
HETATM   14  H   UNL     1     -13.440  11.101  71.733  1.00  0.00     0.000 HD 
HETATM   15  O   UNL     1     -12.663  10.559  71.810  1.00  0.00    -0.420 OA 
BRANCH  13  16
HETATM   16  C   UNL     1     -14.119   8.639  71.901  1.00  0.00    -0.443 C  
HETATM   17  O   UNL     1     -14.139   9.014  73.286  1.00  0.00    -1.218 OA 
HETATM   18  H   UNL     1     -14.915   8.638  73.685  1.00  0.00     0.000 HD 
ENDBRANCH  13  16
ENDBRANCH  10  13
ENDBRANCH   7  10
ENDBRANCH   4   7
ENDBRANCH   2   4
TORSDOF 5
ENDMDL
MODEL      120
REMARK 921   NORMALIZED FREE ENERGY PREDICTED BY IDOCK:   -3.02 KCAL/MOL
REMARK 922        TOTAL FREE ENERGY PREDICTED BY IDOCK:   -4.74 KCAL/MOL
REMARK 923 INTER-LIGAND FREE ENERGY PREDICTED BY IDOCK:   -3.92 KCAL/MOL
REMARK 924 INTRA-LIGAND FREE ENERGY PREDICTED BY IDOCK:   -0.82 KCAL/MOL
REMARK 927      BINDING AFFINITY PREDICTED BY RF-SCORE:    0.00 PKD
ROOT
HETATM    1  O   UNL     1     -11.515   6.601  67.128  1.00  0.00    -0.779 OA 
HETATM    2  C   UNL     1     -10.478   7.574  66.944  1.00  0.00    -0.315 C  
HETATM    3  H   UNL     1     -12.067   6.566  66.356  1.00  0.00     0.000 HD 
ENDROOT
BRANCH   2   4
HETATM    4  C   UNL     1      -9.588   7.630  68.189  1.00  0.00    -0.149 C  
HETATM    5  H   UNL     1      -8.577   6.326  69.271  1.00  0.00     0.000 HD 
HETATM    6  O   UNL     1      -9.129   6.291  68.499  1.00  0.00    -0.126 OA 
BRANCH   4   7
HETATM    7  C   UNL     1     -10.279   8.140  69.469  1.00  0.00    -0.213 C  
HETATM    8  O   UNL     1     -11.401   8.954  69.085  1.00  0.00    -0.417 OA 
HETATM    9  H   UNL     1     -11.827   9.269  69.873  1.00  0.00     0.000 HD 
BRANCH   7  10
HETATM   10  C   UNL     1     -10.728   7.090  70.506  1.00  0.00    -0.238 C  
HETATM   11  H   UNL     1     -12.266   5.857  70.781  1.00  0.00     0.000 HD 
HETATM   12  O   UNL     1     -11.990   6.504  70.143  1.00  0.00    -0.383 OA 
BRANCH  10  13
HETATM   13  C   UNL     1     -10.807   7.564  71.971  1.00  0.00    -0.233 C  
HETATM   14  H   UNL     1      -9.741   8.692  73.230  1.00  0.00     0.000 HD 
HETATM   15  O   UNL     1      -9.692   8.400  72.328  1.00  0.00    -0.260 OA 
BRANCH  13  16
HETATM   16  C   UNL     1     -10.905   6.425  72.992  1.00  0.00    -0.259 C  
HETATM   17  O   UNL     1     -12.174   5.776  72.821  1.00  0.00    -0.548 OA 
HETATM   18  H   UNL     1     -12.235   5.070  73.454  1.00  0.00     0.000 HD 
ENDBRANCH  13  16
ENDBRANCH  10  13
ENDBRANCH   7  10
ENDBRANCH   4   7
ENDBRANCH   2   4
TORSDOF 5
ENDMDL
MODEL      121
REMARK 921   NORMALIZED FREE ENERGY PREDICTED BY IDOCK:   -3.02 KCAL/MOL
REMARK 922        TOTAL FREE ENERGY PREDICTED BY IDOCK:   -4.74 KCAL/MOL
REMARK 923 INTER-LIGAND FREE ENERGY PREDICTED BY IDOCK:   -4.33 KCAL/MOL
REMARK 924 INTRA-LIGAND FREE ENERGY PREDICTED BY IDOCK:   -0.41 KCAL/MOL
REMARK 927      BINDING AFFINITY PREDICTED BY RF-SCORE:    0.00 PKD
ROOT
HETATM    1  O   UNL     1      -8.316  14.923  69.518  1.00  0.00    -0.385 OA 
HETATM    2  C   UNL     1      -8.748  15.376  68.228  1.00  0.00    -0.164 C  
HETATM    3  H   UNL     1      -7.376  14.787  69.515  1.00  0.00     0.000 HD 
ENDROOT
BRANCH   2   4
HETATM    4  C   UNL     1     -10.264  15.596  68.232  1.00  0.00    -0.223 C  
HETATM    5  H   UNL     1     -11.714  15.521  66.897  1.00  0.00     0.000 HD 
HETATM    6  O   UNL     1     -10.773  15.385  66.893  1.00  0.00    -0.306 OA 
BRANCH   4   7
HETATM    7  C   UNL     1     -10.720  17.013  68.634  1.00  0.00    -0.333 C  
HETATM    8  O   UNL     1     -11.036  17.008  70.037  1.00  0.00    -0.370 OA 
HETATM    9  H   UNL     1     -11.317  17.882  70.284  1.00  0.00     0.000 HD 
BRANCH   7  10
HETATM   10  C   UNL     1      -9.769  18.186  68.317  1.00  0.00    -0.337 C  
HETATM   11  H   UNL     1      -9.305  19.956  69.099  1.00  0.00     0.000 HD 
HETATM   12  O   UNL     1      -9.891  19.234  69.294  1.00  0.00    -0.375 OA 
BRANCH  10  13
HETATM   13  C   UNL     1      -9.891  18.806  66.911  1.00  0.00    -0.334 C  
HETATM   14  H   UNL     1      -8.900  18.766  65.175  1.00  0.00     0.000 HD 
HETATM   15  O   UNL     1      -8.825  18.384  66.041  1.00  0.00    -0.498 OA 
BRANCH  13  16
HETATM   16  C   UNL     1      -9.943  20.338  66.906  1.00  0.00    -0.452 C  
HETATM   17  O   UNL     1      -8.607  20.832  66.728  1.00  0.00    -0.555 OA 
HETATM   18  H   UNL     1      -8.639  21.781  66.725  1.00  0.00     0.000 HD 
ENDBRANCH  13  16
ENDBRANCH  10  13
ENDBRANCH   7  10
ENDBRANCH   4   7
ENDBRANCH   2   4
TORSDOF 5
ENDMDL
MODEL      122
REMARK 921   NORMALIZED FREE ENERGY PREDICTED BY IDOCK:   -3.02 KCAL/MOL
REMARK 922        TOTAL FREE ENERGY PREDICTED BY IDOCK:   -4.74 KCAL/MOL
REMARK 923 INTER-LIGAND FREE ENERGY PREDICTED BY IDOCK:   -4.51 KCAL/MOL
REMARK 924 INTRA-LIGAND FREE ENERGY PREDICTED BY IDOCK:   -0.23 KCAL/MOL
REMARK 927      BINDING AFFINITY PREDICTED BY RF-SCORE:    0.00 PKD
ROOT
HETATM    1  O   UNL     1     -12.431  10.400  68.986  1.00  0.00    -0.680 OA 
HETATM    2  C   UNL     1     -11.652  11.475  68.445  1.00  0.00    -0.308 C  
HETATM    3  H   UNL     1     -12.486   9.691  68.357  1.00  0.00     0.000 HD 
ENDROOT
BRANCH   2   4
HETATM    4  C   UNL     1     -11.563  12.619  69.460  1.00  0.00    -0.281 C  
HETATM    5  H   UNL     1     -12.260  12.965  71.273  1.00  0.00     0.000 HD 
HETATM    6  O   UNL     1     -12.315  12.255  70.643  1.00  0.00    -0.354 OA 
BRANCH   4   7
HETATM    7  C   UNL     1     -12.153  13.963  68.988  1.00  0.00    -0.329 C  
HETATM    8  O   UNL     1     -12.883  14.548  70.080  1.00  0.00    -0.533 OA 
HETATM    9  H   UNL     1     -13.246  15.376  69.789  1.00  0.00     0.000 HD 
BRANCH   7  10
HETATM   10  C   UNL     1     -11.177  15.002  68.397  1.00  0.00    -0.293 C  
HETATM   11  H   UNL     1     -10.841  16.958  68.549  1.00  0.00     0.000 HD 
HETATM   12  O   UNL     1     -11.442  16.318  68.912  1.00  0.00    -0.340 OA 
BRANCH  10  13
HETATM   13  C   UNL     1     -11.108  15.080  66.858  1.00  0.00    -0.331 C  
HETATM   14  H   UNL     1     -12.123  14.377  65.286  1.00  0.00     0.000 HD 
HETATM   15  O   UNL     1     -12.166  14.329  66.233  1.00  0.00    -0.436 OA 
BRANCH  13  16
HETATM   16  C   UNL     1      -9.771  14.616  66.269  1.00  0.00    -0.307 C  
HETATM   17  O   UNL     1      -9.004  15.780  65.926  1.00  0.00    -0.321 OA 
HETATM   18  H   UNL     1      -8.175  15.492  65.561  1.00  0.00     0.000 HD 
ENDBRANCH  13  16
ENDBRANCH  10  13
ENDBRANCH   7  10
ENDBRANCH   4   7
ENDBRANCH   2   4
TORSDOF 5
ENDMDL
MODEL      123
REMARK 921   NORMALIZED FREE ENERGY PREDICTED BY IDOCK:   -3.00 KCAL/MOL
REMARK 922        TOTAL FREE ENERGY PREDICTED BY IDOCK:   -4.72 KCAL/MOL
REMARK 923 INTER-LIGAND FREE ENERGY PREDICTED BY IDOCK:   -4.21 KCAL/MOL
REMARK 924 INTRA-LIGAND FREE ENERGY PREDICTED BY IDOCK:   -0.51 KCAL/MOL
REMARK 927      BINDING AFFINITY PREDICTED BY RF-SCORE:    0.00 PKD
ROOT
HETATM    1  O   UNL     1     -11.773  12.328  70.523  1.00  0.00    -0.517 OA 
HETATM    2  C   UNL     1     -12.598  13.468  70.802  1.00  0.00    -0.309 C  
HETATM    3  H   UNL     1     -12.203  11.536  70.825  1.00  0.00     0.000 HD 
ENDROOT
BRANCH   2   4
HETATM    4  C   UNL     1     -11.905  14.745  70.315  1.00  0.00    -0.302 C  
HETATM    5  H   UNL     1     -11.968  16.660  70.781  1.00  0.00     0.000 HD 
HETATM    6  O   UNL     1     -12.398  15.869  71.083  1.00  0.00    -0.425 OA 
BRANCH   4   7
HETATM    7  C   UNL     1     -12.158  15.106  68.838  1.00  0.00    -0.194 C  
HETATM    8  O   UNL     1     -11.624  16.418  68.593  1.00  0.00    -0.311 OA 
HETATM    9  H   UNL     1     -11.780  16.640  67.682  1.00  0.00     0.000 HD 
BRANCH   7  10
HETATM   10  C   UNL     1     -11.642  14.124  67.764  1.00  0.00    -0.347 C  
HETATM   11  H   UNL     1     -10.078  12.923  67.499  1.00  0.00     0.000 HD 
HETATM   12  O   UNL     1     -10.396  13.527  68.159  1.00  0.00    -0.233 OA 
BRANCH  10  13
HETATM   13  C   UNL     1     -11.489  14.688  66.338  1.00  0.00    -0.347 C  
HETATM   14  H   UNL     1     -12.354  14.467  64.549  1.00  0.00     0.000 HD 
HETATM   15  O   UNL     1     -12.448  14.120  65.427  1.00  0.00    -0.451 OA 
BRANCH  13  16
HETATM   16  C   UNL     1     -10.089  14.506  65.741  1.00  0.00    -0.342 C  
HETATM   17  O   UNL     1      -9.958  13.144  65.309  1.00  0.00    -0.433 OA 
HETATM   18  H   UNL     1      -9.090  13.031  64.940  1.00  0.00     0.000 HD 
ENDBRANCH  13  16
ENDBRANCH  10  13
ENDBRANCH   7  10
ENDBRANCH   4   7
ENDBRANCH   2   4
TORSDOF 5
ENDMDL
MODEL      124
REMARK 921   NORMALIZED FREE ENERGY PREDICTED BY IDOCK:   -2.98 KCAL/MOL
REMARK 922        TOTAL FREE ENERGY PREDICTED BY IDOCK:   -4.69 KCAL/MOL
REMARK 923 INTER-LIGAND FREE ENERGY PREDICTED BY IDOCK:   -4.11 KCAL/MOL
REMARK 924 INTRA-LIGAND FREE ENERGY PREDICTED BY IDOCK:   -0.58 KCAL/MOL
REMARK 927      BINDING AFFINITY PREDICTED BY RF-SCORE:    0.00 PKD
ROOT
HETATM    1  O   UNL     1     -10.789  12.963  69.239  1.00  0.00    -0.420 OA 
HETATM    2  C   UNL     1     -10.058  13.889  68.424  1.00  0.00    -0.237 C  
HETATM    3  H   UNL     1     -10.578  13.099  70.155  1.00  0.00     0.000 HD 
ENDROOT
BRANCH   2   4
HETATM    4  C   UNL     1     -10.400  13.669  66.948  1.00  0.00    -0.262 C  
HETATM    5  H   UNL     1     -11.794  14.302  65.704  1.00  0.00     0.000 HD 
HETATM    6  O   UNL     1     -11.582  14.438  66.620  1.00  0.00    -0.357 OA 
BRANCH   4   7
HETATM    7  C   UNL     1     -10.728  12.214  66.560  1.00  0.00    -0.255 C  
HETATM    8  O   UNL     1     -12.068  11.920  66.990  1.00  0.00    -0.600 OA 
HETATM    9  H   UNL     1     -12.270  11.023  66.751  1.00  0.00     0.000 HD 
BRANCH   7  10
HETATM   10  C   UNL     1     -10.555  11.813  65.079  1.00  0.00    -0.288 C  
HETATM   11  H   UNL     1     -11.656  11.797  63.422  1.00  0.00     0.000 HD 
HETATM   12  O   UNL     1     -11.762  12.043  64.333  1.00  0.00    -0.345 OA 
BRANCH  10  13
HETATM   13  C   UNL     1     -10.076  10.372  64.812  1.00  0.00    -0.317 C  
HETATM   14  H   UNL     1      -9.051   8.943  65.762  1.00  0.00     0.000 HD 
HETATM   15  O   UNL     1      -9.345   9.831  65.927  1.00  0.00    -0.173 OA 
BRANCH  13  16
HETATM   16  C   UNL     1      -9.217  10.224  63.551  1.00  0.00    -0.289 C  
HETATM   17  O   UNL     1      -9.680  11.171  62.577  1.00  0.00    -0.571 OA 
HETATM   18  H   UNL     1      -9.148  11.078  61.796  1.00  0.00     0.000 HD 
ENDBRANCH  13  16
ENDBRANCH  10  13
ENDBRANCH   7  10
ENDBRANCH   4   7
ENDBRANCH   2   4
TORSDOF 5
ENDMDL
MODEL      125
REMARK 921   NORMALIZED FREE ENERGY PREDICTED BY IDOCK:   -2.97 KCAL/MOL
REMARK 922        TOTAL FREE ENERGY PREDICTED BY IDOCK:   -4.68 KCAL/MOL
REMARK 923 INTER-LIGAND FREE ENERGY PREDICTED BY IDOCK:   -5.03 KCAL/MOL
REMARK 924 INTRA-LIGAND FREE ENERGY PREDICTED BY IDOCK:    0.35 KCAL/MOL
REMARK 927      BINDING AFFINITY PREDICTED BY RF-SCORE:    0.00 PKD
ROOT
HETATM    1  O   UNL     1     -11.640   6.596  67.584  1.00  0.00    -0.664 OA 
HETATM    2  C   UNL     1     -10.550   7.259  68.239  1.00  0.00    -0.172 C  
HETATM    3  H   UNL     1     -11.514   6.621  66.642  1.00  0.00     0.000 HD 
ENDROOT
BRANCH   2   4
HETATM    4  C   UNL     1     -10.752   7.219  69.757  1.00  0.00    -0.239 C  
HETATM    5  H   UNL     1     -12.140   6.547  70.987  1.00  0.00     0.000 HD 
HETATM    6  O   UNL     1     -12.015   6.572  70.046  1.00  0.00    -0.358 OA 
BRANCH   4   7
HETATM    7  C   UNL     1     -10.821   8.596  70.448  1.00  0.00    -0.227 C  
HETATM    8  O   UNL     1     -11.122   9.589  69.452  1.00  0.00    -0.359 OA 
HETATM    9  H   UNL     1     -11.165  10.437  69.878  1.00  0.00     0.000 HD 
BRANCH   7  10
HETATM   10  C   UNL     1     -11.784   8.747  71.644  1.00  0.00    -0.332 C  
HETATM   11  H   UNL     1     -12.575   7.585  73.052  1.00  0.00     0.000 HD 
HETATM   12  O   UNL     1     -11.983   7.492  72.315  1.00  0.00    -0.297 OA 
BRANCH  10  13
HETATM   13  C   UNL     1     -13.162   9.368  71.339  1.00  0.00    -0.344 C  
HETATM   14  H   UNL     1     -14.081  11.130  71.551  1.00  0.00     0.000 HD 
HETATM   15  O   UNL     1     -13.232  10.749  71.739  1.00  0.00    -0.445 OA 
BRANCH  13  16
HETATM   16  C   UNL     1     -14.338   8.619  71.976  1.00  0.00    -0.422 C  
HETATM   17  O   UNL     1     -14.280   8.815  73.397  1.00  0.00    -1.173 OA 
HETATM   18  H   UNL     1     -15.008   8.351  73.791  1.00  0.00     0.000 HD 
ENDBRANCH  13  16
ENDBRANCH  10  13
ENDBRANCH   7  10
ENDBRANCH   4   7
ENDBRANCH   2   4
TORSDOF 5
ENDMDL
MODEL      126
REMARK 921   NORMALIZED FREE ENERGY PREDICTED BY IDOCK:   -2.96 KCAL/MOL
REMARK 922        TOTAL FREE ENERGY PREDICTED BY IDOCK:   -4.67 KCAL/MOL
REMARK 923 INTER-LIGAND FREE ENERGY PREDICTED BY IDOCK:   -4.20 KCAL/MOL
REMARK 924 INTRA-LIGAND FREE ENERGY PREDICTED BY IDOCK:   -0.48 KCAL/MOL
REMARK 927      BINDING AFFINITY PREDICTED BY RF-SCORE:    0.00 PKD
ROOT
HETATM    1  O   UNL     1      -5.521  18.299  67.583  1.00  0.00    -0.148 OA 
HETATM    2  C   UNL     1      -6.018  17.307  66.673  1.00  0.00    -0.207 C  
HETATM    3  H   UNL     1      -4.713  17.997  67.981  1.00  0.00     0.000 HD 
ENDROOT
BRANCH   2   4
HETATM    4  C   UNL     1      -7.320  17.794  66.031  1.00  0.00    -0.272 C  
HETATM    5  H   UNL     1      -7.829  19.196  64.739  1.00  0.00     0.000 HD 
HETATM    6  O   UNL     1      -7.021  18.894  65.138  1.00  0.00    -0.490 OA 
BRANCH   4   7
HETATM    7  C   UNL     1      -8.377  18.333  67.016  1.00  0.00    -0.248 C  
HETATM    8  O   UNL     1      -8.191  19.753  67.150  1.00  0.00    -0.277 OA 
HETATM    9  H   UNL     1      -8.842  20.084  67.758  1.00  0.00     0.000 HD 
BRANCH   7  10
HETATM   10  C   UNL     1      -9.858  18.027  66.713  1.00  0.00    -0.335 C  
HETATM   11  H   UNL     1     -11.505  17.571  67.733  1.00  0.00     0.000 HD 
HETATM   12  O   UNL     1     -10.593  17.759  67.919  1.00  0.00    -0.386 OA 
BRANCH  10  13
HETATM   13  C   UNL     1     -10.131  16.890  65.707  1.00  0.00    -0.229 C  
HETATM   14  H   UNL     1     -11.233  16.585  64.068  1.00  0.00     0.000 HD 
HETATM   15  O   UNL     1     -11.066  17.286  64.687  1.00  0.00    -1.052 OA 
BRANCH  13  16
HETATM   16  C   UNL     1     -10.635  15.594  66.351  1.00  0.00    -0.308 C  
HETATM   17  O   UNL     1      -9.497  14.790  66.695  1.00  0.00    -0.245 OA 
HETATM   18  H   UNL     1      -9.810  13.987  67.094  1.00  0.00     0.000 HD 
ENDBRANCH  13  16
ENDBRANCH  10  13
ENDBRANCH   7  10
ENDBRANCH   4   7
ENDBRANCH   2   4
TORSDOF 5
ENDMDL
MODEL      127
REMARK 921   NORMALIZED FREE ENERGY PREDICTED BY IDOCK:   -2.96 KCAL/MOL
REMARK 922        TOTAL FREE ENERGY PREDICTED BY IDOCK:   -4.67 KCAL/MOL
REMARK 923 INTER-LIGAND FREE ENERGY PREDICTED BY IDOCK:   -3.72 KCAL/MOL
REMARK 924 INTRA-LIGAND FREE ENERGY PREDICTED BY IDOCK:   -0.95 KCAL/MOL
REMARK 927      BINDING AFFINITY PREDICTED BY RF-SCORE:    0.00 PKD
ROOT
HETATM    1  O   UNL     1     -11.138  10.110  68.777  1.00  0.00    -0.274 OA 
HETATM    2  C   UNL     1     -10.635  10.140  67.434  1.00  0.00    -0.272 C  
HETATM    3  H   UNL     1     -11.222   9.211  69.071  1.00  0.00     0.000 HD 
ENDROOT
BRANCH   2   4
HETATM    4  C   UNL     1     -10.499  11.590  66.960  1.00  0.00    -0.228 C  
HETATM    5  H   UNL     1      -9.019  12.769  66.402  1.00  0.00     0.000 HD 
HETATM    6  O   UNL     1      -9.103  11.869  66.696  1.00  0.00    -0.194 OA 
BRANCH   4   7
HETATM    7  C   UNL     1     -10.953  12.658  67.975  1.00  0.00    -0.235 C  
HETATM    8  O   UNL     1      -9.853  12.946  68.855  1.00  0.00    -0.419 OA 
HETATM    9  H   UNL     1     -10.133  13.603  69.481  1.00  0.00     0.000 HD 
BRANCH   7  10
HETATM   10  C   UNL     1     -11.532  13.975  67.416  1.00  0.00    -0.348 C  
HETATM   11  H   UNL     1     -12.187  14.669  65.669  1.00  0.00     0.000 HD 
HETATM   12  O   UNL     1     -11.831  13.859  66.014  1.00  0.00    -0.356 OA 
BRANCH  10  13
HETATM   13  C   UNL     1     -10.684  15.244  67.636  1.00  0.00    -0.282 C  
HETATM   14  H   UNL     1     -10.925  17.086  68.375  1.00  0.00     0.000 HD 
HETATM   15  O   UNL     1     -11.448  16.304  68.239  1.00  0.00    -0.333 OA 
BRANCH  13  16
HETATM   16  C   UNL     1     -10.026  15.784  66.362  1.00  0.00    -0.277 C  
HETATM   17  O   UNL     1      -9.099  14.799  65.882  1.00  0.00    -0.500 OA 
HETATM   18  H   UNL     1      -8.691  15.135  65.092  1.00  0.00     0.000 HD 
ENDBRANCH  13  16
ENDBRANCH  10  13
ENDBRANCH   7  10
ENDBRANCH   4   7
ENDBRANCH   2   4
TORSDOF 5
ENDMDL
MODEL      128
REMARK 921   NORMALIZED FREE ENERGY PREDICTED BY IDOCK:   -2.95 KCAL/MOL
REMARK 922        TOTAL FREE ENERGY PREDICTED BY IDOCK:   -4.66 KCAL/MOL
REMARK 923 INTER-LIGAND FREE ENERGY PREDICTED BY IDOCK:   -4.48 KCAL/MOL
REMARK 924 INTRA-LIGAND FREE ENERGY PREDICTED BY IDOCK:   -0.18 KCAL/MOL
REMARK 927      BINDING AFFINITY PREDICTED BY RF-SCORE:    0.00 PKD
ROOT
HETATM    1  O   UNL     1     -12.214  13.470  63.185  1.00  0.00    -0.927 OA 
HETATM    2  C   UNL     1     -12.430  12.351  64.055  1.00  0.00    -0.459 C  
HETATM    3  H   UNL     1     -12.007  13.164  62.310  1.00  0.00     0.000 HD 
ENDROOT
BRANCH   2   4
HETATM    4  C   UNL     1     -12.765  12.844  65.466  1.00  0.00    -0.145 C  
HETATM    5  H   UNL     1     -13.349  14.546  66.274  1.00  0.00     0.000 HD 
HETATM    6  O   UNL     1     -13.141  14.241  65.399  1.00  0.00    -0.685 OA 
BRANCH   4   7
HETATM    7  C   UNL     1     -11.605  12.772  66.480  1.00  0.00    -0.376 C  
HETATM    8  O   UNL     1     -11.659  11.498  67.143  1.00  0.00    -0.516 OA 
HETATM    9  H   UNL     1     -10.944  11.454  67.767  1.00  0.00     0.000 HD 
BRANCH   7  10
HETATM   10  C   UNL     1     -10.178  13.025  65.950  1.00  0.00    -0.292 C  
HETATM   11  H   UNL     1      -8.509  11.980  65.663  1.00  0.00     0.000 HD 
HETATM   12  O   UNL     1      -9.387  11.825  65.989  1.00  0.00    -0.226 OA 
BRANCH  10  13
HETATM   13  C   UNL     1      -9.386  14.160  66.631  1.00  0.00    -0.282 C  
HETATM   14  H   UNL     1      -8.845  16.043  66.236  1.00  0.00     0.000 HD 
HETATM   15  O   UNL     1      -9.333  15.345  65.816  1.00  0.00    -0.325 OA 
BRANCH  13  16
HETATM   16  C   UNL     1      -7.954  13.775  67.020  1.00  0.00     0.074 C  
HETATM   17  O   UNL     1      -7.133  14.950  66.931  1.00  0.00    -0.321 OA 
HETATM   18  H   UNL     1      -6.246  14.711  67.171  1.00  0.00     0.000 HD 
ENDBRANCH  13  16
ENDBRANCH  10  13
ENDBRANCH   7  10
ENDBRANCH   4   7
ENDBRANCH   2   4
TORSDOF 5
ENDMDL
MODEL      129
REMARK 921   NORMALIZED FREE ENERGY PREDICTED BY IDOCK:   -2.95 KCAL/MOL
REMARK 922        TOTAL FREE ENERGY PREDICTED BY IDOCK:   -4.66 KCAL/MOL
REMARK 923 INTER-LIGAND FREE ENERGY PREDICTED BY IDOCK:   -4.33 KCAL/MOL
REMARK 924 INTRA-LIGAND FREE ENERGY PREDICTED BY IDOCK:   -0.34 KCAL/MOL
REMARK 927      BINDING AFFINITY PREDICTED BY RF-SCORE:    0.00 PKD
ROOT
HETATM    1  O   UNL     1      -8.449  16.897  67.608  1.00  0.00    -0.196 OA 
HETATM    2  C   UNL     1      -8.568  15.581  67.049  1.00  0.00    -0.233 C  
HETATM    3  H   UNL     1      -8.031  16.850  68.459  1.00  0.00     0.000 HD 
ENDROOT
BRANCH   2   4
HETATM    4  C   UNL     1      -9.242  15.657  65.676  1.00  0.00    -0.078 C  
HETATM    5  H   UNL     1     -10.422  16.932  64.742  1.00  0.00     0.000 HD 
HETATM    6  O   UNL     1     -10.004  16.886  65.593  1.00  0.00    -0.552 OA 
BRANCH   4   7
HETATM    7  C   UNL     1     -10.243  14.524  65.373  1.00  0.00    -0.389 C  
HETATM    8  O   UNL     1      -9.787  13.813  64.209  1.00  0.00    -0.692 OA 
HETATM    9  H   UNL     1     -10.404  13.116  64.022  1.00  0.00     0.000 HD 
BRANCH   7  10
HETATM   10  C   UNL     1     -10.554  13.524  66.506  1.00  0.00    -0.281 C  
HETATM   11  H   UNL     1      -9.820  11.808  67.196  1.00  0.00     0.000 HD 
HETATM   12  O   UNL     1      -9.629  12.424  66.499  1.00  0.00    -0.229 OA 
BRANCH  10  13
HETATM   13  C   UNL     1     -11.989  12.962  66.548  1.00  0.00    -0.377 C  
HETATM   14  H   UNL     1     -12.942  11.367  67.287  1.00  0.00     0.000 HD 
HETATM   15  O   UNL     1     -12.058  11.713  67.261  1.00  0.00    -0.595 OA 
BRANCH  13  16
HETATM   16  C   UNL     1     -12.624  12.766  65.166  1.00  0.00    -0.444 C  
HETATM   17  O   UNL     1     -11.875  11.761  64.466  1.00  0.00    -0.260 OA 
HETATM   18  H   UNL     1     -12.268  11.640  63.610  1.00  0.00     0.000 HD 
ENDBRANCH  13  16
ENDBRANCH  10  13
ENDBRANCH   7  10
ENDBRANCH   4   7
ENDBRANCH   2   4
TORSDOF 5
ENDMDL
MODEL      130
REMARK 921   NORMALIZED FREE ENERGY PREDICTED BY IDOCK:   -2.95 KCAL/MOL
REMARK 922        TOTAL FREE ENERGY PREDICTED BY IDOCK:   -4.66 KCAL/MOL
REMARK 923 INTER-LIGAND FREE ENERGY PREDICTED BY IDOCK:   -4.21 KCAL/MOL
REMARK 924 INTRA-LIGAND FREE ENERGY PREDICTED BY IDOCK:   -0.45 KCAL/MOL
REMARK 927      BINDING AFFINITY PREDICTED BY RF-SCORE:    0.00 PKD
ROOT
HETATM    1  O   UNL     1     -12.224  15.516  63.892  1.00  0.00    -0.969 OA 
HETATM    2  C   UNL     1     -10.921  15.442  64.486  1.00  0.00    -0.203 C  
HETATM    3  H   UNL     1     -12.148  15.730  62.969  1.00  0.00     0.000 HD 
ENDROOT
BRANCH   2   4
HETATM    4  C   UNL     1     -11.045  15.098  65.974  1.00  0.00    -0.312 C  
HETATM    5  H   UNL     1      -9.842  15.103  67.537  1.00  0.00     0.000 HD 
HETATM    6  O   UNL     1      -9.765  15.316  66.614  1.00  0.00    -0.232 OA 
BRANCH   4   7
HETATM    7  C   UNL     1     -11.420  13.634  66.280  1.00  0.00    -0.333 C  
HETATM    8  O   UNL     1     -12.708  13.619  66.919  1.00  0.00    -0.278 OA 
HETATM    9  H   UNL     1     -12.939  12.717  67.108  1.00  0.00     0.000 HD 
BRANCH   7  10
HETATM   10  C   UNL     1     -11.409  12.633  65.105  1.00  0.00    -0.308 C  
HETATM   11  H   UNL     1     -12.702  11.911  63.776  1.00  0.00     0.000 HD 
HETATM   12  O   UNL     1     -12.709  12.527  64.499  1.00  0.00    -0.637 OA 
BRANCH  10  13
HETATM   13  C   UNL     1     -10.894  11.214  65.419  1.00  0.00    -0.142 C  
HETATM   14  H   UNL     1     -10.492  10.099  67.029  1.00  0.00     0.000 HD 
HETATM   15  O   UNL     1     -10.809  10.973  66.836  1.00  0.00    -0.266 OA 
BRANCH  13  16
HETATM   16  C   UNL     1      -9.534  10.891  64.790  1.00  0.00    -0.238 C  
HETATM   17  O   UNL     1      -9.130  12.013  63.991  1.00  0.00    -0.290 OA 
HETATM   18  H   UNL     1      -8.288  11.812  63.602  1.00  0.00     0.000 HD 
ENDBRANCH  13  16
ENDBRANCH  10  13
ENDBRANCH   7  10
ENDBRANCH   4   7
ENDBRANCH   2   4
TORSDOF 5
ENDMDL
MODEL      131
REMARK 921   NORMALIZED FREE ENERGY PREDICTED BY IDOCK:   -2.95 KCAL/MOL
REMARK 922        TOTAL FREE ENERGY PREDICTED BY IDOCK:   -4.66 KCAL/MOL
REMARK 923 INTER-LIGAND FREE ENERGY PREDICTED BY IDOCK:   -3.93 KCAL/MOL
REMARK 924 INTRA-LIGAND FREE ENERGY PREDICTED BY IDOCK:   -0.73 KCAL/MOL
REMARK 927      BINDING AFFINITY PREDICTED BY RF-SCORE:    0.00 PKD
ROOT
HETATM    1  O   UNL     1     -11.223   7.483  67.738  1.00  0.00    -0.479 OA 
HETATM    2  C   UNL     1     -10.424   8.552  67.213  1.00  0.00    -0.296 C  
HETATM    3  H   UNL     1     -10.960   6.659  67.344  1.00  0.00     0.000 HD 
ENDROOT
BRANCH   2   4
HETATM    4  C   UNL     1     -10.848   9.880  67.848  1.00  0.00    -0.258 C  
HETATM    5  H   UNL     1     -10.829  11.779  67.313  1.00  0.00     0.000 HD 
HETATM    6  O   UNL     1     -10.566  10.955  66.920  1.00  0.00    -0.238 OA 
BRANCH   4   7
HETATM    7  C   UNL     1     -10.112  10.250  69.151  1.00  0.00    -0.218 C  
HETATM    8  O   UNL     1     -10.133  11.680  69.295  1.00  0.00    -0.415 OA 
HETATM    9  H   UNL     1      -9.679  11.908  70.098  1.00  0.00     0.000 HD 
BRANCH   7  10
HETATM   10  C   UNL     1     -10.596   9.586  70.457  1.00  0.00    -0.297 C  
HETATM   11  H   UNL     1     -10.428   7.820  71.360  1.00  0.00     0.000 HD 
HETATM   12  O   UNL     1     -10.131   8.229  70.556  1.00  0.00    -0.192 OA 
BRANCH  10  13
HETATM   13  C   UNL     1     -12.116   9.606  70.713  1.00  0.00    -0.248 C  
HETATM   14  H   UNL     1     -13.512  10.918  71.285  1.00  0.00     0.000 HD 
HETATM   15  O   UNL     1     -12.576  10.906  71.127  1.00  0.00    -0.368 OA 
BRANCH  13  16
HETATM   16  C   UNL     1     -12.590   8.574  71.743  1.00  0.00    -0.346 C  
HETATM   17  O   UNL     1     -13.194   7.480  71.037  1.00  0.00    -0.573 OA 
HETATM   18  H   UNL     1     -13.487   6.841  71.675  1.00  0.00     0.000 HD 
ENDBRANCH  13  16
ENDBRANCH  10  13
ENDBRANCH   7  10
ENDBRANCH   4   7
ENDBRANCH   2   4
TORSDOF 5
ENDMDL
MODEL      132
REMARK 921   NORMALIZED FREE ENERGY PREDICTED BY IDOCK:   -2.94 KCAL/MOL
REMARK 922        TOTAL FREE ENERGY PREDICTED BY IDOCK:   -4.65 KCAL/MOL
REMARK 923 INTER-LIGAND FREE ENERGY PREDICTED BY IDOCK:   -4.16 KCAL/MOL
REMARK 924 INTRA-LIGAND FREE ENERGY PREDICTED BY IDOCK:   -0.49 KCAL/MOL
REMARK 927      BINDING AFFINITY PREDICTED BY RF-SCORE:    0.00 PKD
ROOT
HETATM    1  O   UNL     1      -8.232  15.672  69.446  1.00  0.00    -0.240 OA 
HETATM    2  C   UNL     1      -8.393  16.792  68.565  1.00  0.00    -0.243 C  
HETATM    3  H   UNL     1      -7.357  15.313  69.357  1.00  0.00     0.000 HD 
ENDROOT
BRANCH   2   4
HETATM    4  C   UNL     1      -9.804  17.371  68.709  1.00  0.00    -0.311 C  
HETATM    5  H   UNL     1     -11.387  16.991  69.823  1.00  0.00     0.000 HD 
HETATM    6  O   UNL     1     -10.512  16.632  69.734  1.00  0.00    -0.273 OA 
BRANCH   4   7
HETATM    7  C   UNL     1     -10.684  17.280  67.446  1.00  0.00    -0.247 C  
HETATM    8  O   UNL     1     -10.653  18.554  66.779  1.00  0.00    -0.391 OA 
HETATM    9  H   UNL     1     -11.195  18.498  66.001  1.00  0.00     0.000 HD 
BRANCH   7  10
HETATM   10  C   UNL     1     -10.371  16.155  66.438  1.00  0.00    -0.315 C  
HETATM   11  H   UNL     1     -10.239  15.944  64.464  1.00  0.00     0.000 HD 
HETATM   12  O   UNL     1     -10.432  16.636  65.085  1.00  0.00    -0.647 OA 
BRANCH  10  13
HETATM   13  C   UNL     1     -11.231  14.880  66.547  1.00  0.00    -0.335 C  
HETATM   14  H   UNL     1     -11.413  13.306  67.766  1.00  0.00     0.000 HD 
HETATM   15  O   UNL     1     -10.883  14.091  67.700  1.00  0.00    -0.257 OA 
BRANCH  13  16
HETATM   16  C   UNL     1     -11.172  13.979  65.308  1.00  0.00    -0.319 C  
HETATM   17  O   UNL     1      -9.826  13.989  64.809  1.00  0.00    -0.581 OA 
HETATM   18  H   UNL     1      -9.790  13.431  64.042  1.00  0.00     0.000 HD 
ENDBRANCH  13  16
ENDBRANCH  10  13
ENDBRANCH   7  10
ENDBRANCH   4   7
ENDBRANCH   2   4
TORSDOF 5
ENDMDL
MODEL      133
REMARK 921   NORMALIZED FREE ENERGY PREDICTED BY IDOCK:   -2.93 KCAL/MOL
REMARK 922        TOTAL FREE ENERGY PREDICTED BY IDOCK:   -4.63 KCAL/MOL
REMARK 923 INTER-LIGAND FREE ENERGY PREDICTED BY IDOCK:   -4.29 KCAL/MOL
REMARK 924 INTRA-LIGAND FREE ENERGY PREDICTED BY IDOCK:   -0.34 KCAL/MOL
REMARK 927      BINDING AFFINITY PREDICTED BY RF-SCORE:    0.00 PKD
ROOT
HETATM    1  O   UNL     1      -9.188  18.271  65.862  1.00  0.00    -0.503 OA 
HETATM    2  C   UNL     1     -10.469  18.530  66.453  1.00  0.00    -0.406 C  
HETATM    3  H   UNL     1      -9.173  18.593  64.968  1.00  0.00     0.000 HD 
ENDROOT
BRANCH   2   4
HETATM    4  C   UNL     1     -10.493  18.012  67.895  1.00  0.00    -0.396 C  
HETATM    5  H   UNL     1      -9.330  18.171  69.480  1.00  0.00     0.000 HD 
HETATM    6  O   UNL     1      -9.315  18.493  68.586  1.00  0.00    -0.326 OA 
BRANCH   4   7
HETATM    7  C   UNL     1     -10.465  16.478  68.041  1.00  0.00    -0.313 C  
HETATM    8  O   UNL     1      -9.407  16.126  68.949  1.00  0.00    -0.213 OA 
HETATM    9  H   UNL     1      -9.391  15.181  69.039  1.00  0.00     0.000 HD 
BRANCH   7  10
HETATM   10  C   UNL     1     -11.773  15.777  68.467  1.00  0.00    -0.319 C  
HETATM   11  H   UNL     1     -12.804  15.481  70.143  1.00  0.00     0.000 HD 
HETATM   12  O   UNL     1     -12.000  15.912  69.880  1.00  0.00    -0.334 OA 
BRANCH  10  13
HETATM   13  C   UNL     1     -11.909  14.290  68.085  1.00  0.00    -0.339 C  
HETATM   14  H   UNL     1     -10.764  12.652  68.046  1.00  0.00     0.000 HD 
HETATM   15  O   UNL     1     -10.679  13.568  68.282  1.00  0.00    -0.243 OA 
BRANCH  13  16
HETATM   16  C   UNL     1     -12.382  14.056  66.646  1.00  0.00    -0.371 C  
HETATM   17  O   UNL     1     -12.140  12.681  66.311  1.00  0.00    -0.523 OA 
HETATM   18  H   UNL     1     -12.433  12.536  65.419  1.00  0.00     0.000 HD 
ENDBRANCH  13  16
ENDBRANCH  10  13
ENDBRANCH   7  10
ENDBRANCH   4   7
ENDBRANCH   2   4
TORSDOF 5
ENDMDL
MODEL      134
REMARK 921   NORMALIZED FREE ENERGY PREDICTED BY IDOCK:   -2.91 KCAL/MOL
REMARK 922        TOTAL FREE ENERGY PREDICTED BY IDOCK:   -4.61 KCAL/MOL
REMARK 923 INTER-LIGAND FREE ENERGY PREDICTED BY IDOCK:   -3.79 KCAL/MOL
REMARK 924 INTRA-LIGAND FREE ENERGY PREDICTED BY IDOCK:   -0.81 KCAL/MOL
REMARK 927      BINDING AFFINITY PREDICTED BY RF-SCORE:    0.00 PKD
ROOT
HETATM    1  O   UNL     1     -10.296  10.856  66.508  1.00  0.00    -0.231 OA 
HETATM    2  C   UNL     1      -9.426  11.428  67.494  1.00  0.00    -0.167 C  
HETATM    3  H   UNL     1     -10.251  11.362  65.705  1.00  0.00     0.000 HD 
ENDROOT
BRANCH   2   4
HETATM    4  C   UNL     1      -9.497  10.612  68.789  1.00  0.00    -0.183 C  
HETATM    5  H   UNL     1      -8.826   8.862  69.402  1.00  0.00     0.000 HD 
HETATM    6  O   UNL     1      -8.781   9.367  68.599  1.00  0.00    -0.128 OA 
BRANCH   4   7
HETATM    7  C   UNL     1     -10.917  10.213  69.235  1.00  0.00    -0.240 C  
HETATM    8  O   UNL     1     -11.204   8.900  68.722  1.00  0.00    -0.430 OA 
HETATM    9  H   UNL     1     -12.079   8.655  68.997  1.00  0.00     0.000 HD 
BRANCH   7  10
HETATM   10  C   UNL     1     -11.231  10.261  70.745  1.00  0.00    -0.293 C  
HETATM   11  H   UNL     1     -10.703   9.273  72.390  1.00  0.00     0.000 HD 
HETATM   12  O   UNL     1     -10.511   9.244  71.461  1.00  0.00    -0.334 OA 
BRANCH  10  13
HETATM   13  C   UNL     1     -12.720  10.180  71.139  1.00  0.00    -0.396 C  
HETATM   14  H   UNL     1     -14.014  11.184  72.285  1.00  0.00     0.000 HD 
HETATM   15  O   UNL     1     -13.097  11.234  72.044  1.00  0.00    -0.495 OA 
BRANCH  13  16
HETATM   16  C   UNL     1     -13.130   8.840  71.759  1.00  0.00    -0.363 C  
HETATM   17  O   UNL     1     -13.105   7.841  70.728  1.00  0.00    -0.532 OA 
HETATM   18  H   UNL     1     -13.359   7.011  71.112  1.00  0.00     0.000 HD 
ENDBRANCH  13  16
ENDBRANCH  10  13
ENDBRANCH   7  10
ENDBRANCH   4   7
ENDBRANCH   2   4
TORSDOF 5
ENDMDL
MODEL      135
REMARK 921   NORMALIZED FREE ENERGY PREDICTED BY IDOCK:   -2.91 KCAL/MOL
REMARK 922        TOTAL FREE ENERGY PREDICTED BY IDOCK:   -4.61 KCAL/MOL
REMARK 923 INTER-LIGAND FREE ENERGY PREDICTED BY IDOCK:   -4.08 KCAL/MOL
REMARK 924 INTRA-LIGAND FREE ENERGY PREDICTED BY IDOCK:   -0.53 KCAL/MOL
REMARK 927      BINDING AFFINITY PREDICTED BY RF-SCORE:    0.00 PKD
ROOT
HETATM    1  O   UNL     1     -11.100   9.159  69.195  1.00  0.00    -0.430 OA 
HETATM    2  C   UNL     1     -10.198  10.225  68.871  1.00  0.00    -0.205 C  
HETATM    3  H   UNL     1     -10.610   8.369  69.390  1.00  0.00     0.000 HD 
ENDROOT
BRANCH   2   4
HETATM    4  C   UNL     1     -10.988  11.499  68.557  1.00  0.00    -0.223 C  
HETATM    5  H   UNL     1     -12.893  12.010  68.497  1.00  0.00     0.000 HD 
HETATM    6  O   UNL     1     -12.403  11.220  68.691  1.00  0.00    -0.534 OA 
BRANCH   4   7
HETATM    7  C   UNL     1     -10.806  12.050  67.128  1.00  0.00    -0.253 C  
HETATM    8  O   UNL     1     -12.078  12.008  66.459  1.00  0.00    -0.617 OA 
HETATM    9  H   UNL     1     -11.966  12.347  65.579  1.00  0.00     0.000 HD 
BRANCH   7  10
HETATM   10  C   UNL     1     -10.183  13.454  66.977  1.00  0.00    -0.249 C  
HETATM   11  H   UNL     1      -9.725  14.993  68.152  1.00  0.00     0.000 HD 
HETATM   12  O   UNL     1     -10.109  14.129  68.244  1.00  0.00    -0.227 OA 
BRANCH  10  13
HETATM   13  C   UNL     1     -10.854  14.394  65.956  1.00  0.00    -0.309 C  
HETATM   14  H   UNL     1     -11.409  14.354  64.036  1.00  0.00     0.000 HD 
HETATM   15  O   UNL     1     -10.996  13.774  64.665  1.00  0.00    -0.367 OA 
BRANCH  13  16
HETATM   16  C   UNL     1     -10.131  15.734  65.773  1.00  0.00    -0.371 C  
HETATM   17  O   UNL     1      -8.717  15.488  65.796  1.00  0.00    -0.297 OA 
HETATM   18  H   UNL     1      -8.270  16.318  65.683  1.00  0.00     0.000 HD 
ENDBRANCH  13  16
ENDBRANCH  10  13
ENDBRANCH   7  10
ENDBRANCH   4   7
ENDBRANCH   2   4
TORSDOF 5
ENDMDL
MODEL      136
REMARK 921   NORMALIZED FREE ENERGY PREDICTED BY IDOCK:   -2.90 KCAL/MOL
REMARK 922        TOTAL FREE ENERGY PREDICTED BY IDOCK:   -4.60 KCAL/MOL
REMARK 923 INTER-LIGAND FREE ENERGY PREDICTED BY IDOCK:   -3.96 KCAL/MOL
REMARK 924 INTRA-LIGAND FREE ENERGY PREDICTED BY IDOCK:   -0.63 KCAL/MOL
REMARK 927      BINDING AFFINITY PREDICTED BY RF-SCORE:    0.00 PKD
ROOT
HETATM    1  O   UNL     1     -11.017  11.200  67.213  1.00  0.00    -0.263 OA 
HETATM    2  C   UNL     1     -10.765   9.994  67.948  1.00  0.00    -0.272 C  
HETATM    3  H   UNL     1     -10.894  11.044  66.284  1.00  0.00     0.000 HD 
ENDROOT
BRANCH   2   4
HETATM    4  C   UNL     1     -10.963  10.246  69.446  1.00  0.00    -0.247 C  
HETATM    5  H   UNL     1     -11.137   9.128  71.062  1.00  0.00     0.000 HD 
HETATM    6  O   UNL     1     -11.014   8.972  70.133  1.00  0.00    -0.237 OA 
BRANCH   4   7
HETATM    7  C   UNL     1     -12.268  10.976  69.822  1.00  0.00    -0.318 C  
HETATM    8  O   UNL     1     -13.099  10.067  70.566  1.00  0.00    -0.583 OA 
HETATM    9  H   UNL     1     -13.903  10.517  70.797  1.00  0.00     0.000 HD 
BRANCH   7  10
HETATM   10  C   UNL     1     -12.144  12.312  70.583  1.00  0.00    -0.237 C  
HETATM   11  H   UNL     1     -13.085  13.255  72.062  1.00  0.00     0.000 HD 
HETATM   12  O   UNL     1     -13.161  12.433  71.593  1.00  0.00    -0.400 OA 
BRANCH  10  13
HETATM   13  C   UNL     1     -12.148  13.592  69.724  1.00  0.00    -0.334 C  
HETATM   14  H   UNL     1     -10.937  14.523  68.435  1.00  0.00     0.000 HD 
HETATM   15  O   UNL     1     -10.934  13.735  68.964  1.00  0.00    -0.251 OA 
BRANCH  13  16
HETATM   16  C   UNL     1     -12.372  14.881  70.524  1.00  0.00    -0.342 C  
HETATM   17  O   UNL     1     -11.426  14.909  71.604  1.00  0.00    -0.479 OA 
HETATM   18  H   UNL     1     -11.565  15.707  72.099  1.00  0.00     0.000 HD 
ENDBRANCH  13  16
ENDBRANCH  10  13
ENDBRANCH   7  10
ENDBRANCH   4   7
ENDBRANCH   2   4
TORSDOF 5
ENDMDL
MODEL      137
REMARK 921   NORMALIZED FREE ENERGY PREDICTED BY IDOCK:   -2.90 KCAL/MOL
REMARK 922        TOTAL FREE ENERGY PREDICTED BY IDOCK:   -4.59 KCAL/MOL
REMARK 923 INTER-LIGAND FREE ENERGY PREDICTED BY IDOCK:   -3.71 KCAL/MOL
REMARK 924 INTRA-LIGAND FREE ENERGY PREDICTED BY IDOCK:   -0.88 KCAL/MOL
REMARK 927      BINDING AFFINITY PREDICTED BY RF-SCORE:    0.00 PKD
ROOT
HETATM    1  O   UNL     1     -12.586  10.494  69.217  1.00  0.00    -0.726 OA 
HETATM    2  C   UNL     1     -12.157  11.811  69.593  1.00  0.00    -0.258 C  
HETATM    3  H   UNL     1     -13.067  10.094  69.931  1.00  0.00     0.000 HD 
ENDROOT
BRANCH   2   4
HETATM    4  C   UNL     1     -11.381  12.456  68.440  1.00  0.00    -0.285 C  
HETATM    5  H   UNL     1     -11.717  12.820  66.531  1.00  0.00     0.000 HD 
HETATM    6  O   UNL     1     -12.199  12.419  67.246  1.00  0.00    -0.478 OA 
BRANCH   4   7
HETATM    7  C   UNL     1     -10.061  11.754  68.064  1.00  0.00    -0.192 C  
HETATM    8  O   UNL     1      -9.545  11.098  69.235  1.00  0.00    -0.407 OA 
HETATM    9  H   UNL     1      -8.731  10.666  69.003  1.00  0.00     0.000 HD 
BRANCH   7  10
HETATM   10  C   UNL     1     -10.091  10.763  66.882  1.00  0.00    -0.212 C  
HETATM   11  H   UNL     1     -10.580   8.859  66.570  1.00  0.00     0.000 HD 
HETATM   12  O   UNL     1     -10.561   9.469  67.298  1.00  0.00    -0.264 OA 
BRANCH  10  13
HETATM   13  C   UNL     1      -8.771  10.581  66.106  1.00  0.00    -0.158 C  
HETATM   14  H   UNL     1      -6.973  11.450  66.003  1.00  0.00     0.000 HD 
HETATM   15  O   UNL     1      -7.786  11.562  66.481  1.00  0.00    -0.144 OA 
BRANCH  13  16
HETATM   16  C   UNL     1      -8.932  10.615  64.582  1.00  0.00    -0.197 C  
HETATM   17  O   UNL     1      -9.988   9.712  64.222  1.00  0.00    -0.389 OA 
HETATM   18  H   UNL     1     -10.088   9.733  63.278  1.00  0.00     0.000 HD 
ENDBRANCH  13  16
ENDBRANCH  10  13
ENDBRANCH   7  10
ENDBRANCH   4   7
ENDBRANCH   2   4
TORSDOF 5
ENDMDL
MODEL      138
REMARK 921   NORMALIZED FREE ENERGY PREDICTED BY IDOCK:   -2.90 KCAL/MOL
REMARK 922        TOTAL FREE ENERGY PREDICTED BY IDOCK:   -4.59 KCAL/MOL
REMARK 923 INTER-LIGAND FREE ENERGY PREDICTED BY IDOCK:   -4.19 KCAL/MOL
REMARK 924 INTRA-LIGAND FREE ENERGY PREDICTED BY IDOCK:   -0.41 KCAL/MOL
REMARK 927      BINDING AFFINITY PREDICTED BY RF-SCORE:    0.00 PKD
ROOT
HETATM    1  O   UNL     1     -11.083  17.082  64.697  1.00  0.00    -0.997 OA 
HETATM    2  C   UNL     1     -10.193  17.395  65.777  1.00  0.00    -0.191 C  
HETATM    3  H   UNL     1     -10.806  16.280  64.271  1.00  0.00     0.000 HD 
ENDROOT
BRANCH   2   4
HETATM    4  C   UNL     1     -10.641  18.688  66.465  1.00  0.00    -0.358 C  
HETATM    5  H   UNL     1     -11.002  20.544  65.901  1.00  0.00     0.000 HD 
HETATM    6  O   UNL     1     -10.724  19.742  65.475  1.00  0.00    -0.479 OA 
BRANCH   4   7
HETATM    7  C   UNL     1      -9.689  19.216  67.557  1.00  0.00    -0.316 C  
HETATM    8  O   UNL     1     -10.395  19.225  68.809  1.00  0.00    -0.502 OA 
HETATM    9  H   UNL     1      -9.808  19.550  69.482  1.00  0.00     0.000 HD 
BRANCH   7  10
HETATM   10  C   UNL     1      -8.333  18.500  67.728  1.00  0.00    -0.259 C  
HETATM   11  H   UNL     1      -7.503  17.202  68.987  1.00  0.00     0.000 HD 
HETATM   12  O   UNL     1      -8.337  17.643  68.882  1.00  0.00    -0.243 OA 
BRANCH  10  13
HETATM   13  C   UNL     1      -7.085  19.404  67.789  1.00  0.00    -0.245 C  
HETATM   14  H   UNL     1      -6.538  21.230  67.187  1.00  0.00     0.000 HD 
HETATM   15  O   UNL     1      -7.306  20.674  67.149  1.00  0.00    -0.313 OA 
BRANCH  13  16
HETATM   16  C   UNL     1      -5.825  18.771  67.186  1.00  0.00    -0.152 C  
HETATM   17  O   UNL     1      -5.584  17.524  67.856  1.00  0.00    -0.133 OA 
HETATM   18  H   UNL     1      -4.804  17.132  67.482  1.00  0.00     0.000 HD 
ENDBRANCH  13  16
ENDBRANCH  10  13
ENDBRANCH   7  10
ENDBRANCH   4   7
ENDBRANCH   2   4
TORSDOF 5
ENDMDL
MODEL      139
REMARK 921   NORMALIZED FREE ENERGY PREDICTED BY IDOCK:   -2.90 KCAL/MOL
REMARK 922        TOTAL FREE ENERGY PREDICTED BY IDOCK:   -4.59 KCAL/MOL
REMARK 923 INTER-LIGAND FREE ENERGY PREDICTED BY IDOCK:   -3.66 KCAL/MOL
REMARK 924 INTRA-LIGAND FREE ENERGY PREDICTED BY IDOCK:   -0.93 KCAL/MOL
REMARK 927      BINDING AFFINITY PREDICTED BY RF-SCORE:    0.00 PKD
ROOT
HETATM    1  O   UNL     1     -11.578   4.707  65.186  1.00  0.00    -1.107 OA 
HETATM    2  C   UNL     1     -10.230   4.489  65.624  1.00  0.00    -0.253 C  
HETATM    3  H   UNL     1     -11.850   4.000  64.612  1.00  0.00     0.000 HD 
ENDROOT
BRANCH   2   4
HETATM    4  C   UNL     1      -9.791   5.628  66.550  1.00  0.00    -0.168 C  
HETATM    5  H   UNL     1      -9.315   5.804  68.456  1.00  0.00     0.000 HD 
HETATM    6  O   UNL     1      -9.587   5.098  67.882  1.00  0.00    -0.125 OA 
BRANCH   4   7
HETATM    7  C   UNL     1     -10.809   6.774  66.708  1.00  0.00    -0.226 C  
HETATM    8  O   UNL     1     -11.627   6.500  67.859  1.00  0.00    -0.623 OA 
HETATM    9  H   UNL     1     -12.255   7.206  67.957  1.00  0.00     0.000 HD 
BRANCH   7  10
HETATM   10  C   UNL     1     -10.258   8.213  66.791  1.00  0.00    -0.302 C  
HETATM   11  H   UNL     1      -8.514   9.137  66.535  1.00  0.00     0.000 HD 
HETATM   12  O   UNL     1      -8.854   8.251  66.485  1.00  0.00    -0.135 OA 
BRANCH  10  13
HETATM   13  C   UNL     1     -10.494   8.961  68.119  1.00  0.00    -0.202 C  
HETATM   14  H   UNL     1     -10.979  10.804  68.723  1.00  0.00     0.000 HD 
HETATM   15  O   UNL     1     -10.834  10.344  67.905  1.00  0.00    -0.237 OA 
BRANCH  13  16
HETATM   16  C   UNL     1      -9.309   8.899  69.090  1.00  0.00    -0.148 C  
HETATM   17  O   UNL     1      -8.987   7.518  69.316  1.00  0.00    -0.136 OA 
HETATM   18  H   UNL     1      -8.253   7.480  69.918  1.00  0.00     0.000 HD 
ENDBRANCH  13  16
ENDBRANCH  10  13
ENDBRANCH   7  10
ENDBRANCH   4   7
ENDBRANCH   2   4
TORSDOF 5
ENDMDL
MODEL      140
REMARK 921   NORMALIZED FREE ENERGY PREDICTED BY IDOCK:   -2.89 KCAL/MOL
REMARK 922        TOTAL FREE ENERGY PREDICTED BY IDOCK:   -4.59 KCAL/MOL
REMARK 923 INTER-LIGAND FREE ENERGY PREDICTED BY IDOCK:   -3.94 KCAL/MOL
REMARK 924 INTRA-LIGAND FREE ENERGY PREDICTED BY IDOCK:   -0.64 KCAL/MOL
REMARK 927      BINDING AFFINITY PREDICTED BY RF-SCORE:    0.00 PKD
ROOT
HETATM    1  O   UNL     1     -11.540   6.649  67.341  1.00  0.00    -0.727 OA 
HETATM    2  C   UNL     1     -10.520   7.602  67.008  1.00  0.00    -0.349 C  
HETATM    3  H   UNL     1     -11.496   5.908  66.749  1.00  0.00     0.000 HD 
ENDROOT
BRANCH   2   4
HETATM    4  C   UNL     1     -10.591   8.797  67.964  1.00  0.00    -0.159 C  
HETATM    5  H   UNL     1      -9.743  10.575  68.079  1.00  0.00     0.000 HD 
HETATM    6  O   UNL     1      -9.699   9.833  67.486  1.00  0.00    -0.149 OA 
BRANCH   4   7
HETATM    7  C   UNL     1     -10.153   8.506  69.413  1.00  0.00    -0.205 C  
HETATM    8  O   UNL     1      -9.099   9.420  69.763  1.00  0.00    -0.163 OA 
HETATM    9  H   UNL     1      -8.830   9.240  70.655  1.00  0.00     0.000 HD 
BRANCH   7  10
HETATM   10  C   UNL     1     -11.243   8.523  70.506  1.00  0.00    -0.242 C  
HETATM   11  H   UNL     1     -11.523   9.359  72.290  1.00  0.00     0.000 HD 
HETATM   12  O   UNL     1     -10.853   9.347  71.617  1.00  0.00    -0.368 OA 
BRANCH  10  13
HETATM   13  C   UNL     1     -11.696   7.151  71.043  1.00  0.00    -0.320 C  
HETATM   14  H   UNL     1     -11.787   5.259  70.406  1.00  0.00     0.000 HD 
HETATM   15  O   UNL     1     -11.508   6.103  70.074  1.00  0.00    -0.406 OA 
BRANCH  13  16
HETATM   16  C   UNL     1     -13.153   7.117  71.517  1.00  0.00    -0.375 C  
HETATM   17  O   UNL     1     -13.394   8.285  72.316  1.00  0.00    -0.480 OA 
HETATM   18  H   UNL     1     -14.297   8.263  72.610  1.00  0.00     0.000 HD 
ENDBRANCH  13  16
ENDBRANCH  10  13
ENDBRANCH   7  10
ENDBRANCH   4   7
ENDBRANCH   2   4
TORSDOF 5
ENDMDL
MODEL      141
REMARK 921   NORMALIZED FREE ENERGY PREDICTED BY IDOCK:   -2.89 KCAL/MOL
REMARK 922        TOTAL FREE ENERGY PREDICTED BY IDOCK:   -4.58 KCAL/MOL
REMARK 923 INTER-LIGAND FREE ENERGY PREDICTED BY IDOCK:   -4.07 KCAL/MOL
REMARK 924 INTRA-LIGAND FREE ENERGY PREDICTED BY IDOCK:   -0.51 KCAL/MOL
REMARK 927      BINDING AFFINITY PREDICTED BY RF-SCORE:    0.00 PKD
ROOT
HETATM    1  O   UNL     1      -9.984  10.002  67.235  1.00  0.00    -0.179 OA 
HETATM    2  C   UNL     1     -10.346   8.644  67.518  1.00  0.00    -0.269 C  
HETATM    3  H   UNL     1     -10.399  10.287  66.429  1.00  0.00     0.000 HD 
ENDROOT
BRANCH   2   4
HETATM    4  C   UNL     1      -9.677   8.185  68.818  1.00  0.00    -0.153 C  
HETATM    5  H   UNL     1      -9.809   6.616  70.005  1.00  0.00     0.000 HD 
HETATM    6  O   UNL     1     -10.224   6.900  69.199  1.00  0.00    -0.174 OA 
BRANCH   4   7
HETATM    7  C   UNL     1      -9.898   9.110  70.031  1.00  0.00    -0.193 C  
HETATM    8  O   UNL     1      -9.076  10.279  69.868  1.00  0.00    -0.387 OA 
HETATM    9  H   UNL     1      -9.213  10.848  70.616  1.00  0.00     0.000 HD 
BRANCH   7  10
HETATM   10  C   UNL     1     -11.347   9.532  70.353  1.00  0.00    -0.264 C  
HETATM   11  H   UNL     1     -12.474  11.164  70.192  1.00  0.00     0.000 HD 
HETATM   12  O   UNL     1     -11.582  10.904  69.994  1.00  0.00    -0.284 OA 
BRANCH  10  13
HETATM   13  C   UNL     1     -11.818   9.314  71.805  1.00  0.00    -0.384 C  
HETATM   14  H   UNL     1     -11.846   7.841  73.156  1.00  0.00     0.000 HD 
HETATM   15  O   UNL     1     -11.556   7.974  72.261  1.00  0.00    -0.316 OA 
BRANCH  13  16
HETATM   16  C   UNL     1     -13.302   9.622  72.033  1.00  0.00    -0.457 C  
HETATM   17  O   UNL     1     -13.755   8.846  73.153  1.00  0.00    -1.009 OA 
HETATM   18  H   UNL     1     -14.674   9.036  73.294  1.00  0.00     0.000 HD 
ENDBRANCH  13  16
ENDBRANCH  10  13
ENDBRANCH   7  10
ENDBRANCH   4   7
ENDBRANCH   2   4
TORSDOF 5
ENDMDL
MODEL      142
REMARK 921   NORMALIZED FREE ENERGY PREDICTED BY IDOCK:   -2.88 KCAL/MOL
REMARK 922        TOTAL FREE ENERGY PREDICTED BY IDOCK:   -4.57 KCAL/MOL
REMARK 923 INTER-LIGAND FREE ENERGY PREDICTED BY IDOCK:   -4.32 KCAL/MOL
REMARK 924 INTRA-LIGAND FREE ENERGY PREDICTED BY IDOCK:   -0.26 KCAL/MOL
REMARK 927      BINDING AFFINITY PREDICTED BY RF-SCORE:    0.00 PKD
ROOT
HETATM    1  O   UNL     1     -11.504  12.520  70.317  1.00  0.00    -0.521 OA 
HETATM    2  C   UNL     1     -12.085  11.345  69.736  1.00  0.00    -0.320 C  
HETATM    3  H   UNL     1     -11.672  12.536  71.252  1.00  0.00     0.000 HD 
ENDROOT
BRANCH   2   4
HETATM    4  C   UNL     1     -11.814  11.319  68.229  1.00  0.00    -0.229 C  
HETATM    5  H   UNL     1     -10.936  10.085  66.965  1.00  0.00     0.000 HD 
HETATM    6  O   UNL     1     -11.104  10.101  67.900  1.00  0.00    -0.286 OA 
BRANCH   4   7
HETATM    7  C   UNL     1     -10.935  12.470  67.701  1.00  0.00    -0.242 C  
HETATM    8  O   UNL     1      -9.911  11.911  66.860  1.00  0.00    -0.198 OA 
HETATM    9  H   UNL     1      -9.370  12.621  66.534  1.00  0.00     0.000 HD 
BRANCH   7  10
HETATM   10  C   UNL     1     -11.641  13.628  66.964  1.00  0.00    -0.359 C  
HETATM   11  H   UNL     1     -13.081  14.949  67.339  1.00  0.00     0.000 HD 
HETATM   12  O   UNL     1     -12.647  14.236  67.792  1.00  0.00     0.054 OA 
BRANCH  10  13
HETATM   13  C   UNL     1     -12.267  13.289  65.596  1.00  0.00    -0.462 C  
HETATM   14  H   UNL     1     -12.643  11.665  64.493  1.00  0.00     0.000 HD 
HETATM   15  O   UNL     1     -12.257  11.873  65.335  1.00  0.00    -0.377 OA 
BRANCH  13  16
HETATM   16  C   UNL     1     -11.606  14.004  64.412  1.00  0.00    -0.369 C  
HETATM   17  O   UNL     1     -12.512  15.010  63.933  1.00  0.00    -1.005 OA 
HETATM   18  H   UNL     1     -12.102  15.453  63.200  1.00  0.00     0.000 HD 
ENDBRANCH  13  16
ENDBRANCH  10  13
ENDBRANCH   7  10
ENDBRANCH   4   7
ENDBRANCH   2   4
TORSDOF 5
ENDMDL
MODEL      143
REMARK 921   NORMALIZED FREE ENERGY PREDICTED BY IDOCK:   -2.88 KCAL/MOL
REMARK 922        TOTAL FREE ENERGY PREDICTED BY IDOCK:   -4.57 KCAL/MOL
REMARK 923 INTER-LIGAND FREE ENERGY PREDICTED BY IDOCK:   -4.08 KCAL/MOL
REMARK 924 INTRA-LIGAND FREE ENERGY PREDICTED BY IDOCK:   -0.49 KCAL/MOL
REMARK 927      BINDING AFFINITY PREDICTED BY RF-SCORE:    0.00 PKD
ROOT
HETATM    1  O   UNL     1     -12.872   8.294  70.942  1.00  0.00    -0.508 OA 
HETATM    2  C   UNL     1     -13.451   9.605  71.009  1.00  0.00    -0.163 C  
HETATM    3  H   UNL     1     -13.542   7.655  70.729  1.00  0.00     0.000 HD 
ENDROOT
BRANCH   2   4
HETATM    4  C   UNL     1     -12.371  10.635  71.353  1.00  0.00    -0.350 C  
HETATM    5  H   UNL     1     -12.337  12.545  71.848  1.00  0.00     0.000 HD 
HETATM    6  O   UNL     1     -13.007  11.906  71.634  1.00  0.00    -0.412 OA 
BRANCH   4   7
HETATM    7  C   UNL     1     -11.352  10.918  70.231  1.00  0.00    -0.256 C  
HETATM    8  O   UNL     1     -10.536   9.748  70.053  1.00  0.00    -0.235 OA 
HETATM    9  H   UNL     1      -9.908   9.922  69.362  1.00  0.00     0.000 HD 
BRANCH   7  10
HETATM   10  C   UNL     1     -11.903  11.383  68.867  1.00  0.00    -0.347 C  
HETATM   11  H   UNL     1     -12.116  10.636  67.035  1.00  0.00     0.000 HD 
HETATM   12  O   UNL     1     -11.778  10.350  67.875  1.00  0.00    -0.377 OA 
BRANCH  10  13
HETATM   13  C   UNL     1     -11.310  12.688  68.298  1.00  0.00    -0.295 C  
HETATM   14  H   UNL     1      -9.515  13.546  68.101  1.00  0.00     0.000 HD 
HETATM   15  O   UNL     1      -9.880  12.742  68.451  1.00  0.00    -0.223 OA 
BRANCH  13  16
HETATM   16  C   UNL     1     -11.911  13.962  68.902  1.00  0.00    -0.358 C  
HETATM   17  O   UNL     1     -12.416  14.772  67.830  1.00  0.00    -0.556 OA 
HETATM   18  H   UNL     1     -12.788  15.562  68.205  1.00  0.00     0.000 HD 
ENDBRANCH  13  16
ENDBRANCH  10  13
ENDBRANCH   7  10
ENDBRANCH   4   7
ENDBRANCH   2   4
TORSDOF 5
ENDMDL
MODEL      144
REMARK 921   NORMALIZED FREE ENERGY PREDICTED BY IDOCK:   -2.88 KCAL/MOL
REMARK 922        TOTAL FREE ENERGY PREDICTED BY IDOCK:   -4.57 KCAL/MOL
REMARK 923 INTER-LIGAND FREE ENERGY PREDICTED BY IDOCK:   -3.88 KCAL/MOL
REMARK 924 INTRA-LIGAND FREE ENERGY PREDICTED BY IDOCK:   -0.68 KCAL/MOL
REMARK 927      BINDING AFFINITY PREDICTED BY RF-SCORE:    0.00 PKD
ROOT
HETATM    1  O   UNL     1      -8.362  15.109  69.037  1.00  0.00    -0.182 OA 
HETATM    2  C   UNL     1      -8.304  14.668  67.674  1.00  0.00    -0.177 C  
HETATM    3  H   UNL     1      -7.490  15.328  69.344  1.00  0.00     0.000 HD 
ENDROOT
BRANCH   2   4
HETATM    4  C   UNL     1      -9.710  14.315  67.180  1.00  0.00    -0.254 C  
HETATM    5  H   UNL     1     -11.551  14.867  67.623  1.00  0.00     0.000 HD 
HETATM    6  O   UNL     1     -10.679  15.086  67.930  1.00  0.00    -0.257 OA 
BRANCH   4   7
HETATM    7  C   UNL     1     -10.119  12.839  67.363  1.00  0.00    -0.219 C  
HETATM    8  O   UNL     1      -9.793  12.441  68.706  1.00  0.00    -0.396 OA 
HETATM    9  H   UNL     1     -10.044  11.532  68.819  1.00  0.00     0.000 HD 
BRANCH   7  10
HETATM   10  C   UNL     1     -11.580  12.459  67.047  1.00  0.00    -0.365 C  
HETATM   11  H   UNL     1     -12.852  10.998  67.505  1.00  0.00     0.000 HD 
HETATM   12  O   UNL     1     -11.952  11.233  67.699  1.00  0.00    -0.634 OA 
BRANCH  10  13
HETATM   13  C   UNL     1     -11.952  12.355  65.554  1.00  0.00    -0.391 C  
HETATM   14  H   UNL     1     -11.040  11.986  63.814  1.00  0.00     0.000 HD 
HETATM   15  O   UNL     1     -10.810  12.049  64.733  1.00  0.00    -0.285 OA 
BRANCH  13  16
HETATM   16  C   UNL     1     -12.631  13.609  64.991  1.00  0.00    -0.390 C  
HETATM   17  O   UNL     1     -13.088  14.406  66.094  1.00  0.00    -0.334 OA 
HETATM   18  H   UNL     1     -13.508  15.183  65.746  1.00  0.00     0.000 HD 
ENDBRANCH  13  16
ENDBRANCH  10  13
ENDBRANCH   7  10
ENDBRANCH   4   7
ENDBRANCH   2   4
TORSDOF 5
ENDMDL
MODEL      145
REMARK 921   NORMALIZED FREE ENERGY PREDICTED BY IDOCK:   -2.88 KCAL/MOL
REMARK 922        TOTAL FREE ENERGY PREDICTED BY IDOCK:   -4.57 KCAL/MOL
REMARK 923 INTER-LIGAND FREE ENERGY PREDICTED BY IDOCK:   -4.31 KCAL/MOL
REMARK 924 INTRA-LIGAND FREE ENERGY PREDICTED BY IDOCK:   -0.25 KCAL/MOL
REMARK 927      BINDING AFFINITY PREDICTED BY RF-SCORE:    0.00 PKD
ROOT
HETATM    1  O   UNL     1      -8.622  14.727  66.475  1.00  0.00    -0.424 OA 
HETATM    2  C   UNL     1      -9.787  15.232  65.808  1.00  0.00    -0.361 C  
HETATM    3  H   UNL     1      -8.000  14.399  65.837  1.00  0.00     0.000 HD 
ENDROOT
BRANCH   2   4
HETATM    4  C   UNL     1     -10.790  15.761  66.837  1.00  0.00    -0.265 C  
HETATM    5  H   UNL     1     -11.060  17.452  67.817  1.00  0.00     0.000 HD 
HETATM    6  O   UNL     1     -10.437  17.123  67.179  1.00  0.00    -0.319 OA 
BRANCH   4   7
HETATM    7  C   UNL     1     -10.827  14.992  68.173  1.00  0.00    -0.263 C  
HETATM    8  O   UNL     1     -11.009  15.941  69.239  1.00  0.00    -0.250 OA 
HETATM    9  H   UNL     1     -11.032  15.467  70.062  1.00  0.00     0.000 HD 
BRANCH   7  10
HETATM   10  C   UNL     1     -11.854  13.849  68.311  1.00  0.00    -0.376 C  
HETATM   11  H   UNL     1     -12.942  13.015  69.754  1.00  0.00     0.000 HD 
HETATM   12  O   UNL     1     -12.309  13.718  69.669  1.00  0.00    -0.316 OA 
BRANCH  10  13
HETATM   13  C   UNL     1     -11.409  12.463  67.804  1.00  0.00    -0.299 C  
HETATM   14  H   UNL     1     -11.593  11.352  66.153  1.00  0.00     0.000 HD 
HETATM   15  O   UNL     1     -11.868  12.206  66.465  1.00  0.00    -0.569 OA 
BRANCH  13  16
HETATM   16  C   UNL     1     -11.850  11.300  68.699  1.00  0.00    -0.300 C  
HETATM   17  O   UNL     1     -11.504  10.071  68.042  1.00  0.00    -0.572 OA 
HETATM   18  H   UNL     1     -11.777   9.350  68.597  1.00  0.00     0.000 HD 
ENDBRANCH  13  16
ENDBRANCH  10  13
ENDBRANCH   7  10
ENDBRANCH   4   7
ENDBRANCH   2   4
TORSDOF 5
ENDMDL
MODEL      146
REMARK 921   NORMALIZED FREE ENERGY PREDICTED BY IDOCK:   -2.87 KCAL/MOL
REMARK 922        TOTAL FREE ENERGY PREDICTED BY IDOCK:   -4.56 KCAL/MOL
REMARK 923 INTER-LIGAND FREE ENERGY PREDICTED BY IDOCK:   -3.95 KCAL/MOL
REMARK 924 INTRA-LIGAND FREE ENERGY PREDICTED BY IDOCK:   -0.61 KCAL/MOL
REMARK 927      BINDING AFFINITY PREDICTED BY RF-SCORE:    0.00 PKD
ROOT
HETATM    1  O   UNL     1      -5.200  18.275  67.467  1.00  0.00    -0.138 OA 
HETATM    2  C   UNL     1      -5.618  17.637  66.253  1.00  0.00    -0.210 C  
HETATM    3  H   UNL     1      -4.586  17.718  67.930  1.00  0.00     0.000 HD 
ENDROOT
BRANCH   2   4
HETATM    4  C   UNL     1      -6.609  18.535  65.506  1.00  0.00    -0.264 C  
HETATM    5  H   UNL     1      -6.667  19.432  63.750  1.00  0.00     0.000 HD 
HETATM    6  O   UNL     1      -6.052  18.875  64.213  1.00  0.00    -0.453 OA 
BRANCH   4   7
HETATM    7  C   UNL     1      -6.922  19.880  66.192  1.00  0.00    -0.252 C  
HETATM    8  O   UNL     1      -6.935  20.910  65.188  1.00  0.00    -0.525 OA 
HETATM    9  H   UNL     1      -7.127  21.739  65.611  1.00  0.00     0.000 HD 
BRANCH   7  10
HETATM   10  C   UNL     1      -8.205  19.966  67.044  1.00  0.00    -0.316 C  
HETATM   11  H   UNL     1      -8.744  19.628  68.930  1.00  0.00     0.000 HD 
HETATM   12  O   UNL     1      -7.954  19.575  68.405  1.00  0.00    -0.322 OA 
BRANCH  10  13
HETATM   13  C   UNL     1      -9.427  19.182  66.523  1.00  0.00    -0.356 C  
HETATM   14  H   UNL     1     -11.308  19.559  65.961  1.00  0.00     0.000 HD 
HETATM   15  O   UNL     1     -10.556  20.042  66.282  1.00  0.00    -0.438 OA 
BRANCH  13  16
HETATM   16  C   UNL     1      -9.875  18.041  67.442  1.00  0.00    -0.309 C  
HETATM   17  O   UNL     1     -10.597  18.609  68.545  1.00  0.00    -0.369 OA 
HETATM   18  H   UNL     1     -10.874  17.902  69.115  1.00  0.00     0.000 HD 
ENDBRANCH  13  16
ENDBRANCH  10  13
ENDBRANCH   7  10
ENDBRANCH   4   7
ENDBRANCH   2   4
TORSDOF 5
ENDMDL
MODEL      147
REMARK 921   NORMALIZED FREE ENERGY PREDICTED BY IDOCK:   -2.87 KCAL/MOL
REMARK 922        TOTAL FREE ENERGY PREDICTED BY IDOCK:   -4.56 KCAL/MOL
REMARK 923 INTER-LIGAND FREE ENERGY PREDICTED BY IDOCK:   -3.84 KCAL/MOL
REMARK 924 INTRA-LIGAND FREE ENERGY PREDICTED BY IDOCK:   -0.71 KCAL/MOL
REMARK 927      BINDING AFFINITY PREDICTED BY RF-SCORE:    0.00 PKD
ROOT
HETATM    1  O   UNL     1     -12.402   8.033  72.961  1.00  0.00    -0.657 OA 
HETATM    2  C   UNL     1     -11.216   7.247  72.779  1.00  0.00    -0.304 C  
HETATM    3  H   UNL     1     -12.949   7.642  73.632  1.00  0.00     0.000 HD 
ENDROOT
BRANCH   2   4
HETATM    4  C   UNL     1     -10.334   7.878  71.697  1.00  0.00    -0.204 C  
HETATM    5  H   UNL     1      -9.949   9.707  71.066  1.00  0.00     0.000 HD 
HETATM    6  O   UNL     1     -10.497   9.316  71.738  1.00  0.00    -0.337 OA 
BRANCH   4   7
HETATM    7  C   UNL     1     -10.669   7.461  70.251  1.00  0.00    -0.237 C  
HETATM    8  O   UNL     1     -12.097   7.502  70.086  1.00  0.00    -0.481 OA 
HETATM    9  H   UNL     1     -12.304   7.245  69.195  1.00  0.00     0.000 HD 
BRANCH   7  10
HETATM   10  C   UNL     1      -9.989   8.242  69.106  1.00  0.00    -0.196 C  
HETATM   11  H   UNL     1     -10.477   9.664  67.803  1.00  0.00     0.000 HD 
HETATM   12  O   UNL     1     -10.895   9.184  68.508  1.00  0.00    -0.157 OA 
BRANCH  10  13
HETATM   13  C   UNL     1      -9.346   7.396  67.988  1.00  0.00    -0.135 C  
HETATM   14  H   UNL     1      -7.659   7.382  66.916  1.00  0.00     0.000 HD 
HETATM   15  O   UNL     1      -8.055   7.903  67.605  1.00  0.00    -0.121 OA 
BRANCH  13  16
HETATM   16  C   UNL     1     -10.210   7.267  66.728  1.00  0.00    -0.235 C  
HETATM   17  O   UNL     1     -11.478   6.713  67.108  1.00  0.00    -0.779 OA 
HETATM   18  H   UNL     1     -12.013   6.633  66.327  1.00  0.00     0.000 HD 
ENDBRANCH  13  16
ENDBRANCH  10  13
ENDBRANCH   7  10
ENDBRANCH   4   7
ENDBRANCH   2   4
TORSDOF 5
ENDMDL
MODEL      148
REMARK 921   NORMALIZED FREE ENERGY PREDICTED BY IDOCK:   -2.87 KCAL/MOL
REMARK 922        TOTAL FREE ENERGY PREDICTED BY IDOCK:   -4.55 KCAL/MOL
REMARK 923 INTER-LIGAND FREE ENERGY PREDICTED BY IDOCK:   -4.20 KCAL/MOL
REMARK 924 INTRA-LIGAND FREE ENERGY PREDICTED BY IDOCK:   -0.36 KCAL/MOL
REMARK 927      BINDING AFFINITY PREDICTED BY RF-SCORE:    0.00 PKD
ROOT
HETATM    1  O   UNL     1      -9.763  18.326  65.921  1.00  0.00    -0.516 OA 
HETATM    2  C   UNL     1     -10.645  17.236  65.619  1.00  0.00    -0.166 C  
HETATM    3  H   UNL     1     -10.019  19.096  65.427  1.00  0.00     0.000 HD 
ENDROOT
BRANCH   2   4
HETATM    4  C   UNL     1     -10.233  15.995  66.416  1.00  0.00    -0.305 C  
HETATM    5  H   UNL     1      -8.690  14.766  66.431  1.00  0.00     0.000 HD 
HETATM    6  O   UNL     1      -8.946  15.536  65.936  1.00  0.00    -0.303 OA 
BRANCH   4   7
HETATM    7  C   UNL     1     -11.181  14.786  66.287  1.00  0.00    -0.343 C  
HETATM    8  O   UNL     1     -10.451  13.696  65.698  1.00  0.00    -0.284 OA 
HETATM    9  H   UNL     1     -11.036  12.952  65.619  1.00  0.00     0.000 HD 
BRANCH   7  10
HETATM   10  C   UNL     1     -11.900  14.304  67.564  1.00  0.00    -0.395 C  
HETATM   11  H   UNL     1     -12.217  14.967  69.413  1.00  0.00     0.000 HD 
HETATM   12  O   UNL     1     -11.775  15.263  68.627  1.00  0.00    -0.343 OA 
BRANCH  10  13
HETATM   13  C   UNL     1     -11.489  12.918  68.099  1.00  0.00    -0.315 C  
HETATM   14  H   UNL     1     -11.763  10.996  67.622  1.00  0.00     0.000 HD 
HETATM   15  O   UNL     1     -12.017  11.849  67.292  1.00  0.00    -0.605 OA 
BRANCH  13  16
HETATM   16  C   UNL     1     -11.890  12.667  69.557  1.00  0.00    -0.312 C  
HETATM   17  O   UNL     1     -12.215  11.276  69.701  1.00  0.00    -0.309 OA 
HETATM   18  H   UNL     1     -12.464  11.121  70.604  1.00  0.00     0.000 HD 
ENDBRANCH  13  16
ENDBRANCH  10  13
ENDBRANCH   7  10
ENDBRANCH   4   7
ENDBRANCH   2   4
TORSDOF 5
ENDMDL
MODEL      149
REMARK 921   NORMALIZED FREE ENERGY PREDICTED BY IDOCK:   -2.86 KCAL/MOL
REMARK 922        TOTAL FREE ENERGY PREDICTED BY IDOCK:   -4.54 KCAL/MOL
REMARK 923 INTER-LIGAND FREE ENERGY PREDICTED BY IDOCK:   -4.04 KCAL/MOL
REMARK 924 INTRA-LIGAND FREE ENERGY PREDICTED BY IDOCK:   -0.50 KCAL/MOL
REMARK 927      BINDING AFFINITY PREDICTED BY RF-SCORE:    0.00 PKD
ROOT
HETATM    1  O   UNL     1      -8.544  14.339  66.496  1.00  0.00    -0.442 OA 
HETATM    2  C   UNL     1      -7.708  15.400  66.978  1.00  0.00    -0.185 C  
HETATM    3  H   UNL     1      -8.078  13.512  66.545  1.00  0.00     0.000 HD 
ENDROOT
BRANCH   2   4
HETATM    4  C   UNL     1      -8.459  16.733  66.899  1.00  0.00    -0.212 C  
HETATM    5  H   UNL     1      -9.754  17.560  65.663  1.00  0.00     0.000 HD 
HETATM    6  O   UNL     1      -9.289  16.734  65.712  1.00  0.00    -0.515 OA 
BRANCH   4   7
HETATM    7  C   UNL     1      -7.565  17.984  66.784  1.00  0.00    -0.220 C  
HETATM    8  O   UNL     1      -6.431  17.659  65.962  1.00  0.00    -0.235 OA 
HETATM    9  H   UNL     1      -5.881  18.430  65.891  1.00  0.00     0.000 HD 
BRANCH   7  10
HETATM   10  C   UNL     1      -8.221  19.286  66.278  1.00  0.00    -0.318 C  
HETATM   11  H   UNL     1      -7.635  21.026  65.511  1.00  0.00     0.000 HD 
HETATM   12  O   UNL     1      -7.232  20.224  65.823  1.00  0.00    -0.283 OA 
BRANCH  10  13
HETATM   13  C   UNL     1      -9.167  20.003  67.262  1.00  0.00    -0.367 C  
HETATM   14  H   UNL     1      -9.497  20.066  69.233  1.00  0.00     0.000 HD 
HETATM   15  O   UNL     1      -8.914  19.623  68.627  1.00  0.00    -0.348 OA 
BRANCH  13  16
HETATM   16  C   UNL     1     -10.655  19.788  66.967  1.00  0.00    -0.461 C  
HETATM   17  O   UNL     1     -10.780  19.290  65.626  1.00  0.00    -0.458 OA 
HETATM   18  H   UNL     1     -11.703  19.157  65.444  1.00  0.00     0.000 HD 
ENDBRANCH  13  16
ENDBRANCH  10  13
ENDBRANCH   7  10
ENDBRANCH   4   7
ENDBRANCH   2   4
TORSDOF 5
ENDMDL
MODEL      150
REMARK 921   NORMALIZED FREE ENERGY PREDICTED BY IDOCK:   -2.85 KCAL/MOL
REMARK 922        TOTAL FREE ENERGY PREDICTED BY IDOCK:   -4.53 KCAL/MOL
REMARK 923 INTER-LIGAND FREE ENERGY PREDICTED BY IDOCK:   -3.71 KCAL/MOL
REMARK 924 INTRA-LIGAND FREE ENERGY PREDICTED BY IDOCK:   -0.82 KCAL/MOL
REMARK 927      BINDING AFFINITY PREDICTED BY RF-SCORE:    0.00 PKD
ROOT
HETATM    1  O   UNL     1     -10.056  10.222  66.477  1.00  0.00    -0.213 OA 
HETATM    2  C   UNL     1      -8.766  10.849  66.449  1.00  0.00    -0.170 C  
HETATM    3  H   UNL     1     -10.028   9.404  65.995  1.00  0.00     0.000 HD 
ENDROOT
BRANCH   2   4
HETATM    4  C   UNL     1      -8.811  12.169  67.226  1.00  0.00    -0.186 C  
HETATM    5  H   UNL     1      -9.439  12.749  69.003  1.00  0.00     0.000 HD 
HETATM    6  O   UNL     1      -9.411  11.931  68.522  1.00  0.00    -0.196 OA 
BRANCH   4   7
HETATM    7  C   UNL     1      -9.653  13.285  66.575  1.00  0.00    -0.264 C  
HETATM    8  O   UNL     1      -9.723  13.036  65.161  1.00  0.00    -0.497 OA 
HETATM    9  H   UNL     1     -10.242  13.724  64.760  1.00  0.00     0.000 HD 
BRANCH   7  10
HETATM   10  C   UNL     1     -11.071  13.527  67.133  1.00  0.00    -0.293 C  
HETATM   11  H   UNL     1     -12.892  12.757  66.908  1.00  0.00     0.000 HD 
HETATM   12  O   UNL     1     -12.019  12.608  66.565  1.00  0.00    -0.467 OA 
BRANCH  10  13
HETATM   13  C   UNL     1     -11.627  14.959  66.993  1.00  0.00    -0.304 C  
HETATM   14  H   UNL     1     -11.177  16.641  66.012  1.00  0.00     0.000 HD 
HETATM   15  O   UNL     1     -10.834  15.760  66.098  1.00  0.00    -0.309 OA 
BRANCH  13  16
HETATM   16  C   UNL     1     -11.762  15.709  68.323  1.00  0.00    -0.242 C  
HETATM   17  O   UNL     1     -12.564  14.913  69.209  1.00  0.00    -0.572 OA 
HETATM   18  H   UNL     1     -12.648  15.378  70.033  1.00  0.00     0.000 HD 
ENDBRANCH  13  16
ENDBRANCH  10  13
ENDBRANCH   7  10
ENDBRANCH   4   7
ENDBRANCH   2   4
TORSDOF 5
ENDMDL
MODEL      151
REMARK 921   NORMALIZED FREE ENERGY PREDICTED BY IDOCK:   -2.84 KCAL/MOL
REMARK 922        TOTAL FREE ENERGY PREDICTED BY IDOCK:   -4.52 KCAL/MOL
REMARK 923 INTER-LIGAND FREE ENERGY PREDICTED BY IDOCK:   -4.24 KCAL/MOL
REMARK 924 INTRA-LIGAND FREE ENERGY PREDICTED BY IDOCK:   -0.28 KCAL/MOL
REMARK 927      BINDING AFFINITY PREDICTED BY RF-SCORE:    0.00 PKD
ROOT
HETATM    1  O   UNL     1      -6.971  19.477  67.584  1.00  0.00    -0.227 OA 
HETATM    2  C   UNL     1      -7.323  18.111  67.846  1.00  0.00    -0.225 C  
HETATM    3  H   UNL     1      -6.647  19.885  68.378  1.00  0.00     0.000 HD 
ENDROOT
BRANCH   2   4
HETATM    4  C   UNL     1      -7.845  17.452  66.565  1.00  0.00    -0.285 C  
HETATM    5  H   UNL     1      -7.529  17.663  64.630  1.00  0.00     0.000 HD 
HETATM    6  O   UNL     1      -7.205  18.072  65.424  1.00  0.00    -0.502 OA 
BRANCH   4   7
HETATM    7  C   UNL     1      -9.361  17.597  66.323  1.00  0.00    -0.197 C  
HETATM    8  O   UNL     1      -9.606  18.885  65.733  1.00  0.00    -0.419 OA 
HETATM    9  H   UNL     1     -10.540  18.974  65.585  1.00  0.00     0.000 HD 
BRANCH   7  10
HETATM   10  C   UNL     1     -10.059  16.501  65.492  1.00  0.00    -0.174 C  
HETATM   11  H   UNL     1     -11.346  16.399  63.977  1.00  0.00     0.000 HD 
HETATM   12  O   UNL     1     -10.916  17.073  64.490  1.00  0.00    -1.031 OA 
BRANCH  10  13
HETATM   13  C   UNL     1     -10.860  15.447  66.283  1.00  0.00    -0.301 C  
HETATM   14  H   UNL     1     -11.709  15.266  68.083  1.00  0.00     0.000 HD 
HETATM   15  O   UNL     1     -11.216  15.915  67.597  1.00  0.00    -0.308 OA 
BRANCH  13  16
HETATM   16  C   UNL     1     -10.147  14.098  66.426  1.00  0.00    -0.293 C  
HETATM   17  O   UNL     1     -10.855  13.130  65.637  1.00  0.00    -0.274 OA 
HETATM   18  H   UNL     1     -10.413  12.294  65.726  1.00  0.00     0.000 HD 
ENDBRANCH  13  16
ENDBRANCH  10  13
ENDBRANCH   7  10
ENDBRANCH   4   7
ENDBRANCH   2   4
TORSDOF 5
ENDMDL
MODEL      152
REMARK 921   NORMALIZED FREE ENERGY PREDICTED BY IDOCK:   -2.84 KCAL/MOL
REMARK 922        TOTAL FREE ENERGY PREDICTED BY IDOCK:   -4.51 KCAL/MOL
REMARK 923 INTER-LIGAND FREE ENERGY PREDICTED BY IDOCK:   -4.11 KCAL/MOL
REMARK 924 INTRA-LIGAND FREE ENERGY PREDICTED BY IDOCK:   -0.41 KCAL/MOL
REMARK 927      BINDING AFFINITY PREDICTED BY RF-SCORE:    0.00 PKD
ROOT
HETATM    1  O   UNL     1     -11.013  13.767  64.691  1.00  0.00    -0.367 OA 
HETATM    2  C   UNL     1     -10.247  14.429  65.707  1.00  0.00    -0.337 C  
HETATM    3  H   UNL     1     -10.633  12.916  64.502  1.00  0.00     0.000 HD 
ENDROOT
BRANCH   2   4
HETATM    4  C   UNL     1     -10.860  15.800  66.011  1.00  0.00    -0.255 C  
HETATM    5  H   UNL     1     -11.218  17.452  64.995  1.00  0.00     0.000 HD 
HETATM    6  O   UNL     1     -10.838  16.602  64.806  1.00  0.00    -0.732 OA 
BRANCH   4   7
HETATM    7  C   UNL     1     -10.117  16.629  67.077  1.00  0.00    -0.281 C  
HETATM    8  O   UNL     1      -9.717  15.748  68.141  1.00  0.00    -0.209 OA 
HETATM    9  H   UNL     1      -9.260  16.259  68.798  1.00  0.00     0.000 HD 
BRANCH   7  10
HETATM   10  C   UNL     1      -8.908  17.469  66.615  1.00  0.00    -0.262 C  
HETATM   11  H   UNL     1      -6.941  17.508  66.917  1.00  0.00     0.000 HD 
HETATM   12  O   UNL     1      -7.686  16.991  67.201  1.00  0.00    -0.159 OA 
BRANCH  10  13
HETATM   13  C   UNL     1      -9.004  18.991  66.844  1.00  0.00    -0.301 C  
HETATM   14  H   UNL     1     -10.400  20.420  66.789  1.00  0.00     0.000 HD 
HETATM   15  O   UNL     1     -10.342  19.483  66.648  1.00  0.00    -0.393 OA 
BRANCH  13  16
HETATM   16  C   UNL     1      -8.051  19.815  65.970  1.00  0.00    -0.322 C  
HETATM   17  O   UNL     1      -7.092  18.922  65.386  1.00  0.00    -0.493 OA 
HETATM   18  H   UNL     1      -6.502  19.433  64.845  1.00  0.00     0.000 HD 
ENDBRANCH  13  16
ENDBRANCH  10  13
ENDBRANCH   7  10
ENDBRANCH   4   7
ENDBRANCH   2   4
TORSDOF 5
ENDMDL
MODEL      153
REMARK 921   NORMALIZED FREE ENERGY PREDICTED BY IDOCK:   -2.83 KCAL/MOL
REMARK 922        TOTAL FREE ENERGY PREDICTED BY IDOCK:   -4.51 KCAL/MOL
REMARK 923 INTER-LIGAND FREE ENERGY PREDICTED BY IDOCK:   -4.29 KCAL/MOL
REMARK 924 INTRA-LIGAND FREE ENERGY PREDICTED BY IDOCK:   -0.22 KCAL/MOL
REMARK 927      BINDING AFFINITY PREDICTED BY RF-SCORE:    0.00 PKD
ROOT
HETATM    1  O   UNL     1     -12.337  11.360  62.754  1.00  0.00    -0.888 OA 
HETATM    2  C   UNL     1     -12.377  12.591  63.488  1.00  0.00    -0.525 C  
HETATM    3  H   UNL     1     -13.081  11.309  62.165  1.00  0.00     0.000 HD 
ENDROOT
BRANCH   2   4
HETATM    4  C   UNL     1     -11.177  12.672  64.436  1.00  0.00    -0.346 C  
HETATM    5  H   UNL     1      -9.380  11.865  64.524  1.00  0.00     0.000 HD 
HETATM    6  O   UNL     1     -10.124  11.815  63.935  1.00  0.00    -0.311 OA 
BRANCH   4   7
HETATM    7  C   UNL     1     -11.448  12.201  65.879  1.00  0.00    -0.363 C  
HETATM    8  O   UNL     1     -10.403  11.292  66.264  1.00  0.00    -0.232 OA 
HETATM    9  H   UNL     1     -10.570  11.001  67.153  1.00  0.00     0.000 HD 
BRANCH   7  10
HETATM   10  C   UNL     1     -11.622  13.285  66.964  1.00  0.00    -0.359 C  
HETATM   11  H   UNL     1     -12.298  15.153  67.081  1.00  0.00     0.000 HD 
HETATM   12  O   UNL     1     -12.190  14.486  66.414  1.00  0.00    -0.373 OA 
BRANCH  10  13
HETATM   13  C   UNL     1     -10.360  13.659  67.767  1.00  0.00    -0.241 C  
HETATM   14  H   UNL     1      -9.896  14.265  69.614  1.00  0.00     0.000 HD 
HETATM   15  O   UNL     1     -10.674  14.035  69.120  1.00  0.00    -0.236 OA 
BRANCH  13  16
HETATM   16  C   UNL     1      -9.527  14.780  67.134  1.00  0.00    -0.227 C  
HETATM   17  O   UNL     1      -9.272  15.772  68.140  1.00  0.00    -0.187 OA 
HETATM   18  H   UNL     1      -8.756  16.466  67.748  1.00  0.00     0.000 HD 
ENDBRANCH  13  16
ENDBRANCH  10  13
ENDBRANCH   7  10
ENDBRANCH   4   7
ENDBRANCH   2   4
TORSDOF 5
ENDMDL
MODEL      154
REMARK 921   NORMALIZED FREE ENERGY PREDICTED BY IDOCK:   -2.83 KCAL/MOL
REMARK 922        TOTAL FREE ENERGY PREDICTED BY IDOCK:   -4.50 KCAL/MOL
REMARK 923 INTER-LIGAND FREE ENERGY PREDICTED BY IDOCK:   -3.69 KCAL/MOL
REMARK 924 INTRA-LIGAND FREE ENERGY PREDICTED BY IDOCK:   -0.80 KCAL/MOL
REMARK 927      BINDING AFFINITY PREDICTED BY RF-SCORE:    0.00 PKD
ROOT
HETATM    1  O   UNL     1     -12.918  10.394  70.226  1.00  0.00    -0.521 OA 
HETATM    2  C   UNL     1     -12.921   9.680  71.470  1.00  0.00    -0.395 C  
HETATM    3  H   UNL     1     -13.579  11.076  70.243  1.00  0.00     0.000 HD 
ENDROOT
BRANCH   2   4
HETATM    4  C   UNL     1     -11.854   8.581  71.442  1.00  0.00    -0.296 C  
HETATM    5  H   UNL     1     -11.025   7.374  72.765  1.00  0.00     0.000 HD 
HETATM    6  O   UNL     1     -11.686   8.056  72.782  1.00  0.00    -0.396 OA 
BRANCH   4   7
HETATM    7  C   UNL     1     -10.451   9.038  70.995  1.00  0.00    -0.269 C  
HETATM    8  O   UNL     1      -9.500   8.628  71.992  1.00  0.00    -0.261 OA 
HETATM    9  H   UNL     1      -8.636   8.910  71.715  1.00  0.00     0.000 HD 
BRANCH   7  10
HETATM   10  C   UNL     1      -9.968   8.594  69.598  1.00  0.00    -0.191 C  
HETATM   11  H   UNL     1     -10.464   8.917  67.698  1.00  0.00     0.000 HD 
HETATM   12  O   UNL     1     -10.761   9.190  68.558  1.00  0.00    -0.196 OA 
BRANCH  10  13
HETATM   13  C   UNL     1      -9.892   7.074  69.351  1.00  0.00    -0.160 C  
HETATM   14  H   UNL     1      -8.624   5.569  69.705  1.00  0.00     0.000 HD 
HETATM   15  O   UNL     1      -8.670   6.506  69.857  1.00  0.00    -0.137 OA 
BRANCH  13  16
HETATM   16  C   UNL     1     -10.039   6.672  67.879  1.00  0.00    -0.150 C  
HETATM   17  O   UNL     1     -11.439   6.597  67.571  1.00  0.00    -0.721 OA 
HETATM   18  H   UNL     1     -11.529   6.348  66.659  1.00  0.00     0.000 HD 
ENDBRANCH  13  16
ENDBRANCH  10  13
ENDBRANCH   7  10
ENDBRANCH   4   7
ENDBRANCH   2   4
TORSDOF 5
ENDMDL
MODEL      155
REMARK 921   NORMALIZED FREE ENERGY PREDICTED BY IDOCK:   -2.82 KCAL/MOL
REMARK 922        TOTAL FREE ENERGY PREDICTED BY IDOCK:   -4.49 KCAL/MOL
REMARK 923 INTER-LIGAND FREE ENERGY PREDICTED BY IDOCK:   -3.81 KCAL/MOL
REMARK 924 INTRA-LIGAND FREE ENERGY PREDICTED BY IDOCK:   -0.68 KCAL/MOL
REMARK 927      BINDING AFFINITY PREDICTED BY RF-SCORE:    0.00 PKD
ROOT
HETATM    1  O   UNL     1      -8.018  11.181  65.251  1.00  0.00    -0.363 OA 
HETATM    2  C   UNL     1      -9.092  10.524  65.939  1.00  0.00    -0.168 C  
HETATM    3  H   UNL     1      -7.230  10.653  65.302  1.00  0.00     0.000 HD 
ENDROOT
BRANCH   2   4
HETATM    4  C   UNL     1     -10.363  11.375  65.855  1.00  0.00    -0.250 C  
HETATM    5  H   UNL     1     -11.703  11.791  64.469  1.00  0.00     0.000 HD 
HETATM    6  O   UNL     1     -10.915  11.264  64.521  1.00  0.00    -0.310 OA 
BRANCH   4   7
HETATM    7  C   UNL     1     -10.160  12.884  66.098  1.00  0.00    -0.276 C  
HETATM    8  O   UNL     1      -9.926  13.521  64.830  1.00  0.00    -0.565 OA 
HETATM    9  H   UNL     1      -9.801  14.451  64.980  1.00  0.00     0.000 HD 
BRANCH   7  10
HETATM   10  C   UNL     1     -11.267  13.639  66.865  1.00  0.00    -0.312 C  
HETATM   11  H   UNL     1     -12.879  14.722  66.432  1.00  0.00     0.000 HD 
HETATM   12  O   UNL     1     -12.198  14.257  65.961  1.00  0.00    -0.421 OA 
BRANCH  10  13
HETATM   13  C   UNL     1     -10.795  14.694  67.885  1.00  0.00    -0.259 C  
HETATM   14  H   UNL     1     -11.591  16.158  68.989  1.00  0.00     0.000 HD 
HETATM   15  O   UNL     1     -11.883  15.508  68.361  1.00  0.00    -0.351 OA 
BRANCH  13  16
HETATM   16  C   UNL     1      -9.691  15.619  67.361  1.00  0.00    -0.222 C  
HETATM   17  O   UNL     1     -10.184  16.290  66.191  1.00  0.00    -0.311 OA 
HETATM   18  H   UNL     1      -9.500  16.863  65.867  1.00  0.00     0.000 HD 
ENDBRANCH  13  16
ENDBRANCH  10  13
ENDBRANCH   7  10
ENDBRANCH   4   7
ENDBRANCH   2   4
TORSDOF 5
ENDMDL
MODEL      156
REMARK 921   NORMALIZED FREE ENERGY PREDICTED BY IDOCK:   -2.81 KCAL/MOL
REMARK 922        TOTAL FREE ENERGY PREDICTED BY IDOCK:   -4.48 KCAL/MOL
REMARK 923 INTER-LIGAND FREE ENERGY PREDICTED BY IDOCK:   -4.16 KCAL/MOL
REMARK 924 INTRA-LIGAND FREE ENERGY PREDICTED BY IDOCK:   -0.31 KCAL/MOL
REMARK 927      BINDING AFFINITY PREDICTED BY RF-SCORE:    0.00 PKD
ROOT
HETATM    1  O   UNL     1      -7.896  15.084  67.126  1.00  0.00    -0.199 OA 
HETATM    2  C   UNL     1      -8.404  13.748  67.250  1.00  0.00    -0.174 C  
HETATM    3  H   UNL     1      -6.993  15.061  66.832  1.00  0.00     0.000 HD 
ENDROOT
BRANCH   2   4
HETATM    4  C   UNL     1      -9.860  13.786  67.724  1.00  0.00    -0.234 C  
HETATM    5  H   UNL     1     -11.250  12.452  68.147  1.00  0.00     0.000 HD 
HETATM    6  O   UNL     1     -10.347  12.428  67.854  1.00  0.00    -0.201 OA 
BRANCH   4   7
HETATM    7  C   UNL     1     -10.843  14.492  66.769  1.00  0.00    -0.305 C  
HETATM    8  O   UNL     1     -10.953  15.870  67.167  1.00  0.00    -0.304 OA 
HETATM    9  H   UNL     1     -11.559  16.305  66.579  1.00  0.00     0.000 HD 
BRANCH   7  10
HETATM   10  C   UNL     1     -10.554  14.408  65.256  1.00  0.00    -0.382 C  
HETATM   11  H   UNL     1     -10.953  15.470  63.621  1.00  0.00     0.000 HD 
HETATM   12  O   UNL     1     -11.131  15.521  64.552  1.00  0.00    -0.376 OA 
BRANCH  10  13
HETATM   13  C   UNL     1     -10.977  13.105  64.549  1.00  0.00    -0.372 C  
HETATM   14  H   UNL     1     -10.206  11.799  63.246  1.00  0.00     0.000 HD 
HETATM   15  O   UNL     1      -9.945  12.602  63.681  1.00  0.00    -0.361 OA 
BRANCH  13  16
HETATM   16  C   UNL     1     -12.273  13.225  63.740  1.00  0.00    -0.439 C  
HETATM   17  O   UNL     1     -13.264  12.386  64.351  1.00  0.00    -0.816 OA 
HETATM   18  H   UNL     1     -14.067  12.461  63.850  1.00  0.00     0.000 HD 
ENDBRANCH  13  16
ENDBRANCH  10  13
ENDBRANCH   7  10
ENDBRANCH   4   7
ENDBRANCH   2   4
TORSDOF 5
ENDMDL
MODEL      157
REMARK 921   NORMALIZED FREE ENERGY PREDICTED BY IDOCK:   -2.80 KCAL/MOL
REMARK 922        TOTAL FREE ENERGY PREDICTED BY IDOCK:   -4.47 KCAL/MOL
REMARK 923 INTER-LIGAND FREE ENERGY PREDICTED BY IDOCK:   -3.71 KCAL/MOL
REMARK 924 INTRA-LIGAND FREE ENERGY PREDICTED BY IDOCK:   -0.76 KCAL/MOL
REMARK 927      BINDING AFFINITY PREDICTED BY RF-SCORE:    0.00 PKD
ROOT
HETATM    1  O   UNL     1     -11.396   4.438  65.045  1.00  0.00    -1.040 OA 
HETATM    2  C   UNL     1     -10.032   4.044  64.843  1.00  0.00    -0.205 C  
HETATM    3  H   UNL     1     -11.889   4.325  64.240  1.00  0.00     0.000 HD 
ENDROOT
BRANCH   2   4
HETATM    4  C   UNL     1      -9.239   4.227  66.140  1.00  0.00    -0.145 C  
HETATM    5  H   UNL     1      -9.292   3.458  67.956  1.00  0.00     0.000 HD 
HETATM    6  O   UNL     1      -9.784   3.345  67.151  1.00  0.00    -0.156 OA 
BRANCH   4   7
HETATM    7  C   UNL     1      -9.291   5.642  66.748  1.00  0.00    -0.134 C  
HETATM    8  O   UNL     1      -9.336   6.597  65.674  1.00  0.00    -0.381 OA 
HETATM    9  H   UNL     1      -9.369   7.469  66.049  1.00  0.00     0.000 HD 
BRANCH   7  10
HETATM   10  C   UNL     1     -10.415   5.943  67.762  1.00  0.00    -0.238 C  
HETATM   11  H   UNL     1     -12.204   6.814  67.758  1.00  0.00     0.000 HD 
HETATM   12  O   UNL     1     -11.512   6.629  67.135  1.00  0.00    -0.230 OA 
BRANCH  10  13
HETATM   13  C   UNL     1     -10.006   6.721  69.028  1.00  0.00    -0.155 C  
HETATM   14  H   UNL     1      -8.370   6.995  70.144  1.00  0.00     0.000 HD 
HETATM   15  O   UNL     1      -8.621   6.515  69.364  1.00  0.00    -0.132 OA 
BRANCH  13  16
HETATM   16  C   UNL     1     -10.856   6.399  70.262  1.00  0.00    -0.293 C  
HETATM   17  O   UNL     1     -12.236   6.603  69.922  1.00  0.00    -0.598 OA 
HETATM   18  H   UNL     1     -12.763   6.403  70.686  1.00  0.00     0.000 HD 
ENDBRANCH  13  16
ENDBRANCH  10  13
ENDBRANCH   7  10
ENDBRANCH   4   7
ENDBRANCH   2   4
TORSDOF 5
ENDMDL
MODEL      158
REMARK 921   NORMALIZED FREE ENERGY PREDICTED BY IDOCK:   -2.80 KCAL/MOL
REMARK 922        TOTAL FREE ENERGY PREDICTED BY IDOCK:   -4.47 KCAL/MOL
REMARK 923 INTER-LIGAND FREE ENERGY PREDICTED BY IDOCK:   -4.07 KCAL/MOL
REMARK 924 INTRA-LIGAND FREE ENERGY PREDICTED BY IDOCK:   -0.40 KCAL/MOL
REMARK 927      BINDING AFFINITY PREDICTED BY RF-SCORE:    0.00 PKD
ROOT
HETATM    1  O   UNL     1     -11.048  15.511  64.214  1.00  0.00    -0.710 OA 
HETATM    2  C   UNL     1     -10.273  15.207  65.382  1.00  0.00    -0.372 C  
HETATM    3  H   UNL     1     -10.476  15.598  63.460  1.00  0.00     0.000 HD 
ENDROOT
BRANCH   2   4
HETATM    4  C   UNL     1     -11.194  15.066  66.598  1.00  0.00    -0.311 C  
HETATM    5  H   UNL     1     -11.533  16.090  68.249  1.00  0.00     0.000 HD 
HETATM    6  O   UNL     1     -10.961  16.178  67.495  1.00  0.00    -0.313 OA 
BRANCH   4   7
HETATM    7  C   UNL     1     -10.976  13.795  67.443  1.00  0.00    -0.284 C  
HETATM    8  O   UNL     1     -11.995  13.742  68.456  1.00  0.00    -0.356 OA 
HETATM    9  H   UNL     1     -11.860  12.959  68.977  1.00  0.00     0.000 HD 
BRANCH   7  10
HETATM   10  C   UNL     1     -10.911  12.445  66.698  1.00  0.00    -0.246 C  
HETATM   11  H   UNL     1     -11.946  10.746  66.639  1.00  0.00     0.000 HD 
HETATM   12  O   UNL     1     -11.985  11.577  67.097  1.00  0.00    -0.581 OA 
BRANCH  10  13
HETATM   13  C   UNL     1      -9.583  11.667  66.805  1.00  0.00    -0.192 C  
HETATM   14  H   UNL     1      -8.338  10.674  65.597  1.00  0.00     0.000 HD 
HETATM   15  O   UNL     1      -9.156  11.153  65.531  1.00  0.00    -0.206 OA 
BRANCH  13  16
HETATM   16  C   UNL     1      -9.618  10.509  67.809  1.00  0.00    -0.156 C  
HETATM   17  O   UNL     1      -9.736  11.061  69.128  1.00  0.00    -0.342 OA 
HETATM   18  H   UNL     1      -9.757  10.343  69.750  1.00  0.00     0.000 HD 
ENDBRANCH  13  16
ENDBRANCH  10  13
ENDBRANCH   7  10
ENDBRANCH   4   7
ENDBRANCH   2   4
TORSDOF 5
ENDMDL
MODEL      159
REMARK 921   NORMALIZED FREE ENERGY PREDICTED BY IDOCK:   -2.80 KCAL/MOL
REMARK 922        TOTAL FREE ENERGY PREDICTED BY IDOCK:   -4.46 KCAL/MOL
REMARK 923 INTER-LIGAND FREE ENERGY PREDICTED BY IDOCK:   -4.30 KCAL/MOL
REMARK 924 INTRA-LIGAND FREE ENERGY PREDICTED BY IDOCK:   -0.16 KCAL/MOL
REMARK 927      BINDING AFFINITY PREDICTED BY RF-SCORE:    0.00 PKD
ROOT
HETATM    1  O   UNL     1     -11.758  16.138  63.660  1.00  0.00    -1.329 OA 
HETATM    2  C   UNL     1     -11.824  15.007  64.540  1.00  0.00    -0.371 C  
HETATM    3  H   UNL     1     -12.634  16.390  63.391  1.00  0.00     0.000 HD 
ENDROOT
BRANCH   2   4
HETATM    4  C   UNL     1     -10.412  14.601  64.973  1.00  0.00    -0.421 C  
HETATM    5  H   UNL     1      -9.334  12.949  64.930  1.00  0.00     0.000 HD 
HETATM    6  O   UNL     1     -10.209  13.201  64.662  1.00  0.00    -0.349 OA 
BRANCH   4   7
HETATM    7  C   UNL     1     -10.122  14.739  66.481  1.00  0.00    -0.273 C  
HETATM    8  O   UNL     1     -11.331  14.450  67.204  1.00  0.00    -0.315 OA 
HETATM    9  H   UNL     1     -11.152  14.536  68.133  1.00  0.00     0.000 HD 
BRANCH   7  10
HETATM   10  C   UNL     1      -8.956  13.913  67.063  1.00  0.00    -0.240 C  
HETATM   11  H   UNL     1      -8.653  12.665  68.583  1.00  0.00     0.000 HD 
HETATM   12  O   UNL     1      -9.370  13.174  68.225  1.00  0.00    -0.212 OA 
BRANCH  10  13
HETATM   13  C   UNL     1      -7.669  14.690  67.405  1.00  0.00    -0.201 C  
HETATM   14  H   UNL     1      -5.721  14.313  67.647  1.00  0.00     0.000 HD 
HETATM   15  O   UNL     1      -6.513  13.833  67.436  1.00  0.00    -0.292 OA 
BRANCH  13  16
HETATM   16  C   UNL     1      -7.738  15.459  68.730  1.00  0.00    -0.150 C  
HETATM   17  O   UNL     1      -6.863  16.593  68.638  1.00  0.00    -0.151 OA 
HETATM   18  H   UNL     1      -6.905  17.068  69.458  1.00  0.00     0.000 HD 
ENDBRANCH  13  16
ENDBRANCH  10  13
ENDBRANCH   7  10
ENDBRANCH   4   7
ENDBRANCH   2   4
TORSDOF 5
ENDMDL
MODEL      160
REMARK 921   NORMALIZED FREE ENERGY PREDICTED BY IDOCK:   -2.80 KCAL/MOL
REMARK 922        TOTAL FREE ENERGY PREDICTED BY IDOCK:   -4.46 KCAL/MOL
REMARK 923 INTER-LIGAND FREE ENERGY PREDICTED BY IDOCK:   -3.79 KCAL/MOL
REMARK 924 INTRA-LIGAND FREE ENERGY PREDICTED BY IDOCK:   -0.67 KCAL/MOL
REMARK 927      BINDING AFFINITY PREDICTED BY RF-SCORE:    0.00 PKD
ROOT
HETATM    1  O   UNL     1      -8.492  16.133  66.111  1.00  0.00    -0.327 OA 
HETATM    2  C   UNL     1      -8.049  16.012  67.469  1.00  0.00    -0.148 C  
HETATM    3  H   UNL     1      -7.749  16.080  65.522  1.00  0.00     0.000 HD 
ENDROOT
BRANCH   2   4
HETATM    4  C   UNL     1      -9.248  16.098  68.419  1.00  0.00    -0.203 C  
HETATM    5  H   UNL     1     -10.294  14.824  69.502  1.00  0.00     0.000 HD 
HETATM    6  O   UNL     1      -9.551  14.770  68.913  1.00  0.00    -0.216 OA 
BRANCH   4   7
HETATM    7  C   UNL     1     -10.553  16.615  67.784  1.00  0.00    -0.342 C  
HETATM    8  O   UNL     1     -11.651  16.249  68.638  1.00  0.00    -0.355 OA 
HETATM    9  H   UNL     1     -12.455  16.568  68.246  1.00  0.00     0.000 HD 
BRANCH   7  10
HETATM   10  C   UNL     1     -10.635  18.118  67.444  1.00  0.00    -0.388 C  
HETATM   11  H   UNL     1     -10.634  19.260  65.813  1.00  0.00     0.000 HD 
HETATM   12  O   UNL     1     -10.583  18.335  66.023  1.00  0.00    -0.419 OA 
BRANCH  10  13
HETATM   13  C   UNL     1      -9.593  19.031  68.120  1.00  0.00    -0.341 C  
HETATM   14  H   UNL     1      -9.525  20.367  69.606  1.00  0.00     0.000 HD 
HETATM   15  O   UNL     1     -10.167  19.805  69.189  1.00  0.00    -0.412 OA 
BRANCH  13  16
HETATM   16  C   UNL     1      -8.883  19.989  67.157  1.00  0.00    -0.344 C  
HETATM   17  O   UNL     1      -8.038  19.213  66.294  1.00  0.00    -0.291 OA 
HETATM   18  H   UNL     1      -7.597  19.806  65.697  1.00  0.00     0.000 HD 
ENDBRANCH  13  16
ENDBRANCH  10  13
ENDBRANCH   7  10
ENDBRANCH   4   7
ENDBRANCH   2   4
TORSDOF 5
ENDMDL
MODEL      161
REMARK 921   NORMALIZED FREE ENERGY PREDICTED BY IDOCK:   -2.79 KCAL/MOL
REMARK 922        TOTAL FREE ENERGY PREDICTED BY IDOCK:   -4.45 KCAL/MOL
REMARK 923 INTER-LIGAND FREE ENERGY PREDICTED BY IDOCK:   -3.97 KCAL/MOL
REMARK 924 INTRA-LIGAND FREE ENERGY PREDICTED BY IDOCK:   -0.47 KCAL/MOL
REMARK 927      BINDING AFFINITY PREDICTED BY RF-SCORE:    0.00 PKD
ROOT
HETATM    1  O   UNL     1     -11.773  12.912  69.117  1.00  0.00    -0.290 OA 
HETATM    2  C   UNL     1     -11.315  14.260  68.945  1.00  0.00    -0.274 C  
HETATM    3  H   UNL     1     -12.643  12.912  69.501  1.00  0.00     0.000 HD 
ENDROOT
BRANCH   2   4
HETATM    4  C   UNL     1      -9.914  14.259  68.326  1.00  0.00    -0.239 C  
HETATM    5  H   UNL     1      -8.335  15.440  68.387  1.00  0.00     0.000 HD 
HETATM    6  O   UNL     1      -9.204  15.441  68.771  1.00  0.00    -0.184 OA 
BRANCH   4   7
HETATM    7  C   UNL     1      -9.877  14.305  66.786  1.00  0.00    -0.270 C  
HETATM    8  O   UNL     1      -8.524  14.070  66.357  1.00  0.00    -0.380 OA 
HETATM    9  H   UNL     1      -8.502  14.098  65.407  1.00  0.00     0.000 HD 
BRANCH   7  10
HETATM   10  C   UNL     1     -10.837  13.371  66.020  1.00  0.00    -0.274 C  
HETATM   11  H   UNL     1     -11.289  11.433  65.987  1.00  0.00     0.000 HD 
HETATM   12  O   UNL     1     -10.698  12.009  66.458  1.00  0.00    -0.240 OA 
BRANCH  10  13
HETATM   13  C   UNL     1     -10.745  13.406  64.481  1.00  0.00    -0.419 C  
HETATM   14  H   UNL     1     -11.944  13.782  62.926  1.00  0.00     0.000 HD 
HETATM   15  O   UNL     1     -12.001  13.760  63.874  1.00  0.00    -0.435 OA 
BRANCH  13  16
HETATM   16  C   UNL     1     -10.256  12.095  63.855  1.00  0.00    -0.400 C  
HETATM   17  O   UNL     1     -11.400  11.269  63.592  1.00  0.00    -0.570 OA 
HETATM   18  H   UNL     1     -11.097  10.457  63.204  1.00  0.00     0.000 HD 
ENDBRANCH  13  16
ENDBRANCH  10  13
ENDBRANCH   7  10
ENDBRANCH   4   7
ENDBRANCH   2   4
TORSDOF 5
ENDMDL
MODEL      162
REMARK 921   NORMALIZED FREE ENERGY PREDICTED BY IDOCK:   -2.78 KCAL/MOL
REMARK 922        TOTAL FREE ENERGY PREDICTED BY IDOCK:   -4.44 KCAL/MOL
REMARK 923 INTER-LIGAND FREE ENERGY PREDICTED BY IDOCK:   -3.90 KCAL/MOL
REMARK 924 INTRA-LIGAND FREE ENERGY PREDICTED BY IDOCK:   -0.54 KCAL/MOL
REMARK 927      BINDING AFFINITY PREDICTED BY RF-SCORE:    0.00 PKD
ROOT
HETATM    1  O   UNL     1      -9.895  17.355  65.709  1.00  0.00    -0.536 OA 
HETATM    2  C   UNL     1      -9.192  16.134  65.974  1.00  0.00    -0.328 C  
HETATM    3  H   UNL     1      -9.370  17.916  65.149  1.00  0.00     0.000 HD 
ENDROOT
BRANCH   2   4
HETATM    4  C   UNL     1     -10.038  15.230  66.876  1.00  0.00    -0.256 C  
HETATM    5  H   UNL     1     -11.882  14.531  66.856  1.00  0.00     0.000 HD 
HETATM    6  O   UNL     1     -11.358  15.092  66.296  1.00  0.00    -0.341 OA 
BRANCH   4   7
HETATM    7  C   UNL     1     -10.264  15.756  68.307  1.00  0.00    -0.225 C  
HETATM    8  O   UNL     1     -11.220  16.829  68.251  1.00  0.00    -0.333 OA 
HETATM    9  H   UNL     1     -11.359  17.153  69.133  1.00  0.00     0.000 HD 
BRANCH   7  10
HETATM   10  C   UNL     1     -10.686  14.736  69.385  1.00  0.00    -0.239 C  
HETATM   11  H   UNL     1     -10.935  12.767  69.529  1.00  0.00     0.000 HD 
HETATM   12  O   UNL     1     -10.675  13.395  68.866  1.00  0.00    -0.242 OA 
BRANCH  10  13
HETATM   13  C   UNL     1     -12.043  14.988  70.073  1.00  0.00    -0.337 C  
HETATM   14  H   UNL     1     -12.839  16.292  71.362  1.00  0.00     0.000 HD 
HETATM   15  O   UNL     1     -12.003  16.137  70.939  1.00  0.00    -0.375 OA 
BRANCH  13  16
HETATM   16  C   UNL     1     -12.567  13.793  70.877  1.00  0.00    -0.356 C  
HETATM   17  O   UNL     1     -12.902  14.251  72.195  1.00  0.00    -0.332 OA 
HETATM   18  H   UNL     1     -13.227  13.510  72.693  1.00  0.00     0.000 HD 
ENDBRANCH  13  16
ENDBRANCH  10  13
ENDBRANCH   7  10
ENDBRANCH   4   7
ENDBRANCH   2   4
TORSDOF 5
ENDMDL
MODEL      163
REMARK 921   NORMALIZED FREE ENERGY PREDICTED BY IDOCK:   -2.78 KCAL/MOL
REMARK 922        TOTAL FREE ENERGY PREDICTED BY IDOCK:   -4.44 KCAL/MOL
REMARK 923 INTER-LIGAND FREE ENERGY PREDICTED BY IDOCK:   -3.84 KCAL/MOL
REMARK 924 INTRA-LIGAND FREE ENERGY PREDICTED BY IDOCK:   -0.60 KCAL/MOL
REMARK 927      BINDING AFFINITY PREDICTED BY RF-SCORE:    0.00 PKD
ROOT
HETATM    1  O   UNL     1     -12.154  13.430  70.191  1.00  0.00    -0.333 OA 
HETATM    2  C   UNL     1     -11.911  13.532  68.781  1.00  0.00    -0.355 C  
HETATM    3  H   UNL     1     -12.559  14.228  70.508  1.00  0.00     0.000 HD 
ENDROOT
BRANCH   2   4
HETATM    4  C   UNL     1     -11.259  12.244  68.269  1.00  0.00    -0.267 C  
HETATM    5  H   UNL     1     -11.597  10.967  66.804  1.00  0.00     0.000 HD 
HETATM    6  O   UNL     1     -12.001  11.766  67.122  1.00  0.00    -0.617 OA 
BRANCH   4   7
HETATM    7  C   UNL     1     -11.242  11.073  69.273  1.00  0.00    -0.257 C  
HETATM    8  O   UNL     1     -12.546  10.468  69.287  1.00  0.00    -0.726 OA 
HETATM    9  H   UNL     1     -12.536   9.747  69.906  1.00  0.00     0.000 HD 
BRANCH   7  10
HETATM   10  C   UNL     1     -10.164   9.985  69.082  1.00  0.00    -0.210 C  
HETATM   11  H   UNL     1     -10.050   8.142  68.341  1.00  0.00     0.000 HD 
HETATM   12  O   UNL     1     -10.713   8.812  68.459  1.00  0.00    -0.168 OA 
BRANCH  10  13
HETATM   13  C   UNL     1      -9.393   9.557  70.347  1.00  0.00    -0.257 C  
HETATM   14  H   UNL     1      -8.097   8.135  70.890  1.00  0.00     0.000 HD 
HETATM   15  O   UNL     1      -8.572   8.398  70.111  1.00  0.00    -0.125 OA 
BRANCH  13  16
HETATM   16  C   UNL     1     -10.287   9.278  71.560  1.00  0.00    -0.294 C  
HETATM   17  O   UNL     1     -10.958   8.028  71.345  1.00  0.00    -0.228 OA 
HETATM   18  H   UNL     1     -11.512   7.855  72.097  1.00  0.00     0.000 HD 
ENDBRANCH  13  16
ENDBRANCH  10  13
ENDBRANCH   7  10
ENDBRANCH   4   7
ENDBRANCH   2   4
TORSDOF 5
ENDMDL
MODEL      164
REMARK 921   NORMALIZED FREE ENERGY PREDICTED BY IDOCK:   -2.77 KCAL/MOL
REMARK 922        TOTAL FREE ENERGY PREDICTED BY IDOCK:   -4.42 KCAL/MOL
REMARK 923 INTER-LIGAND FREE ENERGY PREDICTED BY IDOCK:   -3.89 KCAL/MOL
REMARK 924 INTRA-LIGAND FREE ENERGY PREDICTED BY IDOCK:   -0.53 KCAL/MOL
REMARK 927      BINDING AFFINITY PREDICTED BY RF-SCORE:    0.00 PKD
ROOT
HETATM    1  O   UNL     1      -7.518  12.410  66.543  1.00  0.00    -0.353 OA 
HETATM    2  C   UNL     1      -8.391  11.952  67.586  1.00  0.00    -0.152 C  
HETATM    3  H   UNL     1      -6.681  11.965  66.604  1.00  0.00     0.000 HD 
ENDROOT
BRANCH   2   4
HETATM    4  C   UNL     1      -9.741  12.668  67.488  1.00  0.00    -0.196 C  
HETATM    5  H   UNL     1     -11.544  12.215  66.828  1.00  0.00     0.000 HD 
HETATM    6  O   UNL     1     -10.706  11.770  66.888  1.00  0.00    -0.229 OA 
BRANCH   4   7
HETATM    7  C   UNL     1      -9.749  13.936  66.610  1.00  0.00    -0.289 C  
HETATM    8  O   UNL     1      -9.810  13.534  65.231  1.00  0.00    -0.506 OA 
HETATM    9  H   UNL     1      -9.815  14.315  64.691  1.00  0.00     0.000 HD 
BRANCH   7  10
HETATM   10  C   UNL     1     -10.837  14.993  66.894  1.00  0.00    -0.315 C  
HETATM   11  H   UNL     1     -12.778  15.241  66.531  1.00  0.00     0.000 HD 
HETATM   12  O   UNL     1     -12.108  14.591  66.356  1.00  0.00    -0.385 OA 
BRANCH  10  13
HETATM   13  C   UNL     1     -10.535  16.430  66.423  1.00  0.00    -0.286 C  
HETATM   14  H   UNL     1     -10.585  17.482  64.724  1.00  0.00     0.000 HD 
HETATM   15  O   UNL     1     -10.771  16.596  65.013  1.00  0.00    -0.677 OA 
BRANCH  13  16
HETATM   16  C   UNL     1      -9.110  16.902  66.734  1.00  0.00    -0.245 C  
HETATM   17  O   UNL     1      -8.418  17.092  65.491  1.00  0.00    -0.256 OA 
HETATM   18  H   UNL     1      -7.535  17.384  65.684  1.00  0.00     0.000 HD 
ENDBRANCH  13  16
ENDBRANCH  10  13
ENDBRANCH   7  10
ENDBRANCH   4   7
ENDBRANCH   2   4
TORSDOF 5
ENDMDL
MODEL      165
REMARK 921   NORMALIZED FREE ENERGY PREDICTED BY IDOCK:   -2.75 KCAL/MOL
REMARK 922        TOTAL FREE ENERGY PREDICTED BY IDOCK:   -4.40 KCAL/MOL
REMARK 923 INTER-LIGAND FREE ENERGY PREDICTED BY IDOCK:   -3.96 KCAL/MOL
REMARK 924 INTRA-LIGAND FREE ENERGY PREDICTED BY IDOCK:   -0.44 KCAL/MOL
REMARK 927      BINDING AFFINITY PREDICTED BY RF-SCORE:    0.00 PKD
ROOT
HETATM    1  O   UNL     1     -12.407  16.302  71.809  1.00  0.00    -0.583 OA 
HETATM    2  C   UNL     1     -11.293  15.406  71.918  1.00  0.00    -0.384 C  
HETATM    3  H   UNL     1     -12.861  16.357  72.642  1.00  0.00     0.000 HD 
ENDROOT
BRANCH   2   4
HETATM    4  C   UNL     1     -10.561  15.318  70.575  1.00  0.00    -0.157 C  
HETATM    5  H   UNL     1     -10.113  16.571  69.118  1.00  0.00     0.000 HD 
HETATM    6  O   UNL     1     -10.567  16.625  69.951  1.00  0.00    -0.275 OA 
BRANCH   4   7
HETATM    7  C   UNL     1     -11.191  14.361  69.544  1.00  0.00    -0.254 C  
HETATM    8  O   UNL     1     -12.563  14.745  69.347  1.00  0.00    -0.569 OA 
HETATM    9  H   UNL     1     -12.952  14.155  68.712  1.00  0.00     0.000 HD 
BRANCH   7  10
HETATM   10  C   UNL     1     -10.488  14.218  68.178  1.00  0.00    -0.246 C  
HETATM   11  H   UNL     1     -10.475  15.159  66.425  1.00  0.00     0.000 HD 
HETATM   12  O   UNL     1     -10.908  15.247  67.266  1.00  0.00    -0.305 OA 
BRANCH  10  13
HETATM   13  C   UNL     1     -10.625  12.851  67.477  1.00  0.00    -0.226 C  
HETATM   14  H   UNL     1     -11.934  11.343  67.398  1.00  0.00     0.000 HD 
HETATM   15  O   UNL     1     -11.851  12.185  67.830  1.00  0.00    -0.422 OA 
BRANCH  13  16
HETATM   16  C   UNL     1      -9.458  11.893  67.744  1.00  0.00    -0.184 C  
HETATM   17  O   UNL     1      -9.655  11.294  69.034  1.00  0.00    -0.359 OA 
HETATM   18  H   UNL     1      -8.932  10.701  69.199  1.00  0.00     0.000 HD 
ENDBRANCH  13  16
ENDBRANCH  10  13
ENDBRANCH   7  10
ENDBRANCH   4   7
ENDBRANCH   2   4
TORSDOF 5
ENDMDL
MODEL      166
REMARK 921   NORMALIZED FREE ENERGY PREDICTED BY IDOCK:   -2.75 KCAL/MOL
REMARK 922        TOTAL FREE ENERGY PREDICTED BY IDOCK:   -4.40 KCAL/MOL
REMARK 923 INTER-LIGAND FREE ENERGY PREDICTED BY IDOCK:   -3.64 KCAL/MOL
REMARK 924 INTRA-LIGAND FREE ENERGY PREDICTED BY IDOCK:   -0.75 KCAL/MOL
REMARK 927      BINDING AFFINITY PREDICTED BY RF-SCORE:    0.00 PKD
ROOT
HETATM    1  O   UNL     1      -9.817  19.505  65.749  1.00  0.00    -0.403 OA 
HETATM    2  C   UNL     1     -10.590  19.621  66.952  1.00  0.00    -0.484 C  
HETATM    3  H   UNL     1     -10.071  20.184  65.135  1.00  0.00     0.000 HD 
ENDROOT
BRANCH   2   4
HETATM    4  C   UNL     1     -10.180  18.526  67.942  1.00  0.00    -0.384 C  
HETATM    5  H   UNL     1      -8.618  18.164  69.092  1.00  0.00     0.000 HD 
HETATM    6  O   UNL     1      -8.872  18.843  68.477  1.00  0.00    -0.333 OA 
BRANCH   4   7
HETATM    7  C   UNL     1     -10.054  17.112  67.342  1.00  0.00    -0.301 C  
HETATM    8  O   UNL     1     -10.810  17.067  66.120  1.00  0.00    -0.154 OA 
HETATM    9  H   UNL     1     -10.732  16.195  65.750  1.00  0.00     0.000 HD 
BRANCH   7  10
HETATM   10  C   UNL     1      -8.632  16.565  67.096  1.00  0.00    -0.186 C  
HETATM   11  H   UNL     1      -7.187  16.780  65.744  1.00  0.00     0.000 HD 
HETATM   12  O   UNL     1      -8.062  17.116  65.896  1.00  0.00    -0.516 OA 
BRANCH  10  13
HETATM   13  C   UNL     1      -8.486  15.031  67.051  1.00  0.00    -0.229 C  
HETATM   14  H   UNL     1      -9.322  13.483  66.101  1.00  0.00     0.000 HD 
HETATM   15  O   UNL     1      -9.412  14.428  66.128  1.00  0.00    -0.290 OA 
BRANCH  13  16
HETATM   16  C   UNL     1      -8.649  14.348  68.414  1.00  0.00    -0.174 C  
HETATM   17  O   UNL     1      -7.825  15.040  69.364  1.00  0.00    -0.190 OA 
HETATM   18  H   UNL     1      -7.925  14.618  70.209  1.00  0.00     0.000 HD 
ENDBRANCH  13  16
ENDBRANCH  10  13
ENDBRANCH   7  10
ENDBRANCH   4   7
ENDBRANCH   2   4
TORSDOF 5
ENDMDL
MODEL      167
REMARK 921   NORMALIZED FREE ENERGY PREDICTED BY IDOCK:   -2.75 KCAL/MOL
REMARK 922        TOTAL FREE ENERGY PREDICTED BY IDOCK:   -4.40 KCAL/MOL
REMARK 923 INTER-LIGAND FREE ENERGY PREDICTED BY IDOCK:   -3.77 KCAL/MOL
REMARK 924 INTRA-LIGAND FREE ENERGY PREDICTED BY IDOCK:   -0.62 KCAL/MOL
REMARK 927      BINDING AFFINITY PREDICTED BY RF-SCORE:    0.00 PKD
ROOT
HETATM    1  O   UNL     1      -9.777  19.481  65.806  1.00  0.00    -0.398 OA 
HETATM    2  C   UNL     1     -10.558  19.703  66.988  1.00  0.00    -0.480 C  
HETATM    3  H   UNL     1     -10.051  20.079  65.120  1.00  0.00     0.000 HD 
ENDROOT
BRANCH   2   4
HETATM    4  C   UNL     1     -10.116  18.738  68.094  1.00  0.00    -0.379 C  
HETATM    5  H   UNL     1      -8.610  18.627  69.362  1.00  0.00     0.000 HD 
HETATM    6  O   UNL     1      -8.884  19.225  68.677  1.00  0.00    -0.361 OA 
BRANCH   4   7
HETATM    7  C   UNL     1      -9.818  17.299  67.628  1.00  0.00    -0.279 C  
HETATM    8  O   UNL     1      -9.093  16.625  68.671  1.00  0.00    -0.228 OA 
HETATM    9  H   UNL     1      -8.909  15.739  68.385  1.00  0.00     0.000 HD 
BRANCH   7  10
HETATM   10  C   UNL     1     -11.013  16.432  67.179  1.00  0.00    -0.082 C  
HETATM   11  H   UNL     1     -12.393  15.276  68.028  1.00  0.00     0.000 HD 
HETATM   12  O   UNL     1     -11.657  15.810  68.304  1.00  0.00    -0.361 OA 
BRANCH  10  13
HETATM   13  C   UNL     1     -10.715  15.350  66.122  1.00  0.00    -0.314 C  
HETATM   14  H   UNL     1      -9.616  13.688  65.962  1.00  0.00     0.000 HD 
HETATM   15  O   UNL     1      -9.799  14.354  66.613  1.00  0.00    -0.260 OA 
BRANCH  13  16
HETATM   16  C   UNL     1     -10.166  15.902  64.801  1.00  0.00     0.384 C  
HETATM   17  O   UNL     1     -10.971  17.027  64.416  1.00  0.00    -1.017 OA 
HETATM   18  H   UNL     1     -10.631  17.369  63.598  1.00  0.00     0.000 HD 
ENDBRANCH  13  16
ENDBRANCH  10  13
ENDBRANCH   7  10
ENDBRANCH   4   7
ENDBRANCH   2   4
TORSDOF 5
ENDMDL
MODEL      168
REMARK 921   NORMALIZED FREE ENERGY PREDICTED BY IDOCK:   -2.74 KCAL/MOL
REMARK 922        TOTAL FREE ENERGY PREDICTED BY IDOCK:   -4.39 KCAL/MOL
REMARK 923 INTER-LIGAND FREE ENERGY PREDICTED BY IDOCK:   -3.71 KCAL/MOL
REMARK 924 INTRA-LIGAND FREE ENERGY PREDICTED BY IDOCK:   -0.68 KCAL/MOL
REMARK 927      BINDING AFFINITY PREDICTED BY RF-SCORE:    0.00 PKD
ROOT
HETATM    1  O   UNL     1      -8.044   7.886  69.045  1.00  0.00    -0.120 OA 
HETATM    2  C   UNL     1      -9.325   7.508  68.521  1.00  0.00    -0.142 C  
HETATM    3  H   UNL     1      -7.379   7.280  68.741  1.00  0.00     0.000 HD 
ENDROOT
BRANCH   2   4
HETATM    4  C   UNL     1     -10.398   8.486  69.011  1.00  0.00    -0.216 C  
HETATM    5  H   UNL     1     -11.342  10.048  68.264  1.00  0.00     0.000 HD 
HETATM    6  O   UNL     1     -10.676   9.442  67.960  1.00  0.00    -0.234 OA 
BRANCH   4   7
HETATM    7  C   UNL     1     -10.009   9.323  70.245  1.00  0.00    -0.219 C  
HETATM    8  O   UNL     1      -9.420  10.555  69.792  1.00  0.00    -0.417 OA 
HETATM    9  H   UNL     1      -9.180  11.071  70.553  1.00  0.00     0.000 HD 
BRANCH   7  10
HETATM   10  C   UNL     1     -11.112   9.623  71.282  1.00  0.00    -0.355 C  
HETATM   11  H   UNL     1     -12.250   8.602  72.556  1.00  0.00     0.000 HD 
HETATM   12  O   UNL     1     -11.571   8.418  71.917  1.00  0.00    -0.287 OA 
BRANCH  10  13
HETATM   13  C   UNL     1     -12.337  10.408  70.771  1.00  0.00    -0.367 C  
HETATM   14  H   UNL     1     -12.710  12.007  69.630  1.00  0.00     0.000 HD 
HETATM   15  O   UNL     1     -11.955  11.524  69.945  1.00  0.00    -0.310 OA 
BRANCH  13  16
HETATM   16  C   UNL     1     -13.257  10.922  71.883  1.00  0.00    -0.403 C  
HETATM   17  O   UNL     1     -13.876   9.790  72.513  1.00  0.00    -0.642 OA 
HETATM   18  H   UNL     1     -14.447  10.109  73.202  1.00  0.00     0.000 HD 
ENDBRANCH  13  16
ENDBRANCH  10  13
ENDBRANCH   7  10
ENDBRANCH   4   7
ENDBRANCH   2   4
TORSDOF 5
ENDMDL
MODEL      169
REMARK 921   NORMALIZED FREE ENERGY PREDICTED BY IDOCK:   -2.74 KCAL/MOL
REMARK 922        TOTAL FREE ENERGY PREDICTED BY IDOCK:   -4.39 KCAL/MOL
REMARK 923 INTER-LIGAND FREE ENERGY PREDICTED BY IDOCK:   -3.68 KCAL/MOL
REMARK 924 INTRA-LIGAND FREE ENERGY PREDICTED BY IDOCK:   -0.70 KCAL/MOL
REMARK 927      BINDING AFFINITY PREDICTED BY RF-SCORE:    0.00 PKD
ROOT
HETATM    1  O   UNL     1     -12.348   7.147  72.633  1.00  0.00    -0.485 OA 
HETATM    2  C   UNL     1     -10.981   7.157  73.067  1.00  0.00    -0.317 C  
HETATM    3  H   UNL     1     -12.918   6.941  73.364  1.00  0.00     0.000 HD 
ENDROOT
BRANCH   2   4
HETATM    4  C   UNL     1     -10.061   7.490  71.888  1.00  0.00    -0.172 C  
HETATM    5  H   UNL     1      -8.182   7.130  71.408  1.00  0.00     0.000 HD 
HETATM    6  O   UNL     1      -8.752   6.924  72.139  1.00  0.00    -0.127 OA 
BRANCH   4   7
HETATM    7  C   UNL     1      -9.826   8.993  71.643  1.00  0.00    -0.296 C  
HETATM    8  O   UNL     1      -8.448   9.184  71.278  1.00  0.00    -0.286 OA 
HETATM    9  H   UNL     1      -8.303  10.111  71.127  1.00  0.00     0.000 HD 
BRANCH   7  10
HETATM   10  C   UNL     1     -10.739   9.702  70.620  1.00  0.00    -0.322 C  
HETATM   11  H   UNL     1     -12.655  10.220  70.471  1.00  0.00     0.000 HD 
HETATM   12  O   UNL     1     -12.092   9.784  71.099  1.00  0.00    -0.319 OA 
BRANCH  10  13
HETATM   13  C   UNL     1     -10.756   9.115  69.195  1.00  0.00    -0.172 C  
HETATM   14  H   UNL     1      -9.513   8.134  67.974  1.00  0.00     0.000 HD 
HETATM   15  O   UNL     1      -9.502   8.495  68.852  1.00  0.00    -0.146 OA 
BRANCH  13  16
HETATM   16  C   UNL     1     -11.106  10.133  68.104  1.00  0.00    -0.230 C  
HETATM   17  O   UNL     1     -12.369  10.730  68.436  1.00  0.00    -0.813 OA 
HETATM   18  H   UNL     1     -12.586  11.361  67.760  1.00  0.00     0.000 HD 
ENDBRANCH  13  16
ENDBRANCH  10  13
ENDBRANCH   7  10
ENDBRANCH   4   7
ENDBRANCH   2   4
TORSDOF 5
ENDMDL
MODEL      170
REMARK 921   NORMALIZED FREE ENERGY PREDICTED BY IDOCK:   -2.73 KCAL/MOL
REMARK 922        TOTAL FREE ENERGY PREDICTED BY IDOCK:   -4.37 KCAL/MOL
REMARK 923 INTER-LIGAND FREE ENERGY PREDICTED BY IDOCK:   -3.98 KCAL/MOL
REMARK 924 INTRA-LIGAND FREE ENERGY PREDICTED BY IDOCK:   -0.39 KCAL/MOL
REMARK 927      BINDING AFFINITY PREDICTED BY RF-SCORE:    0.00 PKD
ROOT
HETATM    1  O   UNL     1      -9.570   5.518  73.980  1.00  0.00    -0.134 OA 
HETATM    2  C   UNL     1     -10.383   6.699  73.965  1.00  0.00    -0.351 C  
HETATM    3  H   UNL     1      -9.721   5.031  74.782  1.00  0.00     0.000 HD 
ENDROOT
BRANCH   2   4
HETATM    4  C   UNL     1     -10.139   7.484  72.672  1.00  0.00    -0.222 C  
HETATM    5  H   UNL     1      -9.105   9.081  72.155  1.00  0.00     0.000 HD 
HETATM    6  O   UNL     1      -9.256   8.595  72.957  1.00  0.00    -0.257 OA 
BRANCH   4   7
HETATM    7  C   UNL     1     -11.398   8.104  72.034  1.00  0.00    -0.316 C  
HETATM    8  O   UNL     1     -12.493   7.961  72.955  1.00  0.00    -0.581 OA 
HETATM    9  H   UNL     1     -13.268   8.343  72.561  1.00  0.00     0.000 HD 
BRANCH   7  10
HETATM   10  C   UNL     1     -11.307   9.568  71.554  1.00  0.00    -0.385 C  
HETATM   11  H   UNL     1     -12.497  11.161  71.459  1.00  0.00     0.000 HD 
HETATM   12  O   UNL     1     -12.552  10.260  71.754  1.00  0.00    -0.405 OA 
BRANCH  10  13
HETATM   13  C   UNL     1     -10.851   9.784  70.097  1.00  0.00    -0.291 C  
HETATM   14  H   UNL     1      -9.151  10.136  69.106  1.00  0.00     0.000 HD 
HETATM   15  O   UNL     1      -9.432  10.003  70.003  1.00  0.00    -0.224 OA 
BRANCH  13  16
HETATM   16  C   UNL     1     -11.567  10.936  69.383  1.00  0.00    -0.316 C  
HETATM   17  O   UNL     1     -11.191  12.165  70.024  1.00  0.00    -0.494 OA 
HETATM   18  H   UNL     1     -11.635  12.878  69.582  1.00  0.00     0.000 HD 
ENDBRANCH  13  16
ENDBRANCH  10  13
ENDBRANCH   7  10
ENDBRANCH   4   7
ENDBRANCH   2   4
TORSDOF 5
ENDMDL
MODEL      171
REMARK 921   NORMALIZED FREE ENERGY PREDICTED BY IDOCK:   -2.73 KCAL/MOL
REMARK 922        TOTAL FREE ENERGY PREDICTED BY IDOCK:   -4.37 KCAL/MOL
REMARK 923 INTER-LIGAND FREE ENERGY PREDICTED BY IDOCK:   -3.72 KCAL/MOL
REMARK 924 INTRA-LIGAND FREE ENERGY PREDICTED BY IDOCK:   -0.65 KCAL/MOL
REMARK 927      BINDING AFFINITY PREDICTED BY RF-SCORE:    0.00 PKD
ROOT
HETATM    1  O   UNL     1      -7.285  11.059  70.232  1.00  0.00    -0.452 OA 
HETATM    2  C   UNL     1      -7.728   9.754  69.835  1.00  0.00    -0.157 C  
HETATM    3  H   UNL     1      -6.393  11.201  69.937  1.00  0.00     0.000 HD 
ENDROOT
BRANCH   2   4
HETATM    4  C   UNL     1      -9.166   9.524  70.310  1.00  0.00    -0.258 C  
HETATM    5  H   UNL     1     -10.178   8.026  71.098  1.00  0.00     0.000 HD 
HETATM    6  O   UNL     1      -9.286   8.168  70.804  1.00  0.00    -0.154 OA 
BRANCH   4   7
HETATM    7  C   UNL     1     -10.248   9.670  69.222  1.00  0.00    -0.205 C  
HETATM    8  O   UNL     1     -11.309   8.743  69.509  1.00  0.00    -0.440 OA 
HETATM    9  H   UNL     1     -11.976   8.833  68.838  1.00  0.00     0.000 HD 
BRANCH   7  10
HETATM   10  C   UNL     1     -10.835  11.077  68.982  1.00  0.00    -0.229 C  
HETATM   11  H   UNL     1     -12.622  11.889  68.655  1.00  0.00     0.000 HD 
HETATM   12  O   UNL     1     -12.260  11.024  68.802  1.00  0.00    -0.546 OA 
BRANCH  10  13
HETATM   13  C   UNL     1     -10.221  11.887  67.822  1.00  0.00    -0.200 C  
HETATM   14  H   UNL     1      -8.652  13.086  67.510  1.00  0.00     0.000 HD 
HETATM   15  O   UNL     1      -9.030  12.588  68.225  1.00  0.00    -0.194 OA 
BRANCH  13  16
HETATM   16  C   UNL     1     -11.185  12.894  67.186  1.00  0.00    -0.289 C  
HETATM   17  O   UNL     1     -11.942  12.215  66.174  1.00  0.00    -0.593 OA 
HETATM   18  H   UNL     1     -12.539  12.839  65.779  1.00  0.00     0.000 HD 
ENDBRANCH  13  16
ENDBRANCH  10  13
ENDBRANCH   7  10
ENDBRANCH   4   7
ENDBRANCH   2   4
TORSDOF 5
ENDMDL
MODEL      172
REMARK 921   NORMALIZED FREE ENERGY PREDICTED BY IDOCK:   -2.72 KCAL/MOL
REMARK 922        TOTAL FREE ENERGY PREDICTED BY IDOCK:   -4.36 KCAL/MOL
REMARK 923 INTER-LIGAND FREE ENERGY PREDICTED BY IDOCK:   -3.82 KCAL/MOL
REMARK 924 INTRA-LIGAND FREE ENERGY PREDICTED BY IDOCK:   -0.54 KCAL/MOL
REMARK 927      BINDING AFFINITY PREDICTED BY RF-SCORE:    0.00 PKD
ROOT
HETATM    1  O   UNL     1      -9.756   8.322  65.574  1.00  0.00    -0.375 OA 
HETATM    2  C   UNL     1     -10.114   9.114  66.715  1.00  0.00    -0.271 C  
HETATM    3  H   UNL     1     -10.325   7.564  65.516  1.00  0.00     0.000 HD 
ENDROOT
BRANCH   2   4
HETATM    4  C   UNL     1      -9.196  10.338  66.809  1.00  0.00    -0.157 C  
HETATM    5  H   UNL     1      -8.872  11.771  68.124  1.00  0.00     0.000 HD 
HETATM    6  O   UNL     1      -9.441  11.013  68.066  1.00  0.00    -0.158 OA 
BRANCH   4   7
HETATM    7  C   UNL     1      -9.408  11.403  65.715  1.00  0.00    -0.228 C  
HETATM    8  O   UNL     1      -8.417  11.207  64.692  1.00  0.00    -0.374 OA 
HETATM    9  H   UNL     1      -8.547  11.864  64.018  1.00  0.00     0.000 HD 
BRANCH   7  10
HETATM   10  C   UNL     1     -10.808  11.499  65.073  1.00  0.00    -0.274 C  
HETATM   11  H   UNL     1     -11.606  11.355  63.256  1.00  0.00     0.000 HD 
HETATM   12  O   UNL     1     -10.745  11.296  63.651  1.00  0.00    -0.375 OA 
BRANCH  10  13
HETATM   13  C   UNL     1     -11.602  12.790  65.352  1.00  0.00    -0.358 C  
HETATM   14  H   UNL     1     -11.475  14.739  64.923  1.00  0.00     0.000 HD 
HETATM   15  O   UNL     1     -10.985  13.943  64.751  1.00  0.00    -0.361 OA 
BRANCH  13  16
HETATM   16  C   UNL     1     -11.821  13.079  66.842  1.00  0.00    -0.380 C  
HETATM   17  O   UNL     1     -12.210  11.856  67.484  1.00  0.00    -0.510 OA 
HETATM   18  H   UNL     1     -12.346  12.036  68.407  1.00  0.00     0.000 HD 
ENDBRANCH  13  16
ENDBRANCH  10  13
ENDBRANCH   7  10
ENDBRANCH   4   7
ENDBRANCH   2   4
TORSDOF 5
ENDMDL
MODEL      173
REMARK 921   NORMALIZED FREE ENERGY PREDICTED BY IDOCK:   -2.72 KCAL/MOL
REMARK 922        TOTAL FREE ENERGY PREDICTED BY IDOCK:   -4.36 KCAL/MOL
REMARK 923 INTER-LIGAND FREE ENERGY PREDICTED BY IDOCK:   -4.08 KCAL/MOL
REMARK 924 INTRA-LIGAND FREE ENERGY PREDICTED BY IDOCK:   -0.28 KCAL/MOL
REMARK 927      BINDING AFFINITY PREDICTED BY RF-SCORE:    0.00 PKD
ROOT
HETATM    1  O   UNL     1      -8.343  17.989  65.729  1.00  0.00    -0.508 OA 
HETATM    2  C   UNL     1      -8.235  16.604  66.085  1.00  0.00    -0.260 C  
HETATM    3  H   UNL     1      -7.477  18.366  65.628  1.00  0.00     0.000 HD 
ENDROOT
BRANCH   2   4
HETATM    4  C   UNL     1      -9.632  15.997  66.247  1.00  0.00    -0.307 C  
HETATM    5  H   UNL     1     -10.966  15.870  67.695  1.00  0.00     0.000 HD 
HETATM    6  O   UNL     1     -10.099  16.247  67.595  1.00  0.00    -0.250 OA 
BRANCH   4   7
HETATM    7  C   UNL     1      -9.711  14.469  66.055  1.00  0.00    -0.303 C  
HETATM    8  O   UNL     1      -8.491  13.886  66.545  1.00  0.00    -0.424 OA 
HETATM    9  H   UNL     1      -8.539  12.945  66.426  1.00  0.00     0.000 HD 
BRANCH   7  10
HETATM   10  C   UNL     1     -10.922  13.734  66.665  1.00  0.00    -0.296 C  
HETATM   11  H   UNL     1     -12.890  14.000  66.799  1.00  0.00     0.000 HD 
HETATM   12  O   UNL     1     -12.144  14.452  66.424  1.00  0.00    -0.414 OA 
BRANCH  10  13
HETATM   13  C   UNL     1     -10.835  13.400  68.168  1.00  0.00    -0.255 C  
HETATM   14  H   UNL     1     -10.326  11.849  69.322  1.00  0.00     0.000 HD 
HETATM   15  O   UNL     1     -10.380  12.053  68.396  1.00  0.00    -0.204 OA 
BRANCH  13  16
HETATM   16  C   UNL     1     -12.149  13.603  68.930  1.00  0.00    -0.300 C  
HETATM   17  O   UNL     1     -12.334  15.011  69.140  1.00  0.00    -0.559 OA 
HETATM   18  H   UNL     1     -13.148  15.136  69.613  1.00  0.00     0.000 HD 
ENDBRANCH  13  16
ENDBRANCH  10  13
ENDBRANCH   7  10
ENDBRANCH   4   7
ENDBRANCH   2   4
TORSDOF 5
ENDMDL
MODEL      174
REMARK 921   NORMALIZED FREE ENERGY PREDICTED BY IDOCK:   -2.71 KCAL/MOL
REMARK 922        TOTAL FREE ENERGY PREDICTED BY IDOCK:   -4.35 KCAL/MOL
REMARK 923 INTER-LIGAND FREE ENERGY PREDICTED BY IDOCK:   -3.56 KCAL/MOL
REMARK 924 INTRA-LIGAND FREE ENERGY PREDICTED BY IDOCK:   -0.79 KCAL/MOL
REMARK 927      BINDING AFFINITY PREDICTED BY RF-SCORE:    0.00 PKD
ROOT
HETATM    1  O   UNL     1      -7.615  17.925  65.592  1.00  0.00    -0.546 OA 
HETATM    2  C   UNL     1      -8.376  18.937  66.265  1.00  0.00    -0.260 C  
HETATM    3  H   UNL     1      -6.772  18.275  65.328  1.00  0.00     0.000 HD 
ENDROOT
BRANCH   2   4
HETATM    4  C   UNL     1      -9.735  18.372  66.690  1.00  0.00    -0.337 C  
HETATM    5  H   UNL     1     -11.520  19.112  67.083  1.00  0.00     0.000 HD 
HETATM    6  O   UNL     1     -10.678  19.463  66.819  1.00  0.00    -0.452 OA 
BRANCH   4   7
HETATM    7  C   UNL     1      -9.747  17.646  68.050  1.00  0.00    -0.301 C  
HETATM    8  O   UNL     1     -11.060  17.775  68.622  1.00  0.00    -0.163 OA 
HETATM    9  H   UNL     1     -11.068  17.329  69.460  1.00  0.00     0.000 HD 
BRANCH   7  10
HETATM   10  C   UNL     1      -9.311  16.167  68.075  1.00  0.00    -0.203 C  
HETATM   11  H   UNL     1      -7.609  15.134  68.051  1.00  0.00     0.000 HD 
HETATM   12  O   UNL     1      -7.879  16.045  68.036  1.00  0.00    -0.133 OA 
BRANCH  10  13
HETATM   13  C   UNL     1      -9.912  15.257  66.985  1.00  0.00    -0.234 C  
HETATM   14  H   UNL     1     -11.722  14.733  66.314  1.00  0.00     0.000 HD 
HETATM   15  O   UNL     1     -11.351  15.294  66.986  1.00  0.00    -0.317 OA 
BRANCH  13  16
HETATM   16  C   UNL     1      -9.465  13.794  67.076  1.00  0.00    -0.255 C  
HETATM   17  O   UNL     1      -8.105  13.711  66.624  1.00  0.00    -0.362 OA 
HETATM   18  H   UNL     1      -7.828  12.804  66.681  1.00  0.00     0.000 HD 
ENDBRANCH  13  16
ENDBRANCH  10  13
ENDBRANCH   7  10
ENDBRANCH   4   7
ENDBRANCH   2   4
TORSDOF 5
ENDMDL
MODEL      175
REMARK 921   NORMALIZED FREE ENERGY PREDICTED BY IDOCK:   -2.68 KCAL/MOL
REMARK 922        TOTAL FREE ENERGY PREDICTED BY IDOCK:   -4.31 KCAL/MOL
REMARK 923 INTER-LIGAND FREE ENERGY PREDICTED BY IDOCK:   -3.78 KCAL/MOL
REMARK 924 INTRA-LIGAND FREE ENERGY PREDICTED BY IDOCK:   -0.54 KCAL/MOL
REMARK 927      BINDING AFFINITY PREDICTED BY RF-SCORE:    0.00 PKD
ROOT
HETATM    1  O   UNL     1      -8.895  10.199  68.233  1.00  0.00    -0.121 OA 
HETATM    2  C   UNL     1      -8.379  10.144  69.570  1.00  0.00    -0.168 C  
HETATM    3  H   UNL     1      -8.393  10.819  67.718  1.00  0.00     0.000 HD 
ENDROOT
BRANCH   2   4
HETATM    4  C   UNL     1      -9.188   9.144  70.402  1.00  0.00    -0.233 C  
HETATM    5  H   UNL     1      -9.563   7.209  70.323  1.00  0.00     0.000 HD 
HETATM    6  O   UNL     1      -9.061   7.829  69.808  1.00  0.00    -0.146 OA 
BRANCH   4   7
HETATM    7  C   UNL     1     -10.702   9.424  70.475  1.00  0.00    -0.276 C  
HETATM    8  O   UNL     1     -11.351   8.693  69.420  1.00  0.00    -0.428 OA 
HETATM    9  H   UNL     1     -12.284   8.866  69.466  1.00  0.00     0.000 HD 
BRANCH   7  10
HETATM   10  C   UNL     1     -11.415   9.149  71.816  1.00  0.00    -0.381 C  
HETATM   11  H   UNL     1     -11.894   7.572  72.930  1.00  0.00     0.000 HD 
HETATM   12  O   UNL     1     -11.456   7.742  72.105  1.00  0.00    -0.275 OA 
BRANCH  10  13
HETATM   13  C   UNL     1     -12.837   9.725  71.966  1.00  0.00    -0.401 C  
HETATM   14  H   UNL     1     -14.702   9.245  71.430  1.00  0.00     0.000 HD 
HETATM   15  O   UNL     1     -13.827   8.889  71.337  1.00  0.00    -0.354 OA 
BRANCH  13  16
HETATM   16  C   UNL     1     -12.994  11.151  71.425  1.00  0.00    -0.403 C  
HETATM   17  O   UNL     1     -13.442  11.992  72.498  1.00  0.00    -0.590 OA 
HETATM   18  H   UNL     1     -13.539  12.875  72.163  1.00  0.00     0.000 HD 
ENDBRANCH  13  16
ENDBRANCH  10  13
ENDBRANCH   7  10
ENDBRANCH   4   7
ENDBRANCH   2   4
TORSDOF 5
ENDMDL
MODEL      176
REMARK 921   NORMALIZED FREE ENERGY PREDICTED BY IDOCK:   -2.68 KCAL/MOL
REMARK 922        TOTAL FREE ENERGY PREDICTED BY IDOCK:   -4.31 KCAL/MOL
REMARK 923 INTER-LIGAND FREE ENERGY PREDICTED BY IDOCK:   -3.74 KCAL/MOL
REMARK 924 INTRA-LIGAND FREE ENERGY PREDICTED BY IDOCK:   -0.56 KCAL/MOL
REMARK 927      BINDING AFFINITY PREDICTED BY RF-SCORE:    0.00 PKD
ROOT
HETATM    1  O   UNL     1      -8.782  11.223  64.800  1.00  0.00    -0.377 OA 
HETATM    2  C   UNL     1     -10.119  10.783  65.076  1.00  0.00    -0.313 C  
HETATM    3  H   UNL     1      -8.210  10.472  64.694  1.00  0.00     0.000 HD 
ENDROOT
BRANCH   2   4
HETATM    4  C   UNL     1     -11.042  11.994  65.247  1.00  0.00    -0.317 C  
HETATM    5  H   UNL     1     -10.971  13.909  64.780  1.00  0.00     0.000 HD 
HETATM    6  O   UNL     1     -10.399  13.158  64.675  1.00  0.00    -0.361 OA 
BRANCH   4   7
HETATM    7  C   UNL     1     -11.367  12.371  66.706  1.00  0.00    -0.335 C  
HETATM    8  O   UNL     1     -11.213  11.198  67.524  1.00  0.00    -0.280 OA 
HETATM    9  H   UNL     1     -11.414  11.431  68.422  1.00  0.00     0.000 HD 
BRANCH   7  10
HETATM   10  C   UNL     1     -10.588  13.548  67.329  1.00  0.00    -0.263 C  
HETATM   11  H   UNL     1      -8.912  13.817  68.368  1.00  0.00     0.000 HD 
HETATM   12  O   UNL     1      -9.392  13.093  67.984  1.00  0.00    -0.205 OA 
BRANCH  10  13
HETATM   13  C   UNL     1     -11.372  14.448  68.305  1.00  0.00    -0.287 C  
HETATM   14  H   UNL     1     -11.002  15.955  69.565  1.00  0.00     0.000 HD 
HETATM   15  O   UNL     1     -10.519  15.401  68.964  1.00  0.00    -0.229 OA 
BRANCH  13  16
HETATM   16  C   UNL     1     -12.153  13.677  69.375  1.00  0.00    -0.314 C  
HETATM   17  O   UNL     1     -11.223  12.883  70.126  1.00  0.00    -0.463 OA 
HETATM   18  H   UNL     1     -11.707  12.405  70.789  1.00  0.00     0.000 HD 
ENDBRANCH  13  16
ENDBRANCH  10  13
ENDBRANCH   7  10
ENDBRANCH   4   7
ENDBRANCH   2   4
TORSDOF 5
ENDMDL
MODEL      177
REMARK 921   NORMALIZED FREE ENERGY PREDICTED BY IDOCK:   -2.68 KCAL/MOL
REMARK 922        TOTAL FREE ENERGY PREDICTED BY IDOCK:   -4.31 KCAL/MOL
REMARK 923 INTER-LIGAND FREE ENERGY PREDICTED BY IDOCK:   -4.42 KCAL/MOL
REMARK 924 INTRA-LIGAND FREE ENERGY PREDICTED BY IDOCK:    0.11 KCAL/MOL
REMARK 927      BINDING AFFINITY PREDICTED BY RF-SCORE:    0.00 PKD
ROOT
HETATM    1  O   UNL     1     -10.636   5.820  70.194  1.00  0.00    -0.256 OA 
HETATM    2  C   UNL     1     -11.775   6.690  70.140  1.00  0.00    -0.351 C  
HETATM    3  H   UNL     1     -10.277   5.702  69.323  1.00  0.00     0.000 HD 
ENDROOT
BRANCH   2   4
HETATM    4  C   UNL     1     -12.354   6.879  71.545  1.00  0.00    -0.376 C  
HETATM    5  H   UNL     1     -14.135   7.251  72.309  1.00  0.00     0.000 HD 
HETATM    6  O   UNL     1     -13.776   7.133  71.437  1.00  0.00    -0.367 OA 
BRANCH   4   7
HETATM    7  C   UNL     1     -11.777   8.069  72.338  1.00  0.00    -0.386 C  
HETATM    8  O   UNL     1     -10.380   7.824  72.572  1.00  0.00    -0.223 OA 
HETATM    9  H   UNL     1     -10.025   8.558  73.060  1.00  0.00     0.000 HD 
BRANCH   7  10
HETATM   10  C   UNL     1     -11.968   9.481  71.746  1.00  0.00    -0.371 C  
HETATM   11  H   UNL     1     -13.477  10.705  71.316  1.00  0.00     0.000 HD 
HETATM   12  O   UNL     1     -13.359   9.836  71.680  1.00  0.00    -0.380 OA 
BRANCH  10  13
HETATM   13  C   UNL     1     -11.328   9.737  70.366  1.00  0.00    -0.297 C  
HETATM   14  H   UNL     1      -9.499   9.817  69.565  1.00  0.00     0.000 HD 
HETATM   15  O   UNL     1      -9.892   9.660  70.415  1.00  0.00    -0.248 OA 
BRANCH  13  16
HETATM   16  C   UNL     1     -11.720  11.079  69.736  1.00  0.00    -0.335 C  
HETATM   17  O   UNL     1     -12.344  10.815  68.470  1.00  0.00    -0.825 OA 
HETATM   18  H   UNL     1     -12.586  11.646  68.080  1.00  0.00     0.000 HD 
ENDBRANCH  13  16
ENDBRANCH  10  13
ENDBRANCH   7  10
ENDBRANCH   4   7
ENDBRANCH   2   4
TORSDOF 5
ENDMDL
MODEL      178
REMARK 921   NORMALIZED FREE ENERGY PREDICTED BY IDOCK:   -2.66 KCAL/MOL
REMARK 922        TOTAL FREE ENERGY PREDICTED BY IDOCK:   -4.28 KCAL/MOL
REMARK 923 INTER-LIGAND FREE ENERGY PREDICTED BY IDOCK:   -4.04 KCAL/MOL
REMARK 924 INTRA-LIGAND FREE ENERGY PREDICTED BY IDOCK:   -0.25 KCAL/MOL
REMARK 927      BINDING AFFINITY PREDICTED BY RF-SCORE:    0.00 PKD
ROOT
HETATM    1  O   UNL     1      -9.321  17.886  67.592  1.00  0.00    -0.254 OA 
HETATM    2  C   UNL     1     -10.629  17.385  67.900  1.00  0.00    -0.383 C  
HETATM    3  H   UNL     1      -9.381  18.564  66.929  1.00  0.00     0.000 HD 
ENDROOT
BRANCH   2   4
HETATM    4  C   UNL     1     -10.531  16.293  68.969  1.00  0.00    -0.276 C  
HETATM    5  H   UNL     1      -9.098  15.164  69.719  1.00  0.00     0.000 HD 
HETATM    6  O   UNL     1      -9.158  15.842  69.055  1.00  0.00    -0.210 OA 
BRANCH   4   7
HETATM    7  C   UNL     1     -11.370  15.028  68.695  1.00  0.00    -0.296 C  
HETATM    8  O   UNL     1     -12.753  15.339  68.935  1.00  0.00    -0.353 OA 
HETATM    9  H   UNL     1     -13.269  14.560  68.766  1.00  0.00     0.000 HD 
BRANCH   7  10
HETATM   10  C   UNL     1     -11.218  14.357  67.314  1.00  0.00    -0.323 C  
HETATM   11  H   UNL     1     -12.293  14.152  65.652  1.00  0.00     0.000 HD 
HETATM   12  O   UNL     1     -12.386  14.565  66.502  1.00  0.00    -0.346 OA 
BRANCH  10  13
HETATM   13  C   UNL     1     -10.882  12.852  67.317  1.00  0.00    -0.255 C  
HETATM   14  H   UNL     1     -11.353  11.219  66.265  1.00  0.00     0.000 HD 
HETATM   15  O   UNL     1     -11.560  12.146  66.262  1.00  0.00    -0.369 OA 
BRANCH  13  16
HETATM   16  C   UNL     1     -11.185  12.148  68.644  1.00  0.00    -0.269 C  
HETATM   17  O   UNL     1     -12.213  11.173  68.412  1.00  0.00    -0.703 OA 
HETATM   18  H   UNL     1     -12.401  10.737  69.234  1.00  0.00     0.000 HD 
ENDBRANCH  13  16
ENDBRANCH  10  13
ENDBRANCH   7  10
ENDBRANCH   4   7
ENDBRANCH   2   4
TORSDOF 5
ENDMDL
MODEL      179
REMARK 921   NORMALIZED FREE ENERGY PREDICTED BY IDOCK:   -2.66 KCAL/MOL
REMARK 922        TOTAL FREE ENERGY PREDICTED BY IDOCK:   -4.28 KCAL/MOL
REMARK 923 INTER-LIGAND FREE ENERGY PREDICTED BY IDOCK:   -3.68 KCAL/MOL
REMARK 924 INTRA-LIGAND FREE ENERGY PREDICTED BY IDOCK:   -0.60 KCAL/MOL
REMARK 927      BINDING AFFINITY PREDICTED BY RF-SCORE:    0.00 PKD
ROOT
HETATM    1  O   UNL     1      -8.734   5.566  72.051  1.00  0.00    -0.130 OA 
HETATM    2  C   UNL     1     -10.105   5.293  71.728  1.00  0.00    -0.200 C  
HETATM    3  H   UNL     1      -8.163   5.156  71.412  1.00  0.00     0.000 HD 
ENDROOT
BRANCH   2   4
HETATM    4  C   UNL     1     -11.025   5.955  72.759  1.00  0.00    -0.265 C  
HETATM    5  H   UNL     1     -12.970   6.204  72.973  1.00  0.00     0.000 HD 
HETATM    6  O   UNL     1     -12.399   5.794  72.333  1.00  0.00    -0.159 OA 
BRANCH   4   7
HETATM    7  C   UNL     1     -10.820   7.472  72.944  1.00  0.00    -0.373 C  
HETATM    8  O   UNL     1      -9.779   7.675  73.914  1.00  0.00    -0.358 OA 
HETATM    9  H   UNL     1      -9.653   8.609  74.028  1.00  0.00     0.000 HD 
BRANCH   7  10
HETATM   10  C   UNL     1     -10.530   8.312  71.683  1.00  0.00    -0.238 C  
HETATM   11  H   UNL     1      -9.221   9.696  71.107  1.00  0.00     0.000 HD 
HETATM   12  O   UNL     1      -9.401   9.179  71.883  1.00  0.00    -0.349 OA 
BRANCH  10  13
HETATM   13  C   UNL     1     -11.702   9.149  71.133  1.00  0.00    -0.313 C  
HETATM   14  H   UNL     1     -12.060  11.043  70.604  1.00  0.00     0.000 HD 
HETATM   15  O   UNL     1     -11.338  10.528  70.943  1.00  0.00    -0.306 OA 
BRANCH  13  16
HETATM   16  C   UNL     1     -12.967   9.097  71.998  1.00  0.00    -0.424 C  
HETATM   17  O   UNL     1     -13.949   8.306  71.312  1.00  0.00    -0.562 OA 
HETATM   18  H   UNL     1     -14.732   8.274  71.848  1.00  0.00     0.000 HD 
ENDBRANCH  13  16
ENDBRANCH  10  13
ENDBRANCH   7  10
ENDBRANCH   4   7
ENDBRANCH   2   4
TORSDOF 5
ENDMDL
MODEL      180
REMARK 921   NORMALIZED FREE ENERGY PREDICTED BY IDOCK:   -2.66 KCAL/MOL
REMARK 922        TOTAL FREE ENERGY PREDICTED BY IDOCK:   -4.28 KCAL/MOL
REMARK 923 INTER-LIGAND FREE ENERGY PREDICTED BY IDOCK:   -3.66 KCAL/MOL
REMARK 924 INTRA-LIGAND FREE ENERGY PREDICTED BY IDOCK:   -0.62 KCAL/MOL
REMARK 927      BINDING AFFINITY PREDICTED BY RF-SCORE:    0.00 PKD
ROOT
HETATM    1  O   UNL     1     -12.772   8.217  72.783  1.00  0.00    -0.615 OA 
HETATM    2  C   UNL     1     -13.076   7.122  71.909  1.00  0.00    -0.231 C  
HETATM    3  H   UNL     1     -13.498   8.830  72.798  1.00  0.00     0.000 HD 
ENDROOT
BRANCH   2   4
HETATM    4  C   UNL     1     -11.906   6.133  71.885  1.00  0.00    -0.257 C  
HETATM    5  H   UNL     1     -10.539   5.520  73.168  1.00  0.00     0.000 HD 
HETATM    6  O   UNL     1     -11.265   6.133  73.184  1.00  0.00    -0.221 OA 
BRANCH   4   7
HETATM    7  C   UNL     1     -10.793   6.459  70.870  1.00  0.00    -0.263 C  
HETATM    8  O   UNL     1     -10.586   5.305  70.037  1.00  0.00    -0.302 OA 
HETATM    9  H   UNL     1      -9.900   5.506  69.411  1.00  0.00     0.000 HD 
BRANCH   7  10
HETATM   10  C   UNL     1     -10.974   7.713  69.989  1.00  0.00    -0.228 C  
HETATM   11  H   UNL     1     -10.641   8.244  68.100  1.00  0.00     0.000 HD 
HETATM   12  O   UNL     1     -10.530   7.473  68.643  1.00  0.00    -0.199 OA 
BRANCH  10  13
HETATM   13  C   UNL     1     -10.317   9.010  70.501  1.00  0.00    -0.218 C  
HETATM   14  H   UNL     1      -9.732   9.795  72.245  1.00  0.00     0.000 HD 
HETATM   15  O   UNL     1     -10.137   8.996  71.930  1.00  0.00    -0.339 OA 
BRANCH  13  16
HETATM   16  C   UNL     1     -11.076  10.286  70.121  1.00  0.00    -0.319 C  
HETATM   17  O   UNL     1     -12.474  10.065  70.358  1.00  0.00    -0.465 OA 
HETATM   18  H   UNL     1     -12.944  10.856  70.122  1.00  0.00     0.000 HD 
ENDBRANCH  13  16
ENDBRANCH  10  13
ENDBRANCH   7  10
ENDBRANCH   4   7
ENDBRANCH   2   4
TORSDOF 5
ENDMDL
MODEL      181
REMARK 921   NORMALIZED FREE ENERGY PREDICTED BY IDOCK:   -2.64 KCAL/MOL
REMARK 922        TOTAL FREE ENERGY PREDICTED BY IDOCK:   -4.26 KCAL/MOL
REMARK 923 INTER-LIGAND FREE ENERGY PREDICTED BY IDOCK:   -3.86 KCAL/MOL
REMARK 924 INTRA-LIGAND FREE ENERGY PREDICTED BY IDOCK:   -0.40 KCAL/MOL
REMARK 927      BINDING AFFINITY PREDICTED BY RF-SCORE:    0.00 PKD
ROOT
HETATM    1  O   UNL     1     -11.583  15.751  71.537  1.00  0.00    -0.384 OA 
HETATM    2  C   UNL     1     -12.283  14.500  71.575  1.00  0.00    -0.347 C  
HETATM    3  H   UNL     1     -11.536  16.123  72.411  1.00  0.00     0.000 HD 
ENDROOT
BRANCH   2   4
HETATM    4  C   UNL     1     -12.358  13.901  70.167  1.00  0.00    -0.334 C  
HETATM    5  H   UNL     1     -12.307  12.089  69.391  1.00  0.00     0.000 HD 
HETATM    6  O   UNL     1     -12.260  12.460  70.264  1.00  0.00    -0.327 OA 
BRANCH   4   7
HETATM    7  C   UNL     1     -11.229  14.333  69.210  1.00  0.00    -0.273 C  
HETATM    8  O   UNL     1     -10.235  13.294  69.182  1.00  0.00    -0.430 OA 
HETATM    9  H   UNL     1      -9.539  13.560  68.592  1.00  0.00     0.000 HD 
BRANCH   7  10
HETATM   10  C   UNL     1     -11.623  14.716  67.768  1.00  0.00    -0.359 C  
HETATM   11  H   UNL     1     -12.036  13.784  66.059  1.00  0.00     0.000 HD 
HETATM   12  O   UNL     1     -11.793  13.549  66.946  1.00  0.00    -0.366 OA 
BRANCH  10  13
HETATM   13  C   UNL     1     -10.685  15.700  67.040  1.00  0.00    -0.314 C  
HETATM   14  H   UNL     1      -8.737  15.867  66.624  1.00  0.00     0.000 HD 
HETATM   15  O   UNL     1      -9.314  15.261  67.072  1.00  0.00    -0.208 OA 
BRANCH  13  16
HETATM   16  C   UNL     1     -10.747  17.134  67.576  1.00  0.00    -0.276 C  
HETATM   17  O   UNL     1      -9.405  17.629  67.693  1.00  0.00    -0.242 OA 
HETATM   18  H   UNL     1      -9.443  18.518  68.026  1.00  0.00     0.000 HD 
ENDBRANCH  13  16
ENDBRANCH  10  13
ENDBRANCH   7  10
ENDBRANCH   4   7
ENDBRANCH   2   4
TORSDOF 5
ENDMDL
MODEL      182
REMARK 921   NORMALIZED FREE ENERGY PREDICTED BY IDOCK:   -2.64 KCAL/MOL
REMARK 922        TOTAL FREE ENERGY PREDICTED BY IDOCK:   -4.25 KCAL/MOL
REMARK 923 INTER-LIGAND FREE ENERGY PREDICTED BY IDOCK:   -3.43 KCAL/MOL
REMARK 924 INTRA-LIGAND FREE ENERGY PREDICTED BY IDOCK:   -0.82 KCAL/MOL
REMARK 927      BINDING AFFINITY PREDICTED BY RF-SCORE:    0.00 PKD
ROOT
HETATM    1  O   UNL     1      -7.438   6.843  72.153  1.00  0.00    -0.089 OA 
HETATM    2  C   UNL     1      -8.824   6.493  72.271  1.00  0.00    -0.134 C  
HETATM    3  H   UNL     1      -6.997   6.227  71.579  1.00  0.00     0.000 HD 
ENDROOT
BRANCH   2   4
HETATM    4  C   UNL     1      -9.534   7.486  73.197  1.00  0.00    -0.219 C  
HETATM    5  H   UNL     1     -11.066   7.423  74.438  1.00  0.00     0.000 HD 
HETATM    6  O   UNL     1     -10.626   6.807  73.864  1.00  0.00    -0.350 OA 
BRANCH   4   7
HETATM    7  C   UNL     1     -10.168   8.702  72.493  1.00  0.00    -0.168 C  
HETATM    8  O   UNL     1      -9.228   9.212  71.531  1.00  0.00    -0.290 OA 
HETATM    9  H   UNL     1      -9.618   9.961  71.098  1.00  0.00     0.000 HD 
BRANCH   7  10
HETATM   10  C   UNL     1     -11.543   8.503  71.822  1.00  0.00    -0.312 C  
HETATM   11  H   UNL     1     -12.246   7.945  70.046  1.00  0.00     0.000 HD 
HETATM   12  O   UNL     1     -11.400   8.068  70.459  1.00  0.00    -0.269 OA 
BRANCH  10  13
HETATM   13  C   UNL     1     -12.503   9.709  71.857  1.00  0.00    -0.377 C  
HETATM   14  H   UNL     1     -14.424  10.071  72.278  1.00  0.00     0.000 HD 
HETATM   15  O   UNL     1     -13.833   9.328  72.257  1.00  0.00    -0.453 OA 
BRANCH  13  16
HETATM   16  C   UNL     1     -12.596  10.471  70.530  1.00  0.00    -0.339 C  
HETATM   17  O   UNL     1     -11.331  11.102  70.285  1.00  0.00    -0.433 OA 
HETATM   18  H   UNL     1     -11.389  11.575  69.463  1.00  0.00     0.000 HD 
ENDBRANCH  13  16
ENDBRANCH  10  13
ENDBRANCH   7  10
ENDBRANCH   4   7
ENDBRANCH   2   4
TORSDOF 5
ENDMDL
MODEL      183
REMARK 921   NORMALIZED FREE ENERGY PREDICTED BY IDOCK:   -2.64 KCAL/MOL
REMARK 922        TOTAL FREE ENERGY PREDICTED BY IDOCK:   -4.25 KCAL/MOL
REMARK 923 INTER-LIGAND FREE ENERGY PREDICTED BY IDOCK:   -3.87 KCAL/MOL
REMARK 924 INTRA-LIGAND FREE ENERGY PREDICTED BY IDOCK:   -0.39 KCAL/MOL
REMARK 927      BINDING AFFINITY PREDICTED BY RF-SCORE:    0.00 PKD
ROOT
HETATM    1  O   UNL     1     -10.922   7.211  67.469  1.00  0.00    -0.465 OA 
HETATM    2  C   UNL     1     -10.130   8.181  66.769  1.00  0.00    -0.295 C  
HETATM    3  H   UNL     1     -10.770   6.346  67.107  1.00  0.00     0.000 HD 
ENDROOT
BRANCH   2   4
HETATM    4  C   UNL     1     -10.376   9.575  67.354  1.00  0.00    -0.258 C  
HETATM    5  H   UNL     1      -9.465  11.324  67.284  1.00  0.00     0.000 HD 
HETATM    6  O   UNL     1      -9.313  10.459  66.922  1.00  0.00    -0.159 OA 
BRANCH   4   7
HETATM    7  C   UNL     1     -10.380   9.650  68.893  1.00  0.00    -0.203 C  
HETATM    8  O   UNL     1      -9.303  10.505  69.311  1.00  0.00    -0.239 OA 
HETATM    9  H   UNL     1      -9.306  10.551  70.259  1.00  0.00     0.000 HD 
BRANCH   7  10
HETATM   10  C   UNL     1     -11.690  10.086  69.583  1.00  0.00    -0.034 C  
HETATM   11  H   UNL     1     -12.988  11.590  69.458  1.00  0.00     0.000 HD 
HETATM   12  O   UNL     1     -12.182  11.321  69.034  1.00  0.00    -0.444 OA 
BRANCH  10  13
HETATM   13  C   UNL     1     -11.646  10.212  71.119  1.00  0.00    -0.346 C  
HETATM   14  H   UNL     1     -10.709   9.346  72.658  1.00  0.00     0.000 HD 
HETATM   15  O   UNL     1     -10.735   9.268  71.712  1.00  0.00    -0.363 OA 
BRANCH  13  16
HETATM   16  C   UNL     1     -13.012  10.059  71.798  1.00  0.00    -0.458 C  
HETATM   17  O   UNL     1     -13.435  11.353  72.253  1.00  0.00    -0.601 OA 
HETATM   18  H   UNL     1     -14.281  11.258  72.673  1.00  0.00     0.000 HD 
ENDBRANCH  13  16
ENDBRANCH  10  13
ENDBRANCH   7  10
ENDBRANCH   4   7
ENDBRANCH   2   4
TORSDOF 5
ENDMDL
MODEL      184
REMARK 921   NORMALIZED FREE ENERGY PREDICTED BY IDOCK:   -2.63 KCAL/MOL
REMARK 922        TOTAL FREE ENERGY PREDICTED BY IDOCK:   -4.25 KCAL/MOL
REMARK 923 INTER-LIGAND FREE ENERGY PREDICTED BY IDOCK:   -4.73 KCAL/MOL
REMARK 924 INTRA-LIGAND FREE ENERGY PREDICTED BY IDOCK:    0.48 KCAL/MOL
REMARK 927      BINDING AFFINITY PREDICTED BY RF-SCORE:    0.00 PKD
ROOT
HETATM    1  O   UNL     1     -12.712  14.260  66.785  1.00  0.00    -0.510 OA 
HETATM    2  C   UNL     1     -11.504  14.841  66.274  1.00  0.00    -0.316 C  
HETATM    3  H   UNL     1     -12.752  14.373  67.727  1.00  0.00     0.000 HD 
ENDROOT
BRANCH   2   4
HETATM    4  C   UNL     1     -11.441  14.660  64.754  1.00  0.00    -0.410 C  
HETATM    5  H   UNL     1     -12.746  14.594  63.276  1.00  0.00     0.000 HD 
HETATM    6  O   UNL     1     -12.786  14.706  64.219  1.00  0.00    -0.679 OA 
BRANCH   4   7
HETATM    7  C   UNL     1     -10.848  13.318  64.278  1.00  0.00    -0.392 C  
HETATM    8  O   UNL     1      -9.540  13.168  64.855  1.00  0.00    -0.515 OA 
HETATM    9  H   UNL     1      -9.175  12.342  64.562  1.00  0.00     0.000 HD 
BRANCH   7  10
HETATM   10  C   UNL     1     -11.679  12.042  64.528  1.00  0.00    -0.305 C  
HETATM   11  H   UNL     1     -13.591  11.560  64.796  1.00  0.00     0.000 HD 
HETATM   12  O   UNL     1     -13.079  12.345  64.642  1.00  0.00    -0.825 OA 
BRANCH  10  13
HETATM   13  C   UNL     1     -11.261  11.179  65.735  1.00  0.00     0.069 C  
HETATM   14  H   UNL     1     -10.627  11.450  67.611  1.00  0.00     0.000 HD 
HETATM   15  O   UNL     1     -10.885  11.983  66.868  1.00  0.00    -0.238 OA 
BRANCH  13  16
HETATM   16  C   UNL     1     -10.121  10.198  65.437  1.00  0.00    -0.272 C  
HETATM   17  O   UNL     1      -9.882  10.203  64.021  1.00  0.00    -0.333 OA 
HETATM   18  H   UNL     1      -9.176   9.596  63.836  1.00  0.00     0.000 HD 
ENDBRANCH  13  16
ENDBRANCH  10  13
ENDBRANCH   7  10
ENDBRANCH   4   7
ENDBRANCH   2   4
TORSDOF 5
ENDMDL
MODEL      185
REMARK 921   NORMALIZED FREE ENERGY PREDICTED BY IDOCK:   -2.63 KCAL/MOL
REMARK 922        TOTAL FREE ENERGY PREDICTED BY IDOCK:   -4.25 KCAL/MOL
REMARK 923 INTER-LIGAND FREE ENERGY PREDICTED BY IDOCK:   -3.75 KCAL/MOL
REMARK 924 INTRA-LIGAND FREE ENERGY PREDICTED BY IDOCK:   -0.50 KCAL/MOL
REMARK 927      BINDING AFFINITY PREDICTED BY RF-SCORE:    0.00 PKD
ROOT
HETATM    1  O   UNL     1      -9.081  13.936  69.041  1.00  0.00    -0.388 OA 
HETATM    2  C   UNL     1      -8.507  14.610  67.913  1.00  0.00    -0.158 C  
HETATM    3  H   UNL     1      -8.456  13.915  69.757  1.00  0.00     0.000 HD 
ENDROOT
BRANCH   2   4
HETATM    4  C   UNL     1      -9.515  14.645  66.759  1.00  0.00    -0.260 C  
HETATM    5  H   UNL     1     -10.562  16.036  65.831  1.00  0.00     0.000 HD 
HETATM    6  O   UNL     1      -9.937  16.014  66.546  1.00  0.00    -0.254 OA 
BRANCH   4   7
HETATM    7  C   UNL     1     -10.809  13.841  66.993  1.00  0.00    -0.284 C  
HETATM    8  O   UNL     1     -11.932  14.694  66.713  1.00  0.00    -0.373 OA 
HETATM    9  H   UNL     1     -12.729  14.198  66.857  1.00  0.00     0.000 HD 
BRANCH   7  10
HETATM   10  C   UNL     1     -10.966  12.506  66.235  1.00  0.00    -0.277 C  
HETATM   11  H   UNL     1     -12.444  11.413  65.471  1.00  0.00     0.000 HD 
HETATM   12  O   UNL     1     -12.346  12.235  65.938  1.00  0.00    -0.618 OA 
BRANCH  10  13
HETATM   13  C   UNL     1     -10.352  11.261  66.906  1.00  0.00    -0.234 C  
HETATM   14  H   UNL     1      -9.921   9.369  66.422  1.00  0.00     0.000 HD 
HETATM   15  O   UNL     1     -10.299  10.136  66.009  1.00  0.00    -0.232 OA 
BRANCH  13  16
HETATM   16  C   UNL     1     -11.070  10.824  68.188  1.00  0.00    -0.280 C  
HETATM   17  O   UNL     1     -10.273  11.231  69.310  1.00  0.00    -0.388 OA 
HETATM   18  H   UNL     1     -10.718  10.961  70.104  1.00  0.00     0.000 HD 
ENDBRANCH  13  16
ENDBRANCH  10  13
ENDBRANCH   7  10
ENDBRANCH   4   7
ENDBRANCH   2   4
TORSDOF 5
ENDMDL
MODEL      186
REMARK 921   NORMALIZED FREE ENERGY PREDICTED BY IDOCK:   -2.63 KCAL/MOL
REMARK 922        TOTAL FREE ENERGY PREDICTED BY IDOCK:   -4.25 KCAL/MOL
REMARK 923 INTER-LIGAND FREE ENERGY PREDICTED BY IDOCK:   -3.86 KCAL/MOL
REMARK 924 INTRA-LIGAND FREE ENERGY PREDICTED BY IDOCK:   -0.38 KCAL/MOL
REMARK 927      BINDING AFFINITY PREDICTED BY RF-SCORE:    0.00 PKD
ROOT
HETATM    1  O   UNL     1     -10.315  10.869  69.789  1.00  0.00    -0.440 OA 
HETATM    2  C   UNL     1      -9.170  10.144  69.320  1.00  0.00    -0.208 C  
HETATM    3  H   UNL     1     -10.363  11.714  69.357  1.00  0.00     0.000 HD 
ENDROOT
BRANCH   2   4
HETATM    4  C   UNL     1      -9.093   8.782  70.018  1.00  0.00    -0.160 C  
HETATM    5  H   UNL     1      -7.924   7.197  69.911  1.00  0.00     0.000 HD 
HETATM    6  O   UNL     1      -7.972   8.042  69.479  1.00  0.00    -0.110 OA 
BRANCH   4   7
HETATM    7  C   UNL     1     -10.325   7.875  69.823  1.00  0.00    -0.219 C  
HETATM    8  O   UNL     1      -9.935   6.744  69.025  1.00  0.00    -0.150 OA 
HETATM    9  H   UNL     1     -10.694   6.186  68.905  1.00  0.00     0.000 HD 
BRANCH   7  10
HETATM   10  C   UNL     1     -11.061   7.390  71.090  1.00  0.00    -0.252 C  
HETATM   11  H   UNL     1     -12.795   6.526  71.543  1.00  0.00     0.000 HD 
HETATM   12  O   UNL     1     -12.342   6.825  70.764  1.00  0.00    -0.377 OA 
BRANCH  10  13
HETATM   13  C   UNL     1     -11.252   8.430  72.212  1.00  0.00    -0.376 C  
HETATM   14  H   UNL     1     -11.345   8.467  74.208  1.00  0.00     0.000 HD 
HETATM   15  O   UNL     1     -11.227   7.826  73.518  1.00  0.00    -0.248 OA 
BRANCH  13  16
HETATM   16  C   UNL     1     -12.537   9.257  72.085  1.00  0.00    -0.371 C  
HETATM   17  O   UNL     1     -13.463   8.803  73.083  1.00  0.00    -0.953 OA 
HETATM   18  H   UNL     1     -14.259   9.315  73.005  1.00  0.00     0.000 HD 
ENDBRANCH  13  16
ENDBRANCH  10  13
ENDBRANCH   7  10
ENDBRANCH   4   7
ENDBRANCH   2   4
TORSDOF 5
ENDMDL
MODEL      187
REMARK 921   NORMALIZED FREE ENERGY PREDICTED BY IDOCK:   -2.61 KCAL/MOL
REMARK 922        TOTAL FREE ENERGY PREDICTED BY IDOCK:   -4.22 KCAL/MOL
REMARK 923 INTER-LIGAND FREE ENERGY PREDICTED BY IDOCK:   -3.84 KCAL/MOL
REMARK 924 INTRA-LIGAND FREE ENERGY PREDICTED BY IDOCK:   -0.39 KCAL/MOL
REMARK 927      BINDING AFFINITY PREDICTED BY RF-SCORE:    0.00 PKD
ROOT
HETATM    1  O   UNL     1     -11.564  13.969  69.400  1.00  0.00    -0.261 OA 
HETATM    2  C   UNL     1     -11.890  15.359  69.265  1.00  0.00    -0.343 C  
HETATM    3  H   UNL     1     -12.128  13.566  70.049  1.00  0.00     0.000 HD 
ENDROOT
BRANCH   2   4
HETATM    4  C   UNL     1     -10.981  16.009  68.217  1.00  0.00    -0.335 C  
HETATM    5  H   UNL     1      -9.597  15.386  66.956  1.00  0.00     0.000 HD 
HETATM    6  O   UNL     1     -10.161  14.983  67.606  1.00  0.00    -0.229 OA 
BRANCH   4   7
HETATM    7  C   UNL     1      -9.995  17.060  68.764  1.00  0.00    -0.293 C  
HETATM    8  O   UNL     1      -8.720  16.426  68.967  1.00  0.00    -0.248 OA 
HETATM    9  H   UNL     1      -8.113  17.074  69.304  1.00  0.00     0.000 HD 
BRANCH   7  10
HETATM   10  C   UNL     1      -9.809  18.357  67.950  1.00  0.00    -0.329 C  
HETATM   11  H   UNL     1     -10.316  19.052  66.155  1.00  0.00     0.000 HD 
HETATM   12  O   UNL     1     -10.430  18.254  66.657  1.00  0.00    -0.372 OA 
BRANCH  10  13
HETATM   13  C   UNL     1      -8.358  18.845  67.762  1.00  0.00    -0.279 C  
HETATM   14  H   UNL     1      -7.132  20.210  68.555  1.00  0.00     0.000 HD 
HETATM   15  O   UNL     1      -8.026  19.910  68.672  1.00  0.00    -0.267 OA 
BRANCH  13  16
HETATM   16  C   UNL     1      -8.035  19.308  66.336  1.00  0.00    -0.299 C  
HETATM   17  O   UNL     1      -8.892  20.414  66.018  1.00  0.00    -0.581 OA 
HETATM   18  H   UNL     1      -8.691  20.701  65.135  1.00  0.00     0.000 HD 
ENDBRANCH  13  16
ENDBRANCH  10  13
ENDBRANCH   7  10
ENDBRANCH   4   7
ENDBRANCH   2   4
TORSDOF 5
ENDMDL
MODEL      188
REMARK 921   NORMALIZED FREE ENERGY PREDICTED BY IDOCK:   -2.61 KCAL/MOL
REMARK 922        TOTAL FREE ENERGY PREDICTED BY IDOCK:   -4.22 KCAL/MOL
REMARK 923 INTER-LIGAND FREE ENERGY PREDICTED BY IDOCK:   -4.16 KCAL/MOL
REMARK 924 INTRA-LIGAND FREE ENERGY PREDICTED BY IDOCK:   -0.06 KCAL/MOL
REMARK 927      BINDING AFFINITY PREDICTED BY RF-SCORE:    0.00 PKD
ROOT
HETATM    1  O   UNL     1      -9.681  16.045  65.296  1.00  0.00    -0.403 OA 
HETATM    2  C   UNL     1     -10.959  15.489  64.958  1.00  0.00    -0.440 C  
HETATM    3  H   UNL     1      -9.444  16.718  64.669  1.00  0.00     0.000 HD 
ENDROOT
BRANCH   2   4
HETATM    4  C   UNL     1     -11.341  14.405  65.970  1.00  0.00    -0.335 C  
HETATM    5  H   UNL     1     -12.953  13.342  66.372  1.00  0.00     0.000 HD 
HETATM    6  O   UNL     1     -12.717  14.014  65.744  1.00  0.00    -0.516 OA 
BRANCH   4   7
HETATM    7  C   UNL     1     -11.266  14.832  67.450  1.00  0.00    -0.339 C  
HETATM    8  O   UNL     1     -12.529  14.538  68.072  1.00  0.00    -0.598 OA 
HETATM    9  H   UNL     1     -12.483  14.802  68.983  1.00  0.00     0.000 HD 
BRANCH   7  10
HETATM   10  C   UNL     1     -10.117  14.255  68.303  1.00  0.00    -0.238 C  
HETATM   11  H   UNL     1      -8.146  14.480  68.462  1.00  0.00     0.000 HD 
HETATM   12  O   UNL     1      -8.854  14.835  67.937  1.00  0.00    -0.160 OA 
BRANCH  10  13
HETATM   13  C   UNL     1      -9.972  12.720  68.308  1.00  0.00    -0.230 C  
HETATM   14  H   UNL     1      -9.406  11.274  67.048  1.00  0.00     0.000 HD 
HETATM   15  O   UNL     1      -9.495  12.219  67.045  1.00  0.00    -0.194 OA 
BRANCH  13  16
HETATM   16  C   UNL     1     -11.260  11.972  68.670  1.00  0.00    -0.258 C  
HETATM   17  O   UNL     1     -11.686  12.412  69.968  1.00  0.00    -0.451 OA 
HETATM   18  H   UNL     1     -12.484  11.948  70.192  1.00  0.00     0.000 HD 
ENDBRANCH  13  16
ENDBRANCH  10  13
ENDBRANCH   7  10
ENDBRANCH   4   7
ENDBRANCH   2   4
TORSDOF 5
ENDMDL
MODEL      189
REMARK 921   NORMALIZED FREE ENERGY PREDICTED BY IDOCK:   -2.60 KCAL/MOL
REMARK 922        TOTAL FREE ENERGY PREDICTED BY IDOCK:   -4.21 KCAL/MOL
REMARK 923 INTER-LIGAND FREE ENERGY PREDICTED BY IDOCK:   -3.65 KCAL/MOL
REMARK 924 INTRA-LIGAND FREE ENERGY PREDICTED BY IDOCK:   -0.56 KCAL/MOL
REMARK 927      BINDING AFFINITY PREDICTED BY RF-SCORE:    0.00 PKD
ROOT
HETATM    1  O   UNL     1      -7.982   8.144  67.380  1.00  0.00    -0.114 OA 
HETATM    2  C   UNL     1      -8.614   8.019  66.099  1.00  0.00    -0.148 C  
HETATM    3  H   UNL     1      -7.767   7.283  67.720  1.00  0.00     0.000 HD 
ENDROOT
BRANCH   2   4
HETATM    4  C   UNL     1      -8.961   9.407  65.551  1.00  0.00    -0.204 C  
HETATM    5  H   UNL     1      -8.252  11.235  65.765  1.00  0.00     0.000 HD 
HETATM    6  O   UNL     1      -8.037  10.375  66.105  1.00  0.00    -0.128 OA 
BRANCH   4   7
HETATM    7  C   UNL     1     -10.369   9.922  65.911  1.00  0.00    -0.113 C  
HETATM    8  O   UNL     1     -10.632   9.601  67.288  1.00  0.00    -0.258 OA 
HETATM    9  H   UNL     1     -11.500   9.918  67.509  1.00  0.00     0.000 HD 
BRANCH   7  10
HETATM   10  C   UNL     1     -10.671  11.413  65.655  1.00  0.00    -0.242 C  
HETATM   11  H   UNL     1     -11.976  12.778  66.282  1.00  0.00     0.000 HD 
HETATM   12  O   UNL     1     -11.790  11.860  66.439  1.00  0.00    -0.561 OA 
BRANCH  10  13
HETATM   13  C   UNL     1     -10.902  11.823  64.187  1.00  0.00    -0.360 C  
HETATM   14  H   UNL     1     -10.346  13.287  62.945  1.00  0.00     0.000 HD 
HETATM   15  O   UNL     1     -10.203  13.035  63.849  1.00  0.00    -0.378 OA 
BRANCH  13  16
HETATM   16  C   UNL     1     -12.378  11.995  63.811  1.00  0.00    -0.496 C  
HETATM   17  O   UNL     1     -12.805  13.294  64.248  1.00  0.00    -0.649 OA 
HETATM   18  H   UNL     1     -13.719  13.401  64.015  1.00  0.00     0.000 HD 
ENDBRANCH  13  16
ENDBRANCH  10  13
ENDBRANCH   7  10
ENDBRANCH   4   7
ENDBRANCH   2   4
TORSDOF 5
ENDMDL
MODEL      190
REMARK 921   NORMALIZED FREE ENERGY PREDICTED BY IDOCK:   -2.60 KCAL/MOL
REMARK 922        TOTAL FREE ENERGY PREDICTED BY IDOCK:   -4.20 KCAL/MOL
REMARK 923 INTER-LIGAND FREE ENERGY PREDICTED BY IDOCK:   -3.71 KCAL/MOL
REMARK 924 INTRA-LIGAND FREE ENERGY PREDICTED BY IDOCK:   -0.49 KCAL/MOL
REMARK 927      BINDING AFFINITY PREDICTED BY RF-SCORE:    0.00 PKD
ROOT
HETATM    1  O   UNL     1      -9.425  13.788  65.821  1.00  0.00    -0.497 OA 
HETATM    2  C   UNL     1     -10.485  12.826  65.735  1.00  0.00    -0.276 C  
HETATM    3  H   UNL     1      -8.680  13.495  65.310  1.00  0.00     0.000 HD 
ENDROOT
BRANCH   2   4
HETATM    4  C   UNL     1     -11.687  13.299  66.560  1.00  0.00    -0.377 C  
HETATM    5  H   UNL     1     -12.752  14.954  66.695  1.00  0.00     0.000 HD 
HETATM    6  O   UNL     1     -12.007  14.661  66.184  1.00  0.00    -0.338 OA 
BRANCH   4   7
HETATM    7  C   UNL     1     -11.466  13.329  68.085  1.00  0.00    -0.312 C  
HETATM    8  O   UNL     1     -10.363  12.462  68.402  1.00  0.00    -0.221 OA 
HETATM    9  H   UNL     1     -10.228  12.480  69.342  1.00  0.00     0.000 HD 
BRANCH   7  10
HETATM   10  C   UNL     1     -11.255  14.705  68.750  1.00  0.00    -0.267 C  
HETATM   11  H   UNL     1      -9.727  15.823  69.363  1.00  0.00     0.000 HD 
HETATM   12  O   UNL     1      -9.858  14.976  68.954  1.00  0.00    -0.219 OA 
BRANCH  10  13
HETATM   13  C   UNL     1     -12.003  14.947  70.076  1.00  0.00    -0.329 C  
HETATM   14  H   UNL     1     -11.566  15.426  71.967  1.00  0.00     0.000 HD 
HETATM   15  O   UNL     1     -11.104  15.277  71.150  1.00  0.00    -0.340 OA 
BRANCH  13  16
HETATM   16  C   UNL     1     -12.880  13.771  70.522  1.00  0.00    -0.142 C  
HETATM   17  O   UNL     1     -12.024  12.748  71.051  1.00  0.00    -0.395 OA 
HETATM   18  H   UNL     1     -12.567  12.019  71.327  1.00  0.00     0.000 HD 
ENDBRANCH  13  16
ENDBRANCH  10  13
ENDBRANCH   7  10
ENDBRANCH   4   7
ENDBRANCH   2   4
TORSDOF 5
ENDMDL
MODEL      191
REMARK 921   NORMALIZED FREE ENERGY PREDICTED BY IDOCK:   -2.57 KCAL/MOL
REMARK 922        TOTAL FREE ENERGY PREDICTED BY IDOCK:   -4.17 KCAL/MOL
REMARK 923 INTER-LIGAND FREE ENERGY PREDICTED BY IDOCK:   -4.01 KCAL/MOL
REMARK 924 INTRA-LIGAND FREE ENERGY PREDICTED BY IDOCK:   -0.16 KCAL/MOL
REMARK 927      BINDING AFFINITY PREDICTED BY RF-SCORE:    0.00 PKD
ROOT
HETATM    1  O   UNL     1      -9.133  14.000  66.315  1.00  0.00    -0.468 OA 
HETATM    2  C   UNL     1      -8.845  15.333  66.760  1.00  0.00    -0.271 C  
HETATM    3  H   UNL     1      -8.395  13.431  66.497  1.00  0.00     0.000 HD 
ENDROOT
BRANCH   2   4
HETATM    4  C   UNL     1     -10.037  16.250  66.466  1.00  0.00    -0.291 C  
HETATM    5  H   UNL     1     -11.395  16.401  65.043  1.00  0.00     0.000 HD 
HETATM    6  O   UNL     1     -10.656  15.832  65.225  1.00  0.00    -0.383 OA 
BRANCH   4   7
HETATM    7  C   UNL     1      -9.688  17.739  66.277  1.00  0.00    -0.267 C  
HETATM    8  O   UNL     1     -10.747  18.364  65.531  1.00  0.00    -0.588 OA 
HETATM    9  H   UNL     1     -10.532  19.282  65.415  1.00  0.00     0.000 HD 
BRANCH   7  10
HETATM   10  C   UNL     1      -9.382  18.567  67.543  1.00  0.00    -0.279 C  
HETATM   11  H   UNL     1     -10.060  20.222  68.417  1.00  0.00     0.000 HD 
HETATM   12  O   UNL     1     -10.247  19.712  67.638  1.00  0.00    -0.381 OA 
BRANCH  10  13
HETATM   13  C   UNL     1      -7.924  19.035  67.719  1.00  0.00    -0.263 C  
HETATM   14  H   UNL     1      -6.757  19.756  69.174  1.00  0.00     0.000 HD 
HETATM   15  O   UNL     1      -7.656  19.468  69.066  1.00  0.00    -0.362 OA 
BRANCH  13  16
HETATM   16  C   UNL     1      -7.506  20.155  66.759  1.00  0.00    -0.279 C  
HETATM   17  O   UNL     1      -6.320  19.735  66.068  1.00  0.00    -0.179 OA 
HETATM   18  H   UNL     1      -6.061  20.429  65.474  1.00  0.00     0.000 HD 
ENDBRANCH  13  16
ENDBRANCH  10  13
ENDBRANCH   7  10
ENDBRANCH   4   7
ENDBRANCH   2   4
TORSDOF 5
ENDMDL
MODEL      192
REMARK 921   NORMALIZED FREE ENERGY PREDICTED BY IDOCK:   -2.56 KCAL/MOL
REMARK 922        TOTAL FREE ENERGY PREDICTED BY IDOCK:   -4.15 KCAL/MOL
REMARK 923 INTER-LIGAND FREE ENERGY PREDICTED BY IDOCK:   -3.73 KCAL/MOL
REMARK 924 INTRA-LIGAND FREE ENERGY PREDICTED BY IDOCK:   -0.42 KCAL/MOL
REMARK 927      BINDING AFFINITY PREDICTED BY RF-SCORE:    0.00 PKD
ROOT
HETATM    1  O   UNL     1     -11.173  15.639  71.341  1.00  0.00    -0.370 OA 
HETATM    2  C   UNL     1     -12.487  15.621  71.915  1.00  0.00    -0.432 C  
HETATM    3  H   UNL     1     -10.681  16.376  71.683  1.00  0.00     0.000 HD 
ENDROOT
BRANCH   2   4
HETATM    4  C   UNL     1     -13.282  14.433  71.363  1.00  0.00    -0.348 C  
HETATM    5  H   UNL     1     -14.708  13.246  72.031  1.00  0.00     0.000 HD 
HETATM    6  O   UNL     1     -14.215  13.982  72.374  1.00  0.00    -0.587 OA 
BRANCH   4   7
HETATM    7  C   UNL     1     -12.440  13.197  70.991  1.00  0.00    -0.318 C  
HETATM    8  O   UNL     1     -12.878  12.089  71.797  1.00  0.00    -0.348 OA 
HETATM    9  H   UNL     1     -12.359  11.327  71.568  1.00  0.00     0.000 HD 
BRANCH   7  10
HETATM   10  C   UNL     1     -12.402  12.779  69.506  1.00  0.00     0.040 C  
HETATM   11  H   UNL     1     -11.655  11.292  68.415  1.00  0.00     0.000 HD 
HETATM   12  O   UNL     1     -11.678  11.550  69.329  1.00  0.00    -0.272 OA 
BRANCH  10  13
HETATM   13  C   UNL     1     -11.852  13.823  68.514  1.00  0.00    -0.370 C  
HETATM   14  H   UNL     1     -12.196  14.420  66.637  1.00  0.00     0.000 HD 
HETATM   15  O   UNL     1     -12.535  13.776  67.248  1.00  0.00    -0.243 OA 
BRANCH  13  16
HETATM   16  C   UNL     1     -10.346  13.707  68.256  1.00  0.00    -0.251 C  
HETATM   17  O   UNL     1     -10.147  12.817  67.148  1.00  0.00    -0.230 OA 
HETATM   18  H   UNL     1      -9.213  12.745  66.988  1.00  0.00     0.000 HD 
ENDBRANCH  13  16
ENDBRANCH  10  13
ENDBRANCH   7  10
ENDBRANCH   4   7
ENDBRANCH   2   4
TORSDOF 5
ENDMDL
MODEL      193
REMARK 921   NORMALIZED FREE ENERGY PREDICTED BY IDOCK:   -2.56 KCAL/MOL
REMARK 922        TOTAL FREE ENERGY PREDICTED BY IDOCK:   -4.15 KCAL/MOL
REMARK 923 INTER-LIGAND FREE ENERGY PREDICTED BY IDOCK:   -3.42 KCAL/MOL
REMARK 924 INTRA-LIGAND FREE ENERGY PREDICTED BY IDOCK:   -0.73 KCAL/MOL
REMARK 927      BINDING AFFINITY PREDICTED BY RF-SCORE:    0.00 PKD
ROOT
HETATM    1  O   UNL     1     -12.256   7.267  71.873  1.00  0.00    -0.301 OA 
HETATM    2  C   UNL     1     -11.479   8.248  72.576  1.00  0.00    -0.384 C  
HETATM    3  H   UNL     1     -12.480   6.553  72.458  1.00  0.00     0.000 HD 
ENDROOT
BRANCH   2   4
HETATM    4  C   UNL     1     -11.118   9.400  71.633  1.00  0.00    -0.339 C  
HETATM    5  H   UNL     1     -12.075  10.503  70.307  1.00  0.00     0.000 HD 
HETATM    6  O   UNL     1     -12.299   9.788  70.892  1.00  0.00    -0.300 OA 
BRANCH   4   7
HETATM    7  C   UNL     1     -10.049   9.069  70.572  1.00  0.00    -0.215 C  
HETATM    8  O   UNL     1      -9.309   7.919  71.015  1.00  0.00    -0.150 OA 
HETATM    9  H   UNL     1      -8.651   7.715  70.361  1.00  0.00     0.000 HD 
BRANCH   7  10
HETATM   10  C   UNL     1     -10.527   8.854  69.120  1.00  0.00    -0.223 C  
HETATM   11  H   UNL     1     -10.528   7.389  67.773  1.00  0.00     0.000 HD 
HETATM   12  O   UNL     1     -10.234   7.522  68.666  1.00  0.00    -0.187 OA 
BRANCH  10  13
HETATM   13  C   UNL     1     -10.006   9.858  68.072  1.00  0.00    -0.152 C  
HETATM   14  H   UNL     1      -8.870  11.502  68.021  1.00  0.00     0.000 HD 
HETATM   15  O   UNL     1      -9.191  10.884  68.667  1.00  0.00    -0.173 OA 
BRANCH  13  16
HETATM   16  C   UNL     1     -11.111  10.533  67.251  1.00  0.00    -0.213 C  
HETATM   17  O   UNL     1     -12.188  10.871  68.137  1.00  0.00    -0.781 OA 
HETATM   18  H   UNL     1     -12.872  11.288  67.628  1.00  0.00     0.000 HD 
ENDBRANCH  13  16
ENDBRANCH  10  13
ENDBRANCH   7  10
ENDBRANCH   4   7
ENDBRANCH   2   4
TORSDOF 5
ENDMDL
MODEL      194
REMARK 921   NORMALIZED FREE ENERGY PREDICTED BY IDOCK:   -2.56 KCAL/MOL
REMARK 922        TOTAL FREE ENERGY PREDICTED BY IDOCK:   -4.15 KCAL/MOL
REMARK 923 INTER-LIGAND FREE ENERGY PREDICTED BY IDOCK:   -3.59 KCAL/MOL
REMARK 924 INTRA-LIGAND FREE ENERGY PREDICTED BY IDOCK:   -0.56 KCAL/MOL
REMARK 927      BINDING AFFINITY PREDICTED BY RF-SCORE:    0.00 PKD
ROOT
HETATM    1  O   UNL     1     -12.898   8.560  73.036  1.00  0.00    -0.701 OA 
HETATM    2  C   UNL     1     -11.623   8.553  72.380  1.00  0.00    -0.354 C  
HETATM    3  H   UNL     1     -12.807   8.901  73.918  1.00  0.00     0.000 HD 
ENDROOT
BRANCH   2   4
HETATM    4  C   UNL     1     -11.770   8.003  70.958  1.00  0.00    -0.277 C  
HETATM    5  H   UNL     1     -12.801   6.560  70.094  1.00  0.00     0.000 HD 
HETATM    6  O   UNL     1     -12.710   6.901  70.976  1.00  0.00    -0.356 OA 
BRANCH   4   7
HETATM    7  C   UNL     1     -10.478   7.439  70.335  1.00  0.00    -0.221 C  
HETATM    8  O   UNL     1     -10.825   6.314  69.508  1.00  0.00    -0.265 OA 
HETATM    9  H   UNL     1     -10.028   5.967  69.125  1.00  0.00     0.000 HD 
BRANCH   7  10
HETATM   10  C   UNL     1      -9.583   8.413  69.541  1.00  0.00    -0.170 C  
HETATM   11  H   UNL     1      -8.281   9.866  69.933  1.00  0.00     0.000 HD 
HETATM   12  O   UNL     1      -8.832   9.266  70.422  1.00  0.00    -0.195 OA 
BRANCH  10  13
HETATM   13  C   UNL     1     -10.291   9.292  68.490  1.00  0.00    -0.209 C  
HETATM   14  H   UNL     1     -11.071   9.087  66.660  1.00  0.00     0.000 HD 
HETATM   15  O   UNL     1     -10.634   8.546  67.307  1.00  0.00    -0.295 OA 
BRANCH  13  16
HETATM   16  C   UNL     1      -9.490  10.528  68.067  1.00  0.00    -0.148 C  
HETATM   17  O   UNL     1      -9.779  11.588  68.991  1.00  0.00    -0.394 OA 
HETATM   18  H   UNL     1      -9.283  12.354  68.729  1.00  0.00     0.000 HD 
ENDBRANCH  13  16
ENDBRANCH  10  13
ENDBRANCH   7  10
ENDBRANCH   4   7
ENDBRANCH   2   4
TORSDOF 5
ENDMDL
MODEL      195
REMARK 921   NORMALIZED FREE ENERGY PREDICTED BY IDOCK:   -2.55 KCAL/MOL
REMARK 922        TOTAL FREE ENERGY PREDICTED BY IDOCK:   -4.14 KCAL/MOL
REMARK 923 INTER-LIGAND FREE ENERGY PREDICTED BY IDOCK:   -4.04 KCAL/MOL
REMARK 924 INTRA-LIGAND FREE ENERGY PREDICTED BY IDOCK:   -0.10 KCAL/MOL
REMARK 927      BINDING AFFINITY PREDICTED BY RF-SCORE:    0.00 PKD
ROOT
HETATM    1  O   UNL     1      -9.754  14.282  69.337  1.00  0.00    -0.412 OA 
HETATM    2  C   UNL     1     -11.140  14.647  69.384  1.00  0.00    -0.268 C  
HETATM    3  H   UNL     1      -9.212  15.055  69.449  1.00  0.00     0.000 HD 
ENDROOT
BRANCH   2   4
HETATM    4  C   UNL     1     -12.014  13.402  69.205  1.00  0.00    -0.317 C  
HETATM    5  H   UNL     1     -12.834  12.060  70.395  1.00  0.00     0.000 HD 
HETATM    6  O   UNL     1     -12.292  12.832  70.507  1.00  0.00    -0.339 OA 
BRANCH   4   7
HETATM    7  C   UNL     1     -11.376  12.266  68.380  1.00  0.00    -0.292 C  
HETATM    8  O   UNL     1     -12.165  11.077  68.558  1.00  0.00    -0.757 OA 
HETATM    9  H   UNL     1     -11.772  10.377  68.050  1.00  0.00     0.000 HD 
BRANCH   7  10
HETATM   10  C   UNL     1     -11.145  12.519  66.876  1.00  0.00    -0.278 C  
HETATM   11  H   UNL     1     -12.249  12.761  65.238  1.00  0.00     0.000 HD 
HETATM   12  O   UNL     1     -12.391  12.605  66.164  1.00  0.00    -0.570 OA 
BRANCH  10  13
HETATM   13  C   UNL     1     -10.228  11.517  66.146  1.00  0.00    -0.232 C  
HETATM   14  H   UNL     1      -8.336  11.422  65.507  1.00  0.00     0.000 HD 
HETATM   15  O   UNL     1      -8.900  12.040  65.956  1.00  0.00    -0.101 OA 
BRANCH  13  16
HETATM   16  C   UNL     1     -10.765  11.055  64.786  1.00  0.00    -0.234 C  
HETATM   17  O   UNL     1      -9.656  10.934  63.883  1.00  0.00    -0.235 OA 
HETATM   18  H   UNL     1      -9.989  10.648  63.041  1.00  0.00     0.000 HD 
ENDBRANCH  13  16
ENDBRANCH  10  13
ENDBRANCH   7  10
ENDBRANCH   4   7
ENDBRANCH   2   4
TORSDOF 5
ENDMDL
MODEL      196
REMARK 921   NORMALIZED FREE ENERGY PREDICTED BY IDOCK:   -2.54 KCAL/MOL
REMARK 922        TOTAL FREE ENERGY PREDICTED BY IDOCK:   -4.13 KCAL/MOL
REMARK 923 INTER-LIGAND FREE ENERGY PREDICTED BY IDOCK:   -3.69 KCAL/MOL
REMARK 924 INTRA-LIGAND FREE ENERGY PREDICTED BY IDOCK:   -0.44 KCAL/MOL
REMARK 927      BINDING AFFINITY PREDICTED BY RF-SCORE:    0.00 PKD
ROOT
HETATM    1  O   UNL     1     -11.302   6.099  66.649  1.00  0.00    -0.727 OA 
HETATM    2  C   UNL     1     -10.159   5.920  67.495  1.00  0.00    -0.165 C  
HETATM    3  H   UNL     1     -11.489   5.293  66.182  1.00  0.00     0.000 HD 
ENDROOT
BRANCH   2   4
HETATM    4  C   UNL     1      -9.858   7.220  68.248  1.00  0.00    -0.154 C  
HETATM    5  H   UNL     1      -8.493   7.832  69.534  1.00  0.00     0.000 HD 
HETATM    6  O   UNL     1      -8.680   7.026  69.068  1.00  0.00    -0.128 OA 
BRANCH   4   7
HETATM    7  C   UNL     1     -10.964   7.692  69.212  1.00  0.00    -0.014 C  
HETATM    8  O   UNL     1     -11.865   6.595  69.442  1.00  0.00    -0.651 OA 
HETATM    9  H   UNL     1     -12.547   6.886  70.036  1.00  0.00     0.000 HD 
BRANCH   7  10
HETATM   10  C   UNL     1     -10.525   8.298  70.562  1.00  0.00    -0.210 C  
HETATM   11  H   UNL     1     -10.661   7.840  72.493  1.00  0.00     0.000 HD 
HETATM   12  O   UNL     1     -10.932   7.468  71.663  1.00  0.00    -0.230 OA 
BRANCH  10  13
HETATM   13  C   UNL     1     -10.976   9.745  70.842  1.00  0.00    -0.341 C  
HETATM   14  H   UNL     1     -12.451  10.683  71.811  1.00  0.00     0.000 HD 
HETATM   15  O   UNL     1     -12.174   9.792  71.639  1.00  0.00    -0.371 OA 
BRANCH  13  16
HETATM   16  C   UNL     1     -11.202  10.584  69.579  1.00  0.00    -0.271 C  
HETATM   17  O   UNL     1     -10.028  11.379  69.352  1.00  0.00    -0.426 OA 
HETATM   18  H   UNL     1     -10.168  11.899  68.570  1.00  0.00     0.000 HD 
ENDBRANCH  13  16
ENDBRANCH  10  13
ENDBRANCH   7  10
ENDBRANCH   4   7
ENDBRANCH   2   4
TORSDOF 5
ENDMDL
MODEL      197
REMARK 921   NORMALIZED FREE ENERGY PREDICTED BY IDOCK:   -2.53 KCAL/MOL
REMARK 922        TOTAL FREE ENERGY PREDICTED BY IDOCK:   -4.11 KCAL/MOL
REMARK 923 INTER-LIGAND FREE ENERGY PREDICTED BY IDOCK:   -3.73 KCAL/MOL
REMARK 924 INTRA-LIGAND FREE ENERGY PREDICTED BY IDOCK:   -0.38 KCAL/MOL
REMARK 927      BINDING AFFINITY PREDICTED BY RF-SCORE:    0.00 PKD
ROOT
HETATM    1  O   UNL     1      -8.611   9.256  68.912  1.00  0.00    -0.126 OA 
HETATM    2  C   UNL     1      -9.647   8.806  69.796  1.00  0.00    -0.172 C  
HETATM    3  H   UNL     1      -8.089   8.517  68.623  1.00  0.00     0.000 HD 
ENDROOT
BRANCH   2   4
HETATM    4  C   UNL     1     -10.490   9.997  70.262  1.00  0.00    -0.272 C  
HETATM    5  H   UNL     1     -12.111  10.248  71.357  1.00  0.00     0.000 HD 
HETATM    6  O   UNL     1     -11.589   9.509  71.068  1.00  0.00    -0.291 OA 
BRANCH   4   7
HETATM    7  C   UNL     1     -11.136  10.826  69.134  1.00  0.00    -0.249 C  
HETATM    8  O   UNL     1     -12.533  10.493  69.069  1.00  0.00    -0.770 OA 
HETATM    9  H   UNL     1     -12.931  11.004  68.373  1.00  0.00     0.000 HD 
BRANCH   7  10
HETATM   10  C   UNL     1     -10.966  12.359  69.186  1.00  0.00    -0.152 C  
HETATM   11  H   UNL     1     -11.978  13.928  69.876  1.00  0.00     0.000 HD 
HETATM   12  O   UNL     1     -12.082  12.984  69.843  1.00  0.00    -0.313 OA 
BRANCH  10  13
HETATM   13  C   UNL     1     -10.726  13.068  67.838  1.00  0.00    -0.235 C  
HETATM   14  H   UNL     1      -9.618  14.570  67.122  1.00  0.00     0.000 HD 
HETATM   15  O   UNL     1      -9.766  14.134  67.953  1.00  0.00    -0.213 OA 
BRANCH  13  16
HETATM   16  C   UNL     1     -11.998  13.630  67.193  1.00  0.00    -0.393 C  
HETATM   17  O   UNL     1     -12.254  14.924  67.758  1.00  0.00    -0.545 OA 
HETATM   18  H   UNL     1     -13.042  15.272  67.358  1.00  0.00     0.000 HD 
ENDBRANCH  13  16
ENDBRANCH  10  13
ENDBRANCH   7  10
ENDBRANCH   4   7
ENDBRANCH   2   4
TORSDOF 5
ENDMDL
MODEL      198
REMARK 921   NORMALIZED FREE ENERGY PREDICTED BY IDOCK:   -2.51 KCAL/MOL
REMARK 922        TOTAL FREE ENERGY PREDICTED BY IDOCK:   -4.10 KCAL/MOL
REMARK 923 INTER-LIGAND FREE ENERGY PREDICTED BY IDOCK:   -3.50 KCAL/MOL
REMARK 924 INTRA-LIGAND FREE ENERGY PREDICTED BY IDOCK:   -0.59 KCAL/MOL
REMARK 927      BINDING AFFINITY PREDICTED BY RF-SCORE:    0.00 PKD
ROOT
HETATM    1  O   UNL     1      -8.738   6.847  65.588  1.00  0.00    -0.242 OA 
HETATM    2  C   UNL     1      -8.621   6.191  66.858  1.00  0.00    -0.109 C  
HETATM    3  H   UNL     1      -7.927   6.757  65.101  1.00  0.00     0.000 HD 
ENDROOT
BRANCH   2   4
HETATM    4  C   UNL     1      -9.929   6.335  67.642  1.00  0.00    -0.131 C  
HETATM    5  H   UNL     1     -11.844   6.478  67.193  1.00  0.00     0.000 HD 
HETATM    6  O   UNL     1     -11.033   6.389  66.707  1.00  0.00    -0.353 OA 
BRANCH   4   7
HETATM    7  C   UNL     1     -10.044   7.612  68.497  1.00  0.00    -0.190 C  
HETATM    8  O   UNL     1     -10.954   8.515  67.846  1.00  0.00    -0.485 OA 
HETATM    9  H   UNL     1     -11.024   9.302  68.373  1.00  0.00     0.000 HD 
BRANCH   7  10
HETATM   10  C   UNL     1     -10.444   7.446  69.978  1.00  0.00    -0.226 C  
HETATM   11  H   UNL     1     -11.558   6.212  71.071  1.00  0.00     0.000 HD 
HETATM   12  O   UNL     1     -11.312   6.314  70.160  1.00  0.00    -0.372 OA 
BRANCH  10  13
HETATM   13  C   UNL     1     -11.086   8.673  70.656  1.00  0.00    -0.249 C  
HETATM   14  H   UNL     1     -10.819  10.654  70.709  1.00  0.00     0.000 HD 
HETATM   15  O   UNL     1     -10.424   9.898  70.291  1.00  0.00    -0.262 OA 
BRANCH  13  16
HETATM   16  C   UNL     1     -11.135   8.587  72.186  1.00  0.00    -0.366 C  
HETATM   17  O   UNL     1     -12.262   7.778  72.554  1.00  0.00    -0.516 OA 
HETATM   18  H   UNL     1     -12.292   7.725  73.502  1.00  0.00     0.000 HD 
ENDBRANCH  13  16
ENDBRANCH  10  13
ENDBRANCH   7  10
ENDBRANCH   4   7
ENDBRANCH   2   4
TORSDOF 5
ENDMDL
MODEL      199
REMARK 921   NORMALIZED FREE ENERGY PREDICTED BY IDOCK:   -2.51 KCAL/MOL
REMARK 922        TOTAL FREE ENERGY PREDICTED BY IDOCK:   -4.09 KCAL/MOL
REMARK 923 INTER-LIGAND FREE ENERGY PREDICTED BY IDOCK:   -3.58 KCAL/MOL
REMARK 924 INTRA-LIGAND FREE ENERGY PREDICTED BY IDOCK:   -0.51 KCAL/MOL
REMARK 927      BINDING AFFINITY PREDICTED BY RF-SCORE:    0.00 PKD
ROOT
HETATM    1  O   UNL     1     -11.265   7.227  67.017  1.00  0.00    -0.534 OA 
HETATM    2  C   UNL     1     -10.280   8.259  67.172  1.00  0.00    -0.295 C  
HETATM    3  H   UNL     1     -10.882   6.478  66.576  1.00  0.00     0.000 HD 
ENDROOT
BRANCH   2   4
HETATM    4  C   UNL     1     -10.898   9.466  67.885  1.00  0.00    -0.154 C  
HETATM    5  H   UNL     1     -10.821  11.427  67.680  1.00  0.00     0.000 HD 
HETATM    6  O   UNL     1     -10.438  10.678  67.238  1.00  0.00    -0.217 OA 
BRANCH   4   7
HETATM    7  C   UNL     1     -10.518   9.616  69.371  1.00  0.00    -0.220 C  
HETATM    8  O   UNL     1      -9.968  10.930  69.570  1.00  0.00    -0.418 OA 
HETATM    9  H   UNL     1      -9.734  11.022  70.486  1.00  0.00     0.000 HD 
BRANCH   7  10
HETATM   10  C   UNL     1     -11.617   9.347  70.420  1.00  0.00    -0.192 C  
HETATM   11  H   UNL     1     -12.448  10.299  71.958  1.00  0.00     0.000 HD 
HETATM   12  O   UNL     1     -11.771  10.464  71.312  1.00  0.00    -0.338 OA 
BRANCH  10  13
HETATM   13  C   UNL     1     -11.463   8.063  71.259  1.00  0.00    -0.269 C  
HETATM   14  H   UNL     1     -10.938   7.554  73.120  1.00  0.00     0.000 HD 
HETATM   15  O   UNL     1     -11.032   8.345  72.603  1.00  0.00    -0.353 OA 
BRANCH  13  16
HETATM   16  C   UNL     1     -10.506   7.031  70.652  1.00  0.00    -0.210 C  
HETATM   17  O   UNL     1     -11.271   6.144  69.821  1.00  0.00    -0.384 OA 
HETATM   18  H   UNL     1     -10.678   5.504  69.445  1.00  0.00     0.000 HD 
ENDBRANCH  13  16
ENDBRANCH  10  13
ENDBRANCH   7  10
ENDBRANCH   4   7
ENDBRANCH   2   4
TORSDOF 5
ENDMDL
MODEL      200
REMARK 921   NORMALIZED FREE ENERGY PREDICTED BY IDOCK:   -2.51 KCAL/MOL
REMARK 922        TOTAL FREE ENERGY PREDICTED BY IDOCK:   -4.09 KCAL/MOL
REMARK 923 INTER-LIGAND FREE ENERGY PREDICTED BY IDOCK:   -3.96 KCAL/MOL
REMARK 924 INTRA-LIGAND FREE ENERGY PREDICTED BY IDOCK:   -0.13 KCAL/MOL
REMARK 927      BINDING AFFINITY PREDICTED BY RF-SCORE:    0.00 PKD
ROOT
HETATM    1  O   UNL     1      -6.760  18.848  68.838  1.00  0.00    -0.264 OA 
HETATM    2  C   UNL     1      -8.143  18.636  68.520  1.00  0.00    -0.341 C  
HETATM    3  H   UNL     1      -6.521  19.749  68.656  1.00  0.00     0.000 HD 
ENDROOT
BRANCH   2   4
HETATM    4  C   UNL     1      -8.529  17.182  68.814  1.00  0.00    -0.225 C  
HETATM    5  H   UNL     1      -8.297  15.442  67.914  1.00  0.00     0.000 HD 
HETATM    6  O   UNL     1      -8.058  16.344  67.731  1.00  0.00    -0.153 OA 
BRANCH   4   7
HETATM    7  C   UNL     1     -10.043  16.914  68.922  1.00  0.00    -0.297 C  
HETATM    8  O   UNL     1     -10.566  16.721  67.596  1.00  0.00    -0.324 OA 
HETATM    9  H   UNL     1     -11.499  16.556  67.663  1.00  0.00     0.000 HD 
BRANCH   7  10
HETATM   10  C   UNL     1     -10.500  15.759  69.837  1.00  0.00    -0.320 C  
HETATM   11  H   UNL     1     -10.895  13.816  69.666  1.00  0.00     0.000 HD 
HETATM   12  O   UNL     1     -10.614  14.528  69.104  1.00  0.00    -0.244 OA 
BRANCH  10  13
HETATM   13  C   UNL     1     -11.805  15.986  70.626  1.00  0.00    -0.315 C  
HETATM   14  H   UNL     1     -12.355  16.471  72.485  1.00  0.00     0.000 HD 
HETATM   15  O   UNL     1     -11.551  16.331  72.000  1.00  0.00    -0.457 OA 
BRANCH  13  16
HETATM   16  C   UNL     1     -12.768  14.793  70.596  1.00  0.00    -0.358 C  
HETATM   17  O   UNL     1     -14.044  15.234  71.084  1.00  0.00    -0.658 OA 
HETATM   18  H   UNL     1     -14.641  14.495  71.065  1.00  0.00     0.000 HD 
ENDBRANCH  13  16
ENDBRANCH  10  13
ENDBRANCH   7  10
ENDBRANCH   4   7
ENDBRANCH   2   4
TORSDOF 5
ENDMDL
MODEL      201
REMARK 921   NORMALIZED FREE ENERGY PREDICTED BY IDOCK:   -2.50 KCAL/MOL
REMARK 922        TOTAL FREE ENERGY PREDICTED BY IDOCK:   -4.08 KCAL/MOL
REMARK 923 INTER-LIGAND FREE ENERGY PREDICTED BY IDOCK:   -3.26 KCAL/MOL
REMARK 924 INTRA-LIGAND FREE ENERGY PREDICTED BY IDOCK:   -0.82 KCAL/MOL
REMARK 927      BINDING AFFINITY PREDICTED BY RF-SCORE:    0.00 PKD
ROOT
HETATM    1  O   UNL     1     -12.465  10.005  70.378  1.00  0.00    -0.465 OA 
HETATM    2  C   UNL     1     -13.232   9.126  71.213  1.00  0.00    -0.238 C  
HETATM    3  H   UNL     1     -12.932  10.822  70.253  1.00  0.00     0.000 HD 
ENDROOT
BRANCH   2   4
HETATM    4  C   UNL     1     -12.478   7.808  71.415  1.00  0.00    -0.320 C  
HETATM    5  H   UNL     1     -12.942   5.982  71.998  1.00  0.00     0.000 HD 
HETATM    6  O   UNL     1     -13.410   6.799  71.873  1.00  0.00    -0.271 OA 
BRANCH   4   7
HETATM    7  C   UNL     1     -11.355   7.849  72.470  1.00  0.00    -0.390 C  
HETATM    8  O   UNL     1     -11.444   6.660  73.275  1.00  0.00    -0.469 OA 
HETATM    9  H   UNL     1     -10.752   6.686  73.925  1.00  0.00     0.000 HD 
BRANCH   7  10
HETATM   10  C   UNL     1      -9.908   8.032  71.967  1.00  0.00    -0.211 C  
HETATM   11  H   UNL     1      -8.747   9.520  71.336  1.00  0.00     0.000 HD 
HETATM   12  O   UNL     1      -9.637   9.407  71.646  1.00  0.00    -0.260 OA 
BRANCH  10  13
HETATM   13  C   UNL     1      -9.482   7.153  70.774  1.00  0.00    -0.164 C  
HETATM   14  H   UNL     1      -8.138   5.727  70.380  1.00  0.00     0.000 HD 
HETATM   15  O   UNL     1      -8.400   6.268  71.115  1.00  0.00    -0.121 OA 
BRANCH  13  16
HETATM   16  C   UNL     1      -9.082   7.947  69.525  1.00  0.00    -0.149 C  
HETATM   17  O   UNL     1     -10.275   8.259  68.790  1.00  0.00    -0.202 OA 
HETATM   18  H   UNL     1     -10.027   8.751  68.016  1.00  0.00     0.000 HD 
ENDBRANCH  13  16
ENDBRANCH  10  13
ENDBRANCH   7  10
ENDBRANCH   4   7
ENDBRANCH   2   4
TORSDOF 5
ENDMDL
MODEL      202
REMARK 921   NORMALIZED FREE ENERGY PREDICTED BY IDOCK:   -2.50 KCAL/MOL
REMARK 922        TOTAL FREE ENERGY PREDICTED BY IDOCK:   -4.08 KCAL/MOL
REMARK 923 INTER-LIGAND FREE ENERGY PREDICTED BY IDOCK:   -3.68 KCAL/MOL
REMARK 924 INTRA-LIGAND FREE ENERGY PREDICTED BY IDOCK:   -0.40 KCAL/MOL
REMARK 927      BINDING AFFINITY PREDICTED BY RF-SCORE:    0.00 PKD
ROOT
HETATM    1  O   UNL     1     -11.268   8.856  69.451  1.00  0.00    -0.437 OA 
HETATM    2  C   UNL     1     -10.236   9.825  69.222  1.00  0.00    -0.204 C  
HETATM    3  H   UNL     1     -10.885   8.039  69.748  1.00  0.00     0.000 HD 
ENDROOT
BRANCH   2   4
HETATM    4  C   UNL     1     -10.853  11.142  68.743  1.00  0.00    -0.213 C  
HETATM    5  H   UNL     1     -12.469  11.672  67.743  1.00  0.00     0.000 HD 
HETATM    6  O   UNL     1     -12.086  10.855  68.040  1.00  0.00    -0.563 OA 
BRANCH   4   7
HETATM    7  C   UNL     1      -9.990  11.952  67.755  1.00  0.00    -0.186 C  
HETATM    8  O   UNL     1     -10.345  11.565  66.417  1.00  0.00    -0.223 OA 
HETATM    9  H   UNL     1      -9.812  12.064  65.809  1.00  0.00     0.000 HD 
BRANCH   7  10
HETATM   10  C   UNL     1     -10.016  13.490  67.878  1.00  0.00    -0.245 C  
HETATM   11  H   UNL     1      -8.927  14.916  68.738  1.00  0.00     0.000 HD 
HETATM   12  O   UNL     1      -8.911  13.970  68.662  1.00  0.00    -0.175 OA 
BRANCH  10  13
HETATM   13  C   UNL     1     -11.317  14.111  68.428  1.00  0.00    -0.287 C  
HETATM   14  H   UNL     1     -13.070  14.762  67.722  1.00  0.00     0.000 HD 
HETATM   15  O   UNL     1     -12.269  14.380  67.383  1.00  0.00    -0.364 OA 
BRANCH  13  16
HETATM   16  C   UNL     1     -11.103  15.398  69.232  1.00  0.00    -0.280 C  
HETATM   17  O   UNL     1     -10.773  15.035  70.581  1.00  0.00    -0.504 OA 
HETATM   18  H   UNL     1     -10.640  15.833  71.079  1.00  0.00     0.000 HD 
ENDBRANCH  13  16
ENDBRANCH  10  13
ENDBRANCH   7  10
ENDBRANCH   4   7
ENDBRANCH   2   4
TORSDOF 5
ENDMDL
MODEL      203
REMARK 921   NORMALIZED FREE ENERGY PREDICTED BY IDOCK:   -2.50 KCAL/MOL
REMARK 922        TOTAL FREE ENERGY PREDICTED BY IDOCK:   -4.07 KCAL/MOL
REMARK 923 INTER-LIGAND FREE ENERGY PREDICTED BY IDOCK:   -3.62 KCAL/MOL
REMARK 924 INTRA-LIGAND FREE ENERGY PREDICTED BY IDOCK:   -0.45 KCAL/MOL
REMARK 927      BINDING AFFINITY PREDICTED BY RF-SCORE:    0.00 PKD
ROOT
HETATM    1  O   UNL     1      -8.235   8.268  68.465  1.00  0.00    -0.127 OA 
HETATM    2  C   UNL     1      -9.398   8.959  67.989  1.00  0.00    -0.142 C  
HETATM    3  H   UNL     1      -7.711   7.972  67.730  1.00  0.00     0.000 HD 
ENDROOT
BRANCH   2   4
HETATM    4  C   UNL     1     -10.243   9.436  69.174  1.00  0.00    -0.202 C  
HETATM    5  H   UNL     1     -10.741  11.180  69.952  1.00  0.00     0.000 HD 
HETATM    6  O   UNL     1     -10.217  10.884  69.217  1.00  0.00    -0.217 OA 
BRANCH   4   7
HETATM    7  C   UNL     1      -9.753   8.970  70.560  1.00  0.00    -0.216 C  
HETATM    8  O   UNL     1      -8.604   9.754  70.923  1.00  0.00    -0.363 OA 
HETATM    9  H   UNL     1      -8.302   9.466  71.777  1.00  0.00     0.000 HD 
BRANCH   7  10
HETATM   10  C   UNL     1     -10.774   8.974  71.717  1.00  0.00    -0.367 C  
HETATM   11  H   UNL     1     -11.015   8.062  73.469  1.00  0.00     0.000 HD 
HETATM   12  O   UNL     1     -10.387   8.060  72.757  1.00  0.00    -0.298 OA 
BRANCH  10  13
HETATM   13  C   UNL     1     -12.242   8.695  71.336  1.00  0.00    -0.304 C  
HETATM   14  H   UNL     1     -14.068   9.178  71.991  1.00  0.00     0.000 HD 
HETATM   15  O   UNL     1     -13.164   9.350  72.226  1.00  0.00    -0.422 OA 
BRANCH  13  16
HETATM   16  C   UNL     1     -12.600   7.206  71.278  1.00  0.00    -0.380 C  
HETATM   17  O   UNL     1     -12.341   6.733  69.947  1.00  0.00    -0.581 OA 
HETATM   18  H   UNL     1     -12.563   5.810  69.912  1.00  0.00     0.000 HD 
ENDBRANCH  13  16
ENDBRANCH  10  13
ENDBRANCH   7  10
ENDBRANCH   4   7
ENDBRANCH   2   4
TORSDOF 5
ENDMDL
MODEL      204
REMARK 921   NORMALIZED FREE ENERGY PREDICTED BY IDOCK:   -2.49 KCAL/MOL
REMARK 922        TOTAL FREE ENERGY PREDICTED BY IDOCK:   -4.07 KCAL/MOL
REMARK 923 INTER-LIGAND FREE ENERGY PREDICTED BY IDOCK:   -3.63 KCAL/MOL
REMARK 924 INTRA-LIGAND FREE ENERGY PREDICTED BY IDOCK:   -0.44 KCAL/MOL
REMARK 927      BINDING AFFINITY PREDICTED BY RF-SCORE:    0.00 PKD
ROOT
HETATM    1  O   UNL     1     -12.246  10.432  68.807  1.00  0.00    -0.750 OA 
HETATM    2  C   UNL     1     -12.110  11.383  69.872  1.00  0.00    -0.330 C  
HETATM    3  H   UNL     1     -12.667   9.643  69.129  1.00  0.00     0.000 HD 
ENDROOT
BRANCH   2   4
HETATM    4  C   UNL     1     -11.433  12.655  69.352  1.00  0.00    -0.266 C  
HETATM    5  H   UNL     1     -11.897  14.569  69.249  1.00  0.00     0.000 HD 
HETATM    6  O   UNL     1     -12.318  13.780  69.572  1.00  0.00    -0.316 OA 
BRANCH   4   7
HETATM    7  C   UNL     1     -11.117  12.660  67.843  1.00  0.00    -0.247 C  
HETATM    8  O   UNL     1     -12.357  12.737  67.119  1.00  0.00    -0.357 OA 
HETATM    9  H   UNL     1     -12.162  12.741  66.189  1.00  0.00     0.000 HD 
BRANCH   7  10
HETATM   10  C   UNL     1     -10.141  13.736  67.322  1.00  0.00    -0.239 C  
HETATM   11  H   UNL     1     -10.060  15.049  65.829  1.00  0.00     0.000 HD 
HETATM   12  O   UNL     1     -10.660  14.387  66.150  1.00  0.00    -0.286 OA 
BRANCH  10  13
HETATM   13  C   UNL     1      -8.700  13.271  67.031  1.00  0.00    -0.186 C  
HETATM   14  H   UNL     1      -7.744  11.569  66.601  1.00  0.00     0.000 HD 
HETATM   15  O   UNL     1      -8.632  11.855  66.780  1.00  0.00    -0.181 OA 
BRANCH  13  16
HETATM   16  C   UNL     1      -7.697  13.615  68.138  1.00  0.00    -0.138 C  
HETATM   17  O   UNL     1      -8.385  14.365  69.150  1.00  0.00    -0.332 OA 
HETATM   18  H   UNL     1      -7.763  14.579  69.836  1.00  0.00     0.000 HD 
ENDBRANCH  13  16
ENDBRANCH  10  13
ENDBRANCH   7  10
ENDBRANCH   4   7
ENDBRANCH   2   4
TORSDOF 5
ENDMDL
MODEL      205
REMARK 921   NORMALIZED FREE ENERGY PREDICTED BY IDOCK:   -2.49 KCAL/MOL
REMARK 922        TOTAL FREE ENERGY PREDICTED BY IDOCK:   -4.07 KCAL/MOL
REMARK 923 INTER-LIGAND FREE ENERGY PREDICTED BY IDOCK:   -4.04 KCAL/MOL
REMARK 924 INTRA-LIGAND FREE ENERGY PREDICTED BY IDOCK:   -0.02 KCAL/MOL
REMARK 927      BINDING AFFINITY PREDICTED BY RF-SCORE:    0.00 PKD
ROOT
HETATM    1  O   UNL     1      -8.798  14.967  69.666  1.00  0.00    -0.430 OA 
HETATM    2  C   UNL     1      -9.625  15.035  68.496  1.00  0.00    -0.210 C  
HETATM    3  H   UNL     1      -8.170  14.259  69.578  1.00  0.00     0.000 HD 
ENDROOT
BRANCH   2   4
HETATM    4  C   UNL     1     -10.638  16.175  68.639  1.00  0.00    -0.283 C  
HETATM    5  H   UNL     1     -10.779  17.822  69.717  1.00  0.00     0.000 HD 
HETATM    6  O   UNL     1     -10.151  17.114  69.628  1.00  0.00    -0.084 OA 
BRANCH   4   7
HETATM    7  C   UNL     1     -12.040  15.752  69.120  1.00  0.00    -0.198 C  
HETATM    8  O   UNL     1     -12.385  14.512  68.479  1.00  0.00    -0.587 OA 
HETATM    9  H   UNL     1     -13.249  14.252  68.776  1.00  0.00     0.000 HD 
BRANCH   7  10
HETATM   10  C   UNL     1     -12.268  15.635  70.641  1.00  0.00    -0.405 C  
HETATM   11  H   UNL     1     -11.199  15.187  72.259  1.00  0.00     0.000 HD 
HETATM   12  O   UNL     1     -11.059  15.259  71.322  1.00  0.00    -0.344 OA 
BRANCH  10  13
HETATM   13  C   UNL     1     -13.403  14.694  71.093  1.00  0.00    -0.373 C  
HETATM   14  H   UNL     1     -15.108  14.809  72.131  1.00  0.00     0.000 HD 
HETATM   15  O   UNL     1     -14.409  15.389  71.853  1.00  0.00    -0.526 OA 
BRANCH  13  16
HETATM   16  C   UNL     1     -12.926  13.488  71.910  1.00  0.00    -0.337 C  
HETATM   17  O   UNL     1     -12.746  13.909  73.271  1.00  0.00    -0.267 OA 
HETATM   18  H   UNL     1     -12.451  13.162  73.776  1.00  0.00     0.000 HD 
ENDBRANCH  13  16
ENDBRANCH  10  13
ENDBRANCH   7  10
ENDBRANCH   4   7
ENDBRANCH   2   4
TORSDOF 5
ENDMDL
MODEL      206
REMARK 921   NORMALIZED FREE ENERGY PREDICTED BY IDOCK:   -2.49 KCAL/MOL
REMARK 922        TOTAL FREE ENERGY PREDICTED BY IDOCK:   -4.06 KCAL/MOL
REMARK 923 INTER-LIGAND FREE ENERGY PREDICTED BY IDOCK:   -3.46 KCAL/MOL
REMARK 924 INTRA-LIGAND FREE ENERGY PREDICTED BY IDOCK:   -0.60 KCAL/MOL
REMARK 927      BINDING AFFINITY PREDICTED BY RF-SCORE:    0.00 PKD
ROOT
HETATM    1  O   UNL     1     -14.217   8.140  72.279  1.00  0.00    -0.551 OA 
HETATM    2  C   UNL     1     -12.879   8.654  72.219  1.00  0.00    -0.383 C  
HETATM    3  H   UNL     1     -14.840   8.842  72.134  1.00  0.00     0.000 HD 
ENDROOT
BRANCH   2   4
HETATM    4  C   UNL     1     -11.874   7.521  72.453  1.00  0.00    -0.261 C  
HETATM    5  H   UNL     1     -10.040   7.375  73.164  1.00  0.00     0.000 HD 
HETATM    6  O   UNL     1     -10.663   8.078  73.019  1.00  0.00    -0.361 OA 
BRANCH   4   7
HETATM    7  C   UNL     1     -11.433   6.763  71.186  1.00  0.00    -0.314 C  
HETATM    8  O   UNL     1     -12.380   7.037  70.139  1.00  0.00    -0.618 OA 
HETATM    9  H   UNL     1     -12.108   6.569  69.358  1.00  0.00     0.000 HD 
BRANCH   7  10
HETATM   10  C   UNL     1     -10.000   7.008  70.670  1.00  0.00    -0.186 C  
HETATM   11  H   UNL     1      -9.058   8.326  69.513  1.00  0.00     0.000 HD 
HETATM   12  O   UNL     1      -9.940   8.174  69.831  1.00  0.00    -0.185 OA 
BRANCH  10  13
HETATM   13  C   UNL     1      -9.328   5.834  69.929  1.00  0.00    -0.148 C  
HETATM   14  H   UNL     1      -9.866   4.325  68.733  1.00  0.00     0.000 HD 
HETATM   15  O   UNL     1     -10.280   5.048  69.189  1.00  0.00    -0.207 OA 
BRANCH  13  16
HETATM   16  C   UNL     1      -8.531   4.894  70.842  1.00  0.00    -0.111 C  
HETATM   17  O   UNL     1      -9.413   3.858  71.299  1.00  0.00    -0.134 OA 
HETATM   18  H   UNL     1      -8.919   3.276  71.865  1.00  0.00     0.000 HD 
ENDBRANCH  13  16
ENDBRANCH  10  13
ENDBRANCH   7  10
ENDBRANCH   4   7
ENDBRANCH   2   4
TORSDOF 5
ENDMDL
MODEL      207
REMARK 921   NORMALIZED FREE ENERGY PREDICTED BY IDOCK:   -2.48 KCAL/MOL
REMARK 922        TOTAL FREE ENERGY PREDICTED BY IDOCK:   -4.05 KCAL/MOL
REMARK 923 INTER-LIGAND FREE ENERGY PREDICTED BY IDOCK:   -3.26 KCAL/MOL
REMARK 924 INTRA-LIGAND FREE ENERGY PREDICTED BY IDOCK:   -0.79 KCAL/MOL
REMARK 927      BINDING AFFINITY PREDICTED BY RF-SCORE:    0.00 PKD
ROOT
HETATM    1  O   UNL     1      -7.647  10.645  64.650  1.00  0.00    -0.342 OA 
HETATM    2  C   UNL     1      -8.647  10.520  63.629  1.00  0.00    -0.156 C  
HETATM    3  H   UNL     1      -6.799  10.391  64.304  1.00  0.00     0.000 HD 
ENDROOT
BRANCH   2   4
HETATM    4  C   UNL     1     -10.014  10.929  64.187  1.00  0.00    -0.344 C  
HETATM    5  H   UNL     1     -10.852  12.606  64.801  1.00  0.00     0.000 HD 
HETATM    6  O   UNL     1     -10.004  12.352  64.455  1.00  0.00    -0.253 OA 
BRANCH   4   7
HETATM    7  C   UNL     1     -10.409  10.256  65.516  1.00  0.00    -0.169 C  
HETATM    8  O   UNL     1      -9.777   8.966  65.578  1.00  0.00    -0.458 OA 
HETATM    9  H   UNL     1     -10.021   8.552  66.397  1.00  0.00     0.000 HD 
BRANCH   7  10
HETATM   10  C   UNL     1     -10.136  11.035  66.820  1.00  0.00    -0.220 C  
HETATM   11  H   UNL     1      -8.615  11.319  68.071  1.00  0.00     0.000 HD 
HETATM   12  O   UNL     1      -8.784  10.840  67.269  1.00  0.00    -0.130 OA 
BRANCH  10  13
HETATM   13  C   UNL     1     -11.092  10.757  67.997  1.00  0.00    -0.299 C  
HETATM   14  H   UNL     1     -12.750  11.546  68.787  1.00  0.00     0.000 HD 
HETATM   15  O   UNL     1     -12.161  11.718  68.062  1.00  0.00    -0.518 OA 
BRANCH  13  16
HETATM   16  C   UNL     1     -10.401  10.708  69.364  1.00  0.00    -0.208 C  
HETATM   17  O   UNL     1      -9.731   9.444  69.485  1.00  0.00    -0.167 OA 
HETATM   18  H   UNL     1      -9.304   9.414  70.332  1.00  0.00     0.000 HD 
ENDBRANCH  13  16
ENDBRANCH  10  13
ENDBRANCH   7  10
ENDBRANCH   4   7
ENDBRANCH   2   4
TORSDOF 5
ENDMDL
MODEL      208
REMARK 921   NORMALIZED FREE ENERGY PREDICTED BY IDOCK:   -2.48 KCAL/MOL
REMARK 922        TOTAL FREE ENERGY PREDICTED BY IDOCK:   -4.05 KCAL/MOL
REMARK 923 INTER-LIGAND FREE ENERGY PREDICTED BY IDOCK:   -3.54 KCAL/MOL
REMARK 924 INTRA-LIGAND FREE ENERGY PREDICTED BY IDOCK:   -0.51 KCAL/MOL
REMARK 927      BINDING AFFINITY PREDICTED BY RF-SCORE:    0.00 PKD
ROOT
HETATM    1  O   UNL     1     -12.735  15.054  69.400  1.00  0.00    -0.575 OA 
HETATM    2  C   UNL     1     -11.969  13.848  69.529  1.00  0.00    -0.343 C  
HETATM    3  H   UNL     1     -13.222  15.215  70.200  1.00  0.00     0.000 HD 
ENDROOT
BRANCH   2   4
HETATM    4  C   UNL     1     -11.184  13.588  68.240  1.00  0.00    -0.274 C  
HETATM    5  H   UNL     1     -11.380  14.071  66.337  1.00  0.00     0.000 HD 
HETATM    6  O   UNL     1     -11.867  14.232  67.137  1.00  0.00    -0.390 OA 
BRANCH   4   7
HETATM    7  C   UNL     1     -11.051  12.105  67.840  1.00  0.00    -0.245 C  
HETATM    8  O   UNL     1     -12.217  11.731  67.085  1.00  0.00    -0.446 OA 
HETATM    9  H   UNL     1     -12.135  10.818  66.839  1.00  0.00     0.000 HD 
BRANCH   7  10
HETATM   10  C   UNL     1      -9.778  11.683  67.076  1.00  0.00    -0.186 C  
HETATM   11  H   UNL     1      -8.149  12.554  66.338  1.00  0.00     0.000 HD 
HETATM   12  O   UNL     1      -8.932  12.814  66.807  1.00  0.00    -0.218 OA 
BRANCH  10  13
HETATM   13  C   UNL     1      -9.994  10.905  65.763  1.00  0.00    -0.247 C  
HETATM   14  H   UNL     1     -10.328   9.020  65.186  1.00  0.00     0.000 HD 
HETATM   15  O   UNL     1     -10.195   9.499  65.995  1.00  0.00    -0.272 OA 
BRANCH  13  16
HETATM   16  C   UNL     1      -8.859  11.070  64.745  1.00  0.00    -0.032 C  
HETATM   17  O   UNL     1      -7.620  10.760  65.400  1.00  0.00    -0.313 OA 
HETATM   18  H   UNL     1      -6.917  10.863  64.770  1.00  0.00     0.000 HD 
ENDBRANCH  13  16
ENDBRANCH  10  13
ENDBRANCH   7  10
ENDBRANCH   4   7
ENDBRANCH   2   4
TORSDOF 5
ENDMDL
MODEL      209
REMARK 921   NORMALIZED FREE ENERGY PREDICTED BY IDOCK:   -2.46 KCAL/MOL
REMARK 922        TOTAL FREE ENERGY PREDICTED BY IDOCK:   -4.03 KCAL/MOL
REMARK 923 INTER-LIGAND FREE ENERGY PREDICTED BY IDOCK:   -3.59 KCAL/MOL
REMARK 924 INTRA-LIGAND FREE ENERGY PREDICTED BY IDOCK:   -0.44 KCAL/MOL
REMARK 927      BINDING AFFINITY PREDICTED BY RF-SCORE:    0.00 PKD
ROOT
HETATM    1  O   UNL     1      -8.984  13.416  66.600  1.00  0.00    -0.374 OA 
HETATM    2  C   UNL     1      -9.711  14.453  65.926  1.00  0.00    -0.276 C  
HETATM    3  H   UNL     1      -9.017  12.614  66.091  1.00  0.00     0.000 HD 
ENDROOT
BRANCH   2   4
HETATM    4  C   UNL     1      -9.657  15.745  66.747  1.00  0.00    -0.236 C  
HETATM    5  H   UNL     1     -10.939  16.813  67.799  1.00  0.00     0.000 HD 
HETATM    6  O   UNL     1     -10.973  16.011  67.290  1.00  0.00    -0.300 OA 
BRANCH   4   7
HETATM    7  C   UNL     1      -9.268  17.010  65.956  1.00  0.00    -0.142 C  
HETATM    8  O   UNL     1     -10.451  17.804  65.757  1.00  0.00    -0.556 OA 
HETATM    9  H   UNL     1     -10.211  18.583  65.270  1.00  0.00     0.000 HD 
BRANCH   7  10
HETATM   10  C   UNL     1      -8.138  17.891  66.528  1.00  0.00    -0.272 C  
HETATM   11  H   UNL     1      -6.661  17.714  67.850  1.00  0.00     0.000 HD 
HETATM   12  O   UNL     1      -7.357  17.172  67.497  1.00  0.00    -0.155 OA 
BRANCH  10  13
HETATM   13  C   UNL     1      -8.565  19.240  67.141  1.00  0.00    -0.287 C  
HETATM   14  H   UNL     1      -7.910  21.128  67.187  1.00  0.00     0.000 HD 
HETATM   15  O   UNL     1      -7.646  20.297  66.809  1.00  0.00    -0.283 OA 
BRANCH  13  16
HETATM   16  C   UNL     1      -8.737  19.207  68.664  1.00  0.00    -0.359 C  
HETATM   17  O   UNL     1      -7.461  19.474  69.266  1.00  0.00    -0.351 OA 
HETATM   18  H   UNL     1      -7.568  19.453  70.209  1.00  0.00     0.000 HD 
ENDBRANCH  13  16
ENDBRANCH  10  13
ENDBRANCH   7  10
ENDBRANCH   4   7
ENDBRANCH   2   4
TORSDOF 5
ENDMDL
MODEL      210
REMARK 921   NORMALIZED FREE ENERGY PREDICTED BY IDOCK:   -2.46 KCAL/MOL
REMARK 922        TOTAL FREE ENERGY PREDICTED BY IDOCK:   -4.02 KCAL/MOL
REMARK 923 INTER-LIGAND FREE ENERGY PREDICTED BY IDOCK:   -3.66 KCAL/MOL
REMARK 924 INTRA-LIGAND FREE ENERGY PREDICTED BY IDOCK:   -0.36 KCAL/MOL
REMARK 927      BINDING AFFINITY PREDICTED BY RF-SCORE:    0.00 PKD
ROOT
HETATM    1  O   UNL     1     -10.599  16.539  65.068  1.00  0.00    -0.670 OA 
HETATM    2  C   UNL     1      -9.815  15.489  65.652  1.00  0.00    -0.342 C  
HETATM    3  H   UNL     1     -10.513  16.518  64.122  1.00  0.00     0.000 HD 
ENDROOT
BRANCH   2   4
HETATM    4  C   UNL     1      -9.954  15.523  67.178  1.00  0.00    -0.242 C  
HETATM    5  H   UNL     1     -10.980  14.521  68.532  1.00  0.00     0.000 HD 
HETATM    6  O   UNL     1     -10.894  14.500  67.586  1.00  0.00    -0.264 OA 
BRANCH   4   7
HETATM    7  C   UNL     1     -10.496  16.844  67.759  1.00  0.00    -0.340 C  
HETATM    8  O   UNL     1     -10.952  16.597  69.100  1.00  0.00    -0.316 OA 
HETATM    9  H   UNL     1     -11.286  17.411  69.458  1.00  0.00     0.000 HD 
BRANCH   7  10
HETATM   10  C   UNL     1      -9.558  18.069  67.744  1.00  0.00    -0.278 C  
HETATM   11  H   UNL     1      -9.285  19.700  66.637  1.00  0.00     0.000 HD 
HETATM   12  O   UNL     1      -9.862  18.945  66.646  1.00  0.00    -0.320 OA 
BRANCH  10  13
HETATM   13  C   UNL     1      -8.045  17.772  67.733  1.00  0.00    -0.226 C  
HETATM   14  H   UNL     1      -6.448  18.133  68.881  1.00  0.00     0.000 HD 
HETATM   15  O   UNL     1      -7.380  18.316  68.889  1.00  0.00    -0.285 OA 
BRANCH  13  16
HETATM   16  C   UNL     1      -7.320  18.271  66.478  1.00  0.00    -0.233 C  
HETATM   17  O   UNL     1      -5.994  17.720  66.476  1.00  0.00    -0.147 OA 
HETATM   18  H   UNL     1      -5.545  18.030  65.699  1.00  0.00     0.000 HD 
ENDBRANCH  13  16
ENDBRANCH  10  13
ENDBRANCH   7  10
ENDBRANCH   4   7
ENDBRANCH   2   4
TORSDOF 5
ENDMDL
MODEL      211
REMARK 921   NORMALIZED FREE ENERGY PREDICTED BY IDOCK:   -2.43 KCAL/MOL
REMARK 922        TOTAL FREE ENERGY PREDICTED BY IDOCK:   -3.98 KCAL/MOL
REMARK 923 INTER-LIGAND FREE ENERGY PREDICTED BY IDOCK:   -3.51 KCAL/MOL
REMARK 924 INTRA-LIGAND FREE ENERGY PREDICTED BY IDOCK:   -0.47 KCAL/MOL
REMARK 927      BINDING AFFINITY PREDICTED BY RF-SCORE:    0.00 PKD
ROOT
HETATM    1  O   UNL     1     -11.833  12.451  70.475  1.00  0.00    -0.520 OA 
HETATM    2  C   UNL     1     -11.831  11.732  69.234  1.00  0.00    -0.326 C  
HETATM    3  H   UNL     1     -12.624  12.973  70.545  1.00  0.00     0.000 HD 
ENDROOT
BRANCH   2   4
HETATM    4  C   UNL     1     -10.557  10.890  69.121  1.00  0.00    -0.220 C  
HETATM    5  H   UNL     1      -9.403  10.250  67.654  1.00  0.00     0.000 HD 
HETATM    6  O   UNL     1     -10.194  10.772  67.724  1.00  0.00    -0.172 OA 
BRANCH   4   7
HETATM    7  C   UNL     1     -10.676   9.445  69.644  1.00  0.00    -0.235 C  
HETATM    8  O   UNL     1      -9.650   8.651  69.025  1.00  0.00    -0.159 OA 
HETATM    9  H   UNL     1      -9.723   7.760  69.348  1.00  0.00     0.000 HD 
BRANCH   7  10
HETATM   10  C   UNL     1     -10.649   9.234  71.172  1.00  0.00    -0.332 C  
HETATM   11  H   UNL     1      -9.317   8.737  72.565  1.00  0.00     0.000 HD 
HETATM   12  O   UNL     1      -9.334   8.867  71.624  1.00  0.00    -0.264 OA 
BRANCH  10  13
HETATM   13  C   UNL     1     -11.666   8.225  71.743  1.00  0.00    -0.302 C  
HETATM   14  H   UNL     1     -11.949   7.189  73.429  1.00  0.00     0.000 HD 
HETATM   15  O   UNL     1     -11.322   7.810  73.078  1.00  0.00    -0.399 OA 
BRANCH  13  16
HETATM   16  C   UNL     1     -11.854   6.972  70.880  1.00  0.00    -0.356 C  
HETATM   17  O   UNL     1     -10.588   6.305  70.773  1.00  0.00    -0.221 OA 
HETATM   18  H   UNL     1     -10.705   5.530  70.238  1.00  0.00     0.000 HD 
ENDBRANCH  13  16
ENDBRANCH  10  13
ENDBRANCH   7  10
ENDBRANCH   4   7
ENDBRANCH   2   4
TORSDOF 5
ENDMDL
MODEL      212
REMARK 921   NORMALIZED FREE ENERGY PREDICTED BY IDOCK:   -2.42 KCAL/MOL
REMARK 922        TOTAL FREE ENERGY PREDICTED BY IDOCK:   -3.98 KCAL/MOL
REMARK 923 INTER-LIGAND FREE ENERGY PREDICTED BY IDOCK:   -3.61 KCAL/MOL
REMARK 924 INTRA-LIGAND FREE ENERGY PREDICTED BY IDOCK:   -0.37 KCAL/MOL
REMARK 927      BINDING AFFINITY PREDICTED BY RF-SCORE:    0.00 PKD
ROOT
HETATM    1  O   UNL     1     -11.985  11.518  67.657  1.00  0.00    -0.630 OA 
HETATM    2  C   UNL     1     -11.277  10.400  68.210  1.00  0.00    -0.267 C  
HETATM    3  H   UNL     1     -12.598  11.218  66.995  1.00  0.00     0.000 HD 
ENDROOT
BRANCH   2   4
HETATM    4  C   UNL     1     -10.289  10.885  69.276  1.00  0.00    -0.187 C  
HETATM    5  H   UNL     1      -8.674  12.016  69.306  1.00  0.00     0.000 HD 
HETATM    6  O   UNL     1      -9.286  11.716  68.644  1.00  0.00    -0.179 OA 
BRANCH   4   7
HETATM    7  C   UNL     1      -9.511   9.771  70.004  1.00  0.00    -0.238 C  
HETATM    8  O   UNL     1      -8.257  10.312  70.454  1.00  0.00    -0.393 OA 
HETATM    9  H   UNL     1      -7.778   9.626  70.903  1.00  0.00     0.000 HD 
BRANCH   7  10
HETATM   10  C   UNL     1     -10.218   9.052  71.173  1.00  0.00    -0.293 C  
HETATM   11  H   UNL     1      -9.783   8.484  73.029  1.00  0.00     0.000 HD 
HETATM   12  O   UNL     1      -9.348   8.926  72.310  1.00  0.00    -0.360 OA 
BRANCH  10  13
HETATM   13  C   UNL     1     -10.824   7.670  70.859  1.00  0.00    -0.241 C  
HETATM   14  H   UNL     1     -12.633   6.867  70.575  1.00  0.00     0.000 HD 
HETATM   15  O   UNL     1     -12.260   7.719  70.768  1.00  0.00    -0.197 OA 
BRANCH  13  16
HETATM   16  C   UNL     1     -10.440   6.577  71.864  1.00  0.00    -0.206 C  
HETATM   17  O   UNL     1     -11.081   6.871  73.114  1.00  0.00    -0.420 OA 
HETATM   18  H   UNL     1     -10.842   6.194  73.736  1.00  0.00     0.000 HD 
ENDBRANCH  13  16
ENDBRANCH  10  13
ENDBRANCH   7  10
ENDBRANCH   4   7
ENDBRANCH   2   4
TORSDOF 5
ENDMDL
MODEL      213
REMARK 921   NORMALIZED FREE ENERGY PREDICTED BY IDOCK:   -2.42 KCAL/MOL
REMARK 922        TOTAL FREE ENERGY PREDICTED BY IDOCK:   -3.98 KCAL/MOL
REMARK 923 INTER-LIGAND FREE ENERGY PREDICTED BY IDOCK:   -3.89 KCAL/MOL
REMARK 924 INTRA-LIGAND FREE ENERGY PREDICTED BY IDOCK:   -0.09 KCAL/MOL
REMARK 927      BINDING AFFINITY PREDICTED BY RF-SCORE:    0.00 PKD
ROOT
HETATM    1  O   UNL     1     -11.766  16.351  63.692  1.00  0.00    -1.520 OA 
HETATM    2  C   UNL     1     -11.038  15.518  64.604  1.00  0.00    -0.359 C  
HETATM    3  H   UNL     1     -12.007  15.853  62.920  1.00  0.00     0.000 HD 
ENDROOT
BRANCH   2   4
HETATM    4  C   UNL     1     -10.650  16.321  65.849  1.00  0.00    -0.297 C  
HETATM    5  H   UNL     1      -9.158  17.502  66.369  1.00  0.00     0.000 HD 
HETATM    6  O   UNL     1      -9.399  17.004  65.596  1.00  0.00    -0.523 OA 
BRANCH   4   7
HETATM    7  C   UNL     1     -10.419  15.485  67.124  1.00  0.00    -0.286 C  
HETATM    8  O   UNL     1     -11.694  15.225  67.735  1.00  0.00    -0.319 OA 
HETATM    9  H   UNL     1     -11.552  14.710  68.520  1.00  0.00     0.000 HD 
BRANCH   7  10
HETATM   10  C   UNL     1      -9.631  14.166  66.980  1.00  0.00    -0.262 C  
HETATM   11  H   UNL     1      -9.965  12.318  66.322  1.00  0.00     0.000 HD 
HETATM   12  O   UNL     1     -10.449  13.129  66.411  1.00  0.00    -0.275 OA 
BRANCH  10  13
HETATM   13  C   UNL     1      -8.965  13.622  68.260  1.00  0.00    -0.187 C  
HETATM   14  H   UNL     1      -9.490  13.175  70.136  1.00  0.00     0.000 HD 
HETATM   15  O   UNL     1      -9.901  13.510  69.348  1.00  0.00     0.375 OA 
BRANCH  13  16
HETATM   16  C   UNL     1      -7.764  14.447  68.737  1.00  0.00    -0.139 C  
HETATM   17  O   UNL     1      -6.573  13.867  68.184  1.00  0.00    -0.097 OA 
HETATM   18  H   UNL     1      -5.829  14.377  68.480  1.00  0.00     0.000 HD 
ENDBRANCH  13  16
ENDBRANCH  10  13
ENDBRANCH   7  10
ENDBRANCH   4   7
ENDBRANCH   2   4
TORSDOF 5
ENDMDL
MODEL      214
REMARK 921   NORMALIZED FREE ENERGY PREDICTED BY IDOCK:   -2.42 KCAL/MOL
REMARK 922        TOTAL FREE ENERGY PREDICTED BY IDOCK:   -3.97 KCAL/MOL
REMARK 923 INTER-LIGAND FREE ENERGY PREDICTED BY IDOCK:   -3.51 KCAL/MOL
REMARK 924 INTRA-LIGAND FREE ENERGY PREDICTED BY IDOCK:   -0.45 KCAL/MOL
REMARK 927      BINDING AFFINITY PREDICTED BY RF-SCORE:    0.00 PKD
ROOT
HETATM    1  O   UNL     1      -6.249  17.013  68.800  1.00  0.00    -0.154 OA 
HETATM    2  C   UNL     1      -6.896  17.362  67.569  1.00  0.00    -0.155 C  
HETATM    3  H   UNL     1      -6.274  16.072  68.924  1.00  0.00     0.000 HD 
ENDROOT
BRANCH   2   4
HETATM    4  C   UNL     1      -6.855  18.880  67.369  1.00  0.00    -0.200 C  
HETATM    5  H   UNL     1      -6.187  20.429  68.392  1.00  0.00     0.000 HD 
HETATM    6  O   UNL     1      -6.212  19.487  68.516  1.00  0.00    -0.231 OA 
BRANCH   4   7
HETATM    7  C   UNL     1      -8.232  19.564  67.252  1.00  0.00    -0.288 C  
HETATM    8  O   UNL     1      -8.096  20.717  66.403  1.00  0.00    -0.522 OA 
HETATM    9  H   UNL     1      -8.944  21.138  66.332  1.00  0.00     0.000 HD 
BRANCH   7  10
HETATM   10  C   UNL     1      -9.419  18.702  66.775  1.00  0.00    -0.316 C  
HETATM   11  H   UNL     1     -10.822  18.782  65.366  1.00  0.00     0.000 HD 
HETATM   12  O   UNL     1     -10.091  19.312  65.660  1.00  0.00    -0.444 OA 
BRANCH  10  13
HETATM   13  C   UNL     1     -10.469  18.331  67.841  1.00  0.00    -0.388 C  
HETATM   14  H   UNL     1     -10.638  18.350  69.833  1.00  0.00     0.000 HD 
HETATM   15  O   UNL     1      -9.991  18.578  69.177  1.00  0.00    -0.335 OA 
BRANCH  13  16
HETATM   16  C   UNL     1     -10.954  16.879  67.762  1.00  0.00    -0.212 C  
HETATM   17  O   UNL     1     -10.772  16.418  66.415  1.00  0.00    -0.268 OA 
HETATM   18  H   UNL     1     -11.073  15.519  66.365  1.00  0.00     0.000 HD 
ENDBRANCH  13  16
ENDBRANCH  10  13
ENDBRANCH   7  10
ENDBRANCH   4   7
ENDBRANCH   2   4
TORSDOF 5
ENDMDL
MODEL      215
REMARK 921   NORMALIZED FREE ENERGY PREDICTED BY IDOCK:   -2.39 KCAL/MOL
REMARK 922        TOTAL FREE ENERGY PREDICTED BY IDOCK:   -3.94 KCAL/MOL
REMARK 923 INTER-LIGAND FREE ENERGY PREDICTED BY IDOCK:   -3.75 KCAL/MOL
REMARK 924 INTRA-LIGAND FREE ENERGY PREDICTED BY IDOCK:   -0.19 KCAL/MOL
REMARK 927      BINDING AFFINITY PREDICTED BY RF-SCORE:    0.00 PKD
ROOT
HETATM    1  O   UNL     1      -6.924  13.317  66.939  1.00  0.00    -0.385 OA 
HETATM    2  C   UNL     1      -7.509  14.263  67.844  1.00  0.00    -0.150 C  
HETATM    3  H   UNL     1      -6.805  12.482  67.376  1.00  0.00     0.000 HD 
ENDROOT
BRANCH   2   4
HETATM    4  C   UNL     1      -7.700  15.610  67.140  1.00  0.00    -0.223 C  
HETATM    5  H   UNL     1      -7.230  17.488  67.517  1.00  0.00     0.000 HD 
HETATM    6  O   UNL     1      -7.111  16.653  67.954  1.00  0.00    -0.134 OA 
BRANCH   4   7
HETATM    7  C   UNL     1      -9.166  16.032  66.917  1.00  0.00    -0.224 C  
HETATM    8  O   UNL     1      -9.248  17.464  67.020  1.00  0.00    -0.235 OA 
HETATM    9  H   UNL     1     -10.151  17.723  66.883  1.00  0.00     0.000 HD 
BRANCH   7  10
HETATM   10  C   UNL     1      -9.855  15.562  65.618  1.00  0.00    -0.342 C  
HETATM   11  H   UNL     1     -10.899  16.373  64.131  1.00  0.00     0.000 HD 
HETATM   12  O   UNL     1     -10.475  16.661  64.930  1.00  0.00    -0.657 OA 
BRANCH  10  13
HETATM   13  C   UNL     1     -10.886  14.425  65.763  1.00  0.00    -0.307 C  
HETATM   14  H   UNL     1     -12.317  13.564  64.663  1.00  0.00     0.000 HD 
HETATM   15  O   UNL     1     -11.682  14.265  64.574  1.00  0.00    -0.399 OA 
BRANCH  13  16
HETATM   16  C   UNL     1     -11.831  14.588  66.959  1.00  0.00    -0.385 C  
HETATM   17  O   UNL     1     -12.252  13.282  67.381  1.00  0.00    -0.312 OA 
HETATM   18  H   UNL     1     -12.837  13.383  68.121  1.00  0.00     0.000 HD 
ENDBRANCH  13  16
ENDBRANCH  10  13
ENDBRANCH   7  10
ENDBRANCH   4   7
ENDBRANCH   2   4
TORSDOF 5
ENDMDL
MODEL      216
REMARK 921   NORMALIZED FREE ENERGY PREDICTED BY IDOCK:   -2.38 KCAL/MOL
REMARK 922        TOTAL FREE ENERGY PREDICTED BY IDOCK:   -3.93 KCAL/MOL
REMARK 923 INTER-LIGAND FREE ENERGY PREDICTED BY IDOCK:   -3.45 KCAL/MOL
REMARK 924 INTRA-LIGAND FREE ENERGY PREDICTED BY IDOCK:   -0.47 KCAL/MOL
REMARK 927      BINDING AFFINITY PREDICTED BY RF-SCORE:    0.00 PKD
ROOT
HETATM    1  O   UNL     1      -8.952  13.227  67.943  1.00  0.00    -0.180 OA 
HETATM    2  C   UNL     1      -9.205  14.126  66.854  1.00  0.00    -0.257 C  
HETATM    3  H   UNL     1      -8.017  13.169  68.104  1.00  0.00     0.000 HD 
ENDROOT
BRANCH   2   4
HETATM    4  C   UNL     1     -10.712  14.219  66.595  1.00  0.00    -0.290 C  
HETATM    5  H   UNL     1     -11.863  14.643  65.049  1.00  0.00     0.000 HD 
HETATM    6  O   UNL     1     -10.928  14.585  65.210  1.00  0.00    -0.320 OA 
BRANCH   4   7
HETATM    7  C   UNL     1     -11.457  15.281  67.428  1.00  0.00    -0.241 C  
HETATM    8  O   UNL     1     -12.321  14.605  68.357  1.00  0.00    -0.603 OA 
HETATM    9  H   UNL     1     -12.781  15.260  68.871  1.00  0.00     0.000 HD 
BRANCH   7  10
HETATM   10  C   UNL     1     -10.606  16.330  68.174  1.00  0.00    -0.307 C  
HETATM   11  H   UNL     1     -10.604  17.229  69.950  1.00  0.00     0.000 HD 
HETATM   12  O   UNL     1     -11.127  16.584  69.490  1.00  0.00    -0.314 OA 
BRANCH  10  13
HETATM   13  C   UNL     1     -10.398  17.679  67.457  1.00  0.00    -0.365 C  
HETATM   14  H   UNL     1      -8.915  18.675  66.561  1.00  0.00     0.000 HD 
HETATM   15  O   UNL     1      -9.042  17.844  67.002  1.00  0.00    -0.243 OA 
BRANCH  13  16
HETATM   16  C   UNL     1     -10.777  18.900  68.303  1.00  0.00    -0.012 C  
HETATM   17  O   UNL     1      -9.715  19.148  69.236  1.00  0.00    -0.321 OA 
HETATM   18  H   UNL     1      -9.951  19.905  69.760  1.00  0.00     0.000 HD 
ENDBRANCH  13  16
ENDBRANCH  10  13
ENDBRANCH   7  10
ENDBRANCH   4   7
ENDBRANCH   2   4
TORSDOF 5
ENDMDL
MODEL      217
REMARK 921   NORMALIZED FREE ENERGY PREDICTED BY IDOCK:   -2.38 KCAL/MOL
REMARK 922        TOTAL FREE ENERGY PREDICTED BY IDOCK:   -3.92 KCAL/MOL
REMARK 923 INTER-LIGAND FREE ENERGY PREDICTED BY IDOCK:   -3.38 KCAL/MOL
REMARK 924 INTRA-LIGAND FREE ENERGY PREDICTED BY IDOCK:   -0.55 KCAL/MOL
REMARK 927      BINDING AFFINITY PREDICTED BY RF-SCORE:    0.00 PKD
ROOT
HETATM    1  O   UNL     1     -10.754   5.844  73.397  1.00  0.00    -0.248 OA 
HETATM    2  C   UNL     1     -10.375   7.210  73.620  1.00  0.00    -0.368 C  
HETATM    3  H   UNL     1     -11.195   5.501  74.165  1.00  0.00     0.000 HD 
ENDROOT
BRANCH   2   4
HETATM    4  C   UNL     1      -9.664   7.763  72.381  1.00  0.00    -0.192 C  
HETATM    5  H   UNL     1      -8.201   9.040  72.036  1.00  0.00     0.000 HD 
HETATM    6  O   UNL     1      -8.642   8.698  72.804  1.00  0.00    -0.394 OA 
BRANCH   4   7
HETATM    7  C   UNL     1     -10.563   8.542  71.401  1.00  0.00    -0.245 C  
HETATM    8  O   UNL     1      -9.857   9.721  70.976  1.00  0.00    -0.299 OA 
HETATM    9  H   UNL     1     -10.412  10.201  70.372  1.00  0.00     0.000 HD 
BRANCH   7  10
HETATM   10  C   UNL     1     -11.102   7.784  70.170  1.00  0.00    -0.209 C  
HETATM   11  H   UNL     1     -11.844   5.984  69.759  1.00  0.00     0.000 HD 
HETATM   12  O   UNL     1     -11.512   6.451  70.516  1.00  0.00    -0.349 OA 
BRANCH  10  13
HETATM   13  C   UNL     1     -10.166   7.710  68.947  1.00  0.00    -0.210 C  
HETATM   14  H   UNL     1      -8.206   7.810  68.564  1.00  0.00     0.000 HD 
HETATM   15  O   UNL     1      -8.782   7.856  69.317  1.00  0.00    -0.136 OA 
BRANCH  13  16
HETATM   16  C   UNL     1     -10.485   8.736  67.853  1.00  0.00    -0.216 C  
HETATM   17  O   UNL     1     -11.323   9.753  68.422  1.00  0.00    -0.511 OA 
HETATM   18  H   UNL     1     -11.520  10.388  67.744  1.00  0.00     0.000 HD 
ENDBRANCH  13  16
ENDBRANCH  10  13
ENDBRANCH   7  10
ENDBRANCH   4   7
ENDBRANCH   2   4
TORSDOF 5
ENDMDL
MODEL      218
REMARK 921   NORMALIZED FREE ENERGY PREDICTED BY IDOCK:   -2.38 KCAL/MOL
REMARK 922        TOTAL FREE ENERGY PREDICTED BY IDOCK:   -3.92 KCAL/MOL
REMARK 923 INTER-LIGAND FREE ENERGY PREDICTED BY IDOCK:   -4.08 KCAL/MOL
REMARK 924 INTRA-LIGAND FREE ENERGY PREDICTED BY IDOCK:    0.15 KCAL/MOL
REMARK 927      BINDING AFFINITY PREDICTED BY RF-SCORE:    0.00 PKD
ROOT
HETATM    1  O   UNL     1      -9.789  16.724  65.500  1.00  0.00    -0.564 OA 
HETATM    2  C   UNL     1     -10.969  16.027  65.078  1.00  0.00    -0.380 C  
HETATM    3  H   UNL     1      -9.641  17.478  64.942  1.00  0.00     0.000 HD 
ENDROOT
BRANCH   2   4
HETATM    4  C   UNL     1     -11.207  14.811  65.979  1.00  0.00    -0.341 C  
HETATM    5  H   UNL     1     -11.987  14.496  67.763  1.00  0.00     0.000 HD 
HETATM    6  O   UNL     1     -11.839  15.251  67.205  1.00  0.00    -0.187 OA 
BRANCH   4   7
HETATM    7  C   UNL     1      -9.935  14.056  66.413  1.00  0.00    -0.294 C  
HETATM    8  O   UNL     1      -9.543  14.533  67.711  1.00  0.00    -0.209 OA 
HETATM    9  H   UNL     1      -8.759  14.069  67.978  1.00  0.00     0.000 HD 
BRANCH   7  10
HETATM   10  C   UNL     1      -9.986  12.514  66.417  1.00  0.00    -0.252 C  
HETATM   11  H   UNL     1      -9.727  11.030  65.117  1.00  0.00     0.000 HD 
HETATM   12  O   UNL     1      -9.696  11.979  65.115  1.00  0.00    -0.228 OA 
BRANCH  10  13
HETATM   13  C   UNL     1     -11.289  11.873  66.935  1.00  0.00    -0.330 C  
HETATM   14  H   UNL     1     -13.211  11.764  66.395  1.00  0.00     0.000 HD 
HETATM   15  O   UNL     1     -12.408  12.158  66.076  1.00  0.00    -0.550 OA 
BRANCH  13  16
HETATM   16  C   UNL     1     -11.660  12.281  68.365  1.00  0.00    -0.326 C  
HETATM   17  O   UNL     1     -10.496  12.133  69.191  1.00  0.00    -0.415 OA 
HETATM   18  H   UNL     1     -10.726  12.386  70.077  1.00  0.00     0.000 HD 
ENDBRANCH  13  16
ENDBRANCH  10  13
ENDBRANCH   7  10
ENDBRANCH   4   7
ENDBRANCH   2   4
TORSDOF 5
ENDMDL
MODEL      219
REMARK 921   NORMALIZED FREE ENERGY PREDICTED BY IDOCK:   -2.35 KCAL/MOL
REMARK 922        TOTAL FREE ENERGY PREDICTED BY IDOCK:   -3.89 KCAL/MOL
REMARK 923 INTER-LIGAND FREE ENERGY PREDICTED BY IDOCK:   -3.70 KCAL/MOL
REMARK 924 INTRA-LIGAND FREE ENERGY PREDICTED BY IDOCK:   -0.18 KCAL/MOL
REMARK 927      BINDING AFFINITY PREDICTED BY RF-SCORE:    0.00 PKD
ROOT
HETATM    1  O   UNL     1     -11.206   5.609  66.387  1.00  0.00    -0.725 OA 
HETATM    2  C   UNL     1     -10.898   6.911  66.903  1.00  0.00    -0.310 C  
HETATM    3  H   UNL     1     -11.493   5.678  65.484  1.00  0.00     0.000 HD 
ENDROOT
BRANCH   2   4
HETATM    4  C   UNL     1     -10.434   6.799  68.359  1.00  0.00    -0.205 C  
HETATM    5  H   UNL     1     -11.097   5.921  69.996  1.00  0.00     0.000 HD 
HETATM    6  O   UNL     1     -11.385   5.991  69.093  1.00  0.00    -0.364 OA 
BRANCH   4   7
HETATM    7  C   UNL     1     -10.344   8.135  69.124  1.00  0.00    -0.220 C  
HETATM    8  O   UNL     1      -9.404   7.979  70.201  1.00  0.00    -0.155 OA 
HETATM    9  H   UNL     1      -9.349   8.802  70.672  1.00  0.00     0.000 HD 
BRANCH   7  10
HETATM   10  C   UNL     1     -10.001   9.401  68.311  1.00  0.00    -0.174 C  
HETATM   11  H   UNL     1      -8.602  10.817  68.313  1.00  0.00     0.000 HD 
HETATM   12  O   UNL     1      -8.814  10.037  68.813  1.00  0.00    -0.125 OA 
BRANCH  10  13
HETATM   13  C   UNL     1     -11.115  10.461  68.192  1.00  0.00    -0.285 C  
HETATM   14  H   UNL     1     -11.368  12.271  67.382  1.00  0.00     0.000 HD 
HETATM   15  O   UNL     1     -10.681  11.619  67.455  1.00  0.00    -0.198 OA 
BRANCH  13  16
HETATM   16  C   UNL     1     -11.680  10.927  69.538  1.00  0.00    -0.328 C  
HETATM   17  O   UNL     1     -13.001  10.383  69.684  1.00  0.00    -0.616 OA 
HETATM   18  H   UNL     1     -13.351  10.672  70.518  1.00  0.00     0.000 HD 
ENDBRANCH  13  16
ENDBRANCH  10  13
ENDBRANCH   7  10
ENDBRANCH   4   7
ENDBRANCH   2   4
TORSDOF 5
ENDMDL
MODEL      220
REMARK 921   NORMALIZED FREE ENERGY PREDICTED BY IDOCK:   -2.35 KCAL/MOL
REMARK 922        TOTAL FREE ENERGY PREDICTED BY IDOCK:   -3.88 KCAL/MOL
REMARK 923 INTER-LIGAND FREE ENERGY PREDICTED BY IDOCK:   -3.68 KCAL/MOL
REMARK 924 INTRA-LIGAND FREE ENERGY PREDICTED BY IDOCK:   -0.21 KCAL/MOL
REMARK 927      BINDING AFFINITY PREDICTED BY RF-SCORE:    0.00 PKD
ROOT
HETATM    1  O   UNL     1      -8.043  13.002  66.593  1.00  0.00    -0.402 OA 
HETATM    2  C   UNL     1      -9.213  13.342  67.350  1.00  0.00    -0.216 C  
HETATM    3  H   UNL     1      -7.638  13.791  66.252  1.00  0.00     0.000 HD 
ENDROOT
BRANCH   2   4
HETATM    4  C   UNL     1      -9.865  12.070  67.900  1.00  0.00    -0.196 C  
HETATM    5  H   UNL     1     -10.259  10.264  67.211  1.00  0.00     0.000 HD 
HETATM    6  O   UNL     1      -9.855  11.053  66.869  1.00  0.00    -0.185 OA 
BRANCH   4   7
HETATM    7  C   UNL     1     -11.340  12.219  68.325  1.00  0.00    -0.289 C  
HETATM    8  O   UNL     1     -12.145  11.387  67.472  1.00  0.00    -0.592 OA 
HETATM    9  H   UNL     1     -13.053  11.479  67.734  1.00  0.00     0.000 HD 
BRANCH   7  10
HETATM   10  C   UNL     1     -11.689  11.943  69.803  1.00  0.00    -0.331 C  
HETATM   11  H   UNL     1     -12.964  10.809  70.826  1.00  0.00     0.000 HD 
HETATM   12  O   UNL     1     -12.749  10.979  69.917  1.00  0.00    -0.212 OA 
BRANCH  10  13
HETATM   13  C   UNL     1     -12.045  13.173  70.663  1.00  0.00    -0.264 C  
HETATM   14  H   UNL     1     -13.588  13.833  71.749  1.00  0.00     0.000 HD 
HETATM   15  O   UNL     1     -13.369  13.076  71.219  1.00  0.00    -0.187 OA 
BRANCH  13  16
HETATM   16  C   UNL     1     -11.928  14.509  69.921  1.00  0.00    -0.328 C  
HETATM   17  O   UNL     1     -13.235  15.099  69.850  1.00  0.00    -0.475 OA 
HETATM   18  H   UNL     1     -13.162  15.927  69.390  1.00  0.00     0.000 HD 
ENDBRANCH  13  16
ENDBRANCH  10  13
ENDBRANCH   7  10
ENDBRANCH   4   7
ENDBRANCH   2   4
TORSDOF 5
ENDMDL
MODEL      221
REMARK 921   NORMALIZED FREE ENERGY PREDICTED BY IDOCK:   -2.35 KCAL/MOL
REMARK 922        TOTAL FREE ENERGY PREDICTED BY IDOCK:   -3.88 KCAL/MOL
REMARK 923 INTER-LIGAND FREE ENERGY PREDICTED BY IDOCK:   -3.39 KCAL/MOL
REMARK 924 INTRA-LIGAND FREE ENERGY PREDICTED BY IDOCK:   -0.49 KCAL/MOL
REMARK 927      BINDING AFFINITY PREDICTED BY RF-SCORE:    0.00 PKD
ROOT
HETATM    1  O   UNL     1      -8.738  17.692  68.674  1.00  0.00    -0.293 OA 
HETATM    2  C   UNL     1      -9.174  17.538  67.317  1.00  0.00    -0.240 C  
HETATM    3  H   UNL     1      -8.380  18.563  68.802  1.00  0.00     0.000 HD 
ENDROOT
BRANCH   2   4
HETATM    4  C   UNL     1      -9.751  16.134  67.111  1.00  0.00    -0.233 C  
HETATM    5  H   UNL     1     -11.103  15.314  65.931  1.00  0.00     0.000 HD 
HETATM    6  O   UNL     1     -10.745  16.185  66.059  1.00  0.00    -0.308 OA 
BRANCH   4   7
HETATM    7  C   UNL     1     -10.470  15.533  68.335  1.00  0.00    -0.240 C  
HETATM    8  O   UNL     1     -11.858  15.903  68.275  1.00  0.00    -0.349 OA 
HETATM    9  H   UNL     1     -12.300  15.533  69.029  1.00  0.00     0.000 HD 
BRANCH   7  10
HETATM   10  C   UNL     1     -10.344  14.012  68.562  1.00  0.00    -0.247 C  
HETATM   11  H   UNL     1      -9.280  12.499  67.829  1.00  0.00     0.000 HD 
HETATM   12  O   UNL     1      -9.358  13.435  67.690  1.00  0.00    -0.201 OA 
BRANCH  10  13
HETATM   13  C   UNL     1     -11.645  13.193  68.445  1.00  0.00    -0.337 C  
HETATM   14  H   UNL     1     -12.596  11.756  69.459  1.00  0.00     0.000 HD 
HETATM   15  O   UNL     1     -11.794  12.260  69.531  1.00  0.00    -0.305 OA 
BRANCH  13  16
HETATM   16  C   UNL     1     -11.784  12.426  67.125  1.00  0.00    -0.345 C  
HETATM   17  O   UNL     1     -11.221  11.117  67.305  1.00  0.00    -0.296 OA 
HETATM   18  H   UNL     1     -11.306  10.642  66.487  1.00  0.00     0.000 HD 
ENDBRANCH  13  16
ENDBRANCH  10  13
ENDBRANCH   7  10
ENDBRANCH   4   7
ENDBRANCH   2   4
TORSDOF 5
ENDMDL
MODEL      222
REMARK 921   NORMALIZED FREE ENERGY PREDICTED BY IDOCK:   -2.33 KCAL/MOL
REMARK 922        TOTAL FREE ENERGY PREDICTED BY IDOCK:   -3.86 KCAL/MOL
REMARK 923 INTER-LIGAND FREE ENERGY PREDICTED BY IDOCK:   -3.46 KCAL/MOL
REMARK 924 INTRA-LIGAND FREE ENERGY PREDICTED BY IDOCK:   -0.40 KCAL/MOL
REMARK 927      BINDING AFFINITY PREDICTED BY RF-SCORE:    0.00 PKD
ROOT
HETATM    1  O   UNL     1      -9.956   4.036  70.055  1.00  0.00    -0.190 OA 
HETATM    2  C   UNL     1      -9.945   4.003  71.489  1.00  0.00    -0.150 C  
HETATM    3  H   UNL     1      -9.941   3.150  69.711  1.00  0.00     0.000 HD 
ENDROOT
BRANCH   2   4
HETATM    4  C   UNL     1      -9.970   5.431  72.043  1.00  0.00    -0.184 C  
HETATM    5  H   UNL     1      -9.475   6.304  73.741  1.00  0.00     0.000 HD 
HETATM    6  O   UNL     1      -9.460   5.418  73.398  1.00  0.00    -0.134 OA 
BRANCH   4   7
HETATM    7  C   UNL     1     -11.367   6.077  72.129  1.00  0.00    -0.299 C  
HETATM    8  O   UNL     1     -12.100   5.435  73.187  1.00  0.00    -0.528 OA 
HETATM    9  H   UNL     1     -12.961   5.834  73.240  1.00  0.00     0.000 HD 
BRANCH   7  10
HETATM   10  C   UNL     1     -11.436   7.609  72.302  1.00  0.00    -0.317 C  
HETATM   11  H   UNL     1     -12.767   9.062  72.024  1.00  0.00     0.000 HD 
HETATM   12  O   UNL     1     -12.724   8.119  71.918  1.00  0.00    -0.313 OA 
BRANCH  10  13
HETATM   13  C   UNL     1     -10.347   8.429  71.582  1.00  0.00    -0.243 C  
HETATM   14  H   UNL     1      -8.589   9.275  72.018  1.00  0.00     0.000 HD 
HETATM   15  O   UNL     1      -9.259   8.770  72.462  1.00  0.00    -0.347 OA 
BRANCH  13  16
HETATM   16  C   UNL     1     -10.863   9.716  70.929  1.00  0.00    -0.339 C  
HETATM   17  O   UNL     1     -11.399   9.381  69.640  1.00  0.00    -0.417 OA 
HETATM   18  H   UNL     1     -11.719  10.179  69.235  1.00  0.00     0.000 HD 
ENDBRANCH  13  16
ENDBRANCH  10  13
ENDBRANCH   7  10
ENDBRANCH   4   7
ENDBRANCH   2   4
TORSDOF 5
ENDMDL
MODEL      223
REMARK 921   NORMALIZED FREE ENERGY PREDICTED BY IDOCK:   -2.32 KCAL/MOL
REMARK 922        TOTAL FREE ENERGY PREDICTED BY IDOCK:   -3.84 KCAL/MOL
REMARK 923 INTER-LIGAND FREE ENERGY PREDICTED BY IDOCK:   -3.24 KCAL/MOL
REMARK 924 INTRA-LIGAND FREE ENERGY PREDICTED BY IDOCK:   -0.60 KCAL/MOL
REMARK 927      BINDING AFFINITY PREDICTED BY RF-SCORE:    0.00 PKD
ROOT
HETATM    1  O   UNL     1     -11.556  12.455  70.286  1.00  0.00    -0.525 OA 
HETATM    2  C   UNL     1     -11.942  11.398  69.396  1.00  0.00    -0.339 C  
HETATM    3  H   UNL     1     -11.676  13.296  69.861  1.00  0.00     0.000 HD 
ENDROOT
BRANCH   2   4
HETATM    4  C   UNL     1     -11.748  10.042  70.082  1.00  0.00    -0.215 C  
HETATM    5  H   UNL     1     -11.957   9.333  71.911  1.00  0.00     0.000 HD 
HETATM    6  O   UNL     1     -12.077  10.175  71.486  1.00  0.00    -0.377 OA 
BRANCH   4   7
HETATM    7  C   UNL     1     -10.311   9.484  70.040  1.00  0.00    -0.247 C  
HETATM    8  O   UNL     1      -9.401  10.586  69.882  1.00  0.00    -0.404 OA 
HETATM    9  H   UNL     1      -8.515  10.242  69.856  1.00  0.00     0.000 HD 
BRANCH   7  10
HETATM   10  C   UNL     1      -9.856   8.596  71.217  1.00  0.00    -0.238 C  
HETATM   11  H   UNL     1      -8.324   8.505  72.484  1.00  0.00     0.000 HD 
HETATM   12  O   UNL     1      -8.604   9.051  71.759  1.00  0.00    -0.353 OA 
BRANCH  10  13
HETATM   13  C   UNL     1      -9.751   7.084  70.934  1.00  0.00    -0.174 C  
HETATM   14  H   UNL     1      -9.505   5.390  71.965  1.00  0.00     0.000 HD 
HETATM   15  O   UNL     1      -9.570   6.321  72.140  1.00  0.00    -0.152 OA 
BRANCH  13  16
HETATM   16  C   UNL     1      -8.635   6.710  69.951  1.00  0.00    -0.140 C  
HETATM   17  O   UNL     1      -7.428   6.502  70.700  1.00  0.00    -0.077 OA 
HETATM   18  H   UNL     1      -6.737   6.270  70.092  1.00  0.00     0.000 HD 
ENDBRANCH  13  16
ENDBRANCH  10  13
ENDBRANCH   7  10
ENDBRANCH   4   7
ENDBRANCH   2   4
TORSDOF 5
ENDMDL
MODEL      224
REMARK 921   NORMALIZED FREE ENERGY PREDICTED BY IDOCK:   -2.32 KCAL/MOL
REMARK 922        TOTAL FREE ENERGY PREDICTED BY IDOCK:   -3.84 KCAL/MOL
REMARK 923 INTER-LIGAND FREE ENERGY PREDICTED BY IDOCK:   -3.38 KCAL/MOL
REMARK 924 INTRA-LIGAND FREE ENERGY PREDICTED BY IDOCK:   -0.45 KCAL/MOL
REMARK 927      BINDING AFFINITY PREDICTED BY RF-SCORE:    0.00 PKD
ROOT
HETATM    1  O   UNL     1      -7.995  10.685  64.766  1.00  0.00    -0.315 OA 
HETATM    2  C   UNL     1      -8.085  10.740  66.197  1.00  0.00    -0.160 C  
HETATM    3  H   UNL     1      -7.086  10.738  64.497  1.00  0.00     0.000 HD 
ENDROOT
BRANCH   2   4
HETATM    4  C   UNL     1      -9.552  10.654  66.631  1.00  0.00    -0.175 C  
HETATM    5  H   UNL     1     -11.194   9.817  65.929  1.00  0.00     0.000 HD 
HETATM    6  O   UNL     1     -10.284   9.870  65.659  1.00  0.00    -0.269 OA 
BRANCH   4   7
HETATM    7  C   UNL     1     -10.290  12.005  66.719  1.00  0.00    -0.207 C  
HETATM    8  O   UNL     1     -11.705  11.753  66.684  1.00  0.00    -0.548 OA 
HETATM    9  H   UNL     1     -12.160  12.585  66.739  1.00  0.00     0.000 HD 
BRANCH   7  10
HETATM   10  C   UNL     1      -9.953  12.927  67.910  1.00  0.00    -0.233 C  
HETATM   11  H   UNL     1     -10.676  13.309  69.724  1.00  0.00     0.000 HD 
HETATM   12  O   UNL     1     -10.883  12.743  68.991  1.00  0.00    -0.225 OA 
BRANCH  10  13
HETATM   13  C   UNL     1      -9.847  14.434  67.601  1.00  0.00    -0.224 C  
HETATM   14  H   UNL     1      -9.816  16.161  68.607  1.00  0.00     0.000 HD 
HETATM   15  O   UNL     1      -9.882  15.233  68.798  1.00  0.00    -0.201 OA 
BRANCH  13  16
HETATM   16  C   UNL     1     -10.925  14.952  66.642  1.00  0.00    -0.325 C  
HETATM   17  O   UNL     1     -12.204  14.792  67.274  1.00  0.00    -0.502 OA 
HETATM   18  H   UNL     1     -12.871  15.112  66.679  1.00  0.00     0.000 HD 
ENDBRANCH  13  16
ENDBRANCH  10  13
ENDBRANCH   7  10
ENDBRANCH   4   7
ENDBRANCH   2   4
TORSDOF 5
ENDMDL
MODEL      225
REMARK 921   NORMALIZED FREE ENERGY PREDICTED BY IDOCK:   -2.30 KCAL/MOL
REMARK 922        TOTAL FREE ENERGY PREDICTED BY IDOCK:   -3.82 KCAL/MOL
REMARK 923 INTER-LIGAND FREE ENERGY PREDICTED BY IDOCK:   -3.93 KCAL/MOL
REMARK 924 INTRA-LIGAND FREE ENERGY PREDICTED BY IDOCK:    0.12 KCAL/MOL
REMARK 927      BINDING AFFINITY PREDICTED BY RF-SCORE:    0.00 PKD
ROOT
HETATM    1  O   UNL     1      -8.705  14.271  66.052  1.00  0.00    -0.314 OA 
HETATM    2  C   UNL     1      -8.741  13.677  67.357  1.00  0.00    -0.213 C  
HETATM    3  H   UNL     1      -8.008  14.915  66.009  1.00  0.00     0.000 HD 
ENDROOT
BRANCH   2   4
HETATM    4  C   UNL     1      -9.866  12.639  67.426  1.00  0.00    -0.205 C  
HETATM    5  H   UNL     1     -10.607  11.440  68.806  1.00  0.00     0.000 HD 
HETATM    6  O   UNL     1      -9.910  12.083  68.763  1.00  0.00    -0.158 OA 
BRANCH   4   7
HETATM    7  C   UNL     1      -9.706  11.433  66.479  1.00  0.00    -0.200 C  
HETATM    8  O   UNL     1     -10.040  10.237  67.204  1.00  0.00    -0.191 OA 
HETATM    9  H   UNL     1      -9.941   9.495  66.620  1.00  0.00     0.000 HD 
BRANCH   7  10
HETATM   10  C   UNL     1     -10.478  11.467  65.143  1.00  0.00    -0.295 C  
HETATM   11  H   UNL     1     -10.056  11.584  63.202  1.00  0.00     0.000 HD 
HETATM   12  O   UNL     1      -9.581  11.563  64.024  1.00  0.00    -0.224 OA 
BRANCH  10  13
HETATM   13  C   UNL     1     -11.559  12.558  65.005  1.00  0.00    -0.349 C  
HETATM   14  H   UNL     1     -13.059  13.315  66.088  1.00  0.00     0.000 HD 
HETATM   15  O   UNL     1     -12.394  12.642  66.174  1.00  0.00    -0.570 OA 
BRANCH  13  16
HETATM   16  C   UNL     1     -12.460  12.392  63.777  1.00  0.00    -0.492 C  
HETATM   17  O   UNL     1     -12.058  13.354  62.790  1.00  0.00    -0.722 OA 
HETATM   18  H   UNL     1     -12.617  13.250  62.029  1.00  0.00     0.000 HD 
ENDBRANCH  13  16
ENDBRANCH  10  13
ENDBRANCH   7  10
ENDBRANCH   4   7
ENDBRANCH   2   4
TORSDOF 5
ENDMDL
MODEL      226
REMARK 921   NORMALIZED FREE ENERGY PREDICTED BY IDOCK:   -2.28 KCAL/MOL
REMARK 922        TOTAL FREE ENERGY PREDICTED BY IDOCK:   -3.79 KCAL/MOL
REMARK 923 INTER-LIGAND FREE ENERGY PREDICTED BY IDOCK:   -3.37 KCAL/MOL
REMARK 924 INTRA-LIGAND FREE ENERGY PREDICTED BY IDOCK:   -0.42 KCAL/MOL
REMARK 927      BINDING AFFINITY PREDICTED BY RF-SCORE:    0.00 PKD
ROOT
HETATM    1  O   UNL     1      -8.814  10.959  69.449  1.00  0.00    -0.380 OA 
HETATM    2  C   UNL     1      -9.910  11.028  68.526  1.00  0.00    -0.192 C  
HETATM    3  H   UNL     1      -8.978  10.284  70.097  1.00  0.00     0.000 HD 
ENDROOT
BRANCH   2   4
HETATM    4  C   UNL     1      -9.645  12.117  67.482  1.00  0.00    -0.179 C  
HETATM    5  H   UNL     1      -8.478  13.701  67.348  1.00  0.00     0.000 HD 
HETATM    6  O   UNL     1      -8.642  13.026  67.996  1.00  0.00    -0.168 OA 
BRANCH   4   7
HETATM    7  C   UNL     1     -10.861  12.994  67.126  1.00  0.00    -0.260 C  
HETATM    8  O   UNL     1     -11.976  12.575  67.931  1.00  0.00    -0.351 OA 
HETATM    9  H   UNL     1     -12.725  13.115  67.711  1.00  0.00     0.000 HD 
BRANCH   7  10
HETATM   10  C   UNL     1     -10.691  14.525  67.227  1.00  0.00    -0.287 C  
HETATM   11  H   UNL     1     -11.326  16.001  68.401  1.00  0.00     0.000 HD 
HETATM   12  O   UNL     1     -11.430  15.059  68.338  1.00  0.00    -0.295 OA 
BRANCH  10  13
HETATM   13  C   UNL     1     -11.043  15.337  65.964  1.00  0.00    -0.278 C  
HETATM   14  H   UNL     1     -11.214  15.031  63.996  1.00  0.00     0.000 HD 
HETATM   15  O   UNL     1     -10.997  14.530  64.773  1.00  0.00    -0.390 OA 
BRANCH  13  16
HETATM   16  C   UNL     1     -10.158  16.570  65.749  1.00  0.00    -0.303 C  
HETATM   17  O   UNL     1     -10.096  17.300  66.983  1.00  0.00    -0.285 OA 
HETATM   18  H   UNL     1      -9.547  18.064  66.849  1.00  0.00     0.000 HD 
ENDBRANCH  13  16
ENDBRANCH  10  13
ENDBRANCH   7  10
ENDBRANCH   4   7
ENDBRANCH   2   4
TORSDOF 5
ENDMDL
MODEL      227
REMARK 921   NORMALIZED FREE ENERGY PREDICTED BY IDOCK:   -2.27 KCAL/MOL
REMARK 922        TOTAL FREE ENERGY PREDICTED BY IDOCK:   -3.79 KCAL/MOL
REMARK 923 INTER-LIGAND FREE ENERGY PREDICTED BY IDOCK:   -3.23 KCAL/MOL
REMARK 924 INTRA-LIGAND FREE ENERGY PREDICTED BY IDOCK:   -0.56 KCAL/MOL
REMARK 927      BINDING AFFINITY PREDICTED BY RF-SCORE:    0.00 PKD
ROOT
HETATM    1  O   UNL     1     -11.895   5.617  72.832  1.00  0.00    -0.523 OA 
HETATM    2  C   UNL     1     -10.895   6.646  72.850  1.00  0.00    -0.262 C  
HETATM    3  H   UNL     1     -12.691   5.932  73.244  1.00  0.00     0.000 HD 
ENDROOT
BRANCH   2   4
HETATM    4  C   UNL     1      -9.612   6.138  72.185  1.00  0.00    -0.150 C  
HETATM    5  H   UNL     1      -7.768   6.804  71.964  1.00  0.00     0.000 HD 
HETATM    6  O   UNL     1      -8.564   7.119  72.377  1.00  0.00    -0.118 OA 
BRANCH   4   7
HETATM    7  C   UNL     1      -9.704   5.918  70.662  1.00  0.00    -0.176 C  
HETATM    8  O   UNL     1     -10.273   4.619  70.423  1.00  0.00    -0.227 OA 
HETATM    9  H   UNL     1     -10.330   4.484  69.485  1.00  0.00     0.000 HD 
BRANCH   7  10
HETATM   10  C   UNL     1     -10.459   6.978  69.832  1.00  0.00    -0.217 C  
HETATM   11  H   UNL     1     -12.323   7.317  69.225  1.00  0.00     0.000 HD 
HETATM   12  O   UNL     1     -11.858   6.665  69.736  1.00  0.00    -0.299 OA 
BRANCH  10  13
HETATM   13  C   UNL     1      -9.916   7.251  68.415  1.00  0.00    -0.161 C  
HETATM   14  H   UNL     1     -10.180   8.588  66.951  1.00  0.00     0.000 HD 
HETATM   15  O   UNL     1     -10.514   8.420  67.824  1.00  0.00    -0.236 OA 
BRANCH  13  16
HETATM   16  C   UNL     1     -10.085   6.077  67.444  1.00  0.00    -0.163 C  
HETATM   17  O   UNL     1     -11.330   6.245  66.749  1.00  0.00    -0.698 OA 
HETATM   18  H   UNL     1     -11.435   5.517  66.147  1.00  0.00     0.000 HD 
ENDBRANCH  13  16
ENDBRANCH  10  13
ENDBRANCH   7  10
ENDBRANCH   4   7
ENDBRANCH   2   4
TORSDOF 5
ENDMDL
MODEL      228
REMARK 921   NORMALIZED FREE ENERGY PREDICTED BY IDOCK:   -2.27 KCAL/MOL
REMARK 922        TOTAL FREE ENERGY PREDICTED BY IDOCK:   -3.78 KCAL/MOL
REMARK 923 INTER-LIGAND FREE ENERGY PREDICTED BY IDOCK:   -3.07 KCAL/MOL
REMARK 924 INTRA-LIGAND FREE ENERGY PREDICTED BY IDOCK:   -0.71 KCAL/MOL
REMARK 927      BINDING AFFINITY PREDICTED BY RF-SCORE:    0.00 PKD
ROOT
HETATM    1  O   UNL     1      -8.162   5.437  68.744  1.00  0.00    -0.093 OA 
HETATM    2  C   UNL     1      -7.816   5.535  70.133  1.00  0.00    -0.089 C  
HETATM    3  H   UNL     1      -7.466   5.002  68.267  1.00  0.00     0.000 HD 
ENDROOT
BRANCH   2   4
HETATM    4  C   UNL     1      -8.938   6.237  70.903  1.00  0.00    -0.147 C  
HETATM    5  H   UNL     1      -9.309   6.671  72.791  1.00  0.00     0.000 HD 
HETATM    6  O   UNL     1      -8.613   6.235  72.314  1.00  0.00    -0.119 OA 
BRANCH   4   7
HETATM    7  C   UNL     1     -10.325   5.572  70.793  1.00  0.00    -0.251 C  
HETATM    8  O   UNL     1     -10.612   4.912  72.038  1.00  0.00    -0.201 OA 
HETATM    9  H   UNL     1     -11.467   4.503  71.970  1.00  0.00     0.000 HD 
BRANCH   7  10
HETATM   10  C   UNL     1     -11.516   6.467  70.390  1.00  0.00    -0.393 C  
HETATM   11  H   UNL     1     -11.805   8.188  69.434  1.00  0.00     0.000 HD 
HETATM   12  O   UNL     1     -11.073   7.637  69.683  1.00  0.00    -0.186 OA 
BRANCH  10  13
HETATM   13  C   UNL     1     -12.459   6.905  71.528  1.00  0.00    -0.375 C  
HETATM   14  H   UNL     1     -14.358   7.491  71.745  1.00  0.00     0.000 HD 
HETATM   15  O   UNL     1     -13.778   7.221  71.044  1.00  0.00    -0.244 OA 
BRANCH  13  16
HETATM   16  C   UNL     1     -11.944   8.098  72.341  1.00  0.00    -0.372 C  
HETATM   17  O   UNL     1     -11.207   7.591  73.464  1.00  0.00    -0.603 OA 
HETATM   18  H   UNL     1     -10.888   8.330  73.968  1.00  0.00     0.000 HD 
ENDBRANCH  13  16
ENDBRANCH  10  13
ENDBRANCH   7  10
ENDBRANCH   4   7
ENDBRANCH   2   4
TORSDOF 5
ENDMDL
MODEL      229
REMARK 921   NORMALIZED FREE ENERGY PREDICTED BY IDOCK:   -2.27 KCAL/MOL
REMARK 922        TOTAL FREE ENERGY PREDICTED BY IDOCK:   -3.78 KCAL/MOL
REMARK 923 INTER-LIGAND FREE ENERGY PREDICTED BY IDOCK:   -2.87 KCAL/MOL
REMARK 924 INTRA-LIGAND FREE ENERGY PREDICTED BY IDOCK:   -0.92 KCAL/MOL
REMARK 927      BINDING AFFINITY PREDICTED BY RF-SCORE:    0.00 PKD
ROOT
HETATM    1  O   UNL     1     -11.106   5.588  66.813  1.00  0.00    -0.496 OA 
HETATM    2  C   UNL     1     -10.999   7.016  66.893  1.00  0.00    -0.201 C  
HETATM    3  H   UNL     1     -11.420   5.335  65.953  1.00  0.00     0.000 HD 
ENDROOT
BRANCH   2   4
HETATM    4  C   UNL     1     -10.493   7.424  68.280  1.00  0.00    -0.189 C  
HETATM    5  H   UNL     1      -8.733   7.615  69.149  1.00  0.00     0.000 HD 
HETATM    6  O   UNL     1      -9.046   7.362  68.289  1.00  0.00    -0.130 OA 
BRANCH   4   7
HETATM    7  C   UNL     1     -10.957   6.521  69.440  1.00  0.00    -0.337 C  
HETATM    8  O   UNL     1      -9.951   5.518  69.666  1.00  0.00    -0.177 OA 
HETATM    9  H   UNL     1     -10.237   4.961  70.380  1.00  0.00     0.000 HD 
BRANCH   7  10
HETATM   10  C   UNL     1     -11.321   7.203  70.776  1.00  0.00    -0.289 C  
HETATM   11  H   UNL     1     -11.824   9.022  71.408  1.00  0.00     0.000 HD 
HETATM   12  O   UNL     1     -11.600   8.601  70.587  1.00  0.00    -0.271 OA 
BRANCH  10  13
HETATM   13  C   UNL     1     -10.300   7.054  71.922  1.00  0.00    -0.192 C  
HETATM   14  H   UNL     1     -10.310   6.922  73.916  1.00  0.00     0.000 HD 
HETATM   15  O   UNL     1     -10.939   7.014  73.211  1.00  0.00    -0.303 OA 
BRANCH  13  16
HETATM   16  C   UNL     1      -9.226   8.148  71.948  1.00  0.00    -0.182 C  
HETATM   17  O   UNL     1      -8.171   7.763  71.053  1.00  0.00    -0.100 OA 
HETATM   18  H   UNL     1      -7.506   8.440  71.070  1.00  0.00     0.000 HD 
ENDBRANCH  13  16
ENDBRANCH  10  13
ENDBRANCH   7  10
ENDBRANCH   4   7
ENDBRANCH   2   4
TORSDOF 5
ENDMDL
MODEL      230
REMARK 921   NORMALIZED FREE ENERGY PREDICTED BY IDOCK:   -2.27 KCAL/MOL
REMARK 922        TOTAL FREE ENERGY PREDICTED BY IDOCK:   -3.78 KCAL/MOL
REMARK 923 INTER-LIGAND FREE ENERGY PREDICTED BY IDOCK:   -3.15 KCAL/MOL
REMARK 924 INTRA-LIGAND FREE ENERGY PREDICTED BY IDOCK:   -0.63 KCAL/MOL
REMARK 927      BINDING AFFINITY PREDICTED BY RF-SCORE:    0.00 PKD
ROOT
HETATM    1  O   UNL     1     -12.243  12.193  66.559  1.00  0.00    -0.584 OA 
HETATM    2  C   UNL     1     -11.056  11.393  66.480  1.00  0.00    -0.251 C  
HETATM    3  H   UNL     1     -13.012  11.638  66.503  1.00  0.00     0.000 HD 
ENDROOT
BRANCH   2   4
HETATM    4  C   UNL     1      -9.816  12.288  66.571  1.00  0.00    -0.229 C  
HETATM    5  H   UNL     1      -7.882  12.073  66.247  1.00  0.00     0.000 HD 
HETATM    6  O   UNL     1      -8.651  11.517  66.191  1.00  0.00    -0.170 OA 
BRANCH   4   7
HETATM    7  C   UNL     1      -9.509  12.844  67.976  1.00  0.00    -0.213 C  
HETATM    8  O   UNL     1      -8.118  12.617  68.260  1.00  0.00    -0.152 OA 
HETATM    9  H   UNL     1      -7.929  12.959  69.126  1.00  0.00     0.000 HD 
BRANCH   7  10
HETATM   10  C   UNL     1      -9.864  14.319  68.254  1.00  0.00    -0.235 C  
HETATM   11  H   UNL     1      -9.037  15.886  69.161  1.00  0.00     0.000 HD 
HETATM   12  O   UNL     1      -8.819  14.977  68.990  1.00  0.00    -0.197 OA 
BRANCH  10  13
HETATM   13  C   UNL     1     -11.207  14.578  68.966  1.00  0.00    -0.268 C  
HETATM   14  H   UNL     1     -13.153  14.616  68.507  1.00  0.00     0.000 HD 
HETATM   15  O   UNL     1     -12.326  14.457  68.068  1.00  0.00    -0.201 OA 
BRANCH  13  16
HETATM   16  C   UNL     1     -11.292  15.941  69.663  1.00  0.00    -0.342 C  
HETATM   17  O   UNL     1     -11.097  16.964  68.676  1.00  0.00    -0.303 OA 
HETATM   18  H   UNL     1     -11.149  17.808  69.108  1.00  0.00     0.000 HD 
ENDBRANCH  13  16
ENDBRANCH  10  13
ENDBRANCH   7  10
ENDBRANCH   4   7
ENDBRANCH   2   4
TORSDOF 5
ENDMDL
MODEL      231
REMARK 921   NORMALIZED FREE ENERGY PREDICTED BY IDOCK:   -2.26 KCAL/MOL
REMARK 922        TOTAL FREE ENERGY PREDICTED BY IDOCK:   -3.77 KCAL/MOL
REMARK 923 INTER-LIGAND FREE ENERGY PREDICTED BY IDOCK:   -3.37 KCAL/MOL
REMARK 924 INTRA-LIGAND FREE ENERGY PREDICTED BY IDOCK:   -0.41 KCAL/MOL
REMARK 927      BINDING AFFINITY PREDICTED BY RF-SCORE:    0.00 PKD
ROOT
HETATM    1  O   UNL     1      -8.196  12.845  68.925  1.00  0.00    -0.340 OA 
HETATM    2  C   UNL     1      -7.492  13.837  68.164  1.00  0.00    -0.124 C  
HETATM    3  H   UNL     1      -7.583  12.209  69.273  1.00  0.00     0.000 HD 
ENDROOT
BRANCH   2   4
HETATM    4  C   UNL     1      -8.481  14.864  67.603  1.00  0.00    -0.167 C  
HETATM    5  H   UNL     1      -8.354  16.540  66.572  1.00  0.00     0.000 HD 
HETATM    6  O   UNL     1      -7.740  15.904  66.920  1.00  0.00    -0.213 OA 
BRANCH   4   7
HETATM    7  C   UNL     1      -9.343  15.588  68.656  1.00  0.00    -0.201 C  
HETATM    8  O   UNL     1      -8.939  16.967  68.703  1.00  0.00    -0.257 OA 
HETATM    9  H   UNL     1      -9.470  17.414  69.352  1.00  0.00     0.000 HD 
BRANCH   7  10
HETATM   10  C   UNL     1     -10.876  15.498  68.508  1.00  0.00    -0.272 C  
HETATM   11  H   UNL     1     -12.418  16.750  68.388  1.00  0.00     0.000 HD 
HETATM   12  O   UNL     1     -11.474  16.805  68.479  1.00  0.00    -0.198 OA 
BRANCH  10  13
HETATM   13  C   UNL     1     -11.616  14.640  69.555  1.00  0.00    -0.310 C  
HETATM   14  H   UNL     1     -12.677  12.947  69.610  1.00  0.00     0.000 HD 
HETATM   15  O   UNL     1     -12.221  13.475  68.966  1.00  0.00    -0.320 OA 
BRANCH  13  16
HETATM   16  C   UNL     1     -12.691  15.401  70.338  1.00  0.00    -0.362 C  
HETATM   17  O   UNL     1     -12.035  16.288  71.257  1.00  0.00    -0.602 OA 
HETATM   18  H   UNL     1     -12.701  16.759  71.743  1.00  0.00     0.000 HD 
ENDBRANCH  13  16
ENDBRANCH  10  13
ENDBRANCH   7  10
ENDBRANCH   4   7
ENDBRANCH   2   4
TORSDOF 5
ENDMDL
MODEL      232
REMARK 921   NORMALIZED FREE ENERGY PREDICTED BY IDOCK:   -2.26 KCAL/MOL
REMARK 922        TOTAL FREE ENERGY PREDICTED BY IDOCK:   -3.76 KCAL/MOL
REMARK 923 INTER-LIGAND FREE ENERGY PREDICTED BY IDOCK:   -3.37 KCAL/MOL
REMARK 924 INTRA-LIGAND FREE ENERGY PREDICTED BY IDOCK:   -0.39 KCAL/MOL
REMARK 927      BINDING AFFINITY PREDICTED BY RF-SCORE:    0.00 PKD
ROOT
HETATM    1  O   UNL     1      -7.973  11.413  65.695  1.00  0.00    -0.366 OA 
HETATM    2  C   UNL     1      -7.656  11.855  67.022  1.00  0.00    -0.134 C  
HETATM    3  H   UNL     1      -7.176  11.184  65.232  1.00  0.00     0.000 HD 
ENDROOT
BRANCH   2   4
HETATM    4  C   UNL     1      -8.942  12.224  67.770  1.00  0.00    -0.177 C  
HETATM    5  H   UNL     1     -10.768  11.491  67.900  1.00  0.00     0.000 HD 
HETATM    6  O   UNL     1      -9.971  11.262  67.437  1.00  0.00    -0.180 OA 
BRANCH   4   7
HETATM    7  C   UNL     1      -9.531  13.605  67.419  1.00  0.00    -0.225 C  
HETATM    8  O   UNL     1      -9.324  13.845  66.017  1.00  0.00    -0.485 OA 
HETATM    9  H   UNL     1      -9.688  14.696  65.801  1.00  0.00     0.000 HD 
BRANCH   7  10
HETATM   10  C   UNL     1     -11.009  13.862  67.780  1.00  0.00    -0.256 C  
HETATM   11  H   UNL     1     -12.565  14.833  67.007  1.00  0.00     0.000 HD 
HETATM   12  O   UNL     1     -11.655  14.675  66.785  1.00  0.00    -0.365 OA 
BRANCH  10  13
HETATM   13  C   UNL     1     -11.278  14.477  69.169  1.00  0.00    -0.269 C  
HETATM   14  H   UNL     1     -12.680  14.386  70.591  1.00  0.00     0.000 HD 
HETATM   15  O   UNL     1     -12.515  14.007  69.736  1.00  0.00    -0.325 OA 
BRANCH  13  16
HETATM   16  C   UNL     1     -11.291  16.010  69.181  1.00  0.00    -0.352 C  
HETATM   17  O   UNL     1     -10.126  16.475  68.484  1.00  0.00    -0.233 OA 
HETATM   18  H   UNL     1     -10.134  17.424  68.492  1.00  0.00     0.000 HD 
ENDBRANCH  13  16
ENDBRANCH  10  13
ENDBRANCH   7  10
ENDBRANCH   4   7
ENDBRANCH   2   4
TORSDOF 5
ENDMDL
MODEL      233
REMARK 921   NORMALIZED FREE ENERGY PREDICTED BY IDOCK:   -2.26 KCAL/MOL
REMARK 922        TOTAL FREE ENERGY PREDICTED BY IDOCK:   -3.76 KCAL/MOL
REMARK 923 INTER-LIGAND FREE ENERGY PREDICTED BY IDOCK:   -3.40 KCAL/MOL
REMARK 924 INTRA-LIGAND FREE ENERGY PREDICTED BY IDOCK:   -0.36 KCAL/MOL
REMARK 927      BINDING AFFINITY PREDICTED BY RF-SCORE:    0.00 PKD
ROOT
HETATM    1  O   UNL     1     -10.920   7.866  67.323  1.00  0.00    -0.518 OA 
HETATM    2  C   UNL     1     -10.489   9.209  67.061  1.00  0.00    -0.240 C  
HETATM    3  H   UNL     1     -10.522   7.271  66.698  1.00  0.00     0.000 HD 
ENDROOT
BRANCH   2   4
HETATM    4  C   UNL     1     -11.131  10.168  68.069  1.00  0.00    -0.240 C  
HETATM    5  H   UNL     1     -12.075  11.897  67.980  1.00  0.00     0.000 HD 
HETATM    6  O   UNL     1     -11.677  11.303  67.355  1.00  0.00    -0.580 OA 
BRANCH   4   7
HETATM    7  C   UNL     1     -10.167  10.759  69.118  1.00  0.00    -0.211 C  
HETATM    8  O   UNL     1     -10.653  10.415  70.427  1.00  0.00    -0.431 OA 
HETATM    9  H   UNL     1     -10.059  10.779  71.072  1.00  0.00     0.000 HD 
BRANCH   7  10
HETATM   10  C   UNL     1      -8.673  10.392  69.002  1.00  0.00    -0.168 C  
HETATM   11  H   UNL     1      -7.231   9.704  70.189  1.00  0.00     0.000 HD 
HETATM   12  O   UNL     1      -8.151   9.931  70.259  1.00  0.00    -0.181 OA 
BRANCH  10  13
HETATM   13  C   UNL     1      -7.739  11.489  68.452  1.00  0.00    -0.129 C  
HETATM   14  H   UNL     1      -6.147  12.532  69.063  1.00  0.00     0.000 HD 
HETATM   15  O   UNL     1      -6.722  11.857  69.402  1.00  0.00    -0.109 OA 
BRANCH  13  16
HETATM   16  C   UNL     1      -8.466  12.761  68.004  1.00  0.00    -0.177 C  
HETATM   17  O   UNL     1      -8.543  12.754  66.570  1.00  0.00    -0.416 OA 
HETATM   18  H   UNL     1      -8.993  13.543  66.293  1.00  0.00     0.000 HD 
ENDBRANCH  13  16
ENDBRANCH  10  13
ENDBRANCH   7  10
ENDBRANCH   4   7
ENDBRANCH   2   4
TORSDOF 5
ENDMDL
MODEL      234
REMARK 921   NORMALIZED FREE ENERGY PREDICTED BY IDOCK:   -2.25 KCAL/MOL
REMARK 922        TOTAL FREE ENERGY PREDICTED BY IDOCK:   -3.76 KCAL/MOL
REMARK 923 INTER-LIGAND FREE ENERGY PREDICTED BY IDOCK:   -3.61 KCAL/MOL
REMARK 924 INTRA-LIGAND FREE ENERGY PREDICTED BY IDOCK:   -0.15 KCAL/MOL
REMARK 927      BINDING AFFINITY PREDICTED BY RF-SCORE:    0.00 PKD
ROOT
HETATM    1  O   UNL     1      -6.881  18.515  68.542  1.00  0.00    -0.245 OA 
HETATM    2  C   UNL     1      -8.124  18.356  67.844  1.00  0.00    -0.259 C  
HETATM    3  H   UNL     1      -6.343  19.163  68.102  1.00  0.00     0.000 HD 
ENDROOT
BRANCH   2   4
HETATM    4  C   UNL     1      -8.992  17.313  68.554  1.00  0.00    -0.273 C  
HETATM    5  H   UNL     1      -8.774  16.091  70.087  1.00  0.00     0.000 HD 
HETATM    6  O   UNL     1      -8.236  16.738  69.647  1.00  0.00     0.225 OA 
BRANCH   4   7
HETATM    7  C   UNL     1      -9.433  16.121  67.680  1.00  0.00    -0.220 C  
HETATM    8  O   UNL     1      -9.432  14.936  68.494  1.00  0.00    -0.197 OA 
HETATM    9  H   UNL     1      -9.703  14.202  67.956  1.00  0.00     0.000 HD 
BRANCH   7  10
HETATM   10  C   UNL     1     -10.778  16.242  66.935  1.00  0.00    -0.217 C  
HETATM   11  H   UNL     1     -12.465  15.199  66.767  1.00  0.00     0.000 HD 
HETATM   12  O   UNL     1     -11.637  15.126  67.225  1.00  0.00    -0.323 OA 
BRANCH  10  13
HETATM   13  C   UNL     1     -10.701  16.419  65.405  1.00  0.00    -0.296 C  
HETATM   14  H   UNL     1     -10.936  17.880  64.062  1.00  0.00     0.000 HD 
HETATM   15  O   UNL     1     -10.984  17.772  65.004  1.00  0.00    -0.784 OA 
BRANCH  13  16
HETATM   16  C   UNL     1     -11.622  15.478  64.620  1.00  0.00    -0.281 C  
HETATM   17  O   UNL     1     -11.953  16.110  63.374  1.00  0.00    -0.743 OA 
HETATM   18  H   UNL     1     -12.524  15.527  62.888  1.00  0.00     0.000 HD 
ENDBRANCH  13  16
ENDBRANCH  10  13
ENDBRANCH   7  10
ENDBRANCH   4   7
ENDBRANCH   2   4
TORSDOF 5
ENDMDL
MODEL      235
REMARK 921   NORMALIZED FREE ENERGY PREDICTED BY IDOCK:   -2.25 KCAL/MOL
REMARK 922        TOTAL FREE ENERGY PREDICTED BY IDOCK:   -3.75 KCAL/MOL
REMARK 923 INTER-LIGAND FREE ENERGY PREDICTED BY IDOCK:   -2.95 KCAL/MOL
REMARK 924 INTRA-LIGAND FREE ENERGY PREDICTED BY IDOCK:   -0.80 KCAL/MOL
REMARK 927      BINDING AFFINITY PREDICTED BY RF-SCORE:    0.00 PKD
ROOT
HETATM    1  O   UNL     1     -11.649   4.634  65.184  1.00  0.00    -1.107 OA 
HETATM    2  C   UNL     1     -10.368   4.455  65.805  1.00  0.00    -0.217 C  
HETATM    3  H   UNL     1     -11.809   3.933  64.564  1.00  0.00     0.000 HD 
ENDROOT
BRANCH   2   4
HETATM    4  C   UNL     1     -10.110   5.586  66.805  1.00  0.00    -0.207 C  
HETATM    5  H   UNL     1      -8.848   7.095  66.947  1.00  0.00     0.000 HD 
HETATM    6  O   UNL     1      -9.008   6.394  66.327  1.00  0.00    -0.150 OA 
BRANCH   4   7
HETATM    7  C   UNL     1      -9.709   5.130  68.222  1.00  0.00    -0.142 C  
HETATM    8  O   UNL     1      -8.275   5.157  68.320  1.00  0.00    -0.093 OA 
HETATM    9  H   UNL     1      -8.028   4.876  69.193  1.00  0.00     0.000 HD 
BRANCH   7  10
HETATM   10  C   UNL     1     -10.328   5.885  69.417  1.00  0.00    -0.247 C  
HETATM   11  H   UNL     1     -11.710   7.285  69.716  1.00  0.00     0.000 HD 
HETATM   12  O   UNL     1     -11.329   6.820  68.981  1.00  0.00    -0.183 OA 
BRANCH  10  13
HETATM   13  C   UNL     1      -9.342   6.618  70.349  1.00  0.00    -0.159 C  
HETATM   14  H   UNL     1      -9.085   6.912  72.310  1.00  0.00     0.000 HD 
HETATM   15  O   UNL     1      -9.693   6.461  71.736  1.00  0.00    -0.161 OA 
BRANCH  13  16
HETATM   16  C   UNL     1      -9.197   8.115  70.053  1.00  0.00    -0.155 C  
HETATM   17  O   UNL     1      -8.761   8.263  68.693  1.00  0.00    -0.132 OA 
HETATM   18  H   UNL     1      -8.671   9.191  68.509  1.00  0.00     0.000 HD 
ENDBRANCH  13  16
ENDBRANCH  10  13
ENDBRANCH   7  10
ENDBRANCH   4   7
ENDBRANCH   2   4
TORSDOF 5
ENDMDL
MODEL      236
REMARK 921   NORMALIZED FREE ENERGY PREDICTED BY IDOCK:   -2.24 KCAL/MOL
REMARK 922        TOTAL FREE ENERGY PREDICTED BY IDOCK:   -3.74 KCAL/MOL
REMARK 923 INTER-LIGAND FREE ENERGY PREDICTED BY IDOCK:   -3.57 KCAL/MOL
REMARK 924 INTRA-LIGAND FREE ENERGY PREDICTED BY IDOCK:   -0.17 KCAL/MOL
REMARK 927      BINDING AFFINITY PREDICTED BY RF-SCORE:    0.00 PKD
ROOT
HETATM    1  O   UNL     1      -9.461   3.724  69.140  1.00  0.00    -0.165 OA 
HETATM    2  C   UNL     1      -9.126   5.105  68.947  1.00  0.00    -0.107 C  
HETATM    3  H   UNL     1      -9.095   3.201  68.436  1.00  0.00     0.000 HD 
ENDROOT
BRANCH   2   4
HETATM    4  C   UNL     1      -9.715   5.947  70.083  1.00  0.00    -0.168 C  
HETATM    5  H   UNL     1     -10.889   5.618  71.633  1.00  0.00     0.000 HD 
HETATM    6  O   UNL     1     -10.524   5.095  70.929  1.00  0.00    -0.237 OA 
BRANCH   4   7
HETATM    7  C   UNL     1     -10.644   7.094  69.636  1.00  0.00    -0.234 C  
HETATM    8  O   UNL     1     -12.005   6.644  69.743  1.00  0.00    -0.654 OA 
HETATM    9  H   UNL     1     -12.577   7.351  69.468  1.00  0.00     0.000 HD 
BRANCH   7  10
HETATM   10  C   UNL     1     -10.487   8.457  70.342  1.00  0.00    -0.214 C  
HETATM   11  H   UNL     1     -11.441   9.510  71.736  1.00  0.00     0.000 HD 
HETATM   12  O   UNL     1     -11.537   8.671  71.300  1.00  0.00    -0.264 OA 
BRANCH  10  13
HETATM   13  C   UNL     1     -10.393   9.695  69.428  1.00  0.00    -0.213 C  
HETATM   14  H   UNL     1      -9.055  11.108  68.969  1.00  0.00     0.000 HD 
HETATM   15  O   UNL     1      -9.113  10.346  69.532  1.00  0.00    -0.183 OA 
BRANCH  13  16
HETATM   16  C   UNL     1     -11.488  10.738  69.676  1.00  0.00    -0.305 C  
HETATM   17  O   UNL     1     -12.349  10.767  68.528  1.00  0.00    -0.825 OA 
HETATM   18  H   UNL     1     -13.028  11.413  68.682  1.00  0.00     0.000 HD 
ENDBRANCH  13  16
ENDBRANCH  10  13
ENDBRANCH   7  10
ENDBRANCH   4   7
ENDBRANCH   2   4
TORSDOF 5
ENDMDL
MODEL      237
REMARK 921   NORMALIZED FREE ENERGY PREDICTED BY IDOCK:   -2.24 KCAL/MOL
REMARK 922        TOTAL FREE ENERGY PREDICTED BY IDOCK:   -3.74 KCAL/MOL
REMARK 923 INTER-LIGAND FREE ENERGY PREDICTED BY IDOCK:   -3.24 KCAL/MOL
REMARK 924 INTRA-LIGAND FREE ENERGY PREDICTED BY IDOCK:   -0.50 KCAL/MOL
REMARK 927      BINDING AFFINITY PREDICTED BY RF-SCORE:    0.00 PKD
ROOT
HETATM    1  O   UNL     1      -8.305  12.813  68.922  1.00  0.00    -0.346 OA 
HETATM    2  C   UNL     1      -7.047  13.226  68.369  1.00  0.00    -0.107 C  
HETATM    3  H   UNL     1      -8.196  11.999  69.400  1.00  0.00     0.000 HD 
ENDROOT
BRANCH   2   4
HETATM    4  C   UNL     1      -7.222  14.538  67.598  1.00  0.00    -0.187 C  
HETATM    5  H   UNL     1      -6.026  15.936  66.888  1.00  0.00     0.000 HD 
HETATM    6  O   UNL     1      -5.918  15.123  67.366  1.00  0.00    -0.334 OA 
BRANCH   4   7
HETATM    7  C   UNL     1      -8.042  15.622  68.325  1.00  0.00    -0.134 C  
HETATM    8  O   UNL     1      -7.720  15.573  69.726  1.00  0.00    -0.182 OA 
HETATM    9  H   UNL     1      -8.225  16.241  70.174  1.00  0.00     0.000 HD 
BRANCH   7  10
HETATM   10  C   UNL     1      -7.921  17.072  67.812  1.00  0.00    -0.185 C  
HETATM   11  H   UNL     1      -8.396  18.900  68.442  1.00  0.00     0.000 HD 
HETATM   12  O   UNL     1      -8.470  18.007  68.757  1.00  0.00    -0.285 OA 
BRANCH  10  13
HETATM   13  C   UNL     1      -8.528  17.361  66.425  1.00  0.00    -0.257 C  
HETATM   14  H   UNL     1      -8.027  18.341  64.755  1.00  0.00     0.000 HD 
HETATM   15  O   UNL     1      -7.653  18.163  65.610  1.00  0.00    -0.538 OA 
BRANCH  13  16
HETATM   16  C   UNL     1      -9.902  18.038  66.472  1.00  0.00    -0.353 C  
HETATM   17  O   UNL     1     -10.727  17.315  67.398  1.00  0.00    -0.329 OA 
HETATM   18  H   UNL     1     -11.579  17.734  67.427  1.00  0.00     0.000 HD 
ENDBRANCH  13  16
ENDBRANCH  10  13
ENDBRANCH   7  10
ENDBRANCH   4   7
ENDBRANCH   2   4
TORSDOF 5
ENDMDL
MODEL      238
REMARK 921   NORMALIZED FREE ENERGY PREDICTED BY IDOCK:   -2.24 KCAL/MOL
REMARK 922        TOTAL FREE ENERGY PREDICTED BY IDOCK:   -3.74 KCAL/MOL
REMARK 923 INTER-LIGAND FREE ENERGY PREDICTED BY IDOCK:   -3.43 KCAL/MOL
REMARK 924 INTRA-LIGAND FREE ENERGY PREDICTED BY IDOCK:   -0.31 KCAL/MOL
REMARK 927      BINDING AFFINITY PREDICTED BY RF-SCORE:    0.00 PKD
ROOT
HETATM    1  O   UNL     1      -8.841   5.112  70.870  1.00  0.00    -0.129 OA 
HETATM    2  C   UNL     1     -10.268   4.994  70.800  1.00  0.00    -0.229 C  
HETATM    3  H   UNL     1      -8.492   4.468  71.476  1.00  0.00     0.000 HD 
ENDROOT
BRANCH   2   4
HETATM    4  C   UNL     1     -10.830   6.032  69.823  1.00  0.00    -0.363 C  
HETATM    5  H   UNL     1     -10.103   7.156  68.374  1.00  0.00     0.000 HD 
HETATM    6  O   UNL     1      -9.755   6.513  68.980  1.00  0.00    -0.135 OA 
BRANCH   4   7
HETATM    7  C   UNL     1     -11.441   7.286  70.477  1.00  0.00    -0.279 C  
HETATM    8  O   UNL     1     -12.862   7.096  70.586  1.00  0.00    -0.609 OA 
HETATM    9  H   UNL     1     -13.238   7.870  70.989  1.00  0.00     0.000 HD 
BRANCH   7  10
HETATM   10  C   UNL     1     -10.868   7.732  71.839  1.00  0.00    -0.235 C  
HETATM   11  H   UNL     1     -11.558   8.464  73.556  1.00  0.00     0.000 HD 
HETATM   12  O   UNL     1     -11.910   8.190  72.718  1.00  0.00    -0.389 OA 
BRANCH  10  13
HETATM   13  C   UNL     1      -9.754   8.796  71.799  1.00  0.00    -0.310 C  
HETATM   14  H   UNL     1      -8.837   9.941  70.440  1.00  0.00     0.000 HD 
HETATM   15  O   UNL     1      -9.524   9.286  70.465  1.00  0.00    -0.224 OA 
BRANCH  13  16
HETATM   16  C   UNL     1      -8.416   8.322  72.377  1.00  0.00    -0.190 C  
HETATM   17  O   UNL     1      -8.415   8.592  73.787  1.00  0.00    -0.337 OA 
HETATM   18  H   UNL     1      -7.586   8.298  74.145  1.00  0.00     0.000 HD 
ENDBRANCH  13  16
ENDBRANCH  10  13
ENDBRANCH   7  10
ENDBRANCH   4   7
ENDBRANCH   2   4
TORSDOF 5
ENDMDL
MODEL      239
REMARK 921   NORMALIZED FREE ENERGY PREDICTED BY IDOCK:   -2.23 KCAL/MOL
REMARK 922        TOTAL FREE ENERGY PREDICTED BY IDOCK:   -3.73 KCAL/MOL
REMARK 923 INTER-LIGAND FREE ENERGY PREDICTED BY IDOCK:   -3.31 KCAL/MOL
REMARK 924 INTRA-LIGAND FREE ENERGY PREDICTED BY IDOCK:   -0.41 KCAL/MOL
REMARK 927      BINDING AFFINITY PREDICTED BY RF-SCORE:    0.00 PKD
ROOT
HETATM    1  O   UNL     1     -10.734  16.767  70.280  1.00  0.00    -0.194 OA 
HETATM    2  C   UNL     1     -11.321  15.637  70.939  1.00  0.00    -0.380 C  
HETATM    3  H   UNL     1     -10.495  17.427  70.921  1.00  0.00     0.000 HD 
ENDROOT
BRANCH   2   4
HETATM    4  C   UNL     1     -11.706  14.573  69.906  1.00  0.00    -0.299 C  
HETATM    5  H   UNL     1     -12.477  12.758  69.958  1.00  0.00     0.000 HD 
HETATM    6  O   UNL     1     -12.239  13.418  70.599  1.00  0.00    -0.356 OA 
BRANCH   4   7
HETATM    7  C   UNL     1     -10.543  14.044  69.044  1.00  0.00    -0.187 C  
HETATM    8  O   UNL     1     -10.458  12.619  69.221  1.00  0.00    -0.436 OA 
HETATM    9  H   UNL     1      -9.741  12.293  68.690  1.00  0.00     0.000 HD 
BRANCH   7  10
HETATM   10  C   UNL     1     -10.557  14.383  67.539  1.00  0.00    -0.265 C  
HETATM   11  H   UNL     1     -11.646  13.924  65.938  1.00  0.00     0.000 HD 
HETATM   12  O   UNL     1     -11.637  13.715  66.864  1.00  0.00    -0.332 OA 
BRANCH  10  13
HETATM   13  C   UNL     1      -9.251  14.117  66.765  1.00  0.00    -0.266 C  
HETATM   14  H   UNL     1      -8.135  12.549  66.222  1.00  0.00     0.000 HD 
HETATM   15  O   UNL     1      -8.940  12.713  66.699  1.00  0.00    -0.217 OA 
BRANCH  13  16
HETATM   16  C   UNL     1      -8.031  14.858  67.324  1.00  0.00    -0.209 C  
HETATM   17  O   UNL     1      -6.981  13.901  67.533  1.00  0.00    -0.172 OA 
HETATM   18  H   UNL     1      -6.226  14.360  67.880  1.00  0.00     0.000 HD 
ENDBRANCH  13  16
ENDBRANCH  10  13
ENDBRANCH   7  10
ENDBRANCH   4   7
ENDBRANCH   2   4
TORSDOF 5
ENDMDL
MODEL      240
REMARK 921   NORMALIZED FREE ENERGY PREDICTED BY IDOCK:   -2.22 KCAL/MOL
REMARK 922        TOTAL FREE ENERGY PREDICTED BY IDOCK:   -3.72 KCAL/MOL
REMARK 923 INTER-LIGAND FREE ENERGY PREDICTED BY IDOCK:   -3.21 KCAL/MOL
REMARK 924 INTRA-LIGAND FREE ENERGY PREDICTED BY IDOCK:   -0.51 KCAL/MOL
REMARK 927      BINDING AFFINITY PREDICTED BY RF-SCORE:    0.00 PKD
ROOT
HETATM    1  O   UNL     1     -11.860   5.559  72.894  1.00  0.00    -0.513 OA 
HETATM    2  C   UNL     1     -10.560   6.160  72.820  1.00  0.00    -0.228 C  
HETATM    3  H   UNL     1     -11.895   4.954  73.626  1.00  0.00     0.000 HD 
ENDROOT
BRANCH   2   4
HETATM    4  C   UNL     1     -10.503   7.135  71.640  1.00  0.00    -0.198 C  
HETATM    5  H   UNL     1     -11.039   9.006  71.318  1.00  0.00     0.000 HD 
HETATM    6  O   UNL     1     -11.074   8.401  72.049  1.00  0.00    -0.280 OA 
BRANCH   4   7
HETATM    7  C   UNL     1     -11.297   6.703  70.392  1.00  0.00    -0.365 C  
HETATM    8  O   UNL     1     -12.532   7.439  70.361  1.00  0.00    -0.542 OA 
HETATM    9  H   UNL     1     -13.022   7.172  69.592  1.00  0.00     0.000 HD 
BRANCH   7  10
HETATM   10  C   UNL     1     -10.592   6.810  69.023  1.00  0.00    -0.230 C  
HETATM   11  H   UNL     1      -9.169   5.844  68.022  1.00  0.00     0.000 HD 
HETATM   12  O   UNL     1      -9.604   5.778  68.864  1.00  0.00    -0.124 OA 
BRANCH  10  13
HETATM   13  C   UNL     1      -9.943   8.170  68.692  1.00  0.00    -0.190 C  
HETATM   14  H   UNL     1     -10.315  10.110  68.997  1.00  0.00     0.000 HD 
HETATM   15  O   UNL     1     -10.714   9.273  69.201  1.00  0.00    -0.224 OA 
BRANCH  13  16
HETATM   16  C   UNL     1      -9.701   8.398  67.196  1.00  0.00    -0.190 C  
HETATM   17  O   UNL     1      -8.567   7.612  66.800  1.00  0.00    -0.122 OA 
HETATM   18  H   UNL     1      -8.416   7.754  65.873  1.00  0.00     0.000 HD 
ENDBRANCH  13  16
ENDBRANCH  10  13
ENDBRANCH   7  10
ENDBRANCH   4   7
ENDBRANCH   2   4
TORSDOF 5
ENDMDL
MODEL      241
REMARK 921   NORMALIZED FREE ENERGY PREDICTED BY IDOCK:   -2.22 KCAL/MOL
REMARK 922        TOTAL FREE ENERGY PREDICTED BY IDOCK:   -3.72 KCAL/MOL
REMARK 923 INTER-LIGAND FREE ENERGY PREDICTED BY IDOCK:   -3.43 KCAL/MOL
REMARK 924 INTRA-LIGAND FREE ENERGY PREDICTED BY IDOCK:   -0.29 KCAL/MOL
REMARK 927      BINDING AFFINITY PREDICTED BY RF-SCORE:    0.00 PKD
ROOT
HETATM    1  O   UNL     1      -7.890  11.378  69.468  1.00  0.00    -0.363 OA 
HETATM    2  C   UNL     1      -8.684  10.262  69.042  1.00  0.00    -0.163 C  
HETATM    3  H   UNL     1      -7.554  11.844  68.711  1.00  0.00     0.000 HD 
ENDROOT
BRANCH   2   4
HETATM    4  C   UNL     1      -9.225   9.510  70.262  1.00  0.00    -0.258 C  
HETATM    5  H   UNL     1      -8.955   7.731  71.068  1.00  0.00     0.000 HD 
HETATM    6  O   UNL     1      -8.619   8.196  70.311  1.00  0.00    -0.127 OA 
BRANCH   4   7
HETATM    7  C   UNL     1     -10.748   9.268  70.261  1.00  0.00    -0.243 C  
HETATM    8  O   UNL     1     -11.023   8.102  71.058  1.00  0.00    -0.235 OA 
HETATM    9  H   UNL     1     -11.961   7.953  71.057  1.00  0.00     0.000 HD 
BRANCH   7  10
HETATM   10  C   UNL     1     -11.657  10.432  70.709  1.00  0.00    -0.358 C  
HETATM   11  H   UNL     1     -13.297  10.678  71.807  1.00  0.00     0.000 HD 
HETATM   12  O   UNL     1     -12.738   9.962  71.532  1.00  0.00    -0.349 OA 
BRANCH  10  13
HETATM   13  C   UNL     1     -12.238  11.316  69.588  1.00  0.00    -0.271 C  
HETATM   14  H   UNL     1     -12.425  11.268  67.598  1.00  0.00     0.000 HD 
HETATM   15  O   UNL     1     -12.066  10.722  68.288  1.00  0.00    -0.496 OA 
BRANCH  13  16
HETATM   16  C   UNL     1     -11.662  12.736  69.551  1.00  0.00    -0.318 C  
HETATM   17  O   UNL     1     -11.267  13.026  68.202  1.00  0.00    -0.243 OA 
HETATM   18  H   UNL     1     -10.910  13.906  68.180  1.00  0.00     0.000 HD 
ENDBRANCH  13  16
ENDBRANCH  10  13
ENDBRANCH   7  10
ENDBRANCH   4   7
ENDBRANCH   2   4
TORSDOF 5
ENDMDL
MODEL      242
REMARK 921   NORMALIZED FREE ENERGY PREDICTED BY IDOCK:   -2.21 KCAL/MOL
REMARK 922        TOTAL FREE ENERGY PREDICTED BY IDOCK:   -3.70 KCAL/MOL
REMARK 923 INTER-LIGAND FREE ENERGY PREDICTED BY IDOCK:   -3.74 KCAL/MOL
REMARK 924 INTRA-LIGAND FREE ENERGY PREDICTED BY IDOCK:    0.04 KCAL/MOL
REMARK 927      BINDING AFFINITY PREDICTED BY RF-SCORE:    0.00 PKD
ROOT
HETATM    1  O   UNL     1      -9.073  14.763  69.796  1.00  0.00    -0.418 OA 
HETATM    2  C   UNL     1      -9.214  13.744  68.797  1.00  0.00     0.018 C  
HETATM    3  H   UNL     1      -8.214  15.162  69.732  1.00  0.00     0.000 HD 
ENDROOT
BRANCH   2   4
HETATM    4  C   UNL     1     -10.600  13.100  68.900  1.00  0.00    -0.131 C  
HETATM    5  H   UNL     1     -11.450  11.448  68.237  1.00  0.00     0.000 HD 
HETATM    6  O   UNL     1     -10.591  11.847  68.173  1.00  0.00    -0.194 OA 
BRANCH   4   7
HETATM    7  C   UNL     1     -11.754  13.924  68.297  1.00  0.00    -0.361 C  
HETATM    8  O   UNL     1     -12.194  14.878  69.280  1.00  0.00    -0.495 OA 
HETATM    9  H   UNL     1     -12.905  15.386  68.909  1.00  0.00     0.000 HD 
BRANCH   7  10
HETATM   10  C   UNL     1     -11.495  14.641  66.955  1.00  0.00    -0.368 C  
HETATM   11  H   UNL     1     -10.997  14.142  65.094  1.00  0.00     0.000 HD 
HETATM   12  O   UNL     1     -11.156  13.702  65.920  1.00  0.00    -0.285 OA 
BRANCH  10  13
HETATM   13  C   UNL     1     -10.436  15.761  66.970  1.00  0.00    -0.309 C  
HETATM   14  H   UNL     1     -10.105  17.483  67.930  1.00  0.00     0.000 HD 
HETATM   15  O   UNL     1     -10.757  16.793  67.922  1.00  0.00    -0.344 OA 
BRANCH  13  16
HETATM   16  C   UNL     1     -10.202  16.417  65.605  1.00  0.00    -0.324 C  
HETATM   17  O   UNL     1      -9.554  17.680  65.818  1.00  0.00    -0.524 OA 
HETATM   18  H   UNL     1      -9.409  18.087  64.972  1.00  0.00     0.000 HD 
ENDBRANCH  13  16
ENDBRANCH  10  13
ENDBRANCH   7  10
ENDBRANCH   4   7
ENDBRANCH   2   4
TORSDOF 5
ENDMDL
MODEL      243
REMARK 921   NORMALIZED FREE ENERGY PREDICTED BY IDOCK:   -2.20 KCAL/MOL
REMARK 922        TOTAL FREE ENERGY PREDICTED BY IDOCK:   -3.69 KCAL/MOL
REMARK 923 INTER-LIGAND FREE ENERGY PREDICTED BY IDOCK:   -3.35 KCAL/MOL
REMARK 924 INTRA-LIGAND FREE ENERGY PREDICTED BY IDOCK:   -0.34 KCAL/MOL
REMARK 927      BINDING AFFINITY PREDICTED BY RF-SCORE:    0.00 PKD
ROOT
HETATM    1  O   UNL     1      -7.837  16.805  68.555  1.00  0.00    -0.206 OA 
HETATM    2  C   UNL     1      -8.247  15.589  67.914  1.00  0.00    -0.143 C  
HETATM    3  H   UNL     1      -6.889  16.875  68.542  1.00  0.00     0.000 HD 
ENDROOT
BRANCH   2   4
HETATM    4  C   UNL     1      -9.774  15.477  67.936  1.00  0.00    -0.211 C  
HETATM    5  H   UNL     1     -11.171  15.389  69.325  1.00  0.00     0.000 HD 
HETATM    6  O   UNL     1     -10.224  15.458  69.312  1.00  0.00    -0.221 OA 
BRANCH   4   7
HETATM    7  C   UNL     1     -10.348  14.200  67.291  1.00  0.00    -0.267 C  
HETATM    8  O   UNL     1      -9.795  14.069  65.970  1.00  0.00    -0.300 OA 
HETATM    9  H   UNL     1     -10.149  13.282  65.573  1.00  0.00     0.000 HD 
BRANCH   7  10
HETATM   10  C   UNL     1     -10.179  12.874  68.061  1.00  0.00    -0.229 C  
HETATM   11  H   UNL     1      -8.763  11.502  68.335  1.00  0.00     0.000 HD 
HETATM   12  O   UNL     1      -8.868  12.318  67.861  1.00  0.00    -0.163 OA 
BRANCH  10  13
HETATM   13  C   UNL     1     -11.227  11.779  67.778  1.00  0.00    -0.266 C  
HETATM   14  H   UNL     1     -12.737  11.456  66.509  1.00  0.00     0.000 HD 
HETATM   15  O   UNL     1     -12.092  12.130  66.683  1.00  0.00    -0.622 OA 
BRANCH  13  16
HETATM   16  C   UNL     1     -12.099  11.421  68.987  1.00  0.00    -0.249 C  
HETATM   17  O   UNL     1     -11.310  11.587  70.175  1.00  0.00    -0.475 OA 
HETATM   18  H   UNL     1     -11.850  11.366  70.924  1.00  0.00     0.000 HD 
ENDBRANCH  13  16
ENDBRANCH  10  13
ENDBRANCH   7  10
ENDBRANCH   4   7
ENDBRANCH   2   4
TORSDOF 5
ENDMDL
MODEL      244
REMARK 921   NORMALIZED FREE ENERGY PREDICTED BY IDOCK:   -2.20 KCAL/MOL
REMARK 922        TOTAL FREE ENERGY PREDICTED BY IDOCK:   -3.69 KCAL/MOL
REMARK 923 INTER-LIGAND FREE ENERGY PREDICTED BY IDOCK:   -3.79 KCAL/MOL
REMARK 924 INTRA-LIGAND FREE ENERGY PREDICTED BY IDOCK:    0.10 KCAL/MOL
REMARK 927      BINDING AFFINITY PREDICTED BY RF-SCORE:    0.00 PKD
ROOT
HETATM    1  O   UNL     1     -11.795  10.642  68.199  1.00  0.00    -0.748 OA 
HETATM    2  C   UNL     1     -11.904  12.002  68.641  1.00  0.00    -0.311 C  
HETATM    3  H   UNL     1     -12.491  10.121  68.582  1.00  0.00     0.000 HD 
ENDROOT
BRANCH   2   4
HETATM    4  C   UNL     1     -10.782  12.843  68.023  1.00  0.00    -0.228 C  
HETATM    5  H   UNL     1      -9.834  14.509  68.491  1.00  0.00     0.000 HD 
HETATM    6  O   UNL     1     -10.530  13.987  68.874  1.00  0.00    -0.236 OA 
BRANCH   4   7
HETATM    7  C   UNL     1     -11.088  13.421  66.627  1.00  0.00    -0.295 C  
HETATM    8  O   UNL     1     -11.208  14.849  66.742  1.00  0.00    -0.335 OA 
HETATM    9  H   UNL     1     -11.397  15.205  65.882  1.00  0.00     0.000 HD 
BRANCH   7  10
HETATM   10  C   UNL     1     -10.116  13.070  65.481  1.00  0.00    -0.259 C  
HETATM   11  H   UNL     1     -10.147  13.012  63.492  1.00  0.00     0.000 HD 
HETATM   12  O   UNL     1     -10.745  13.227  64.198  1.00  0.00    -0.405 OA 
BRANCH  10  13
HETATM   13  C   UNL     1      -9.460  11.676  65.541  1.00  0.00    -0.195 C  
HETATM   14  H   UNL     1     -10.031   9.768  65.715  1.00  0.00     0.000 HD 
HETATM   15  O   UNL     1     -10.436  10.627  65.678  1.00  0.00    -0.236 OA 
BRANCH  13  16
HETATM   16  C   UNL     1      -8.424  11.522  66.660  1.00  0.00    -0.172 C  
HETATM   17  O   UNL     1      -7.118  11.497  66.064  1.00  0.00    -0.366 OA 
HETATM   18  H   UNL     1      -6.476  11.401  66.757  1.00  0.00     0.000 HD 
ENDBRANCH  13  16
ENDBRANCH  10  13
ENDBRANCH   7  10
ENDBRANCH   4   7
ENDBRANCH   2   4
TORSDOF 5
ENDMDL
MODEL      245
REMARK 921   NORMALIZED FREE ENERGY PREDICTED BY IDOCK:   -2.19 KCAL/MOL
REMARK 922        TOTAL FREE ENERGY PREDICTED BY IDOCK:   -3.67 KCAL/MOL
REMARK 923 INTER-LIGAND FREE ENERGY PREDICTED BY IDOCK:   -2.93 KCAL/MOL
REMARK 924 INTRA-LIGAND FREE ENERGY PREDICTED BY IDOCK:   -0.74 KCAL/MOL
REMARK 927      BINDING AFFINITY PREDICTED BY RF-SCORE:    0.00 PKD
ROOT
HETATM    1  O   UNL     1     -13.060   7.643  72.277  1.00  0.00    -0.495 OA 
HETATM    2  C   UNL     1     -12.022   8.622  72.129  1.00  0.00    -0.379 C  
HETATM    3  H   UNL     1     -13.910   8.064  72.226  1.00  0.00     0.000 HD 
ENDROOT
BRANCH   2   4
HETATM    4  C   UNL     1     -10.650   7.944  72.210  1.00  0.00    -0.271 C  
HETATM    5  H   UNL     1      -8.803   8.519  72.592  1.00  0.00     0.000 HD 
HETATM    6  O   UNL     1      -9.653   8.940  72.542  1.00  0.00    -0.252 OA 
BRANCH   4   7
HETATM    7  C   UNL     1     -10.165   7.286  70.902  1.00  0.00    -0.196 C  
HETATM    8  O   UNL     1     -11.161   6.343  70.470  1.00  0.00    -0.278 OA 
HETATM    9  H   UNL     1     -10.861   5.938  69.665  1.00  0.00     0.000 HD 
BRANCH   7  10
HETATM   10  C   UNL     1      -9.786   8.218  69.732  1.00  0.00    -0.187 C  
HETATM   11  H   UNL     1     -10.321   8.488  67.834  1.00  0.00     0.000 HD 
HETATM   12  O   UNL     1     -10.553   7.914  68.555  1.00  0.00    -0.187 OA 
BRANCH  10  13
HETATM   13  C   UNL     1      -8.293   8.266  69.350  1.00  0.00    -0.122 C  
HETATM   14  H   UNL     1      -6.588   7.375  69.893  1.00  0.00     0.000 HD 
HETATM   15  O   UNL     1      -7.508   7.346  70.129  1.00  0.00    -0.083 OA 
BRANCH  13  16
HETATM   16  C   UNL     1      -7.664   9.659  69.464  1.00  0.00    -0.109 C  
HETATM   17  O   UNL     1      -7.603  10.011  70.854  1.00  0.00    -0.376 OA 
HETATM   18  H   UNL     1      -7.213  10.874  70.925  1.00  0.00     0.000 HD 
ENDBRANCH  13  16
ENDBRANCH  10  13
ENDBRANCH   7  10
ENDBRANCH   4   7
ENDBRANCH   2   4
TORSDOF 5
ENDMDL
MODEL      246
REMARK 921   NORMALIZED FREE ENERGY PREDICTED BY IDOCK:   -2.17 KCAL/MOL
REMARK 922        TOTAL FREE ENERGY PREDICTED BY IDOCK:   -3.65 KCAL/MOL
REMARK 923 INTER-LIGAND FREE ENERGY PREDICTED BY IDOCK:   -3.48 KCAL/MOL
REMARK 924 INTRA-LIGAND FREE ENERGY PREDICTED BY IDOCK:   -0.17 KCAL/MOL
REMARK 927      BINDING AFFINITY PREDICTED BY RF-SCORE:    0.00 PKD
ROOT
HETATM    1  O   UNL     1     -11.574   6.798  66.917  1.00  0.00    -0.683 OA 
HETATM    2  C   UNL     1     -10.200   7.089  66.626  1.00  0.00    -0.148 C  
HETATM    3  H   UNL     1     -11.880   6.092  66.360  1.00  0.00     0.000 HD 
ENDROOT
BRANCH   2   4
HETATM    4  C   UNL     1      -9.706   8.227  67.525  1.00  0.00    -0.165 C  
HETATM    5  H   UNL     1      -9.255   8.435  69.434  1.00  0.00     0.000 HD 
HETATM    6  O   UNL     1      -9.562   7.729  68.877  1.00  0.00    -0.153 OA 
BRANCH   4   7
HETATM    7  C   UNL     1     -10.651   9.441  67.626  1.00  0.00    -0.271 C  
HETATM    8  O   UNL     1     -11.177   9.498  68.963  1.00  0.00    -0.433 OA 
HETATM    9  H   UNL     1     -11.759  10.246  69.025  1.00  0.00     0.000 HD 
BRANCH   7  10
HETATM   10  C   UNL     1     -10.086  10.821  67.228  1.00  0.00    -0.196 C  
HETATM   11  H   UNL     1      -9.626  12.536  68.126  1.00  0.00     0.000 HD 
HETATM   12  O   UNL     1      -9.974  11.687  68.370  1.00  0.00    -0.191 OA 
BRANCH  10  13
HETATM   13  C   UNL     1     -10.837  11.572  66.111  1.00  0.00    -0.278 C  
HETATM   14  H   UNL     1     -10.783  11.719  64.118  1.00  0.00     0.000 HD 
HETATM   15  O   UNL     1     -10.320  11.256  64.805  1.00  0.00    -0.270 OA 
BRANCH  13  16
HETATM   16  C   UNL     1     -10.838  13.096  66.275  1.00  0.00    -0.279 C  
HETATM   17  O   UNL     1     -12.197  13.555  66.208  1.00  0.00    -0.417 OA 
HETATM   18  H   UNL     1     -12.197  14.499  66.309  1.00  0.00     0.000 HD 
ENDBRANCH  13  16
ENDBRANCH  10  13
ENDBRANCH   7  10
ENDBRANCH   4   7
ENDBRANCH   2   4
TORSDOF 5
ENDMDL
MODEL      247
REMARK 921   NORMALIZED FREE ENERGY PREDICTED BY IDOCK:   -2.17 KCAL/MOL
REMARK 922        TOTAL FREE ENERGY PREDICTED BY IDOCK:   -3.65 KCAL/MOL
REMARK 923 INTER-LIGAND FREE ENERGY PREDICTED BY IDOCK:   -4.15 KCAL/MOL
REMARK 924 INTRA-LIGAND FREE ENERGY PREDICTED BY IDOCK:    0.50 KCAL/MOL
REMARK 927      BINDING AFFINITY PREDICTED BY RF-SCORE:    0.00 PKD
ROOT
HETATM    1  O   UNL     1     -11.083  17.082  64.697  1.00  0.00    -0.997 OA 
HETATM    2  C   UNL     1     -10.193  17.395  65.777  1.00  0.00    -0.191 C  
HETATM    3  H   UNL     1     -10.806  16.280  64.271  1.00  0.00     0.000 HD 
ENDROOT
BRANCH   2   4
HETATM    4  C   UNL     1     -10.641  18.688  66.465  1.00  0.00    -0.358 C  
HETATM    5  H   UNL     1     -11.002  20.544  65.901  1.00  0.00     0.000 HD 
HETATM    6  O   UNL     1     -10.724  19.742  65.475  1.00  0.00    -0.479 OA 
BRANCH   4   7
HETATM    7  C   UNL     1      -9.689  19.216  67.557  1.00  0.00    -0.316 C  
HETATM    8  O   UNL     1     -10.395  19.225  68.809  1.00  0.00    -0.502 OA 
HETATM    9  H   UNL     1      -9.808  19.550  69.482  1.00  0.00     0.000 HD 
BRANCH   7  10
HETATM   10  C   UNL     1      -8.333  18.500  67.728  1.00  0.00    -0.259 C  
HETATM   11  H   UNL     1      -6.766  18.028  66.595  1.00  0.00     0.000 HD 
HETATM   12  O   UNL     1      -7.601  18.468  66.491  1.00  0.00    -0.226 OA 
BRANCH  10  13
HETATM   13  C   UNL     1      -8.380  17.073  68.310  1.00  0.00    -0.228 C  
HETATM   14  H   UNL     1      -9.598  15.968  69.446  1.00  0.00     0.000 HD 
HETATM   15  O   UNL     1      -9.569  16.847  69.088  1.00  0.00    -0.241 OA 
BRANCH  13  16
HETATM   16  C   UNL     1      -7.163  16.708  69.168  1.00  0.00    -0.220 C  
HETATM   17  O   UNL     1      -5.981  16.896  68.375  1.00  0.00    -0.130 OA 
HETATM   18  H   UNL     1      -5.228  16.670  68.907  1.00  0.00     0.000 HD 
ENDBRANCH  13  16
ENDBRANCH  10  13
ENDBRANCH   7  10
ENDBRANCH   4   7
ENDBRANCH   2   4
TORSDOF 5
ENDMDL
MODEL      248
REMARK 921   NORMALIZED FREE ENERGY PREDICTED BY IDOCK:   -2.16 KCAL/MOL
REMARK 922        TOTAL FREE ENERGY PREDICTED BY IDOCK:   -3.63 KCAL/MOL
REMARK 923 INTER-LIGAND FREE ENERGY PREDICTED BY IDOCK:   -2.94 KCAL/MOL
REMARK 924 INTRA-LIGAND FREE ENERGY PREDICTED BY IDOCK:   -0.69 KCAL/MOL
REMARK 927      BINDING AFFINITY PREDICTED BY RF-SCORE:    0.00 PKD
ROOT
HETATM    1  O   UNL     1     -11.448   6.153  69.656  1.00  0.00    -0.429 OA 
HETATM    2  C   UNL     1     -11.782   7.074  70.704  1.00  0.00    -0.338 C  
HETATM    3  H   UNL     1     -12.141   5.511  69.557  1.00  0.00     0.000 HD 
ENDROOT
BRANCH   2   4
HETATM    4  C   UNL     1     -10.665   8.110  70.863  1.00  0.00    -0.221 C  
HETATM    5  H   UNL     1     -10.169   9.468  72.205  1.00  0.00     0.000 HD 
HETATM    6  O   UNL     1     -10.862   8.826  72.106  1.00  0.00    -0.354 OA 
BRANCH   4   7
HETATM    7  C   UNL     1     -10.608   9.189  69.764  1.00  0.00    -0.229 C  
HETATM    8  O   UNL     1     -10.781  10.476  70.382  1.00  0.00    -0.437 OA 
HETATM    9  H   UNL     1     -10.746  11.141  69.704  1.00  0.00     0.000 HD 
BRANCH   7  10
HETATM   10  C   UNL     1      -9.365   9.212  68.850  1.00  0.00    -0.146 C  
HETATM   11  H   UNL     1      -8.199  10.575  67.987  1.00  0.00     0.000 HD 
HETATM   12  O   UNL     1      -8.964  10.560  68.550  1.00  0.00    -0.134 OA 
BRANCH  10  13
HETATM   13  C   UNL     1      -9.472   8.424  67.529  1.00  0.00    -0.149 C  
HETATM   14  H   UNL     1     -10.862   7.416  66.505  1.00  0.00     0.000 HD 
HETATM   15  O   UNL     1     -10.796   7.901  67.319  1.00  0.00    -0.272 OA 
BRANCH  13  16
HETATM   16  C   UNL     1      -8.471   7.269  67.409  1.00  0.00    -0.119 C  
HETATM   17  O   UNL     1      -9.201   6.034  67.469  1.00  0.00    -0.114 OA 
HETATM   18  H   UNL     1      -8.581   5.318  67.395  1.00  0.00     0.000 HD 
ENDBRANCH  13  16
ENDBRANCH  10  13
ENDBRANCH   7  10
ENDBRANCH   4   7
ENDBRANCH   2   4
TORSDOF 5
ENDMDL
MODEL      249
REMARK 921   NORMALIZED FREE ENERGY PREDICTED BY IDOCK:   -2.15 KCAL/MOL
REMARK 922        TOTAL FREE ENERGY PREDICTED BY IDOCK:   -3.63 KCAL/MOL
REMARK 923 INTER-LIGAND FREE ENERGY PREDICTED BY IDOCK:   -3.14 KCAL/MOL
REMARK 924 INTRA-LIGAND FREE ENERGY PREDICTED BY IDOCK:   -0.49 KCAL/MOL
REMARK 927      BINDING AFFINITY PREDICTED BY RF-SCORE:    0.00 PKD
ROOT
HETATM    1  O   UNL     1     -10.687   5.991  73.414  1.00  0.00    -0.250 OA 
HETATM    2  C   UNL     1     -10.255   7.354  73.533  1.00  0.00    -0.349 C  
HETATM    3  H   UNL     1     -11.194   5.745  74.179  1.00  0.00     0.000 HD 
ENDROOT
BRANCH   2   4
HETATM    4  C   UNL     1      -9.438   7.752  72.300  1.00  0.00    -0.170 C  
HETATM    5  H   UNL     1      -7.961   9.002  71.919  1.00  0.00     0.000 HD 
HETATM    6  O   UNL     1      -8.468   8.756  72.684  1.00  0.00    -0.413 OA 
BRANCH   4   7
HETATM    7  C   UNL     1     -10.249   8.374  71.146  1.00  0.00    -0.202 C  
HETATM    8  O   UNL     1      -9.811   9.731  70.963  1.00  0.00    -0.299 OA 
HETATM    9  H   UNL     1     -10.311  10.115  70.252  1.00  0.00     0.000 HD 
BRANCH   7  10
HETATM   10  C   UNL     1     -10.246   7.637  69.791  1.00  0.00    -0.210 C  
HETATM   11  H   UNL     1     -10.587   8.071  67.879  1.00  0.00     0.000 HD 
HETATM   12  O   UNL     1     -10.590   8.524  68.714  1.00  0.00    -0.208 OA 
BRANCH  10  13
HETATM   13  C   UNL     1     -11.130   6.377  69.694  1.00  0.00    -0.401 C  
HETATM   14  H   UNL     1     -12.683   5.571  70.660  1.00  0.00     0.000 HD 
HETATM   15  O   UNL     1     -12.139   6.347  70.721  1.00  0.00    -0.298 OA 
BRANCH  13  16
HETATM   16  C   UNL     1     -10.348   5.060  69.744  1.00  0.00    -0.216 C  
HETATM   17  O   UNL     1      -8.960   5.369  69.943  1.00  0.00    -0.121 OA 
HETATM   18  H   UNL     1      -8.475   4.552  69.973  1.00  0.00     0.000 HD 
ENDBRANCH  13  16
ENDBRANCH  10  13
ENDBRANCH   7  10
ENDBRANCH   4   7
ENDBRANCH   2   4
TORSDOF 5
ENDMDL
MODEL      250
REMARK 921   NORMALIZED FREE ENERGY PREDICTED BY IDOCK:   -2.14 KCAL/MOL
REMARK 922        TOTAL FREE ENERGY PREDICTED BY IDOCK:   -3.61 KCAL/MOL
REMARK 923 INTER-LIGAND FREE ENERGY PREDICTED BY IDOCK:   -3.34 KCAL/MOL
REMARK 924 INTRA-LIGAND FREE ENERGY PREDICTED BY IDOCK:   -0.26 KCAL/MOL
REMARK 927      BINDING AFFINITY PREDICTED BY RF-SCORE:    0.00 PKD
ROOT
HETATM    1  O   UNL     1     -12.840   8.363  73.038  1.00  0.00    -0.706 OA 
HETATM    2  C   UNL     1     -11.571   8.345  72.371  1.00  0.00    -0.380 C  
HETATM    3  H   UNL     1     -12.734   8.682  73.927  1.00  0.00     0.000 HD 
ENDROOT
BRANCH   2   4
HETATM    4  C   UNL     1     -11.742   7.830  70.938  1.00  0.00    -0.265 C  
HETATM    5  H   UNL     1     -11.880   6.064  70.072  1.00  0.00     0.000 HD 
HETATM    6  O   UNL     1     -11.774   6.383  70.960  1.00  0.00    -0.333 OA 
BRANCH   4   7
HETATM    7  C   UNL     1     -10.608   8.208  69.965  1.00  0.00    -0.239 C  
HETATM    8  O   UNL     1     -11.114   8.121  68.622  1.00  0.00    -0.413 OA 
HETATM    9  H   UNL     1     -10.414   8.354  68.022  1.00  0.00     0.000 HD 
BRANCH   7  10
HETATM   10  C   UNL     1      -9.913   9.570  70.173  1.00  0.00    -0.241 C  
HETATM   11  H   UNL     1     -10.296  11.488  69.808  1.00  0.00     0.000 HD 
HETATM   12  O   UNL     1     -10.723  10.650  69.680  1.00  0.00    -0.243 OA 
BRANCH  10  13
HETATM   13  C   UNL     1      -8.493   9.711  69.587  1.00  0.00    -0.174 C  
HETATM   14  H   UNL     1      -7.575  10.745  68.144  1.00  0.00     0.000 HD 
HETATM   15  O   UNL     1      -8.449  10.658  68.504  1.00  0.00    -0.121 OA 
BRANCH  13  16
HETATM   16  C   UNL     1      -7.884   8.391  69.102  1.00  0.00    -0.105 C  
HETATM   17  O   UNL     1      -8.168   8.253  67.701  1.00  0.00    -0.124 OA 
HETATM   18  H   UNL     1      -7.791   7.435  67.401  1.00  0.00     0.000 HD 
ENDBRANCH  13  16
ENDBRANCH  10  13
ENDBRANCH   7  10
ENDBRANCH   4   7
ENDBRANCH   2   4
TORSDOF 5
ENDMDL
MODEL      251
REMARK 921   NORMALIZED FREE ENERGY PREDICTED BY IDOCK:   -2.12 KCAL/MOL
REMARK 922        TOTAL FREE ENERGY PREDICTED BY IDOCK:   -3.59 KCAL/MOL
REMARK 923 INTER-LIGAND FREE ENERGY PREDICTED BY IDOCK:   -3.15 KCAL/MOL
REMARK 924 INTRA-LIGAND FREE ENERGY PREDICTED BY IDOCK:   -0.44 KCAL/MOL
REMARK 927      BINDING AFFINITY PREDICTED BY RF-SCORE:    0.00 PKD
ROOT
HETATM    1  O   UNL     1     -11.894  13.229  68.712  1.00  0.00    -0.308 OA 
HETATM    2  C   UNL     1     -10.821  12.280  68.640  1.00  0.00    -0.236 C  
HETATM    3  H   UNL     1     -11.601  14.074  68.393  1.00  0.00     0.000 HD 
ENDROOT
BRANCH   2   4
HETATM    4  C   UNL     1     -11.294  10.917  69.155  1.00  0.00    -0.283 C  
HETATM    5  H   UNL     1     -12.361  10.269  70.682  1.00  0.00     0.000 HD 
HETATM    6  O   UNL     1     -12.068  11.115  70.363  1.00  0.00    -0.326 OA 
BRANCH   4   7
HETATM    7  C   UNL     1     -10.170   9.933  69.535  1.00  0.00    -0.225 C  
HETATM    8  O   UNL     1     -10.616   9.142  70.650  1.00  0.00    -0.211 OA 
HETATM    9  H   UNL     1      -9.924   8.535  70.884  1.00  0.00     0.000 HD 
BRANCH   7  10
HETATM   10  C   UNL     1      -9.624   9.010  68.425  1.00  0.00    -0.152 C  
HETATM   11  H   UNL     1      -7.988   8.870  67.302  1.00  0.00     0.000 HD 
HETATM   12  O   UNL     1      -8.325   9.438  67.984  1.00  0.00    -0.118 OA 
BRANCH  10  13
HETATM   13  C   UNL     1     -10.526   8.817  67.190  1.00  0.00    -0.283 C  
HETATM   14  H   UNL     1     -11.379   7.310  66.190  1.00  0.00     0.000 HD 
HETATM   15  O   UNL     1     -10.824   7.429  66.951  1.00  0.00    -0.357 OA 
BRANCH  13  16
HETATM   16  C   UNL     1      -9.955   9.418  65.900  1.00  0.00    -0.256 C  
HETATM   17  O   UNL     1      -9.060   8.459  65.315  1.00  0.00    -0.398 OA 
HETATM   18  H   UNL     1      -8.707   8.832  64.517  1.00  0.00     0.000 HD 
ENDBRANCH  13  16
ENDBRANCH  10  13
ENDBRANCH   7  10
ENDBRANCH   4   7
ENDBRANCH   2   4
TORSDOF 5
ENDMDL
MODEL      252
REMARK 921   NORMALIZED FREE ENERGY PREDICTED BY IDOCK:   -2.12 KCAL/MOL
REMARK 922        TOTAL FREE ENERGY PREDICTED BY IDOCK:   -3.58 KCAL/MOL
REMARK 923 INTER-LIGAND FREE ENERGY PREDICTED BY IDOCK:   -3.04 KCAL/MOL
REMARK 924 INTRA-LIGAND FREE ENERGY PREDICTED BY IDOCK:   -0.55 KCAL/MOL
REMARK 927      BINDING AFFINITY PREDICTED BY RF-SCORE:    0.00 PKD
ROOT
HETATM    1  O   UNL     1     -11.517  12.439  70.304  1.00  0.00    -0.518 OA 
HETATM    2  C   UNL     1     -12.047  11.669  69.217  1.00  0.00    -0.259 C  
HETATM    3  H   UNL     1     -11.934  13.292  70.330  1.00  0.00     0.000 HD 
ENDROOT
BRANCH   2   4
HETATM    4  C   UNL     1     -11.374  10.294  69.174  1.00  0.00    -0.186 C  
HETATM    5  H   UNL     1     -10.034   9.335  70.259  1.00  0.00     0.000 HD 
HETATM    6  O   UNL     1     -10.451  10.188  70.286  1.00  0.00    -0.281 OA 
BRANCH   4   7
HETATM    7  C   UNL     1     -10.538  10.011  67.910  1.00  0.00    -0.250 C  
HETATM    8  O   UNL     1     -10.979   8.765  67.343  1.00  0.00    -0.454 OA 
HETATM    9  H   UNL     1     -10.463   8.591  66.564  1.00  0.00     0.000 HD 
BRANCH   7  10
HETATM   10  C   UNL     1     -10.506  11.099  66.817  1.00  0.00    -0.252 C  
HETATM   11  H   UNL     1     -11.006  11.272  64.898  1.00  0.00     0.000 HD 
HETATM   12  O   UNL     1     -11.025  10.602  65.571  1.00  0.00    -0.004 OA 
BRANCH  10  13
HETATM   13  C   UNL     1      -9.140  11.764  66.552  1.00  0.00    -0.203 C  
HETATM   14  H   UNL     1      -7.463  11.367  65.540  1.00  0.00     0.000 HD 
HETATM   15  O   UNL     1      -8.304  10.957  65.703  1.00  0.00    -0.160 OA 
BRANCH  13  16
HETATM   16  C   UNL     1      -8.355  12.105  67.823  1.00  0.00    -0.159 C  
HETATM   17  O   UNL     1      -9.019  13.194  68.483  1.00  0.00    -0.311 OA 
HETATM   18  H   UNL     1      -8.532  13.405  69.271  1.00  0.00     0.000 HD 
ENDBRANCH  13  16
ENDBRANCH  10  13
ENDBRANCH   7  10
ENDBRANCH   4   7
ENDBRANCH   2   4
TORSDOF 5
ENDMDL
MODEL      253
REMARK 921   NORMALIZED FREE ENERGY PREDICTED BY IDOCK:   -2.11 KCAL/MOL
REMARK 922        TOTAL FREE ENERGY PREDICTED BY IDOCK:   -3.58 KCAL/MOL
REMARK 923 INTER-LIGAND FREE ENERGY PREDICTED BY IDOCK:   -3.17 KCAL/MOL
REMARK 924 INTRA-LIGAND FREE ENERGY PREDICTED BY IDOCK:   -0.41 KCAL/MOL
REMARK 927      BINDING AFFINITY PREDICTED BY RF-SCORE:    0.00 PKD
ROOT
HETATM    1  O   UNL     1      -9.449  11.027  69.545  1.00  0.00    -0.407 OA 
HETATM    2  C   UNL     1     -10.142  10.344  68.491  1.00  0.00    -0.171 C  
HETATM    3  H   UNL     1      -9.730  11.934  69.583  1.00  0.00     0.000 HD 
ENDROOT
BRANCH   2   4
HETATM    4  C   UNL     1      -9.688   8.882  68.430  1.00  0.00    -0.161 C  
HETATM    5  H   UNL     1      -9.083   7.642  67.021  1.00  0.00     0.000 HD 
HETATM    6  O   UNL     1      -9.364   8.548  67.059  1.00  0.00    -0.147 OA 
BRANCH   4   7
HETATM    7  C   UNL     1     -10.743   7.848  68.873  1.00  0.00    -0.073 C  
HETATM    8  O   UNL     1     -11.053   7.006  67.750  1.00  0.00    -0.495 OA 
HETATM    9  H   UNL     1     -11.703   6.369  68.024  1.00  0.00     0.000 HD 
BRANCH   7  10
HETATM   10  C   UNL     1     -10.415   6.977  70.104  1.00  0.00    -0.214 C  
HETATM   11  H   UNL     1     -10.729   5.107  70.708  1.00  0.00     0.000 HD 
HETATM   12  O   UNL     1     -10.930   5.644  69.951  1.00  0.00    -0.339 OA 
BRANCH  10  13
HETATM   13  C   UNL     1     -10.868   7.527  71.472  1.00  0.00    -0.227 C  
HETATM   14  H   UNL     1     -10.166   8.746  72.893  1.00  0.00     0.000 HD 
HETATM   15  O   UNL     1      -9.887   8.407  72.050  1.00  0.00    -0.227 OA 
BRANCH  13  16
HETATM   16  C   UNL     1     -11.209   6.441  72.499  1.00  0.00    -0.272 C  
HETATM   17  O   UNL     1     -12.579   6.056  72.307  1.00  0.00    -0.437 OA 
HETATM   18  H   UNL     1     -12.790   5.383  72.943  1.00  0.00     0.000 HD 
ENDBRANCH  13  16
ENDBRANCH  10  13
ENDBRANCH   7  10
ENDBRANCH   4   7
ENDBRANCH   2   4
TORSDOF 5
ENDMDL
MODEL      254
REMARK 921   NORMALIZED FREE ENERGY PREDICTED BY IDOCK:   -2.11 KCAL/MOL
REMARK 922        TOTAL FREE ENERGY PREDICTED BY IDOCK:   -3.58 KCAL/MOL
REMARK 923 INTER-LIGAND FREE ENERGY PREDICTED BY IDOCK:   -3.08 KCAL/MOL
REMARK 924 INTRA-LIGAND FREE ENERGY PREDICTED BY IDOCK:   -0.50 KCAL/MOL
REMARK 927      BINDING AFFINITY PREDICTED BY RF-SCORE:    0.00 PKD
ROOT
HETATM    1  O   UNL     1     -12.359  12.568  68.873  1.00  0.00    -0.052 OA 
HETATM    2  C   UNL     1     -11.580  11.904  69.878  1.00  0.00    -0.256 C  
HETATM    3  H   UNL     1     -11.876  12.596  68.055  1.00  0.00     0.000 HD 
ENDROOT
BRANCH   2   4
HETATM    4  C   UNL     1     -12.360  11.859  71.196  1.00  0.00    -0.198 C  
HETATM    5  H   UNL     1     -13.965  10.927  71.864  1.00  0.00     0.000 HD 
HETATM    6  O   UNL     1     -13.482  10.955  71.046  1.00  0.00    -0.036 OA 
BRANCH   4   7
HETATM    7  C   UNL     1     -12.963  13.203  71.649  1.00  0.00    -0.335 C  
HETATM    8  O   UNL     1     -14.195  12.938  72.342  1.00  0.00    -0.442 OA 
HETATM    9  H   UNL     1     -14.567  13.766  72.621  1.00  0.00     0.000 HD 
BRANCH   7  10
HETATM   10  C   UNL     1     -12.075  14.133  72.501  1.00  0.00     0.288 C  
HETATM   11  H   UNL     1     -12.143  14.998  74.292  1.00  0.00     0.000 HD 
HETATM   12  O   UNL     1     -12.690  14.425  73.767  1.00  0.00    -0.427 OA 
BRANCH  10  13
HETATM   13  C   UNL     1     -11.645  15.461  71.844  1.00  0.00    -0.442 C  
HETATM   14  H   UNL     1     -11.533  17.396  72.332  1.00  0.00     0.000 HD 
HETATM   15  O   UNL     1     -11.798  16.579  72.737  1.00  0.00    -0.539 OA 
BRANCH  13  16
HETATM   16  C   UNL     1     -12.384  15.779  70.539  1.00  0.00    -0.350 C  
HETATM   17  O   UNL     1     -11.480  15.559  69.446  1.00  0.00    -0.290 OA 
HETATM   18  H   UNL     1     -11.938  15.757  68.637  1.00  0.00     0.000 HD 
ENDBRANCH  13  16
ENDBRANCH  10  13
ENDBRANCH   7  10
ENDBRANCH   4   7
ENDBRANCH   2   4
TORSDOF 5
ENDMDL
MODEL      255
REMARK 921   NORMALIZED FREE ENERGY PREDICTED BY IDOCK:   -2.11 KCAL/MOL
REMARK 922        TOTAL FREE ENERGY PREDICTED BY IDOCK:   -3.57 KCAL/MOL
REMARK 923 INTER-LIGAND FREE ENERGY PREDICTED BY IDOCK:   -2.96 KCAL/MOL
REMARK 924 INTRA-LIGAND FREE ENERGY PREDICTED BY IDOCK:   -0.62 KCAL/MOL
REMARK 927      BINDING AFFINITY PREDICTED BY RF-SCORE:    0.00 PKD
ROOT
HETATM    1  O   UNL     1     -10.291   9.120  69.834  1.00  0.00    -0.195 OA 
HETATM    2  C   UNL     1     -11.014   9.103  71.073  1.00  0.00    -0.305 C  
HETATM    3  H   UNL     1      -9.611   9.782  69.865  1.00  0.00     0.000 HD 
ENDROOT
BRANCH   2   4
HETATM    4  C   UNL     1     -12.110   8.035  71.024  1.00  0.00    -0.217 C  
HETATM    5  H   UNL     1     -13.610   7.486  72.181  1.00  0.00     0.000 HD 
HETATM    6  O   UNL     1     -12.930   8.148  72.212  1.00  0.00    -0.285 OA 
BRANCH   4   7
HETATM    7  C   UNL     1     -11.607   6.578  71.001  1.00  0.00    -0.348 C  
HETATM    8  O   UNL     1     -11.471   6.165  69.630  1.00  0.00    -0.429 OA 
HETATM    9  H   UNL     1     -11.161   5.267  69.617  1.00  0.00     0.000 HD 
BRANCH   7  10
HETATM   10  C   UNL     1     -10.310   6.259  71.773  1.00  0.00    -0.206 C  
HETATM   11  H   UNL     1      -8.707   5.102  71.542  1.00  0.00     0.000 HD 
HETATM   12  O   UNL     1      -9.506   5.298  71.067  1.00  0.00    -0.152 OA 
BRANCH  10  13
HETATM   13  C   UNL     1     -10.479   5.784  73.230  1.00  0.00    -0.233 C  
HETATM   14  H   UNL     1     -10.616   6.593  75.053  1.00  0.00     0.000 HD 
HETATM   15  O   UNL     1     -10.511   6.886  74.156  1.00  0.00    -0.357 OA 
BRANCH  13  16
HETATM   16  C   UNL     1      -9.405   4.793  73.693  1.00  0.00    -0.125 C  
HETATM   17  O   UNL     1      -9.931   3.465  73.558  1.00  0.00    -0.107 OA 
HETATM   18  H   UNL     1      -9.265   2.851  73.845  1.00  0.00     0.000 HD 
ENDBRANCH  13  16
ENDBRANCH  10  13
ENDBRANCH   7  10
ENDBRANCH   4   7
ENDBRANCH   2   4
TORSDOF 5
ENDMDL
MODEL      256
REMARK 921   NORMALIZED FREE ENERGY PREDICTED BY IDOCK:   -2.11 KCAL/MOL
REMARK 922        TOTAL FREE ENERGY PREDICTED BY IDOCK:   -3.57 KCAL/MOL
REMARK 923 INTER-LIGAND FREE ENERGY PREDICTED BY IDOCK:   -3.41 KCAL/MOL
REMARK 924 INTRA-LIGAND FREE ENERGY PREDICTED BY IDOCK:   -0.15 KCAL/MOL
REMARK 927      BINDING AFFINITY PREDICTED BY RF-SCORE:    0.00 PKD
ROOT
HETATM    1  O   UNL     1      -7.943  11.639  66.134  1.00  0.00    -0.372 OA 
HETATM    2  C   UNL     1      -8.065  12.333  67.384  1.00  0.00    -0.175 C  
HETATM    3  H   UNL     1      -7.054  11.713  65.808  1.00  0.00     0.000 HD 
ENDROOT
BRANCH   2   4
HETATM    4  C   UNL     1      -9.499  12.212  67.910  1.00  0.00    -0.195 C  
HETATM    5  H   UNL     1     -11.239  11.651  67.170  1.00  0.00     0.000 HD 
HETATM    6  O   UNL     1     -10.350  11.726  66.844  1.00  0.00    -0.210 OA 
BRANCH   4   7
HETATM    7  C   UNL     1     -10.137  13.532  68.384  1.00  0.00    -0.240 C  
HETATM    8  O   UNL     1      -9.644  14.600  67.556  1.00  0.00    -0.203 OA 
HETATM    9  H   UNL     1     -10.038  15.413  67.849  1.00  0.00     0.000 HD 
BRANCH   7  10
HETATM   10  C   UNL     1     -11.678  13.596  68.455  1.00  0.00    -0.358 C  
HETATM   11  H   UNL     1     -13.193  13.967  67.219  1.00  0.00     0.000 HD 
HETATM   12  O   UNL     1     -12.245  13.928  67.176  1.00  0.00    -0.406 OA 
BRANCH  10  13
HETATM   13  C   UNL     1     -12.276  14.537  69.520  1.00  0.00    -0.265 C  
HETATM   14  H   UNL     1     -12.199  16.474  70.008  1.00  0.00     0.000 HD 
HETATM   15  O   UNL     1     -11.830  15.895  69.352  1.00  0.00    -0.362 OA 
BRANCH  13  16
HETATM   16  C   UNL     1     -11.990  14.108  70.963  1.00  0.00    -0.275 C  
HETATM   17  O   UNL     1     -12.976  13.139  71.348  1.00  0.00    -0.354 OA 
HETATM   18  H   UNL     1     -12.799  12.873  72.243  1.00  0.00     0.000 HD 
ENDBRANCH  13  16
ENDBRANCH  10  13
ENDBRANCH   7  10
ENDBRANCH   4   7
ENDBRANCH   2   4
TORSDOF 5
ENDMDL
MODEL      257
REMARK 921   NORMALIZED FREE ENERGY PREDICTED BY IDOCK:   -2.10 KCAL/MOL
REMARK 922        TOTAL FREE ENERGY PREDICTED BY IDOCK:   -3.56 KCAL/MOL
REMARK 923 INTER-LIGAND FREE ENERGY PREDICTED BY IDOCK:   -3.30 KCAL/MOL
REMARK 924 INTRA-LIGAND FREE ENERGY PREDICTED BY IDOCK:   -0.26 KCAL/MOL
REMARK 927      BINDING AFFINITY PREDICTED BY RF-SCORE:    0.00 PKD
ROOT
HETATM    1  O   UNL     1     -10.588   7.580  72.845  1.00  0.00    -0.270 OA 
HETATM    2  C   UNL     1     -10.609   8.854  72.186  1.00  0.00    -0.253 C  
HETATM    3  H   UNL     1      -9.911   7.573  73.512  1.00  0.00     0.000 HD 
ENDROOT
BRANCH   2   4
HETATM    4  C   UNL     1     -11.700   8.866  71.111  1.00  0.00    -0.298 C  
HETATM    5  H   UNL     1     -12.331   7.625  69.713  1.00  0.00     0.000 HD 
HETATM    6  O   UNL     1     -11.654   7.617  70.380  1.00  0.00    -0.231 OA 
BRANCH   4   7
HETATM    7  C   UNL     1     -11.563   9.976  70.049  1.00  0.00    -0.214 C  
HETATM    8  O   UNL     1     -11.290  11.217  70.721  1.00  0.00    -0.301 OA 
HETATM    9  H   UNL     1     -11.206  11.901  70.067  1.00  0.00     0.000 HD 
BRANCH   7  10
HETATM   10  C   UNL     1     -10.537   9.759  68.917  1.00  0.00    -0.218 C  
HETATM   11  H   UNL     1      -8.707  10.386  68.451  1.00  0.00     0.000 HD 
HETATM   12  O   UNL     1      -9.339  10.520  69.147  1.00  0.00    -0.194 OA 
BRANCH  10  13
HETATM   13  C   UNL     1     -11.030  10.036  67.483  1.00  0.00    -0.212 C  
HETATM   14  H   UNL     1     -10.702   9.344  65.636  1.00  0.00     0.000 HD 
HETATM   15  O   UNL     1     -10.397   9.174  66.519  1.00  0.00    -0.263 OA 
BRANCH  13  16
HETATM   16  C   UNL     1     -10.845  11.488  67.029  1.00  0.00    -0.273 C  
HETATM   17  O   UNL     1     -12.101  12.168  67.174  1.00  0.00    -0.575 OA 
HETATM   18  H   UNL     1     -11.986  13.067  66.893  1.00  0.00     0.000 HD 
ENDBRANCH  13  16
ENDBRANCH  10  13
ENDBRANCH   7  10
ENDBRANCH   4   7
ENDBRANCH   2   4
TORSDOF 5
ENDMDL
MODEL      258
REMARK 921   NORMALIZED FREE ENERGY PREDICTED BY IDOCK:   -2.09 KCAL/MOL
REMARK 922        TOTAL FREE ENERGY PREDICTED BY IDOCK:   -3.55 KCAL/MOL
REMARK 923 INTER-LIGAND FREE ENERGY PREDICTED BY IDOCK:   -3.21 KCAL/MOL
REMARK 924 INTRA-LIGAND FREE ENERGY PREDICTED BY IDOCK:   -0.34 KCAL/MOL
REMARK 927      BINDING AFFINITY PREDICTED BY RF-SCORE:    0.00 PKD
ROOT
HETATM    1  O   UNL     1     -12.076  10.480  68.291  1.00  0.00    -0.797 OA 
HETATM    2  C   UNL     1     -12.141  11.896  68.511  1.00  0.00    -0.059 C  
HETATM    3  H   UNL     1     -12.609  10.028  68.934  1.00  0.00     0.000 HD 
ENDROOT
BRANCH   2   4
HETATM    4  C   UNL     1     -11.280  12.625  67.473  1.00  0.00    -0.288 C  
HETATM    5  H   UNL     1     -10.450  12.167  65.744  1.00  0.00     0.000 HD 
HETATM    6  O   UNL     1     -10.984  11.715  66.387  1.00  0.00    -0.278 OA 
BRANCH   4   7
HETATM    7  C   UNL     1      -9.914  13.123  67.986  1.00  0.00    -0.233 C  
HETATM    8  O   UNL     1      -9.109  11.979  68.319  1.00  0.00    -0.188 OA 
HETATM    9  H   UNL     1      -8.268  12.285  68.635  1.00  0.00     0.000 HD 
BRANCH   7  10
HETATM   10  C   UNL     1      -9.114  14.076  67.075  1.00  0.00    -0.246 C  
HETATM   11  H   UNL     1      -7.242  14.267  66.428  1.00  0.00     0.000 HD 
HETATM   12  O   UNL     1      -7.735  13.680  66.989  1.00  0.00    -0.043 OA 
BRANCH  10  13
HETATM   13  C   UNL     1      -9.175  15.576  67.430  1.00  0.00    -0.202 C  
HETATM   14  H   UNL     1      -9.786  16.721  68.950  1.00  0.00     0.000 HD 
HETATM   15  O   UNL     1      -9.749  15.798  68.731  1.00  0.00    -0.196 OA 
BRANCH  13  16
HETATM   16  C   UNL     1      -9.939  16.428  66.411  1.00  0.00    -0.303 C  
HETATM   17  O   UNL     1     -10.309  15.587  65.309  1.00  0.00    -0.371 OA 
HETATM   18  H   UNL     1     -10.782  16.116  64.677  1.00  0.00     0.000 HD 
ENDBRANCH  13  16
ENDBRANCH  10  13
ENDBRANCH   7  10
ENDBRANCH   4   7
ENDBRANCH   2   4
TORSDOF 5
ENDMDL
MODEL      259
REMARK 921   NORMALIZED FREE ENERGY PREDICTED BY IDOCK:   -2.06 KCAL/MOL
REMARK 922        TOTAL FREE ENERGY PREDICTED BY IDOCK:   -3.51 KCAL/MOL
REMARK 923 INTER-LIGAND FREE ENERGY PREDICTED BY IDOCK:   -2.95 KCAL/MOL
REMARK 924 INTRA-LIGAND FREE ENERGY PREDICTED BY IDOCK:   -0.56 KCAL/MOL
REMARK 927      BINDING AFFINITY PREDICTED BY RF-SCORE:    0.00 PKD
ROOT
HETATM    1  O   UNL     1     -10.412   5.403  69.389  1.00  0.00    -0.266 OA 
HETATM    2  C   UNL     1      -9.606   6.341  68.663  1.00  0.00    -0.123 C  
HETATM    3  H   UNL     1      -9.856   4.767  69.824  1.00  0.00     0.000 HD 
ENDROOT
BRANCH   2   4
HETATM    4  C   UNL     1     -10.503   7.367  67.963  1.00  0.00    -0.199 C  
HETATM    5  H   UNL     1     -11.801   7.339  66.478  1.00  0.00     0.000 HD 
HETATM    6  O   UNL     1     -11.245   6.702  66.912  1.00  0.00    -0.391 OA 
BRANCH   4   7
HETATM    7  C   UNL     1      -9.759   8.530  67.277  1.00  0.00    -0.183 C  
HETATM    8  O   UNL     1     -10.049   8.489  65.870  1.00  0.00    -0.445 OA 
HETATM    9  H   UNL     1      -9.590   9.205  65.447  1.00  0.00     0.000 HD 
BRANCH   7  10
HETATM   10  C   UNL     1     -10.005   9.954  67.819  1.00  0.00    -0.165 C  
HETATM   11  H   UNL     1     -11.551  11.046  68.433  1.00  0.00     0.000 HD 
HETATM   12  O   UNL     1     -11.399  10.171  68.099  1.00  0.00    -0.237 OA 
BRANCH  10  13
HETATM   13  C   UNL     1      -9.491  11.117  66.948  1.00  0.00    -0.185 C  
HETATM   14  H   UNL     1      -7.995  11.471  65.670  1.00  0.00     0.000 HD 
HETATM   15  O   UNL     1      -8.311  10.754  66.206  1.00  0.00    -0.149 OA 
BRANCH  13  16
HETATM   16  C   UNL     1      -9.195  12.401  67.731  1.00  0.00    -0.193 C  
HETATM   17  O   UNL     1      -9.713  12.245  69.061  1.00  0.00    -0.412 OA 
HETATM   18  H   UNL     1      -9.530  13.041  69.546  1.00  0.00     0.000 HD 
ENDBRANCH  13  16
ENDBRANCH  10  13
ENDBRANCH   7  10
ENDBRANCH   4   7
ENDBRANCH   2   4
TORSDOF 5
ENDMDL
MODEL      260
REMARK 921   NORMALIZED FREE ENERGY PREDICTED BY IDOCK:   -2.05 KCAL/MOL
REMARK 922        TOTAL FREE ENERGY PREDICTED BY IDOCK:   -3.50 KCAL/MOL
REMARK 923 INTER-LIGAND FREE ENERGY PREDICTED BY IDOCK:   -3.23 KCAL/MOL
REMARK 924 INTRA-LIGAND FREE ENERGY PREDICTED BY IDOCK:   -0.27 KCAL/MOL
REMARK 927      BINDING AFFINITY PREDICTED BY RF-SCORE:    0.00 PKD
ROOT
HETATM    1  O   UNL     1      -7.572  10.615  66.073  1.00  0.00    -0.140 OA 
HETATM    2  C   UNL     1      -7.949  11.066  67.381  1.00  0.00    -0.119 C  
HETATM    3  H   UNL     1      -7.077   9.807  66.140  1.00  0.00     0.000 HD 
ENDROOT
BRANCH   2   4
HETATM    4  C   UNL     1      -8.747  12.369  67.273  1.00  0.00    -0.191 C  
HETATM    5  H   UNL     1      -8.321  14.294  67.203  1.00  0.00     0.000 HD 
HETATM    6  O   UNL     1      -7.825  13.486  67.270  1.00  0.00    -0.156 OA 
BRANCH   4   7
HETATM    7  C   UNL     1      -9.724  12.639  68.435  1.00  0.00    -0.187 C  
HETATM    8  O   UNL     1      -9.565  14.004  68.856  1.00  0.00    -0.371 OA 
HETATM    9  H   UNL     1     -10.167  14.170  69.572  1.00  0.00     0.000 HD 
BRANCH   7  10
HETATM   10  C   UNL     1     -11.219  12.338  68.195  1.00  0.00    -0.269 C  
HETATM   11  H   UNL     1     -12.907  13.365  67.962  1.00  0.00     0.000 HD 
HETATM   12  O   UNL     1     -11.987  13.549  68.110  1.00  0.00    -0.358 OA 
BRANCH  10  13
HETATM   13  C   UNL     1     -11.898  11.393  69.207  1.00  0.00    -0.349 C  
HETATM   14  H   UNL     1     -12.585  11.466  71.083  1.00  0.00     0.000 HD 
HETATM   15  O   UNL     1     -12.166  12.048  70.460  1.00  0.00    -0.364 OA 
BRANCH  13  16
HETATM   16  C   UNL     1     -11.108  10.110  69.491  1.00  0.00    -0.250 C  
HETATM   17  O   UNL     1     -11.056   9.338  68.282  1.00  0.00    -0.481 OA 
HETATM   18  H   UNL     1     -10.567   8.543  68.458  1.00  0.00     0.000 HD 
ENDBRANCH  13  16
ENDBRANCH  10  13
ENDBRANCH   7  10
ENDBRANCH   4   7
ENDBRANCH   2   4
TORSDOF 5
ENDMDL
MODEL      261
REMARK 921   NORMALIZED FREE ENERGY PREDICTED BY IDOCK:   -2.05 KCAL/MOL
REMARK 922        TOTAL FREE ENERGY PREDICTED BY IDOCK:   -3.50 KCAL/MOL
REMARK 923 INTER-LIGAND FREE ENERGY PREDICTED BY IDOCK:   -2.94 KCAL/MOL
REMARK 924 INTRA-LIGAND FREE ENERGY PREDICTED BY IDOCK:   -0.56 KCAL/MOL
REMARK 927      BINDING AFFINITY PREDICTED BY RF-SCORE:    0.00 PKD
ROOT
HETATM    1  O   UNL     1      -8.962  11.174  69.240  1.00  0.00    -0.388 OA 
HETATM    2  C   UNL     1      -7.694  10.567  69.522  1.00  0.00    -0.136 C  
HETATM    3  H   UNL     1      -8.831  12.022  68.833  1.00  0.00     0.000 HD 
ENDROOT
BRANCH   2   4
HETATM    4  C   UNL     1      -7.905   9.198  70.177  1.00  0.00    -0.113 C  
HETATM    5  H   UNL     1      -7.154   7.387  69.956  1.00  0.00     0.000 HD 
HETATM    6  O   UNL     1      -7.023   8.236  69.549  1.00  0.00    -0.045 OA 
BRANCH   4   7
HETATM    7  C   UNL     1      -9.325   8.616  70.038  1.00  0.00    -0.162 C  
HETATM    8  O   UNL     1      -9.237   7.363  69.338  1.00  0.00    -0.146 OA 
HETATM    9  H   UNL     1     -10.112   7.005  69.252  1.00  0.00     0.000 HD 
BRANCH   7  10
HETATM   10  C   UNL     1     -10.152   8.435  71.329  1.00  0.00    -0.202 C  
HETATM   11  H   UNL     1     -10.312   7.103  72.798  1.00  0.00     0.000 HD 
HETATM   12  O   UNL     1      -9.804   7.214  72.004  1.00  0.00    -0.159 OA 
BRANCH  10  13
HETATM   13  C   UNL     1     -11.685   8.492  71.174  1.00  0.00    -0.281 C  
HETATM   14  H   UNL     1     -13.243   9.352  72.085  1.00  0.00     0.000 HD 
HETATM   15  O   UNL     1     -12.299   9.317  72.181  1.00  0.00    -0.363 OA 
BRANCH  13  16
HETATM   16  C   UNL     1     -12.366   7.119  71.191  1.00  0.00    -0.364 C  
HETATM   17  O   UNL     1     -12.161   6.500  69.912  1.00  0.00    -0.584 OA 
HETATM   18  H   UNL     1     -12.583   5.649  69.923  1.00  0.00     0.000 HD 
ENDBRANCH  13  16
ENDBRANCH  10  13
ENDBRANCH   7  10
ENDBRANCH   4   7
ENDBRANCH   2   4
TORSDOF 5
ENDMDL
MODEL      262
REMARK 921   NORMALIZED FREE ENERGY PREDICTED BY IDOCK:   -2.05 KCAL/MOL
REMARK 922        TOTAL FREE ENERGY PREDICTED BY IDOCK:   -3.50 KCAL/MOL
REMARK 923 INTER-LIGAND FREE ENERGY PREDICTED BY IDOCK:   -3.81 KCAL/MOL
REMARK 924 INTRA-LIGAND FREE ENERGY PREDICTED BY IDOCK:    0.31 KCAL/MOL
REMARK 927      BINDING AFFINITY PREDICTED BY RF-SCORE:    0.00 PKD
ROOT
HETATM    1  O   UNL     1      -8.259  10.465  70.247  1.00  0.00    -0.375 OA 
HETATM    2  C   UNL     1      -9.343  10.171  69.354  1.00  0.00    -0.219 C  
HETATM    3  H   UNL     1      -8.601  10.754  71.085  1.00  0.00     0.000 HD 
ENDROOT
BRANCH   2   4
HETATM    4  C   UNL     1      -8.792   9.704  68.002  1.00  0.00    -0.119 C  
HETATM    5  H   UNL     1      -7.675  10.487  66.578  1.00  0.00     0.000 HD 
HETATM    6  O   UNL     1      -8.016  10.777  67.416  1.00  0.00    -0.109 OA 
BRANCH   4   7
HETATM    7  C   UNL     1      -9.858   9.337  66.951  1.00  0.00    -0.214 C  
HETATM    8  O   UNL     1     -10.948   8.677  67.619  1.00  0.00    -0.495 OA 
HETATM    9  H   UNL     1     -11.604   8.451  66.971  1.00  0.00     0.000 HD 
BRANCH   7  10
HETATM   10  C   UNL     1     -10.404  10.473  66.060  1.00  0.00    -0.211 C  
HETATM   11  H   UNL     1      -9.769  11.575  64.530  1.00  0.00     0.000 HD 
HETATM   12  O   UNL     1      -9.434  10.877  65.078  1.00  0.00    -0.209 OA 
BRANCH  10  13
HETATM   13  C   UNL     1     -10.918  11.729  66.791  1.00  0.00    -0.288 C  
HETATM   14  H   UNL     1     -12.334  12.204  68.120  1.00  0.00     0.000 HD 
HETATM   15  O   UNL     1     -12.017  11.429  67.670  1.00  0.00    -0.630 OA 
BRANCH  13  16
HETATM   16  C   UNL     1     -11.343  12.866  65.855  1.00  0.00    -0.312 C  
HETATM   17  O   UNL     1     -12.661  12.576  65.365  1.00  0.00    -0.624 OA 
HETATM   18  H   UNL     1     -12.924  13.280  64.785  1.00  0.00     0.000 HD 
ENDBRANCH  13  16
ENDBRANCH  10  13
ENDBRANCH   7  10
ENDBRANCH   4   7
ENDBRANCH   2   4
TORSDOF 5
ENDMDL
MODEL      263
REMARK 921   NORMALIZED FREE ENERGY PREDICTED BY IDOCK:   -2.05 KCAL/MOL
REMARK 922        TOTAL FREE ENERGY PREDICTED BY IDOCK:   -3.49 KCAL/MOL
REMARK 923 INTER-LIGAND FREE ENERGY PREDICTED BY IDOCK:   -3.84 KCAL/MOL
REMARK 924 INTRA-LIGAND FREE ENERGY PREDICTED BY IDOCK:    0.35 KCAL/MOL
REMARK 927      BINDING AFFINITY PREDICTED BY RF-SCORE:    0.00 PKD
ROOT
HETATM    1  O   UNL     1      -9.266  17.852  67.607  1.00  0.00    -0.254 OA 
HETATM    2  C   UNL     1     -10.540  17.334  68.014  1.00  0.00    -0.394 C  
HETATM    3  H   UNL     1      -9.369  18.393  66.833  1.00  0.00     0.000 HD 
ENDROOT
BRANCH   2   4
HETATM    4  C   UNL     1     -10.373  16.461  69.262  1.00  0.00    -0.292 C  
HETATM    5  H   UNL     1      -8.876  15.551  70.168  1.00  0.00     0.000 HD 
HETATM    6  O   UNL     1      -8.979  16.092  69.394  1.00  0.00    -0.244 OA 
BRANCH   4   7
HETATM    7  C   UNL     1     -11.157  15.133  69.244  1.00  0.00    -0.274 C  
HETATM    8  O   UNL     1     -12.557  15.434  69.114  1.00  0.00    -0.590 OA 
HETATM    9  H   UNL     1     -13.040  14.616  69.103  1.00  0.00     0.000 HD 
BRANCH   7  10
HETATM   10  C   UNL     1     -10.749  14.078  68.195  1.00  0.00    -0.246 C  
HETATM   11  H   UNL     1      -9.115  13.061  67.689  1.00  0.00     0.000 HD 
HETATM   12  O   UNL     1      -9.366  13.711  68.335  1.00  0.00    -0.203 OA 
BRANCH  10  13
HETATM   13  C   UNL     1     -11.018  14.439  66.720  1.00  0.00    -0.314 C  
HETATM   14  H   UNL     1     -12.558  14.449  65.447  1.00  0.00     0.000 HD 
HETATM   15  O   UNL     1     -12.394  14.226  66.355  1.00  0.00    -0.448 OA 
BRANCH  13  16
HETATM   16  C   UNL     1     -10.130  13.688  65.722  1.00  0.00    -0.298 C  
HETATM   17  O   UNL     1     -10.974  12.881  64.888  1.00  0.00    -0.284 OA 
HETATM   18  H   UNL     1     -10.424  12.415  64.270  1.00  0.00     0.000 HD 
ENDBRANCH  13  16
ENDBRANCH  10  13
ENDBRANCH   7  10
ENDBRANCH   4   7
ENDBRANCH   2   4
TORSDOF 5
ENDMDL
MODEL      264
REMARK 921   NORMALIZED FREE ENERGY PREDICTED BY IDOCK:   -2.05 KCAL/MOL
REMARK 922        TOTAL FREE ENERGY PREDICTED BY IDOCK:   -3.49 KCAL/MOL
REMARK 923 INTER-LIGAND FREE ENERGY PREDICTED BY IDOCK:   -3.15 KCAL/MOL
REMARK 924 INTRA-LIGAND FREE ENERGY PREDICTED BY IDOCK:   -0.34 KCAL/MOL
REMARK 927      BINDING AFFINITY PREDICTED BY RF-SCORE:    0.00 PKD
ROOT
HETATM    1  O   UNL     1      -6.687  18.888  68.820  1.00  0.00    -0.257 OA 
HETATM    2  C   UNL     1      -8.037  18.673  68.387  1.00  0.00    -0.333 C  
HETATM    3  H   UNL     1      -6.442  19.795  68.680  1.00  0.00     0.000 HD 
ENDROOT
BRANCH   2   4
HETATM    4  C   UNL     1      -8.431  17.210  68.614  1.00  0.00    -0.258 C  
HETATM    5  H   UNL     1      -7.528  15.582  69.268  1.00  0.00     0.000 HD 
HETATM    6  O   UNL     1      -7.284  16.489  69.127  1.00  0.00    -0.213 OA 
BRANCH   4   7
HETATM    7  C   UNL     1      -8.874  16.445  67.351  1.00  0.00    -0.183 C  
HETATM    8  O   UNL     1      -7.798  15.583  66.941  1.00  0.00    -0.218 OA 
HETATM    9  H   UNL     1      -8.071  15.112  66.162  1.00  0.00     0.000 HD 
BRANCH   7  10
HETATM   10  C   UNL     1     -10.187  15.639  67.428  1.00  0.00    -0.264 C  
HETATM   11  H   UNL     1     -12.115  15.998  67.766  1.00  0.00     0.000 HD 
HETATM   12  O   UNL     1     -11.307  16.494  67.718  1.00  0.00    -0.172 OA 
BRANCH  10  13
HETATM   13  C   UNL     1     -10.206  14.452  68.411  1.00  0.00    -0.243 C  
HETATM   14  H   UNL     1      -9.747  12.506  68.404  1.00  0.00     0.000 HD 
HETATM   15  O   UNL     1      -9.735  13.237  67.798  1.00  0.00    -0.205 OA 
BRANCH  13  16
HETATM   16  C   UNL     1     -11.579  14.179  69.036  1.00  0.00    -0.304 C  
HETATM   17  O   UNL     1     -11.393  13.325  70.174  1.00  0.00    -0.502 OA 
HETATM   18  H   UNL     1     -12.244  13.156  70.561  1.00  0.00     0.000 HD 
ENDBRANCH  13  16
ENDBRANCH  10  13
ENDBRANCH   7  10
ENDBRANCH   4   7
ENDBRANCH   2   4
TORSDOF 5
ENDMDL
MODEL      265
REMARK 921   NORMALIZED FREE ENERGY PREDICTED BY IDOCK:   -2.05 KCAL/MOL
REMARK 922        TOTAL FREE ENERGY PREDICTED BY IDOCK:   -3.49 KCAL/MOL
REMARK 923 INTER-LIGAND FREE ENERGY PREDICTED BY IDOCK:   -3.03 KCAL/MOL
REMARK 924 INTRA-LIGAND FREE ENERGY PREDICTED BY IDOCK:   -0.46 KCAL/MOL
REMARK 927      BINDING AFFINITY PREDICTED BY RF-SCORE:    0.00 PKD
ROOT
HETATM    1  O   UNL     1      -7.767   5.457  67.894  1.00  0.00    -0.090 OA 
HETATM    2  C   UNL     1      -9.085   5.328  67.345  1.00  0.00    -0.112 C  
HETATM    3  H   UNL     1      -7.539   4.672  68.378  1.00  0.00     0.000 HD 
ENDROOT
BRANCH   2   4
HETATM    4  C   UNL     1      -9.452   6.594  66.564  1.00  0.00    -0.152 C  
HETATM    5  H   UNL     1      -8.493   8.195  65.925  1.00  0.00     0.000 HD 
HETATM    6  O   UNL     1      -8.265   7.410  66.409  1.00  0.00    -0.113 OA 
BRANCH   4   7
HETATM    7  C   UNL     1     -10.498   7.502  67.240  1.00  0.00    -0.321 C  
HETATM    8  O   UNL     1     -11.739   6.781  67.326  1.00  0.00    -0.610 OA 
HETATM    9  H   UNL     1     -12.383   7.341  67.742  1.00  0.00     0.000 HD 
BRANCH   7  10
HETATM   10  C   UNL     1     -10.143   8.096  68.620  1.00  0.00    -0.196 C  
HETATM   11  H   UNL     1     -10.824   7.988  70.486  1.00  0.00     0.000 HD 
HETATM   12  O   UNL     1     -11.042   7.623  69.637  1.00  0.00    -0.186 OA 
BRANCH  10  13
HETATM   13  C   UNL     1     -10.067   9.634  68.704  1.00  0.00    -0.179 C  
HETATM   14  H   UNL     1      -9.773  11.035  70.099  1.00  0.00     0.000 HD 
HETATM   15  O   UNL     1      -9.820  10.088  70.048  1.00  0.00    -0.241 OA 
BRANCH  13  16
HETATM   16  C   UNL     1     -11.313  10.351  68.173  1.00  0.00    -0.213 C  
HETATM   17  O   UNL     1     -12.329  10.296  69.185  1.00  0.00    -0.616 OA 
HETATM   18  H   UNL     1     -13.101  10.740  68.856  1.00  0.00     0.000 HD 
ENDBRANCH  13  16
ENDBRANCH  10  13
ENDBRANCH   7  10
ENDBRANCH   4   7
ENDBRANCH   2   4
TORSDOF 5
ENDMDL
MODEL      266
REMARK 921   NORMALIZED FREE ENERGY PREDICTED BY IDOCK:   -2.04 KCAL/MOL
REMARK 922        TOTAL FREE ENERGY PREDICTED BY IDOCK:   -3.48 KCAL/MOL
REMARK 923 INTER-LIGAND FREE ENERGY PREDICTED BY IDOCK:   -2.95 KCAL/MOL
REMARK 924 INTRA-LIGAND FREE ENERGY PREDICTED BY IDOCK:   -0.53 KCAL/MOL
REMARK 927      BINDING AFFINITY PREDICTED BY RF-SCORE:    0.00 PKD
ROOT
HETATM    1  O   UNL     1     -11.693   6.778  69.801  1.00  0.00    -0.595 OA 
HETATM    2  C   UNL     1     -12.037   6.759  71.193  1.00  0.00    -0.370 C  
HETATM    3  H   UNL     1     -12.335   7.285  69.316  1.00  0.00     0.000 HD 
ENDROOT
BRANCH   2   4
HETATM    4  C   UNL     1     -11.002   5.943  71.974  1.00  0.00    -0.266 C  
HETATM    5  H   UNL     1     -11.053   4.551  73.371  1.00  0.00     0.000 HD 
HETATM    6  O   UNL     1     -11.695   5.057  72.887  1.00  0.00    -0.256 OA 
BRANCH   4   7
HETATM    7  C   UNL     1     -10.037   6.770  72.847  1.00  0.00    -0.181 C  
HETATM    8  O   UNL     1     -10.576   6.841  74.178  1.00  0.00    -0.454 OA 
HETATM    9  H   UNL     1      -9.981   7.351  74.716  1.00  0.00     0.000 HD 
BRANCH   7  10
HETATM   10  C   UNL     1      -8.562   6.318  72.905  1.00  0.00    -0.122 C  
HETATM   11  H   UNL     1      -7.530   4.742  73.546  1.00  0.00     0.000 HD 
HETATM   12  O   UNL     1      -8.438   5.021  73.511  1.00  0.00    -0.106 OA 
BRANCH  10  13
HETATM   13  C   UNL     1      -7.578   7.282  73.597  1.00  0.00    -0.101 C  
HETATM   14  H   UNL     1      -7.449   9.233  74.013  1.00  0.00     0.000 HD 
HETATM   15  O   UNL     1      -8.055   8.640  73.586  1.00  0.00    -0.406 OA 
BRANCH  13  16
HETATM   16  C   UNL     1      -6.164   7.262  73.005  1.00  0.00    -0.056 C  
HETATM   17  O   UNL     1      -6.003   6.041  72.267  1.00  0.00    -0.035 OA 
HETATM   18  H   UNL     1      -5.127   6.029  71.901  1.00  0.00     0.000 HD 
ENDBRANCH  13  16
ENDBRANCH  10  13
ENDBRANCH   7  10
ENDBRANCH   4   7
ENDBRANCH   2   4
TORSDOF 5
ENDMDL
MODEL      267
REMARK 921   NORMALIZED FREE ENERGY PREDICTED BY IDOCK:   -2.03 KCAL/MOL
REMARK 922        TOTAL FREE ENERGY PREDICTED BY IDOCK:   -3.47 KCAL/MOL
REMARK 923 INTER-LIGAND FREE ENERGY PREDICTED BY IDOCK:   -3.11 KCAL/MOL
REMARK 924 INTRA-LIGAND FREE ENERGY PREDICTED BY IDOCK:   -0.37 KCAL/MOL
REMARK 927      BINDING AFFINITY PREDICTED BY RF-SCORE:    0.00 PKD
ROOT
HETATM    1  O   UNL     1      -7.946  11.597  66.334  1.00  0.00    -0.333 OA 
HETATM    2  C   UNL     1      -7.752  12.557  67.382  1.00  0.00    -0.167 C  
HETATM    3  H   UNL     1      -7.141  11.117  66.182  1.00  0.00     0.000 HD 
ENDROOT
BRANCH   2   4
HETATM    4  C   UNL     1      -9.051  13.330  67.629  1.00  0.00    -0.204 C  
HETATM    5  H   UNL     1     -10.440  14.166  66.505  1.00  0.00     0.000 HD 
HETATM    6  O   UNL     1      -9.635  13.686  66.352  1.00  0.00    -0.277 OA 
BRANCH   4   7
HETATM    7  C   UNL     1      -8.889  14.657  68.398  1.00  0.00    -0.181 C  
HETATM    8  O   UNL     1      -7.725  15.335  67.896  1.00  0.00    -0.120 OA 
HETATM    9  H   UNL     1      -7.626  16.152  68.370  1.00  0.00     0.000 HD 
BRANCH   7  10
HETATM   10  C   UNL     1     -10.091  15.624  68.413  1.00  0.00    -0.214 C  
HETATM   11  H   UNL     1     -10.404  17.578  68.624  1.00  0.00     0.000 HD 
HETATM   12  O   UNL     1      -9.664  16.982  68.615  1.00  0.00    -0.260 OA 
BRANCH  10  13
HETATM   13  C   UNL     1     -11.215  15.305  69.419  1.00  0.00    -0.285 C  
HETATM   14  H   UNL     1     -11.389  14.794  71.344  1.00  0.00     0.000 HD 
HETATM   15  O   UNL     1     -10.697  14.991  70.725  1.00  0.00    -0.158 OA 
BRANCH  13  16
HETATM   16  C   UNL     1     -12.142  14.167  68.979  1.00  0.00    -0.313 C  
HETATM   17  O   UNL     1     -12.445  14.346  67.587  1.00  0.00    -0.596 OA 
HETATM   18  H   UNL     1     -13.020  13.641  67.315  1.00  0.00     0.000 HD 
ENDBRANCH  13  16
ENDBRANCH  10  13
ENDBRANCH   7  10
ENDBRANCH   4   7
ENDBRANCH   2   4
TORSDOF 5
ENDMDL
MODEL      268
REMARK 921   NORMALIZED FREE ENERGY PREDICTED BY IDOCK:   -2.03 KCAL/MOL
REMARK 922        TOTAL FREE ENERGY PREDICTED BY IDOCK:   -3.46 KCAL/MOL
REMARK 923 INTER-LIGAND FREE ENERGY PREDICTED BY IDOCK:   -3.10 KCAL/MOL
REMARK 924 INTRA-LIGAND FREE ENERGY PREDICTED BY IDOCK:   -0.36 KCAL/MOL
REMARK 927      BINDING AFFINITY PREDICTED BY RF-SCORE:    0.00 PKD
ROOT
HETATM    1  O   UNL     1     -11.100  16.936  70.282  1.00  0.00    -0.415 OA 
HETATM    2  C   UNL     1     -11.343  15.625  70.811  1.00  0.00    -0.371 C  
HETATM    3  H   UNL     1     -10.653  17.468  70.929  1.00  0.00     0.000 HD 
ENDROOT
BRANCH   2   4
HETATM    4  C   UNL     1     -12.064  14.767  69.767  1.00  0.00    -0.319 C  
HETATM    5  H   UNL     1     -12.949  13.004  69.744  1.00  0.00     0.000 HD 
HETATM    6  O   UNL     1     -12.502  13.536  70.392  1.00  0.00    -0.321 OA 
BRANCH   4   7
HETATM    7  C   UNL     1     -11.203  14.339  68.561  1.00  0.00    -0.266 C  
HETATM    8  O   UNL     1     -11.592  15.127  67.423  1.00  0.00    -0.328 OA 
HETATM    9  H   UNL     1     -11.061  14.863  66.680  1.00  0.00     0.000 HD 
BRANCH   7  10
HETATM   10  C   UNL     1      -9.670  14.383  68.727  1.00  0.00    -0.190 C  
HETATM   11  H   UNL     1      -8.218  15.740  68.627  1.00  0.00     0.000 HD 
HETATM   12  O   UNL     1      -9.161  15.712  68.524  1.00  0.00    -0.185 OA 
BRANCH  10  13
HETATM   13  C   UNL     1      -8.858  13.406  67.853  1.00  0.00    -0.194 C  
HETATM   14  H   UNL     1      -8.308  13.226  65.939  1.00  0.00     0.000 HD 
HETATM   15  O   UNL     1      -8.808  13.828  66.477  1.00  0.00    -0.129 OA 
BRANCH  13  16
HETATM   16  C   UNL     1      -9.364  11.960  67.898  1.00  0.00    -0.187 C  
HETATM   17  O   UNL     1      -9.544  11.505  66.548  1.00  0.00    -0.195 OA 
HETATM   18  H   UNL     1      -9.858  10.609  66.577  1.00  0.00     0.000 HD 
ENDBRANCH  13  16
ENDBRANCH  10  13
ENDBRANCH   7  10
ENDBRANCH   4   7
ENDBRANCH   2   4
TORSDOF 5
ENDMDL
MODEL      269
REMARK 921   NORMALIZED FREE ENERGY PREDICTED BY IDOCK:   -2.02 KCAL/MOL
REMARK 922        TOTAL FREE ENERGY PREDICTED BY IDOCK:   -3.46 KCAL/MOL
REMARK 923 INTER-LIGAND FREE ENERGY PREDICTED BY IDOCK:   -3.02 KCAL/MOL
REMARK 924 INTRA-LIGAND FREE ENERGY PREDICTED BY IDOCK:   -0.44 KCAL/MOL
REMARK 927      BINDING AFFINITY PREDICTED BY RF-SCORE:    0.00 PKD
ROOT
HETATM    1  O   UNL     1      -7.252   5.781  65.477  1.00  0.00    -0.071 OA 
HETATM    2  C   UNL     1      -8.278   6.714  65.841  1.00  0.00    -0.132 C  
HETATM    3  H   UNL     1      -6.622   6.200  64.903  1.00  0.00     0.000 HD 
ENDROOT
BRANCH   2   4
HETATM    4  C   UNL     1      -9.294   6.038  66.767  1.00  0.00    -0.138 C  
HETATM    5  H   UNL     1     -10.784   4.763  66.550  1.00  0.00     0.000 HD 
HETATM    6  O   UNL     1     -10.154   5.182  65.976  1.00  0.00    -0.185 OA 
BRANCH   4   7
HETATM    7  C   UNL     1     -10.239   6.998  67.518  1.00  0.00    -0.199 C  
HETATM    8  O   UNL     1     -11.591   6.706  67.124  1.00  0.00    -0.749 OA 
HETATM    9  H   UNL     1     -12.172   7.297  67.587  1.00  0.00     0.000 HD 
BRANCH   7  10
HETATM   10  C   UNL     1     -10.141   7.036  69.058  1.00  0.00    -0.180 C  
HETATM   11  H   UNL     1      -8.725   6.866  70.446  1.00  0.00     0.000 HD 
HETATM   12  O   UNL     1      -8.786   6.842  69.499  1.00  0.00    -0.138 OA 
BRANCH  10  13
HETATM   13  C   UNL     1     -11.054   6.061  69.827  1.00  0.00    -0.406 C  
HETATM   14  H   UNL     1     -12.624   6.152  71.062  1.00  0.00     0.000 HD 
HETATM   15  O   UNL     1     -12.061   6.753  70.589  1.00  0.00    -0.392 OA 
BRANCH  13  16
HETATM   16  C   UNL     1     -10.303   5.111  70.767  1.00  0.00    -0.224 C  
HETATM   17  O   UNL     1      -9.832   3.996  69.996  1.00  0.00    -0.210 OA 
HETATM   18  H   UNL     1      -9.367   3.407  70.578  1.00  0.00     0.000 HD 
ENDBRANCH  13  16
ENDBRANCH  10  13
ENDBRANCH   7  10
ENDBRANCH   4   7
ENDBRANCH   2   4
TORSDOF 5
ENDMDL
MODEL      270
REMARK 921   NORMALIZED FREE ENERGY PREDICTED BY IDOCK:   -2.02 KCAL/MOL
REMARK 922        TOTAL FREE ENERGY PREDICTED BY IDOCK:   -3.46 KCAL/MOL
REMARK 923 INTER-LIGAND FREE ENERGY PREDICTED BY IDOCK:   -3.16 KCAL/MOL
REMARK 924 INTRA-LIGAND FREE ENERGY PREDICTED BY IDOCK:   -0.30 KCAL/MOL
REMARK 927      BINDING AFFINITY PREDICTED BY RF-SCORE:    0.00 PKD
ROOT
HETATM    1  O   UNL     1     -11.429  12.147  70.434  1.00  0.00    -0.491 OA 
HETATM    2  C   UNL     1     -12.278  11.185  69.792  1.00  0.00    -0.300 C  
HETATM    3  H   UNL     1     -11.264  12.875  69.847  1.00  0.00     0.000 HD 
ENDROOT
BRANCH   2   4
HETATM    4  C   UNL     1     -12.546  10.011  70.739  1.00  0.00    -0.285 C  
HETATM    5  H   UNL     1     -13.045   9.802  72.636  1.00  0.00     0.000 HD 
HETATM    6  O   UNL     1     -12.879  10.531  72.049  1.00  0.00    -0.429 OA 
BRANCH   4   7
HETATM    7  C   UNL     1     -11.353   9.059  70.958  1.00  0.00    -0.297 C  
HETATM    8  O   UNL     1     -11.072   9.000  72.367  1.00  0.00    -0.209 OA 
HETATM    9  H   UNL     1     -10.337   8.414  72.502  1.00  0.00     0.000 HD 
BRANCH   7  10
HETATM   10  C   UNL     1     -11.465   7.630  70.387  1.00  0.00    -0.174 C  
HETATM   11  H   UNL     1     -11.461   5.765  71.081  1.00  0.00     0.000 HD 
HETATM   12  O   UNL     1     -11.391   6.645  71.432  1.00  0.00    -0.263 OA 
BRANCH  10  13
HETATM   13  C   UNL     1     -10.460   7.253  69.281  1.00  0.00    -0.216 C  
HETATM   14  H   UNL     1     -10.498   6.541  67.414  1.00  0.00     0.000 HD 
HETATM   15  O   UNL     1     -11.118   6.773  68.095  1.00  0.00    -0.218 OA 
BRANCH  13  16
HETATM   16  C   UNL     1      -9.419   6.213  69.712  1.00  0.00    -0.150 C  
HETATM   17  O   UNL     1      -8.336   6.902  70.356  1.00  0.00    -0.126 OA 
HETATM   18  H   UNL     1      -7.692   6.258  70.623  1.00  0.00     0.000 HD 
ENDBRANCH  13  16
ENDBRANCH  10  13
ENDBRANCH   7  10
ENDBRANCH   4   7
ENDBRANCH   2   4
TORSDOF 5
ENDMDL
MODEL      271
REMARK 921   NORMALIZED FREE ENERGY PREDICTED BY IDOCK:   -2.02 KCAL/MOL
REMARK 922        TOTAL FREE ENERGY PREDICTED BY IDOCK:   -3.45 KCAL/MOL
REMARK 923 INTER-LIGAND FREE ENERGY PREDICTED BY IDOCK:   -3.04 KCAL/MOL
REMARK 924 INTRA-LIGAND FREE ENERGY PREDICTED BY IDOCK:   -0.41 KCAL/MOL
REMARK 927      BINDING AFFINITY PREDICTED BY RF-SCORE:    0.00 PKD
ROOT
HETATM    1  O   UNL     1      -9.511   5.191  70.839  1.00  0.00    -0.153 OA 
HETATM    2  C   UNL     1     -10.906   5.367  70.554  1.00  0.00    -0.130 C  
HETATM    3  H   UNL     1      -9.378   4.378  71.313  1.00  0.00     0.000 HD 
ENDROOT
BRANCH   2   4
HETATM    4  C   UNL     1     -11.121   6.677  69.790  1.00  0.00    -0.342 C  
HETATM    5  H   UNL     1     -10.080   7.764  68.515  1.00  0.00     0.000 HD 
HETATM    6  O   UNL     1      -9.946   6.952  68.989  1.00  0.00    -0.153 OA 
BRANCH   4   7
HETATM    7  C   UNL     1     -11.327   7.925  70.671  1.00  0.00    -0.259 C  
HETATM    8  O   UNL     1     -11.184   7.538  72.048  1.00  0.00    -0.240 OA 
HETATM    9  H   UNL     1     -11.311   8.307  72.591  1.00  0.00     0.000 HD 
BRANCH   7  10
HETATM   10  C   UNL     1     -10.446   9.158  70.380  1.00  0.00    -0.223 C  
HETATM   11  H   UNL     1      -8.829  10.024  71.152  1.00  0.00     0.000 HD 
HETATM   12  O   UNL     1      -9.372   9.266  71.330  1.00  0.00    -0.263 OA 
BRANCH  10  13
HETATM   13  C   UNL     1     -11.172  10.515  70.300  1.00  0.00    -0.313 C  
HETATM   14  H   UNL     1     -13.012  11.240  70.593  1.00  0.00     0.000 HD 
HETATM   15  O   UNL     1     -12.565  10.403  70.642  1.00  0.00    -0.328 OA 
BRANCH  13  16
HETATM   16  C   UNL     1     -11.062  11.202  68.934  1.00  0.00    -0.237 C  
HETATM   17  O   UNL     1      -9.905  12.051  68.949  1.00  0.00    -0.400 OA 
HETATM   18  H   UNL     1      -9.838  12.476  68.102  1.00  0.00     0.000 HD 
ENDBRANCH  13  16
ENDBRANCH  10  13
ENDBRANCH   7  10
ENDBRANCH   4   7
ENDBRANCH   2   4
TORSDOF 5
ENDMDL
MODEL      272
REMARK 921   NORMALIZED FREE ENERGY PREDICTED BY IDOCK:   -2.01 KCAL/MOL
REMARK 922        TOTAL FREE ENERGY PREDICTED BY IDOCK:   -3.45 KCAL/MOL
REMARK 923 INTER-LIGAND FREE ENERGY PREDICTED BY IDOCK:   -3.38 KCAL/MOL
REMARK 924 INTRA-LIGAND FREE ENERGY PREDICTED BY IDOCK:   -0.07 KCAL/MOL
REMARK 927      BINDING AFFINITY PREDICTED BY RF-SCORE:    0.00 PKD
ROOT
HETATM    1  O   UNL     1     -11.567  12.305  70.442  1.00  0.00    -0.528 OA 
HETATM    2  C   UNL     1     -11.959  10.932  70.311  1.00  0.00    -0.361 C  
HETATM    3  H   UNL     1     -11.999  12.695  71.193  1.00  0.00     0.000 HD 
ENDROOT
BRANCH   2   4
HETATM    4  C   UNL     1     -11.261  10.304  69.101  1.00  0.00    -0.215 C  
HETATM    5  H   UNL     1      -9.874   8.930  68.816  1.00  0.00     0.000 HD 
HETATM    6  O   UNL     1     -10.307   9.320  69.567  1.00  0.00    -0.200 OA 
BRANCH   4   7
HETATM    7  C   UNL     1     -10.455  11.284  68.225  1.00  0.00    -0.196 C  
HETATM    8  O   UNL     1      -9.083  10.854  68.205  1.00  0.00    -0.145 OA 
HETATM    9  H   UNL     1      -8.587  11.458  67.666  1.00  0.00     0.000 HD 
BRANCH   7  10
HETATM   10  C   UNL     1     -10.948  11.525  66.783  1.00  0.00    -0.294 C  
HETATM   11  H   UNL     1     -12.579  12.224  65.883  1.00  0.00     0.000 HD 
HETATM   12  O   UNL     1     -12.276  12.076  66.771  1.00  0.00    -0.545 OA 
BRANCH  10  13
HETATM   13  C   UNL     1     -10.909  10.309  65.835  1.00  0.00     0.211 C  
HETATM   14  H   UNL     1     -10.424   8.372  65.917  1.00  0.00     0.000 HD 
HETATM   15  O   UNL     1     -10.447   9.120  66.501  1.00  0.00    -0.228 OA 
BRANCH  13  16
HETATM   16  C   UNL     1     -10.056  10.523  64.580  1.00  0.00    -0.332 C  
HETATM   17  O   UNL     1     -10.924  10.930  63.511  1.00  0.00    -0.542 OA 
HETATM   18  H   UNL     1     -10.395  11.063  62.733  1.00  0.00     0.000 HD 
ENDBRANCH  13  16
ENDBRANCH  10  13
ENDBRANCH   7  10
ENDBRANCH   4   7
ENDBRANCH   2   4
TORSDOF 5
ENDMDL
MODEL      273
REMARK 921   NORMALIZED FREE ENERGY PREDICTED BY IDOCK:   -2.01 KCAL/MOL
REMARK 922        TOTAL FREE ENERGY PREDICTED BY IDOCK:   -3.44 KCAL/MOL
REMARK 923 INTER-LIGAND FREE ENERGY PREDICTED BY IDOCK:   -3.22 KCAL/MOL
REMARK 924 INTRA-LIGAND FREE ENERGY PREDICTED BY IDOCK:   -0.22 KCAL/MOL
REMARK 927      BINDING AFFINITY PREDICTED BY RF-SCORE:    0.00 PKD
ROOT
HETATM    1  O   UNL     1     -10.167  11.029  69.729  1.00  0.00    -0.437 OA 
HETATM    2  C   UNL     1     -11.249  10.130  69.449  1.00  0.00    -0.215 C  
HETATM    3  H   UNL     1     -10.241  11.804  69.184  1.00  0.00     0.000 HD 
ENDROOT
BRANCH   2   4
HETATM    4  C   UNL     1     -11.129   8.881  70.328  1.00  0.00    -0.228 C  
HETATM    5  H   UNL     1     -10.382   8.462  72.105  1.00  0.00     0.000 HD 
HETATM    6  O   UNL     1     -10.455   9.236  71.560  1.00  0.00    -0.334 OA 
BRANCH   4   7
HETATM    7  C   UNL     1     -10.307   7.727  69.721  1.00  0.00    -0.221 C  
HETATM    8  O   UNL     1      -9.409   7.229  70.728  1.00  0.00    -0.160 OA 
HETATM    9  H   UNL     1      -8.903   6.518  70.353  1.00  0.00     0.000 HD 
BRANCH   7  10
HETATM   10  C   UNL     1     -11.083   6.553  69.087  1.00  0.00    -0.326 C  
HETATM   11  H   UNL     1     -11.051   4.565  69.149  1.00  0.00     0.000 HD 
HETATM   12  O   UNL     1     -10.574   5.287  69.539  1.00  0.00    -0.279 OA 
BRANCH  10  13
HETATM   13  C   UNL     1     -11.159   6.534  67.547  1.00  0.00    -0.308 C  
HETATM   14  H   UNL     1     -10.797   5.254  66.055  1.00  0.00     0.000 HD 
HETATM   15  O   UNL     1     -10.750   5.266  67.003  1.00  0.00    -0.229 OA 
BRANCH  13  16
HETATM   16  C   UNL     1     -10.342   7.639  66.868  1.00  0.00    -0.318 C  
HETATM   17  O   UNL     1      -9.161   7.045  66.309  1.00  0.00    -0.162 OA 
HETATM   18  H   UNL     1      -8.655   7.729  65.888  1.00  0.00     0.000 HD 
ENDBRANCH  13  16
ENDBRANCH  10  13
ENDBRANCH   7  10
ENDBRANCH   4   7
ENDBRANCH   2   4
TORSDOF 5
ENDMDL
MODEL      274
REMARK 921   NORMALIZED FREE ENERGY PREDICTED BY IDOCK:   -1.99 KCAL/MOL
REMARK 922        TOTAL FREE ENERGY PREDICTED BY IDOCK:   -3.42 KCAL/MOL
REMARK 923 INTER-LIGAND FREE ENERGY PREDICTED BY IDOCK:   -2.95 KCAL/MOL
REMARK 924 INTRA-LIGAND FREE ENERGY PREDICTED BY IDOCK:   -0.47 KCAL/MOL
REMARK 927      BINDING AFFINITY PREDICTED BY RF-SCORE:    0.00 PKD
ROOT
HETATM    1  O   UNL     1     -10.206   8.481  66.222  1.00  0.00    -0.424 OA 
HETATM    2  C   UNL     1      -9.710   7.157  66.465  1.00  0.00    -0.133 C  
HETATM    3  H   UNL     1      -9.480   9.076  66.071  1.00  0.00     0.000 HD 
ENDROOT
BRANCH   2   4
HETATM    4  C   UNL     1     -10.880   6.199  66.709  1.00  0.00    -0.285 C  
HETATM    5  H   UNL     1     -11.749   5.393  68.286  1.00  0.00     0.000 HD 
HETATM    6  O   UNL     1     -11.023   5.987  68.135  1.00  0.00    -0.300 OA 
BRANCH   4   7
HETATM    7  C   UNL     1     -10.719   4.795  66.093  1.00  0.00    -0.122 C  
HETATM    8  O   UNL     1     -11.734   4.620  65.090  1.00  0.00    -1.054 OA 
HETATM    9  H   UNL     1     -11.634   3.755  64.710  1.00  0.00     0.000 HD 
BRANCH   7  10
HETATM   10  C   UNL     1      -9.339   4.426  65.509  1.00  0.00    -0.162 C  
HETATM   11  H   UNL     1      -8.610   3.690  63.810  1.00  0.00     0.000 HD 
HETATM   12  O   UNL     1      -9.459   3.917  64.170  1.00  0.00    -0.143 OA 
BRANCH  10  13
HETATM   13  C   UNL     1      -8.486   3.443  66.336  1.00  0.00    -0.109 C  
HETATM   14  H   UNL     1      -7.568   3.398  68.111  1.00  0.00     0.000 HD 
HETATM   15  O   UNL     1      -8.093   4.004  67.602  1.00  0.00    -0.090 OA 
BRANCH  13  16
HETATM   16  C   UNL     1      -7.227   2.948  65.614  1.00  0.00    -0.070 C  
HETATM   17  O   UNL     1      -7.562   1.751  64.896  1.00  0.00    -0.061 OA 
HETATM   18  H   UNL     1      -6.783   1.444  64.449  1.00  0.00     0.000 HD 
ENDBRANCH  13  16
ENDBRANCH  10  13
ENDBRANCH   7  10
ENDBRANCH   4   7
ENDBRANCH   2   4
TORSDOF 5
ENDMDL
MODEL      275
REMARK 921   NORMALIZED FREE ENERGY PREDICTED BY IDOCK:   -1.99 KCAL/MOL
REMARK 922        TOTAL FREE ENERGY PREDICTED BY IDOCK:   -3.42 KCAL/MOL
REMARK 923 INTER-LIGAND FREE ENERGY PREDICTED BY IDOCK:   -2.82 KCAL/MOL
REMARK 924 INTRA-LIGAND FREE ENERGY PREDICTED BY IDOCK:   -0.59 KCAL/MOL
REMARK 927      BINDING AFFINITY PREDICTED BY RF-SCORE:    0.00 PKD
ROOT
HETATM    1  O   UNL     1      -8.797  10.061  70.176  1.00  0.00    -0.342 OA 
HETATM    2  C   UNL     1      -7.749   9.298  70.791  1.00  0.00    -0.139 C  
HETATM    3  H   UNL     1      -8.444  10.581  69.465  1.00  0.00     0.000 HD 
ENDROOT
BRANCH   2   4
HETATM    4  C   UNL     1      -8.320   8.459  71.939  1.00  0.00    -0.167 C  
HETATM    5  H   UNL     1      -7.941   8.240  73.862  1.00  0.00     0.000 HD 
HETATM    6  O   UNL     1      -7.587   8.761  73.151  1.00  0.00    -0.375 OA 
BRANCH   4   7
HETATM    7  C   UNL     1      -8.209   6.932  71.754  1.00  0.00    -0.105 C  
HETATM    8  O   UNL     1      -8.333   6.308  73.043  1.00  0.00    -0.117 OA 
HETATM    9  H   UNL     1      -8.264   5.367  72.929  1.00  0.00     0.000 HD 
BRANCH   7  10
HETATM   10  C   UNL     1      -9.175   6.262  70.755  1.00  0.00    -0.154 C  
HETATM   11  H   UNL     1      -9.281   5.957  68.791  1.00  0.00     0.000 HD 
HETATM   12  O   UNL     1      -8.687   6.369  69.406  1.00  0.00    -0.128 OA 
BRANCH  10  13
HETATM   13  C   UNL     1     -10.639   6.744  70.789  1.00  0.00    -0.222 C  
HETATM   14  H   UNL     1     -12.216   6.629  72.013  1.00  0.00     0.000 HD 
HETATM   15  O   UNL     1     -11.314   6.332  71.992  1.00  0.00    -0.270 OA 
BRANCH  13  16
HETATM   16  C   UNL     1     -11.474   6.291  69.586  1.00  0.00    -0.355 C  
HETATM   17  O   UNL     1     -11.254   7.218  68.512  1.00  0.00    -0.449 OA 
HETATM   18  H   UNL     1     -11.771   6.937  67.767  1.00  0.00     0.000 HD 
ENDBRANCH  13  16
ENDBRANCH  10  13
ENDBRANCH   7  10
ENDBRANCH   4   7
ENDBRANCH   2   4
TORSDOF 5
ENDMDL
MODEL      276
REMARK 921   NORMALIZED FREE ENERGY PREDICTED BY IDOCK:   -1.98 KCAL/MOL
REMARK 922        TOTAL FREE ENERGY PREDICTED BY IDOCK:   -3.41 KCAL/MOL
REMARK 923 INTER-LIGAND FREE ENERGY PREDICTED BY IDOCK:   -3.21 KCAL/MOL
REMARK 924 INTRA-LIGAND FREE ENERGY PREDICTED BY IDOCK:   -0.20 KCAL/MOL
REMARK 927      BINDING AFFINITY PREDICTED BY RF-SCORE:    0.00 PKD
ROOT
HETATM    1  O   UNL     1      -9.411   7.481  68.355  1.00  0.00    -0.142 OA 
HETATM    2  C   UNL     1      -9.097   6.249  69.018  1.00  0.00    -0.129 C  
HETATM    3  H   UNL     1      -9.062   7.471  67.472  1.00  0.00     0.000 HD 
ENDROOT
BRANCH   2   4
HETATM    4  C   UNL     1      -9.659   6.265  70.443  1.00  0.00    -0.165 C  
HETATM    5  H   UNL     1     -10.349   4.922  71.713  1.00  0.00     0.000 HD 
HETATM    6  O   UNL     1     -10.000   4.911  70.829  1.00  0.00    -0.195 OA 
BRANCH   4   7
HETATM    7  C   UNL     1     -10.949   7.089  70.631  1.00  0.00    -0.260 C  
HETATM    8  O   UNL     1     -11.999   6.470  69.868  1.00  0.00    -0.611 OA 
HETATM    9  H   UNL     1     -12.793   6.978  69.984  1.00  0.00     0.000 HD 
BRANCH   7  10
HETATM   10  C   UNL     1     -11.431   7.342  72.074  1.00  0.00    -0.269 C  
HETATM   11  H   UNL     1     -12.756   8.502  73.001  1.00  0.00     0.000 HD 
HETATM   12  O   UNL     1     -12.459   8.347  72.112  1.00  0.00    -0.335 OA 
BRANCH  10  13
HETATM   13  C   UNL     1     -10.345   7.708  73.105  1.00  0.00    -0.352 C  
HETATM   14  H   UNL     1      -8.629   8.733  73.160  1.00  0.00     0.000 HD 
HETATM   15  O   UNL     1      -9.298   8.508  72.524  1.00  0.00    -0.269 OA 
BRANCH  13  16
HETATM   16  C   UNL     1      -9.704   6.498  73.794  1.00  0.00    -0.208 C  
HETATM   17  O   UNL     1     -10.673   5.440  73.836  1.00  0.00    -0.279 OA 
HETATM   18  H   UNL     1     -10.276   4.690  74.263  1.00  0.00     0.000 HD 
ENDBRANCH  13  16
ENDBRANCH  10  13
ENDBRANCH   7  10
ENDBRANCH   4   7
ENDBRANCH   2   4
TORSDOF 5
ENDMDL
MODEL      277
REMARK 921   NORMALIZED FREE ENERGY PREDICTED BY IDOCK:   -1.97 KCAL/MOL
REMARK 922        TOTAL FREE ENERGY PREDICTED BY IDOCK:   -3.39 KCAL/MOL
REMARK 923 INTER-LIGAND FREE ENERGY PREDICTED BY IDOCK:   -3.22 KCAL/MOL
REMARK 924 INTRA-LIGAND FREE ENERGY PREDICTED BY IDOCK:   -0.18 KCAL/MOL
REMARK 927      BINDING AFFINITY PREDICTED BY RF-SCORE:    0.00 PKD
ROOT
HETATM    1  O   UNL     1     -11.230   4.545  65.442  1.00  0.00    -0.902 OA 
HETATM    2  C   UNL     1     -10.908   5.420  66.532  1.00  0.00    -0.148 C  
HETATM    3  H   UNL     1     -12.042   4.822  65.034  1.00  0.00     0.000 HD 
ENDROOT
BRANCH   2   4
HETATM    4  C   UNL     1      -9.598   4.974  67.189  1.00  0.00    -0.152 C  
HETATM    5  H   UNL     1      -8.842   3.269  67.832  1.00  0.00     0.000 HD 
HETATM    6  O   UNL     1      -9.654   3.546  67.424  1.00  0.00    -0.210 OA 
BRANCH   4   7
HETATM    7  C   UNL     1      -9.302   5.611  68.561  1.00  0.00    -0.123 C  
HETATM    8  O   UNL     1      -7.974   6.163  68.529  1.00  0.00    -0.105 OA 
HETATM    9  H   UNL     1      -7.791   6.555  69.374  1.00  0.00     0.000 HD 
BRANCH   7  10
HETATM   10  C   UNL     1     -10.294   6.670  69.086  1.00  0.00    -0.194 C  
HETATM   11  H   UNL     1     -10.217   8.506  69.852  1.00  0.00     0.000 HD 
HETATM   12  O   UNL     1      -9.607   7.853  69.529  1.00  0.00    -0.160 OA 
BRANCH  10  13
HETATM   13  C   UNL     1     -11.258   6.214  70.199  1.00  0.00    -0.382 C  
HETATM   14  H   UNL     1     -12.625   7.026  71.410  1.00  0.00     0.000 HD 
HETATM   15  O   UNL     1     -12.032   7.308  70.725  1.00  0.00    -0.314 OA 
BRANCH  13  16
HETATM   16  C   UNL     1     -10.568   5.502  71.369  1.00  0.00    -0.243 C  
HETATM   17  O   UNL     1     -11.376   5.680  72.542  1.00  0.00    -0.283 OA 
HETATM   18  H   UNL     1     -10.949   5.240  73.267  1.00  0.00     0.000 HD 
ENDBRANCH  13  16
ENDBRANCH  10  13
ENDBRANCH   7  10
ENDBRANCH   4   7
ENDBRANCH   2   4
TORSDOF 5
ENDMDL
MODEL      278
REMARK 921   NORMALIZED FREE ENERGY PREDICTED BY IDOCK:   -1.96 KCAL/MOL
REMARK 922        TOTAL FREE ENERGY PREDICTED BY IDOCK:   -3.38 KCAL/MOL
REMARK 923 INTER-LIGAND FREE ENERGY PREDICTED BY IDOCK:   -2.85 KCAL/MOL
REMARK 924 INTRA-LIGAND FREE ENERGY PREDICTED BY IDOCK:   -0.54 KCAL/MOL
REMARK 927      BINDING AFFINITY PREDICTED BY RF-SCORE:    0.00 PKD
ROOT
HETATM    1  O   UNL     1      -9.155   7.860  68.472  1.00  0.00    -0.134 OA 
HETATM    2  C   UNL     1      -8.259   8.976  68.557  1.00  0.00    -0.112 C  
HETATM    3  H   UNL     1      -8.984   7.367  67.678  1.00  0.00     0.000 HD 
ENDROOT
BRANCH   2   4
HETATM    4  C   UNL     1      -8.536   9.771  69.837  1.00  0.00    -0.201 C  
HETATM    5  H   UNL     1      -7.526  10.229  71.469  1.00  0.00     0.000 HD 
HETATM    6  O   UNL     1      -7.355   9.736  70.675  1.00  0.00    -0.231 OA 
BRANCH   4   7
HETATM    7  C   UNL     1      -9.684   9.228  70.711  1.00  0.00    -0.282 C  
HETATM    8  O   UNL     1      -9.179   9.006  72.039  1.00  0.00    -0.373 OA 
HETATM    9  H   UNL     1      -9.886   8.672  72.578  1.00  0.00     0.000 HD 
BRANCH   7  10
HETATM   10  C   UNL     1     -10.983  10.059  70.780  1.00  0.00    -0.305 C  
HETATM   11  H   UNL     1     -12.944   9.724  70.766  1.00  0.00     0.000 HD 
HETATM   12  O   UNL     1     -12.145   9.214  70.723  1.00  0.00    -0.254 OA 
BRANCH  10  13
HETATM   13  C   UNL     1     -11.136  11.178  69.731  1.00  0.00    -0.202 C  
HETATM   14  H   UNL     1     -11.800  13.062  69.650  1.00  0.00     0.000 HD 
HETATM   15  O   UNL     1     -11.706  12.373  70.296  1.00  0.00    -0.262 OA 
BRANCH  13  16
HETATM   16  C   UNL     1     -11.967  10.778  68.506  1.00  0.00     0.016 C  
HETATM   17  O   UNL     1     -11.295   9.697  67.842  1.00  0.00    -0.507 OA 
HETATM   18  H   UNL     1     -11.810   9.449  67.083  1.00  0.00     0.000 HD 
ENDBRANCH  13  16
ENDBRANCH  10  13
ENDBRANCH   7  10
ENDBRANCH   4   7
ENDBRANCH   2   4
TORSDOF 5
ENDMDL
MODEL      279
REMARK 921   NORMALIZED FREE ENERGY PREDICTED BY IDOCK:   -1.95 KCAL/MOL
REMARK 922        TOTAL FREE ENERGY PREDICTED BY IDOCK:   -3.37 KCAL/MOL
REMARK 923 INTER-LIGAND FREE ENERGY PREDICTED BY IDOCK:   -2.97 KCAL/MOL
REMARK 924 INTRA-LIGAND FREE ENERGY PREDICTED BY IDOCK:   -0.40 KCAL/MOL
REMARK 927      BINDING AFFINITY PREDICTED BY RF-SCORE:    0.00 PKD
ROOT
HETATM    1  O   UNL     1      -9.807  14.251  69.211  1.00  0.00    -0.417 OA 
HETATM    2  C   UNL     1     -11.235  14.259  69.071  1.00  0.00    -0.266 C  
HETATM    3  H   UNL     1      -9.536  14.946  69.800  1.00  0.00     0.000 HD 
ENDROOT
BRANCH   2   4
HETATM    4  C   UNL     1     -11.672  13.138  68.123  1.00  0.00    -0.355 C  
HETATM    5  H   UNL     1     -11.818  11.173  68.220  1.00  0.00     0.000 HD 
HETATM    6  O   UNL     1     -11.547  11.868  68.808  1.00  0.00    -0.258 OA 
BRANCH   4   7
HETATM    7  C   UNL     1     -10.833  13.002  66.836  1.00  0.00    -0.264 C  
HETATM    8  O   UNL     1     -10.319  14.299  66.490  1.00  0.00    -0.270 OA 
HETATM    9  H   UNL     1      -9.802  14.215  65.697  1.00  0.00     0.000 HD 
BRANCH   7  10
HETATM   10  C   UNL     1      -9.686  11.969  66.837  1.00  0.00    -0.203 C  
HETATM   11  H   UNL     1      -7.771  11.899  67.373  1.00  0.00     0.000 HD 
HETATM   12  O   UNL     1      -8.477  12.534  67.372  1.00  0.00    -0.163 OA 
BRANCH  10  13
HETATM   13  C   UNL     1      -9.363  11.303  65.485  1.00  0.00    -0.221 C  
HETATM   14  H   UNL     1      -7.753  10.669  64.484  1.00  0.00     0.000 HD 
HETATM   15  O   UNL     1      -7.951  11.079  65.317  1.00  0.00     0.018 OA 
BRANCH  13  16
HETATM   16  C   UNL     1      -9.879  12.079  64.268  1.00  0.00    -0.169 C  
HETATM   17  O   UNL     1      -8.854  12.071  63.263  1.00  0.00    -0.399 OA 
HETATM   18  H   UNL     1      -9.173  12.552  62.509  1.00  0.00     0.000 HD 
ENDBRANCH  13  16
ENDBRANCH  10  13
ENDBRANCH   7  10
ENDBRANCH   4   7
ENDBRANCH   2   4
TORSDOF 5
ENDMDL
MODEL      280
REMARK 921   NORMALIZED FREE ENERGY PREDICTED BY IDOCK:   -1.95 KCAL/MOL
REMARK 922        TOTAL FREE ENERGY PREDICTED BY IDOCK:   -3.37 KCAL/MOL
REMARK 923 INTER-LIGAND FREE ENERGY PREDICTED BY IDOCK:   -2.83 KCAL/MOL
REMARK 924 INTRA-LIGAND FREE ENERGY PREDICTED BY IDOCK:   -0.53 KCAL/MOL
REMARK 927      BINDING AFFINITY PREDICTED BY RF-SCORE:    0.00 PKD
ROOT
HETATM    1  O   UNL     1      -6.947   5.784  65.552  1.00  0.00    -0.064 OA 
HETATM    2  C   UNL     1      -7.960   6.790  65.688  1.00  0.00    -0.116 C  
HETATM    3  H   UNL     1      -6.308   6.055  64.903  1.00  0.00     0.000 HD 
ENDROOT
BRANCH   2   4
HETATM    4  C   UNL     1      -8.990   6.354  66.735  1.00  0.00    -0.130 C  
HETATM    5  H   UNL     1     -10.070   4.739  67.078  1.00  0.00     0.000 HD 
HETATM    6  O   UNL     1      -9.431   5.009  66.429  1.00  0.00    -0.135 OA 
BRANCH   4   7
HETATM    7  C   UNL     1     -10.272   7.210  66.791  1.00  0.00    -0.219 C  
HETATM    8  O   UNL     1     -11.407   6.339  66.651  1.00  0.00    -0.741 OA 
HETATM    9  H   UNL     1     -12.196   6.867  66.685  1.00  0.00     0.000 HD 
BRANCH   7  10
HETATM   10  C   UNL     1     -10.465   8.126  68.018  1.00  0.00    -0.183 C  
HETATM   11  H   UNL     1      -9.583   9.721  68.817  1.00  0.00     0.000 HD 
HETATM   12  O   UNL     1      -9.464   9.157  68.062  1.00  0.00    -0.140 OA 
BRANCH  10  13
HETATM   13  C   UNL     1     -10.515   7.428  69.392  1.00  0.00    -0.217 C  
HETATM   14  H   UNL     1     -11.203   5.720  70.171  1.00  0.00     0.000 HD 
HETATM   15  O   UNL     1     -11.173   6.149  69.324  1.00  0.00    -0.387 OA 
BRANCH  13  16
HETATM   16  C   UNL     1     -11.187   8.260  70.491  1.00  0.00    -0.239 C  
HETATM   17  O   UNL     1     -10.441   9.475  70.654  1.00  0.00    -0.264 OA 
HETATM   18  H   UNL     1     -10.857   9.990  71.335  1.00  0.00     0.000 HD 
ENDBRANCH  13  16
ENDBRANCH  10  13
ENDBRANCH   7  10
ENDBRANCH   4   7
ENDBRANCH   2   4
TORSDOF 5
ENDMDL
MODEL      281
REMARK 921   NORMALIZED FREE ENERGY PREDICTED BY IDOCK:   -1.95 KCAL/MOL
REMARK 922        TOTAL FREE ENERGY PREDICTED BY IDOCK:   -3.36 KCAL/MOL
REMARK 923 INTER-LIGAND FREE ENERGY PREDICTED BY IDOCK:   -4.21 KCAL/MOL
REMARK 924 INTRA-LIGAND FREE ENERGY PREDICTED BY IDOCK:    0.85 KCAL/MOL
REMARK 927      BINDING AFFINITY PREDICTED BY RF-SCORE:    0.00 PKD
ROOT
HETATM    1  O   UNL     1      -9.276  10.140  70.073  1.00  0.00    -0.376 OA 
HETATM    2  C   UNL     1      -9.257   8.767  70.490  1.00  0.00    -0.188 C  
HETATM    3  H   UNL     1      -9.178  10.192  69.130  1.00  0.00     0.000 HD 
ENDROOT
BRANCH   2   4
HETATM    4  C   UNL     1      -9.416   8.682  72.012  1.00  0.00    -0.300 C  
HETATM    5  H   UNL     1      -8.206   8.716  73.569  1.00  0.00     0.000 HD 
HETATM    6  O   UNL     1      -8.107   8.769  72.626  1.00  0.00    -0.390 OA 
BRANCH   4   7
HETATM    7  C   UNL     1     -10.037   7.372  72.534  1.00  0.00    -0.192 C  
HETATM    8  O   UNL     1     -10.104   7.441  73.969  1.00  0.00    -0.402 OA 
HETATM    9  H   UNL     1     -10.487   6.634  74.291  1.00  0.00     0.000 HD 
BRANCH   7  10
HETATM   10  C   UNL     1     -11.410   6.956  71.967  1.00  0.00    -0.265 C  
HETATM   11  H   UNL     1     -12.108   5.879  70.446  1.00  0.00     0.000 HD 
HETATM   12  O   UNL     1     -11.263   6.135  70.796  1.00  0.00    -0.302 OA 
BRANCH  10  13
HETATM   13  C   UNL     1     -12.394   8.099  71.648  1.00  0.00    -0.314 C  
HETATM   14  H   UNL     1     -12.513  10.077  71.911  1.00  0.00     0.000 HD 
HETATM   15  O   UNL     1     -11.907   9.373  72.107  1.00  0.00    -0.310 OA 
BRANCH  13  16
HETATM   16  C   UNL     1     -13.803   7.887  72.214  1.00  0.00    -0.042 C  
HETATM   17  O   UNL     1     -13.963   8.744  73.354  1.00  0.00    -1.132 OA 
HETATM   18  H   UNL     1     -14.836   8.612  73.704  1.00  0.00     0.000 HD 
ENDBRANCH  13  16
ENDBRANCH  10  13
ENDBRANCH   7  10
ENDBRANCH   4   7
ENDBRANCH   2   4
TORSDOF 5
ENDMDL
MODEL      282
REMARK 921   NORMALIZED FREE ENERGY PREDICTED BY IDOCK:   -1.94 KCAL/MOL
REMARK 922        TOTAL FREE ENERGY PREDICTED BY IDOCK:   -3.36 KCAL/MOL
REMARK 923 INTER-LIGAND FREE ENERGY PREDICTED BY IDOCK:   -2.29 KCAL/MOL
REMARK 924 INTRA-LIGAND FREE ENERGY PREDICTED BY IDOCK:   -1.07 KCAL/MOL
REMARK 927      BINDING AFFINITY PREDICTED BY RF-SCORE:    0.00 PKD
ROOT
HETATM    1  O   UNL     1      -6.395   7.958  72.080  1.00  0.00    -0.045 OA 
HETATM    2  C   UNL     1      -6.170   7.876  73.494  1.00  0.00    -0.077 C  
HETATM    3  H   UNL     1      -5.763   8.549  71.686  1.00  0.00     0.000 HD 
ENDROOT
BRANCH   2   4
HETATM    4  C   UNL     1      -7.189   6.924  74.129  1.00  0.00    -0.092 C  
HETATM    5  H   UNL     1      -7.632   5.008  73.971  1.00  0.00     0.000 HD 
HETATM    6  O   UNL     1      -7.001   5.598  73.577  1.00  0.00    -0.082 OA 
BRANCH   4   7
HETATM    7  C   UNL     1      -8.667   7.277  73.872  1.00  0.00    -0.191 C  
HETATM    8  O   UNL     1      -8.745   8.664  73.501  1.00  0.00    -0.305 OA 
HETATM    9  H   UNL     1      -9.656   8.882  73.343  1.00  0.00     0.000 HD 
BRANCH   7  10
HETATM   10  C   UNL     1      -9.438   6.419  72.847  1.00  0.00    -0.145 C  
HETATM   11  H   UNL     1      -9.668   6.339  70.872  1.00  0.00     0.000 HD 
HETATM   12  O   UNL     1      -9.194   6.867  71.503  1.00  0.00    -0.151 OA 
BRANCH  10  13
HETATM   13  C   UNL     1     -10.961   6.304  73.059  1.00  0.00    -0.242 C  
HETATM   14  H   UNL     1     -12.351   4.868  73.125  1.00  0.00     0.000 HD 
HETATM   15  O   UNL     1     -11.413   4.938  72.995  1.00  0.00    -0.293 OA 
BRANCH  13  16
HETATM   16  C   UNL     1     -11.793   7.136  72.077  1.00  0.00    -0.295 C  
HETATM   17  O   UNL     1     -11.566   8.525  72.359  1.00  0.00    -0.372 OA 
HETATM   18  H   UNL     1     -12.081   9.040  71.751  1.00  0.00     0.000 HD 
ENDBRANCH  13  16
ENDBRANCH  10  13
ENDBRANCH   7  10
ENDBRANCH   4   7
ENDBRANCH   2   4
TORSDOF 5
ENDMDL
MODEL      283
REMARK 921   NORMALIZED FREE ENERGY PREDICTED BY IDOCK:   -1.92 KCAL/MOL
REMARK 922        TOTAL FREE ENERGY PREDICTED BY IDOCK:   -3.33 KCAL/MOL
REMARK 923 INTER-LIGAND FREE ENERGY PREDICTED BY IDOCK:   -3.01 KCAL/MOL
REMARK 924 INTRA-LIGAND FREE ENERGY PREDICTED BY IDOCK:   -0.32 KCAL/MOL
REMARK 927      BINDING AFFINITY PREDICTED BY RF-SCORE:    0.00 PKD
ROOT
HETATM    1  O   UNL     1      -6.696  11.818  70.223  1.00  0.00    -0.473 OA 
HETATM    2  C   UNL     1      -7.196  10.886  69.254  1.00  0.00    -0.128 C  
HETATM    3  H   UNL     1      -6.364  12.593  69.786  1.00  0.00     0.000 HD 
ENDROOT
BRANCH   2   4
HETATM    4  C   UNL     1      -7.732   9.637  69.959  1.00  0.00    -0.157 C  
HETATM    5  H   UNL     1      -7.761   7.699  69.588  1.00  0.00     0.000 HD 
HETATM    6  O   UNL     1      -7.428   8.474  69.151  1.00  0.00    -0.084 OA 
BRANCH   4   7
HETATM    7  C   UNL     1      -9.259   9.608  70.173  1.00  0.00    -0.246 C  
HETATM    8  O   UNL     1      -9.800  10.873  69.756  1.00  0.00    -0.414 OA 
HETATM    9  H   UNL     1     -10.741  10.855  69.888  1.00  0.00     0.000 HD 
BRANCH   7  10
HETATM   10  C   UNL     1     -10.051   8.459  69.515  1.00  0.00    -0.200 C  
HETATM   11  H   UNL     1     -11.122   8.168  67.864  1.00  0.00     0.000 HD 
HETATM   12  O   UNL     1     -10.635   8.875  68.270  1.00  0.00    -0.212 OA 
BRANCH  10  13
HETATM   13  C   UNL     1     -11.145   7.800  70.378  1.00  0.00    -0.251 C  
HETATM   14  H   UNL     1     -11.549   7.525  72.316  1.00  0.00     0.000 HD 
HETATM   15  O   UNL     1     -10.875   7.931  71.786  1.00  0.00    -0.226 OA 
BRANCH  13  16
HETATM   16  C   UNL     1     -11.378   6.317  70.066  1.00  0.00    -0.416 C  
HETATM   17  O   UNL     1     -10.229   5.579  70.506  1.00  0.00    -0.208 OA 
HETATM   18  H   UNL     1     -10.373   4.661  70.312  1.00  0.00     0.000 HD 
ENDBRANCH  13  16
ENDBRANCH  10  13
ENDBRANCH   7  10
ENDBRANCH   4   7
ENDBRANCH   2   4
TORSDOF 5
ENDMDL
MODEL      284
REMARK 921   NORMALIZED FREE ENERGY PREDICTED BY IDOCK:   -1.91 KCAL/MOL
REMARK 922        TOTAL FREE ENERGY PREDICTED BY IDOCK:   -3.31 KCAL/MOL
REMARK 923 INTER-LIGAND FREE ENERGY PREDICTED BY IDOCK:   -2.59 KCAL/MOL
REMARK 924 INTRA-LIGAND FREE ENERGY PREDICTED BY IDOCK:   -0.72 KCAL/MOL
REMARK 927      BINDING AFFINITY PREDICTED BY RF-SCORE:    0.00 PKD
ROOT
HETATM    1  O   UNL     1      -9.136   5.523  68.109  1.00  0.00    -0.108 OA 
HETATM    2  C   UNL     1     -10.370   6.243  67.987  1.00  0.00    -0.192 C  
HETATM    3  H   UNL     1      -9.255   4.773  68.680  1.00  0.00     0.000 HD 
ENDROOT
BRANCH   2   4
HETATM    4  C   UNL     1     -10.179   7.453  67.066  1.00  0.00    -0.287 C  
HETATM    5  H   UNL     1      -8.847   8.021  65.727  1.00  0.00     0.000 HD 
HETATM    6  O   UNL     1      -8.965   7.271  66.298  1.00  0.00    -0.153 OA 
BRANCH   4   7
HETATM    7  C   UNL     1     -10.020   8.807  67.785  1.00  0.00    -0.194 C  
HETATM    8  O   UNL     1     -11.281   9.497  67.740  1.00  0.00    -0.500 OA 
HETATM    9  H   UNL     1     -11.183  10.331  68.183  1.00  0.00     0.000 HD 
BRANCH   7  10
HETATM   10  C   UNL     1      -9.487   8.788  69.233  1.00  0.00    -0.161 C  
HETATM   11  H   UNL     1      -9.659   9.895  70.878  1.00  0.00     0.000 HD 
HETATM   12  O   UNL     1      -9.987   9.906  69.987  1.00  0.00    -0.242 OA 
BRANCH  10  13
HETATM   13  C   UNL     1      -7.955   8.727  69.398  1.00  0.00    -0.100 C  
HETATM   14  H   UNL     1      -6.539   7.338  69.639  1.00  0.00     0.000 HD 
HETATM   15  O   UNL     1      -7.482   7.375  69.538  1.00  0.00    -0.086 OA 
BRANCH  13  16
HETATM   16  C   UNL     1      -7.421   9.551  70.575  1.00  0.00    -0.148 C  
HETATM   17  O   UNL     1      -7.188  10.891  70.116  1.00  0.00    -0.423 OA 
HETATM   18  H   UNL     1      -6.856  11.402  70.845  1.00  0.00     0.000 HD 
ENDBRANCH  13  16
ENDBRANCH  10  13
ENDBRANCH   7  10
ENDBRANCH   4   7
ENDBRANCH   2   4
TORSDOF 5
ENDMDL
MODEL      285
REMARK 921   NORMALIZED FREE ENERGY PREDICTED BY IDOCK:   -1.91 KCAL/MOL
REMARK 922        TOTAL FREE ENERGY PREDICTED BY IDOCK:   -3.31 KCAL/MOL
REMARK 923 INTER-LIGAND FREE ENERGY PREDICTED BY IDOCK:   -3.13 KCAL/MOL
REMARK 924 INTRA-LIGAND FREE ENERGY PREDICTED BY IDOCK:   -0.18 KCAL/MOL
REMARK 927      BINDING AFFINITY PREDICTED BY RF-SCORE:    0.00 PKD
ROOT
HETATM    1  O   UNL     1     -11.805   6.559  68.885  1.00  0.00    -0.471 OA 
HETATM    2  C   UNL     1     -10.563   6.449  68.177  1.00  0.00    -0.255 C  
HETATM    3  H   UNL     1     -11.871   5.866  69.532  1.00  0.00     0.000 HD 
ENDROOT
BRANCH   2   4
HETATM    4  C   UNL     1     -10.457   7.566  67.133  1.00  0.00    -0.336 C  
HETATM    5  H   UNL     1      -9.470   7.845  65.449  1.00  0.00     0.000 HD 
HETATM    6  O   UNL     1      -9.535   7.153  66.096  1.00  0.00    -0.117 OA 
BRANCH   4   7
HETATM    7  C   UNL     1      -9.916   8.909  67.662  1.00  0.00    -0.196 C  
HETATM    8  O   UNL     1      -8.973   9.426  66.708  1.00  0.00    -0.128 OA 
HETATM    9  H   UNL     1      -8.639  10.254  67.034  1.00  0.00     0.000 HD 
BRANCH   7  10
HETATM   10  C   UNL     1     -10.945  10.001  68.024  1.00  0.00    -0.240 C  
HETATM   11  H   UNL     1     -12.015  11.384  67.075  1.00  0.00     0.000 HD 
HETATM   12  O   UNL     1     -11.382  10.713  66.854  1.00  0.00    -0.257 OA 
BRANCH  10  13
HETATM   13  C   UNL     1     -10.510  11.025  69.091  1.00  0.00    -0.210 C  
HETATM   14  H   UNL     1     -11.282  11.908  70.709  1.00  0.00     0.000 HD 
HETATM   15  O   UNL     1     -11.551  11.277  70.052  1.00  0.00    -0.297 OA 
BRANCH  13  16
HETATM   16  C   UNL     1     -10.047  12.368  68.515  1.00  0.00    -0.185 C  
HETATM   17  O   UNL     1     -10.657  13.419  69.278  1.00  0.00    -0.438 OA 
HETATM   18  H   UNL     1     -10.370  14.251  68.921  1.00  0.00     0.000 HD 
ENDBRANCH  13  16
ENDBRANCH  10  13
ENDBRANCH   7  10
ENDBRANCH   4   7
ENDBRANCH   2   4
TORSDOF 5
ENDMDL
MODEL      286
REMARK 921   NORMALIZED FREE ENERGY PREDICTED BY IDOCK:   -1.90 KCAL/MOL
REMARK 922        TOTAL FREE ENERGY PREDICTED BY IDOCK:   -3.30 KCAL/MOL
REMARK 923 INTER-LIGAND FREE ENERGY PREDICTED BY IDOCK:   -3.03 KCAL/MOL
REMARK 924 INTRA-LIGAND FREE ENERGY PREDICTED BY IDOCK:   -0.26 KCAL/MOL
REMARK 927      BINDING AFFINITY PREDICTED BY RF-SCORE:    0.00 PKD
ROOT
HETATM    1  O   UNL     1     -11.106  12.024  66.808  1.00  0.00    -0.272 OA 
HETATM    2  C   UNL     1     -12.009  12.683  67.707  1.00  0.00    -0.243 C  
HETATM    3  H   UNL     1     -11.028  11.107  67.043  1.00  0.00     0.000 HD 
ENDROOT
BRANCH   2   4
HETATM    4  C   UNL     1     -12.135  14.162  67.327  1.00  0.00    -0.372 C  
HETATM    5  H   UNL     1     -12.148  15.201  65.651  1.00  0.00     0.000 HD 
HETATM    6  O   UNL     1     -12.070  14.284  65.886  1.00  0.00    -0.398 OA 
BRANCH   4   7
HETATM    7  C   UNL     1     -11.022  15.078  67.875  1.00  0.00    -0.291 C  
HETATM    8  O   UNL     1     -11.631  16.276  68.386  1.00  0.00    -0.327 OA 
HETATM    9  H   UNL     1     -10.945  16.840  68.723  1.00  0.00     0.000 HD 
BRANCH   7  10
HETATM   10  C   UNL     1     -10.066  14.486  68.932  1.00  0.00    -0.224 C  
HETATM   11  H   UNL     1      -9.618  14.794  70.846  1.00  0.00     0.000 HD 
HETATM   12  O   UNL     1     -10.206  15.158  70.195  1.00  0.00    -0.202 OA 
BRANCH  10  13
HETATM   13  C   UNL     1      -8.571  14.446  68.557  1.00  0.00    -0.175 C  
HETATM   14  H   UNL     1      -7.417  14.896  66.988  1.00  0.00     0.000 HD 
HETATM   15  O   UNL     1      -8.338  14.921  67.218  1.00  0.00    -0.182 OA 
BRANCH  13  16
HETATM   16  C   UNL     1      -7.929  13.062  68.698  1.00  0.00    -0.027 C  
HETATM   17  O   UNL     1      -6.812  13.174  69.593  1.00  0.00    -0.321 OA 
HETATM   18  H   UNL     1      -6.414  12.316  69.681  1.00  0.00     0.000 HD 
ENDBRANCH  13  16
ENDBRANCH  10  13
ENDBRANCH   7  10
ENDBRANCH   4   7
ENDBRANCH   2   4
TORSDOF 5
ENDMDL
MODEL      287
REMARK 921   NORMALIZED FREE ENERGY PREDICTED BY IDOCK:   -1.89 KCAL/MOL
REMARK 922        TOTAL FREE ENERGY PREDICTED BY IDOCK:   -3.29 KCAL/MOL
REMARK 923 INTER-LIGAND FREE ENERGY PREDICTED BY IDOCK:   -3.46 KCAL/MOL
REMARK 924 INTRA-LIGAND FREE ENERGY PREDICTED BY IDOCK:    0.16 KCAL/MOL
REMARK 927      BINDING AFFINITY PREDICTED BY RF-SCORE:    0.00 PKD
ROOT
HETATM    1  O   UNL     1      -7.352  10.590  66.062  1.00  0.00    -0.128 OA 
HETATM    2  C   UNL     1      -7.835  10.976  67.356  1.00  0.00    -0.118 C  
HETATM    3  H   UNL     1      -6.739   9.869  66.147  1.00  0.00     0.000 HD 
ENDROOT
BRANCH   2   4
HETATM    4  C   UNL     1      -8.824  12.138  67.219  1.00  0.00    -0.186 C  
HETATM    5  H   UNL     1      -8.726  14.105  67.328  1.00  0.00     0.000 HD 
HETATM    6  O   UNL     1      -8.113  13.385  67.413  1.00  0.00    -0.167 OA 
BRANCH   4   7
HETATM    7  C   UNL     1      -9.972  12.148  68.247  1.00  0.00    -0.212 C  
HETATM    8  O   UNL     1     -10.022  13.447  68.861  1.00  0.00    -0.416 OA 
HETATM    9  H   UNL     1     -10.730  13.453  69.494  1.00  0.00     0.000 HD 
BRANCH   7  10
HETATM   10  C   UNL     1     -11.379  11.752  67.750  1.00  0.00    -0.289 C  
HETATM   11  H   UNL     1     -12.381  10.080  67.350  1.00  0.00     0.000 HD 
HETATM   12  O   UNL     1     -11.515  10.324  67.655  1.00  0.00    -0.345 OA 
BRANCH  10  13
HETATM   13  C   UNL     1     -11.836  12.380  66.418  1.00  0.00    -0.354 C  
HETATM   14  H   UNL     1     -11.339  12.297  64.484  1.00  0.00     0.000 HD 
HETATM   15  O   UNL     1     -11.056  11.910  65.304  1.00  0.00    -0.301 OA 
BRANCH  13  16
HETATM   16  C   UNL     1     -11.816  13.913  66.411  1.00  0.00    -0.411 C  
HETATM   17  O   UNL     1     -12.648  14.379  67.484  1.00  0.00    -0.529 OA 
HETATM   18  H   UNL     1     -12.636  15.328  67.479  1.00  0.00     0.000 HD 
ENDBRANCH  13  16
ENDBRANCH  10  13
ENDBRANCH   7  10
ENDBRANCH   4   7
ENDBRANCH   2   4
TORSDOF 5
ENDMDL
MODEL      288
REMARK 921   NORMALIZED FREE ENERGY PREDICTED BY IDOCK:   -1.88 KCAL/MOL
REMARK 922        TOTAL FREE ENERGY PREDICTED BY IDOCK:   -3.27 KCAL/MOL
REMARK 923 INTER-LIGAND FREE ENERGY PREDICTED BY IDOCK:   -3.03 KCAL/MOL
REMARK 924 INTRA-LIGAND FREE ENERGY PREDICTED BY IDOCK:   -0.24 KCAL/MOL
REMARK 927      BINDING AFFINITY PREDICTED BY RF-SCORE:    0.00 PKD
ROOT
HETATM    1  O   UNL     1     -12.319   7.840  72.820  1.00  0.00    -0.580 OA 
HETATM    2  C   UNL     1     -12.254   7.060  71.619  1.00  0.00    -0.357 C  
HETATM    3  H   UNL     1     -13.093   7.604  73.318  1.00  0.00     0.000 HD 
ENDROOT
BRANCH   2   4
HETATM    4  C   UNL     1     -11.006   7.441  70.817  1.00  0.00    -0.255 C  
HETATM    5  H   UNL     1     -10.440   8.978  69.717  1.00  0.00     0.000 HD 
HETATM    6  O   UNL     1     -11.214   8.741  70.215  1.00  0.00    -0.253 OA 
BRANCH   4   7
HETATM    7  C   UNL     1     -10.659   6.492  69.652  1.00  0.00    -0.243 C  
HETATM    8  O   UNL     1     -11.635   6.674  68.612  1.00  0.00    -0.567 OA 
HETATM    9  H   UNL     1     -11.421   6.090  67.894  1.00  0.00     0.000 HD 
BRANCH   7  10
HETATM   10  C   UNL     1      -9.239   6.583  69.056  1.00  0.00    -0.130 C  
HETATM   11  H   UNL     1      -7.442   7.221  69.627  1.00  0.00     0.000 HD 
HETATM   12  O   UNL     1      -8.316   7.165  69.993  1.00  0.00    -0.134 OA 
BRANCH  10  13
HETATM   13  C   UNL     1      -9.107   7.323  67.710  1.00  0.00    -0.124 C  
HETATM   14  H   UNL     1      -8.110   7.118  65.989  1.00  0.00     0.000 HD 
HETATM   15  O   UNL     1      -8.190   6.662  66.818  1.00  0.00    -0.111 OA 
BRANCH  13  16
HETATM   16  C   UNL     1      -8.680   8.789  67.842  1.00  0.00    -0.136 C  
HETATM   17  O   UNL     1      -9.147   9.500  66.686  1.00  0.00    -0.142 OA 
HETATM   18  H   UNL     1      -8.882  10.408  66.768  1.00  0.00     0.000 HD 
ENDBRANCH  13  16
ENDBRANCH  10  13
ENDBRANCH   7  10
ENDBRANCH   4   7
ENDBRANCH   2   4
TORSDOF 5
ENDMDL
MODEL      289
REMARK 921   NORMALIZED FREE ENERGY PREDICTED BY IDOCK:   -1.87 KCAL/MOL
REMARK 922        TOTAL FREE ENERGY PREDICTED BY IDOCK:   -3.26 KCAL/MOL
REMARK 923 INTER-LIGAND FREE ENERGY PREDICTED BY IDOCK:   -2.84 KCAL/MOL
REMARK 924 INTRA-LIGAND FREE ENERGY PREDICTED BY IDOCK:   -0.42 KCAL/MOL
REMARK 927      BINDING AFFINITY PREDICTED BY RF-SCORE:    0.00 PKD
ROOT
HETATM    1  O   UNL     1      -7.389  10.967  70.397  1.00  0.00    -0.365 OA 
HETATM    2  C   UNL     1      -8.234   9.999  69.760  1.00  0.00    -0.178 C  
HETATM    3  H   UNL     1      -6.971  11.514  69.742  1.00  0.00     0.000 HD 
ENDROOT
BRANCH   2   4
HETATM    4  C   UNL     1      -8.908   9.119  70.817  1.00  0.00    -0.239 C  
HETATM    5  H   UNL     1      -8.481   7.428  71.738  1.00  0.00     0.000 HD 
HETATM    6  O   UNL     1      -8.062   7.974  71.083  1.00  0.00    -0.087 OA 
BRANCH   4   7
HETATM    7  C   UNL     1     -10.279   8.541  70.413  1.00  0.00    -0.195 C  
HETATM    8  O   UNL     1     -10.550   8.922  69.053  1.00  0.00    -0.244 OA 
HETATM    9  H   UNL     1     -11.394   8.566  68.804  1.00  0.00     0.000 HD 
BRANCH   7  10
HETATM   10  C   UNL     1     -10.491   7.022  70.581  1.00  0.00    -0.210 C  
HETATM   11  H   UNL     1     -11.272   5.521  69.533  1.00  0.00     0.000 HD 
HETATM   12  O   UNL     1     -11.141   6.456  69.430  1.00  0.00    -0.323 OA 
BRANCH  10  13
HETATM   13  C   UNL     1     -11.247   6.571  71.846  1.00  0.00    -0.272 C  
HETATM   14  H   UNL     1     -11.933   7.384  73.539  1.00  0.00     0.000 HD 
HETATM   15  O   UNL     1     -11.467   7.662  72.760  1.00  0.00    -0.355 OA 
BRANCH  13  16
HETATM   16  C   UNL     1     -10.564   5.431  72.609  1.00  0.00    -0.228 C  
HETATM   17  O   UNL     1      -9.351   5.938  73.185  1.00  0.00    -0.140 OA 
HETATM   18  H   UNL     1      -8.928   5.231  73.658  1.00  0.00     0.000 HD 
ENDBRANCH  13  16
ENDBRANCH  10  13
ENDBRANCH   7  10
ENDBRANCH   4   7
ENDBRANCH   2   4
TORSDOF 5
ENDMDL
MODEL      290
REMARK 921   NORMALIZED FREE ENERGY PREDICTED BY IDOCK:   -1.86 KCAL/MOL
REMARK 922        TOTAL FREE ENERGY PREDICTED BY IDOCK:   -3.25 KCAL/MOL
REMARK 923 INTER-LIGAND FREE ENERGY PREDICTED BY IDOCK:   -3.06 KCAL/MOL
REMARK 924 INTRA-LIGAND FREE ENERGY PREDICTED BY IDOCK:   -0.19 KCAL/MOL
REMARK 927      BINDING AFFINITY PREDICTED BY RF-SCORE:    0.00 PKD
ROOT
HETATM    1  O   UNL     1     -11.247  12.312  69.660  1.00  0.00    -0.449 OA 
HETATM    2  C   UNL     1     -11.461  12.923  68.380  1.00  0.00    -0.312 C  
HETATM    3  H   UNL     1     -12.049  11.899  69.960  1.00  0.00     0.000 HD 
ENDROOT
BRANCH   2   4
HETATM    4  C   UNL     1     -10.169  13.588  67.897  1.00  0.00    -0.247 C  
HETATM    5  H   UNL     1      -8.245  13.155  67.946  1.00  0.00     0.000 HD 
HETATM    6  O   UNL     1      -9.046  12.742  68.245  1.00  0.00    -0.199 OA 
BRANCH   4   7
HETATM    7  C   UNL     1      -9.865  14.964  68.523  1.00  0.00    -0.217 C  
HETATM    8  O   UNL     1     -10.329  14.957  69.884  1.00  0.00    -0.422 OA 
HETATM    9  H   UNL     1     -10.142  15.804  70.269  1.00  0.00     0.000 HD 
BRANCH   7  10
HETATM   10  C   UNL     1      -8.406  15.464  68.473  1.00  0.00    -0.151 C  
HETATM   11  H   UNL     1      -6.688  15.085  69.402  1.00  0.00     0.000 HD 
HETATM   12  O   UNL     1      -7.585  14.777  69.433  1.00  0.00    -0.163 OA 
BRANCH  10  13
HETATM   13  C   UNL     1      -8.197  16.983  68.642  1.00  0.00    -0.261 C  
HETATM   14  H   UNL     1      -9.316  18.624  68.861  1.00  0.00     0.000 HD 
HETATM   15  O   UNL     1      -9.445  17.689  68.757  1.00  0.00    -0.286 OA 
BRANCH  13  16
HETATM   16  C   UNL     1      -7.376  17.629  67.520  1.00  0.00    -0.189 C  
HETATM   17  O   UNL     1      -6.136  18.089  68.077  1.00  0.00    -0.164 OA 
HETATM   18  H   UNL     1      -5.628  18.490  67.382  1.00  0.00     0.000 HD 
ENDBRANCH  13  16
ENDBRANCH  10  13
ENDBRANCH   7  10
ENDBRANCH   4   7
ENDBRANCH   2   4
TORSDOF 5
ENDMDL
MODEL      291
REMARK 921   NORMALIZED FREE ENERGY PREDICTED BY IDOCK:   -1.86 KCAL/MOL
REMARK 922        TOTAL FREE ENERGY PREDICTED BY IDOCK:   -3.25 KCAL/MOL
REMARK 923 INTER-LIGAND FREE ENERGY PREDICTED BY IDOCK:   -2.79 KCAL/MOL
REMARK 924 INTRA-LIGAND FREE ENERGY PREDICTED BY IDOCK:   -0.46 KCAL/MOL
REMARK 927      BINDING AFFINITY PREDICTED BY RF-SCORE:    0.00 PKD
ROOT
HETATM    1  O   UNL     1     -11.412  12.177  70.077  1.00  0.00    -0.499 OA 
HETATM    2  C   UNL     1     -12.092  11.066  69.476  1.00  0.00    -0.329 C  
HETATM    3  H   UNL     1     -11.609  12.974  69.599  1.00  0.00     0.000 HD 
ENDROOT
BRANCH   2   4
HETATM    4  C   UNL     1     -11.775   9.781  70.247  1.00  0.00    -0.190 C  
HETATM    5  H   UNL     1     -11.004   9.335  72.007  1.00  0.00     0.000 HD 
HETATM    6  O   UNL     1     -11.201  10.132  71.529  1.00  0.00    -0.157 OA 
BRANCH   4   7
HETATM    7  C   UNL     1     -10.750   8.847  69.572  1.00  0.00    -0.199 C  
HETATM    8  O   UNL     1     -11.277   7.509  69.586  1.00  0.00    -0.434 OA 
HETATM    9  H   UNL     1     -10.645   6.934  69.171  1.00  0.00     0.000 HD 
BRANCH   7  10
HETATM   10  C   UNL     1     -10.284   9.209  68.146  1.00  0.00    -0.207 C  
HETATM   11  H   UNL     1     -10.499   8.493  66.302  1.00  0.00     0.000 HD 
HETATM   12  O   UNL     1     -10.786   8.271  67.180  1.00  0.00    -0.302 OA 
BRANCH  10  13
HETATM   13  C   UNL     1      -8.764   9.363  67.942  1.00  0.00    -0.120 C  
HETATM   14  H   UNL     1      -7.496  10.683  67.137  1.00  0.00     0.000 HD 
HETATM   15  O   UNL     1      -8.433  10.589  67.262  1.00  0.00    -0.122 OA 
BRANCH  13  16
HETATM   16  C   UNL     1      -8.115   8.199  67.185  1.00  0.00    -0.116 C  
HETATM   17  O   UNL     1      -8.207   7.024  68.003  1.00  0.00    -0.117 OA 
HETATM   18  H   UNL     1      -7.805   6.303  67.534  1.00  0.00     0.000 HD 
ENDBRANCH  13  16
ENDBRANCH  10  13
ENDBRANCH   7  10
ENDBRANCH   4   7
ENDBRANCH   2   4
TORSDOF 5
ENDMDL
MODEL      292
REMARK 921   NORMALIZED FREE ENERGY PREDICTED BY IDOCK:   -1.86 KCAL/MOL
REMARK 922        TOTAL FREE ENERGY PREDICTED BY IDOCK:   -3.24 KCAL/MOL
REMARK 923 INTER-LIGAND FREE ENERGY PREDICTED BY IDOCK:   -2.60 KCAL/MOL
REMARK 924 INTRA-LIGAND FREE ENERGY PREDICTED BY IDOCK:   -0.64 KCAL/MOL
REMARK 927      BINDING AFFINITY PREDICTED BY RF-SCORE:    0.00 PKD
ROOT
HETATM    1  O   UNL     1     -10.800   7.156  66.907  1.00  0.00    -0.426 OA 
HETATM    2  C   UNL     1      -9.509   6.804  66.390  1.00  0.00    -0.119 C  
HETATM    3  H   UNL     1     -11.416   6.451  66.747  1.00  0.00     0.000 HD 
ENDROOT
BRANCH   2   4
HETATM    4  C   UNL     1      -8.516   7.942  66.648  1.00  0.00    -0.131 C  
HETATM    5  H   UNL     1      -7.638   8.728  68.229  1.00  0.00     0.000 HD 
HETATM    6  O   UNL     1      -8.254   8.023  68.070  1.00  0.00    -0.126 OA 
BRANCH   4   7
HETATM    7  C   UNL     1      -9.002   9.344  66.232  1.00  0.00    -0.156 C  
HETATM    8  O   UNL     1      -9.819   9.213  65.056  1.00  0.00    -0.374 OA 
HETATM    9  H   UNL     1     -10.118  10.077  64.800  1.00  0.00     0.000 HD 
BRANCH   7  10
HETATM   10  C   UNL     1      -9.744  10.186  67.292  1.00  0.00    -0.167 C  
HETATM   11  H   UNL     1     -11.553  10.245  68.119  1.00  0.00     0.000 HD 
HETATM   12  O   UNL     1     -11.096   9.728  67.467  1.00  0.00    -0.234 OA 
BRANCH  10  13
HETATM   13  C   UNL     1      -9.766  11.711  67.064  1.00  0.00    -0.186 C  
HETATM   14  H   UNL     1      -9.615  12.989  65.534  1.00  0.00     0.000 HD 
HETATM   15  O   UNL     1      -9.602  12.050  65.674  1.00  0.00    -0.239 OA 
BRANCH  13  16
HETATM   16  C   UNL     1      -8.717  12.478  67.877  1.00  0.00    -0.180 C  
HETATM   17  O   UNL     1      -7.498  12.513  67.119  1.00  0.00    -0.264 OA 
HETATM   18  H   UNL     1      -6.849  12.989  67.623  1.00  0.00     0.000 HD 
ENDBRANCH  13  16
ENDBRANCH  10  13
ENDBRANCH   7  10
ENDBRANCH   4   7
ENDBRANCH   2   4
TORSDOF 5
ENDMDL
MODEL      293
REMARK 921   NORMALIZED FREE ENERGY PREDICTED BY IDOCK:   -1.85 KCAL/MOL
REMARK 922        TOTAL FREE ENERGY PREDICTED BY IDOCK:   -3.24 KCAL/MOL
REMARK 923 INTER-LIGAND FREE ENERGY PREDICTED BY IDOCK:   -3.07 KCAL/MOL
REMARK 924 INTRA-LIGAND FREE ENERGY PREDICTED BY IDOCK:   -0.17 KCAL/MOL
REMARK 927      BINDING AFFINITY PREDICTED BY RF-SCORE:    0.00 PKD
ROOT
HETATM    1  O   UNL     1     -11.501   5.669  73.288  1.00  0.00    -0.493 OA 
HETATM    2  C   UNL     1     -10.765   6.887  73.472  1.00  0.00    -0.312 C  
HETATM    3  H   UNL     1     -11.322   5.072  74.004  1.00  0.00     0.000 HD 
ENDROOT
BRANCH   2   4
HETATM    4  C   UNL     1     -11.054   7.850  72.316  1.00  0.00    -0.318 C  
HETATM    5  H   UNL     1     -12.599   8.916  71.709  1.00  0.00     0.000 HD 
HETATM    6  O   UNL     1     -12.420   8.318  72.425  1.00  0.00    -0.344 OA 
BRANCH   4   7
HETATM    7  C   UNL     1     -10.934   7.239  70.906  1.00  0.00    -0.253 C  
HETATM    8  O   UNL     1     -12.216   7.326  70.262  1.00  0.00    -0.555 OA 
HETATM    9  H   UNL     1     -12.142   6.949  69.393  1.00  0.00     0.000 HD 
BRANCH   7  10
HETATM   10  C   UNL     1      -9.842   7.804  69.973  1.00  0.00    -0.181 C  
HETATM   11  H   UNL     1      -9.748   8.791  68.248  1.00  0.00     0.000 HD 
HETATM   12  O   UNL     1     -10.419   8.443  68.822  1.00  0.00    -0.214 OA 
BRANCH  10  13
HETATM   13  C   UNL     1      -8.766   6.808  69.496  1.00  0.00    -0.133 C  
HETATM   14  H   UNL     1      -7.209   5.817  70.265  1.00  0.00     0.000 HD 
HETATM   15  O   UNL     1      -7.872   6.431  70.559  1.00  0.00    -0.102 OA 
BRANCH  13  16
HETATM   16  C   UNL     1      -7.929   7.311  68.315  1.00  0.00    -0.124 C  
HETATM   17  O   UNL     1      -6.559   7.391  68.736  1.00  0.00    -0.045 OA 
HETATM   18  H   UNL     1      -6.041   7.703  68.004  1.00  0.00     0.000 HD 
ENDBRANCH  13  16
ENDBRANCH  10  13
ENDBRANCH   7  10
ENDBRANCH   4   7
ENDBRANCH   2   4
TORSDOF 5
ENDMDL
MODEL      294
REMARK 921   NORMALIZED FREE ENERGY PREDICTED BY IDOCK:   -1.85 KCAL/MOL
REMARK 922        TOTAL FREE ENERGY PREDICTED BY IDOCK:   -3.24 KCAL/MOL
REMARK 923 INTER-LIGAND FREE ENERGY PREDICTED BY IDOCK:   -2.62 KCAL/MOL
REMARK 924 INTRA-LIGAND FREE ENERGY PREDICTED BY IDOCK:   -0.61 KCAL/MOL
REMARK 927      BINDING AFFINITY PREDICTED BY RF-SCORE:    0.00 PKD
ROOT
HETATM    1  O   UNL     1      -9.380   8.394  69.619  1.00  0.00    -0.159 OA 
HETATM    2  C   UNL     1      -8.445   8.290  68.536  1.00  0.00    -0.126 C  
HETATM    3  H   UNL     1      -9.800   9.246  69.604  1.00  0.00     0.000 HD 
ENDROOT
BRANCH   2   4
HETATM    4  C   UNL     1      -7.769   6.916  68.561  1.00  0.00    -0.113 C  
HETATM    5  H   UNL     1      -6.347   6.015  67.533  1.00  0.00     0.000 HD 
HETATM    6  O   UNL     1      -6.766   6.867  67.517  1.00  0.00    -0.062 OA 
BRANCH   4   7
HETATM    7  C   UNL     1      -8.704   5.719  68.297  1.00  0.00    -0.111 C  
HETATM    8  O   UNL     1      -9.679   5.663  69.352  1.00  0.00    -0.141 OA 
HETATM    9  H   UNL     1     -10.255   4.925  69.190  1.00  0.00     0.000 HD 
BRANCH   7  10
HETATM   10  C   UNL     1      -9.413   5.654  66.928  1.00  0.00    -0.135 C  
HETATM   11  H   UNL     1     -11.215   6.054  66.184  1.00  0.00     0.000 HD 
HETATM   12  O   UNL     1     -10.778   6.093  67.027  1.00  0.00    -0.277 OA 
BRANCH  10  13
HETATM   13  C   UNL     1      -9.383   4.293  66.205  1.00  0.00    -0.162 C  
HETATM   14  H   UNL     1      -8.027   2.942  65.628  1.00  0.00     0.000 HD 
HETATM   15  O   UNL     1      -8.045   3.781  66.074  1.00  0.00    -0.099 OA 
BRANCH  13  16
HETATM   16  C   UNL     1     -10.034   4.309  64.817  1.00  0.00    -0.150 C  
HETATM   17  O   UNL     1     -11.455   4.424  64.988  1.00  0.00    -1.090 OA 
HETATM   18  H   UNL     1     -11.858   4.434  64.128  1.00  0.00     0.000 HD 
ENDBRANCH  13  16
ENDBRANCH  10  13
ENDBRANCH   7  10
ENDBRANCH   4   7
ENDBRANCH   2   4
TORSDOF 5
ENDMDL
MODEL      295
REMARK 921   NORMALIZED FREE ENERGY PREDICTED BY IDOCK:   -1.84 KCAL/MOL
REMARK 922        TOTAL FREE ENERGY PREDICTED BY IDOCK:   -3.22 KCAL/MOL
REMARK 923 INTER-LIGAND FREE ENERGY PREDICTED BY IDOCK:   -2.90 KCAL/MOL
REMARK 924 INTRA-LIGAND FREE ENERGY PREDICTED BY IDOCK:   -0.32 KCAL/MOL
REMARK 927      BINDING AFFINITY PREDICTED BY RF-SCORE:    0.00 PKD
ROOT
HETATM    1  O   UNL     1      -8.490   8.284  68.149  1.00  0.00    -0.130 OA 
HETATM    2  C   UNL     1      -8.943   9.329  67.278  1.00  0.00    -0.123 C  
HETATM    3  H   UNL     1      -7.649   7.956  67.852  1.00  0.00     0.000 HD 
ENDROOT
BRANCH   2   4
HETATM    4  C   UNL     1     -10.298   9.858  67.757  1.00  0.00    -0.221 C  
HETATM    5  H   UNL     1     -11.982  10.427  66.903  1.00  0.00     0.000 HD 
HETATM    6  O   UNL     1     -11.142  10.100  66.605  1.00  0.00    -0.012 OA 
BRANCH   4   7
HETATM    7  C   UNL     1     -10.248  11.193  68.526  1.00  0.00    -0.198 C  
HETATM    8  O   UNL     1      -8.995  11.267  69.227  1.00  0.00    -0.390 OA 
HETATM    9  H   UNL     1      -8.964  12.090  69.700  1.00  0.00     0.000 HD 
BRANCH   7  10
HETATM   10  C   UNL     1     -10.472  12.490  67.719  1.00  0.00    -0.220 C  
HETATM   11  H   UNL     1      -9.580  14.254  67.494  1.00  0.00     0.000 HD 
HETATM   12  O   UNL     1      -9.443  13.456  67.990  1.00  0.00    -0.204 OA 
BRANCH  10  13
HETATM   13  C   UNL     1     -11.845  13.171  67.887  1.00  0.00    -0.348 C  
HETATM   14  H   UNL     1     -13.081  14.313  66.808  1.00  0.00     0.000 HD 
HETATM   15  O   UNL     1     -12.236  13.894  66.704  1.00  0.00    -0.437 OA 
BRANCH  13  16
HETATM   16  C   UNL     1     -11.927  14.123  69.085  1.00  0.00    -0.349 C  
HETATM   17  O   UNL     1     -12.498  13.406  70.190  1.00  0.00    -0.267 OA 
HETATM   18  H   UNL     1     -12.549  13.996  70.932  1.00  0.00     0.000 HD 
ENDBRANCH  13  16
ENDBRANCH  10  13
ENDBRANCH   7  10
ENDBRANCH   4   7
ENDBRANCH   2   4
TORSDOF 5
ENDMDL
MODEL      296
REMARK 921   NORMALIZED FREE ENERGY PREDICTED BY IDOCK:   -1.84 KCAL/MOL
REMARK 922        TOTAL FREE ENERGY PREDICTED BY IDOCK:   -3.22 KCAL/MOL
REMARK 923 INTER-LIGAND FREE ENERGY PREDICTED BY IDOCK:   -2.64 KCAL/MOL
REMARK 924 INTRA-LIGAND FREE ENERGY PREDICTED BY IDOCK:   -0.58 KCAL/MOL
REMARK 927      BINDING AFFINITY PREDICTED BY RF-SCORE:    0.00 PKD
ROOT
HETATM    1  O   UNL     1      -9.540   4.073  70.276  1.00  0.00    -0.173 OA 
HETATM    2  C   UNL     1      -9.926   3.598  71.573  1.00  0.00    -0.111 C  
HETATM    3  H   UNL     1      -9.463   3.343  69.673  1.00  0.00     0.000 HD 
ENDROOT
BRANCH   2   4
HETATM    4  C   UNL     1     -10.049   4.776  72.544  1.00  0.00    -0.181 C  
HETATM    5  H   UNL     1     -11.451   5.497  73.731  1.00  0.00     0.000 HD 
HETATM    6  O   UNL     1     -11.375   4.766  73.129  1.00  0.00    -0.303 OA 
BRANCH   4   7
HETATM    7  C   UNL     1      -9.884   6.171  71.909  1.00  0.00    -0.156 C  
HETATM    8  O   UNL     1     -11.071   6.471  71.156  1.00  0.00    -0.256 OA 
HETATM    9  H   UNL     1     -10.968   7.331  70.764  1.00  0.00     0.000 HD 
BRANCH   7  10
HETATM   10  C   UNL     1      -9.551   7.349  72.850  1.00  0.00    -0.176 C  
HETATM   11  H   UNL     1     -10.272   9.159  73.251  1.00  0.00     0.000 HD 
HETATM   12  O   UNL     1     -10.476   8.434  72.673  1.00  0.00    -0.326 OA 
BRANCH  10  13
HETATM   13  C   UNL     1      -8.116   7.906  72.768  1.00  0.00    -0.136 C  
HETATM   14  H   UNL     1      -6.987   9.259  73.713  1.00  0.00     0.000 HD 
HETATM   15  O   UNL     1      -7.872   8.916  73.763  1.00  0.00    -0.380 OA 
BRANCH  13  16
HETATM   16  C   UNL     1      -7.746   8.479  71.395  1.00  0.00    -0.109 C  
HETATM   17  O   UNL     1      -8.550   9.646  71.164  1.00  0.00    -0.337 OA 
HETATM   18  H   UNL     1      -8.321  10.001  70.314  1.00  0.00     0.000 HD 
ENDBRANCH  13  16
ENDBRANCH  10  13
ENDBRANCH   7  10
ENDBRANCH   4   7
ENDBRANCH   2   4
TORSDOF 5
ENDMDL
MODEL      297
REMARK 921   NORMALIZED FREE ENERGY PREDICTED BY IDOCK:   -1.83 KCAL/MOL
REMARK 922        TOTAL FREE ENERGY PREDICTED BY IDOCK:   -3.21 KCAL/MOL
REMARK 923 INTER-LIGAND FREE ENERGY PREDICTED BY IDOCK:   -2.81 KCAL/MOL
REMARK 924 INTRA-LIGAND FREE ENERGY PREDICTED BY IDOCK:   -0.41 KCAL/MOL
REMARK 927      BINDING AFFINITY PREDICTED BY RF-SCORE:    0.00 PKD
ROOT
HETATM    1  O   UNL     1      -7.549   8.745  65.345  1.00  0.00    -0.084 OA 
HETATM    2  C   UNL     1      -8.815   8.415  65.932  1.00  0.00    -0.175 C  
HETATM    3  H   UNL     1      -7.325   8.106  64.678  1.00  0.00     0.000 HD 
ENDROOT
BRANCH   2   4
HETATM    4  C   UNL     1      -9.176   9.445  67.007  1.00  0.00    -0.142 C  
HETATM    5  H   UNL     1      -9.353   9.445  68.972  1.00  0.00     0.000 HD 
HETATM    6  O   UNL     1      -9.129   8.805  68.305  1.00  0.00    -0.140 OA 
BRANCH   4   7
HETATM    7  C   UNL     1     -10.590  10.049  66.889  1.00  0.00    -0.192 C  
HETATM    8  O   UNL     1     -11.196  10.043  68.193  1.00  0.00    -0.459 OA 
HETATM    9  H   UNL     1     -12.067  10.415  68.120  1.00  0.00     0.000 HD 
BRANCH   7  10
HETATM   10  C   UNL     1     -10.717  11.452  66.261  1.00  0.00    -0.270 C  
HETATM   11  H   UNL     1      -9.968  12.441  64.705  1.00  0.00     0.000 HD 
HETATM   12  O   UNL     1      -9.889  11.577  65.092  1.00  0.00    -0.244 OA 
BRANCH  10  13
HETATM   13  C   UNL     1     -10.437  12.648  67.193  1.00  0.00    -0.235 C  
HETATM   14  H   UNL     1      -9.484  13.003  68.914  1.00  0.00     0.000 HD 
HETATM   15  O   UNL     1      -9.656  12.266  68.340  1.00  0.00    -0.213 OA 
BRANCH  13  16
HETATM   16  C   UNL     1     -11.700  13.366  67.684  1.00  0.00    -0.359 C  
HETATM   17  O   UNL     1     -11.979  12.920  69.020  1.00  0.00    -0.295 OA 
HETATM   18  H   UNL     1     -12.761  13.364  69.324  1.00  0.00     0.000 HD 
ENDBRANCH  13  16
ENDBRANCH  10  13
ENDBRANCH   7  10
ENDBRANCH   4   7
ENDBRANCH   2   4
TORSDOF 5
ENDMDL
MODEL      298
REMARK 921   NORMALIZED FREE ENERGY PREDICTED BY IDOCK:   -1.83 KCAL/MOL
REMARK 922        TOTAL FREE ENERGY PREDICTED BY IDOCK:   -3.21 KCAL/MOL
REMARK 923 INTER-LIGAND FREE ENERGY PREDICTED BY IDOCK:   -2.75 KCAL/MOL
REMARK 924 INTRA-LIGAND FREE ENERGY PREDICTED BY IDOCK:   -0.46 KCAL/MOL
REMARK 927      BINDING AFFINITY PREDICTED BY RF-SCORE:    0.00 PKD
ROOT
HETATM    1  O   UNL     1     -10.911   5.437  66.553  1.00  0.00    -0.519 OA 
HETATM    2  C   UNL     1     -10.969   6.429  67.587  1.00  0.00    -0.349 C  
HETATM    3  H   UNL     1     -11.010   5.850  65.703  1.00  0.00     0.000 HD 
ENDROOT
BRANCH   2   4
HETATM    4  C   UNL     1     -10.809   5.764  68.957  1.00  0.00    -0.260 C  
HETATM    5  H   UNL     1     -11.586   6.009  70.754  1.00  0.00     0.000 HD 
HETATM    6  O   UNL     1     -11.685   6.422  69.904  1.00  0.00    -0.426 OA 
BRANCH   4   7
HETATM    7  C   UNL     1      -9.396   5.848  69.568  1.00  0.00    -0.134 C  
HETATM    8  O   UNL     1      -9.183   7.191  70.037  1.00  0.00    -0.146 OA 
HETATM    9  H   UNL     1      -8.312   7.242  70.413  1.00  0.00     0.000 HD 
BRANCH   7  10
HETATM   10  C   UNL     1      -9.038   4.843  70.682  1.00  0.00    -0.128 C  
HETATM   11  H   UNL     1      -9.791   3.169  71.450  1.00  0.00     0.000 HD 
HETATM   12  O   UNL     1     -10.011   3.788  70.765  1.00  0.00    -0.161 OA 
BRANCH  10  13
HETATM   13  C   UNL     1      -8.827   5.430  72.092  1.00  0.00    -0.130 C  
HETATM   14  H   UNL     1      -7.379   5.516  73.468  1.00  0.00     0.000 HD 
HETATM   15  O   UNL     1      -7.509   5.154  72.600  1.00  0.00    -0.091 OA 
BRANCH  13  16
HETATM   16  C   UNL     1      -9.854   4.955  73.127  1.00  0.00    -0.150 C  
HETATM   17  O   UNL     1     -10.962   5.867  73.112  1.00  0.00    -0.255 OA 
HETATM   18  H   UNL     1     -11.598   5.573  73.753  1.00  0.00     0.000 HD 
ENDBRANCH  13  16
ENDBRANCH  10  13
ENDBRANCH   7  10
ENDBRANCH   4   7
ENDBRANCH   2   4
TORSDOF 5
ENDMDL
MODEL      299
REMARK 921   NORMALIZED FREE ENERGY PREDICTED BY IDOCK:   -1.83 KCAL/MOL
REMARK 922        TOTAL FREE ENERGY PREDICTED BY IDOCK:   -3.21 KCAL/MOL
REMARK 923 INTER-LIGAND FREE ENERGY PREDICTED BY IDOCK:   -2.47 KCAL/MOL
REMARK 924 INTRA-LIGAND FREE ENERGY PREDICTED BY IDOCK:   -0.73 KCAL/MOL
REMARK 927      BINDING AFFINITY PREDICTED BY RF-SCORE:    0.00 PKD
ROOT
HETATM    1  O   UNL     1      -6.300   7.306  71.062  1.00  0.00    -0.036 OA 
HETATM    2  C   UNL     1      -6.441   7.848  72.383  1.00  0.00    -0.063 C  
HETATM    3  H   UNL     1      -5.417   7.453  70.745  1.00  0.00     0.000 HD 
ENDROOT
BRANCH   2   4
HETATM    4  C   UNL     1      -7.865   7.610  72.894  1.00  0.00    -0.108 C  
HETATM    5  H   UNL     1      -9.059   6.053  73.099  1.00  0.00     0.000 HD 
HETATM    6  O   UNL     1      -8.175   6.200  72.782  1.00  0.00    -0.116 OA 
BRANCH   4   7
HETATM    7  C   UNL     1      -8.974   8.345  72.115  1.00  0.00    -0.223 C  
HETATM    8  O   UNL     1      -8.383   9.459  71.424  1.00  0.00    -0.295 OA 
HETATM    9  H   UNL     1      -9.067   9.911  70.944  1.00  0.00     0.000 HD 
BRANCH   7  10
HETATM   10  C   UNL     1      -9.826   7.514  71.132  1.00  0.00    -0.173 C  
HETATM   11  H   UNL     1      -9.564   6.547  69.413  1.00  0.00     0.000 HD 
HETATM   12  O   UNL     1      -9.041   7.059  70.018  1.00  0.00    -0.145 OA 
BRANCH  10  13
HETATM   13  C   UNL     1     -11.103   8.190  70.592  1.00  0.00    -0.254 C  
HETATM   14  H   UNL     1     -11.931  10.009  70.575  1.00  0.00     0.000 HD 
HETATM   15  O   UNL     1     -11.144   9.594  70.908  1.00  0.00    -0.296 OA 
BRANCH  13  16
HETATM   16  C   UNL     1     -12.405   7.545  71.081  1.00  0.00    -0.291 C  
HETATM   17  O   UNL     1     -12.145   6.906  72.339  1.00  0.00    -0.470 OA 
HETATM   18  H   UNL     1     -12.952   6.506  72.642  1.00  0.00     0.000 HD 
ENDBRANCH  13  16
ENDBRANCH  10  13
ENDBRANCH   7  10
ENDBRANCH   4   7
ENDBRANCH   2   4
TORSDOF 5
ENDMDL
MODEL      300
REMARK 921   NORMALIZED FREE ENERGY PREDICTED BY IDOCK:   -1.83 KCAL/MOL
REMARK 922        TOTAL FREE ENERGY PREDICTED BY IDOCK:   -3.20 KCAL/MOL
REMARK 923 INTER-LIGAND FREE ENERGY PREDICTED BY IDOCK:   -2.58 KCAL/MOL
REMARK 924 INTRA-LIGAND FREE ENERGY PREDICTED BY IDOCK:   -0.62 KCAL/MOL
REMARK 927      BINDING AFFINITY PREDICTED BY RF-SCORE:    0.00 PKD
ROOT
HETATM    1  O   UNL     1     -10.455   5.470  69.323  1.00  0.00    -0.249 OA 
HETATM    2  C   UNL     1      -9.459   6.455  69.016  1.00  0.00    -0.129 C  
HETATM    3  H   UNL     1     -10.784   5.606  70.204  1.00  0.00     0.000 HD 
ENDROOT
BRANCH   2   4
HETATM    4  C   UNL     1      -8.930   6.236  67.596  1.00  0.00    -0.115 C  
HETATM    5  H   UNL     1      -7.234   6.572  66.645  1.00  0.00     0.000 HD 
HETATM    6  O   UNL     1      -7.563   6.708  67.526  1.00  0.00    -0.100 OA 
BRANCH   4   7
HETATM    7  C   UNL     1      -9.690   6.992  66.488  1.00  0.00    -0.125 C  
HETATM    8  O   UNL     1     -11.101   6.835  66.716  1.00  0.00    -0.520 OA 
HETATM    9  H   UNL     1     -11.569   7.301  66.033  1.00  0.00     0.000 HD 
BRANCH   7  10
HETATM   10  C   UNL     1      -9.356   8.484  66.284  1.00  0.00    -0.224 C  
HETATM   11  H   UNL     1     -10.312  10.228  66.355  1.00  0.00     0.000 HD 
HETATM   12  O   UNL     1     -10.517   9.309  66.480  1.00  0.00    -0.227 OA 
BRANCH  10  13
HETATM   13  C   UNL     1      -8.703   8.863  64.939  1.00  0.00    -0.149 C  
HETATM   14  H   UNL     1      -6.877   9.264  64.232  1.00  0.00     0.000 HD 
HETATM   15  O   UNL     1      -7.279   9.031  65.060  1.00  0.00    -0.089 OA 
BRANCH  13  16
HETATM   16  C   UNL     1      -9.287  10.126  64.296  1.00  0.00    -0.295 C  
HETATM   17  O   UNL     1      -8.896  11.256  65.089  1.00  0.00    -0.361 OA 
HETATM   18  H   UNL     1      -9.258  12.039  64.690  1.00  0.00     0.000 HD 
ENDBRANCH  13  16
ENDBRANCH  10  13
ENDBRANCH   7  10
ENDBRANCH   4   7
ENDBRANCH   2   4
TORSDOF 5
ENDMDL
MODEL      301
REMARK 921   NORMALIZED FREE ENERGY PREDICTED BY IDOCK:   -1.81 KCAL/MOL
REMARK 922        TOTAL FREE ENERGY PREDICTED BY IDOCK:   -3.19 KCAL/MOL
REMARK 923 INTER-LIGAND FREE ENERGY PREDICTED BY IDOCK:   -2.91 KCAL/MOL
REMARK 924 INTRA-LIGAND FREE ENERGY PREDICTED BY IDOCK:   -0.28 KCAL/MOL
REMARK 927      BINDING AFFINITY PREDICTED BY RF-SCORE:    0.00 PKD
ROOT
HETATM    1  O   UNL     1      -7.344  10.469  69.720  1.00  0.00    -0.145 OA 
HETATM    2  C   UNL     1      -8.581  10.802  69.076  1.00  0.00    -0.138 C  
HETATM    3  H   UNL     1      -7.393  10.680  70.645  1.00  0.00     0.000 HD 
ENDROOT
BRANCH   2   4
HETATM    4  C   UNL     1      -8.501  10.461  67.585  1.00  0.00    -0.114 C  
HETATM    5  H   UNL     1      -7.171  10.687  66.146  1.00  0.00     0.000 HD 
HETATM    6  O   UNL     1      -7.220  10.899  67.071  1.00  0.00    -0.101 OA 
BRANCH   4   7
HETATM    7  C   UNL     1      -9.562  11.143  66.698  1.00  0.00    -0.190 C  
HETATM    8  O   UNL     1     -10.212  10.132  65.908  1.00  0.00    -0.254 OA 
HETATM    9  H   UNL     1     -10.865  10.552  65.361  1.00  0.00     0.000 HD 
BRANCH   7  10
HETATM   10  C   UNL     1     -10.621  12.020  67.397  1.00  0.00    -0.223 C  
HETATM   11  H   UNL     1     -12.604  12.190  67.426  1.00  0.00     0.000 HD 
HETATM   12  O   UNL     1     -11.951  11.651  66.996  1.00  0.00    -0.593 OA 
BRANCH  10  13
HETATM   13  C   UNL     1     -10.462  13.545  67.236  1.00  0.00    -0.248 C  
HETATM   14  H   UNL     1      -9.014  14.854  66.805  1.00  0.00     0.000 HD 
HETATM   15  O   UNL     1      -9.111  13.914  66.905  1.00  0.00    -0.239 OA 
BRANCH  13  16
HETATM   16  C   UNL     1     -10.897  14.351  68.465  1.00  0.00    -0.251 C  
HETATM   17  O   UNL     1      -9.818  14.344  69.412  1.00  0.00    -0.416 OA 
HETATM   18  H   UNL     1     -10.088  14.844  70.173  1.00  0.00     0.000 HD 
ENDBRANCH  13  16
ENDBRANCH  10  13
ENDBRANCH   7  10
ENDBRANCH   4   7
ENDBRANCH   2   4
TORSDOF 5
ENDMDL
MODEL      302
REMARK 921   NORMALIZED FREE ENERGY PREDICTED BY IDOCK:   -1.81 KCAL/MOL
REMARK 922        TOTAL FREE ENERGY PREDICTED BY IDOCK:   -3.19 KCAL/MOL
REMARK 923 INTER-LIGAND FREE ENERGY PREDICTED BY IDOCK:   -2.54 KCAL/MOL
REMARK 924 INTRA-LIGAND FREE ENERGY PREDICTED BY IDOCK:   -0.64 KCAL/MOL
REMARK 927      BINDING AFFINITY PREDICTED BY RF-SCORE:    0.00 PKD
ROOT
HETATM    1  O   UNL     1     -12.307   6.061  72.519  1.00  0.00    -0.545 OA 
HETATM    2  C   UNL     1     -10.960   6.305  72.946  1.00  0.00    -0.254 C  
HETATM    3  H   UNL     1     -12.915   6.503  73.099  1.00  0.00     0.000 HD 
ENDROOT
BRANCH   2   4
HETATM    4  C   UNL     1      -9.979   5.592  72.010  1.00  0.00    -0.181 C  
HETATM    5  H   UNL     1      -8.037   5.243  71.987  1.00  0.00     0.000 HD 
HETATM    6  O   UNL     1      -8.646   5.685  72.568  1.00  0.00    -0.124 OA 
BRANCH   4   7
HETATM    7  C   UNL     1      -9.879   6.181  70.589  1.00  0.00    -0.179 C  
HETATM    8  O   UNL     1     -10.928   5.613  69.787  1.00  0.00    -0.345 OA 
HETATM    9  H   UNL     1     -10.867   5.977  68.911  1.00  0.00     0.000 HD 
BRANCH   7  10
HETATM   10  C   UNL     1      -9.891   7.718  70.452  1.00  0.00    -0.183 C  
HETATM   11  H   UNL     1     -10.467   9.070  69.110  1.00  0.00     0.000 HD 
HETATM   12  O   UNL     1     -10.459   8.125  69.195  1.00  0.00    -0.220 OA 
BRANCH  10  13
HETATM   13  C   UNL     1      -8.537   8.433  70.635  1.00  0.00    -0.141 C  
HETATM   14  H   UNL     1      -7.751  10.240  70.302  1.00  0.00     0.000 HD 
HETATM   15  O   UNL     1      -8.585   9.801  70.189  1.00  0.00    -0.203 OA 
BRANCH  13  16
HETATM   16  C   UNL     1      -7.364   7.736  69.937  1.00  0.00    -0.079 C  
HETATM   17  O   UNL     1      -7.524   7.897  68.520  1.00  0.00    -0.091 OA 
HETATM   18  H   UNL     1      -6.797   7.465  68.088  1.00  0.00     0.000 HD 
ENDBRANCH  13  16
ENDBRANCH  10  13
ENDBRANCH   7  10
ENDBRANCH   4   7
ENDBRANCH   2   4
TORSDOF 5
ENDMDL
MODEL      303
REMARK 921   NORMALIZED FREE ENERGY PREDICTED BY IDOCK:   -1.81 KCAL/MOL
REMARK 922        TOTAL FREE ENERGY PREDICTED BY IDOCK:   -3.18 KCAL/MOL
REMARK 923 INTER-LIGAND FREE ENERGY PREDICTED BY IDOCK:   -2.61 KCAL/MOL
REMARK 924 INTRA-LIGAND FREE ENERGY PREDICTED BY IDOCK:   -0.57 KCAL/MOL
REMARK 927      BINDING AFFINITY PREDICTED BY RF-SCORE:    0.00 PKD
ROOT
HETATM    1  O   UNL     1     -10.781  10.544  70.136  1.00  0.00    -0.394 OA 
HETATM    2  C   UNL     1     -11.522  10.080  71.273  1.00  0.00    -0.314 C  
HETATM    3  H   UNL     1     -10.749  11.493  70.136  1.00  0.00     0.000 HD 
ENDROOT
BRANCH   2   4
HETATM    4  C   UNL     1     -11.573   8.549  71.273  1.00  0.00    -0.283 C  
HETATM    5  H   UNL     1     -12.773   7.168  70.535  1.00  0.00     0.000 HD 
HETATM    6  O   UNL     1     -12.742   8.118  70.535  1.00  0.00     0.286 OA 
BRANCH   4   7
HETATM    7  C   UNL     1     -11.693   7.896  72.664  1.00  0.00    -0.341 C  
HETATM    8  O   UNL     1     -12.766   6.939  72.626  1.00  0.00    -0.317 OA 
HETATM    9  H   UNL     1     -12.840   6.537  73.484  1.00  0.00     0.000 HD 
BRANCH   7  10
HETATM   10  C   UNL     1     -10.429   7.239  73.257  1.00  0.00    -0.370 C  
HETATM   11  H   UNL     1      -8.562   7.771  73.692  1.00  0.00     0.000 HD 
HETATM   12  O   UNL     1      -9.340   8.174  73.328  1.00  0.00    -0.271 OA 
BRANCH  10  13
HETATM   13  C   UNL     1      -9.933   5.956  72.560  1.00  0.00    -0.177 C  
HETATM   14  H   UNL     1     -10.543   4.070  72.304  1.00  0.00     0.000 HD 
HETATM   15  O   UNL     1     -10.849   4.860  72.733  1.00  0.00    -0.216 OA 
BRANCH  13  16
HETATM   16  C   UNL     1      -8.541   5.500  73.010  1.00  0.00    -0.121 C  
HETATM   17  O   UNL     1      -7.563   6.244  72.268  1.00  0.00    -0.093 OA 
HETATM   18  H   UNL     1      -6.700   5.961  72.547  1.00  0.00     0.000 HD 
ENDBRANCH  13  16
ENDBRANCH  10  13
ENDBRANCH   7  10
ENDBRANCH   4   7
ENDBRANCH   2   4
TORSDOF 5
ENDMDL
MODEL      304
REMARK 921   NORMALIZED FREE ENERGY PREDICTED BY IDOCK:   -1.81 KCAL/MOL
REMARK 922        TOTAL FREE ENERGY PREDICTED BY IDOCK:   -3.18 KCAL/MOL
REMARK 923 INTER-LIGAND FREE ENERGY PREDICTED BY IDOCK:   -2.59 KCAL/MOL
REMARK 924 INTRA-LIGAND FREE ENERGY PREDICTED BY IDOCK:   -0.60 KCAL/MOL
REMARK 927      BINDING AFFINITY PREDICTED BY RF-SCORE:    0.00 PKD
ROOT
HETATM    1  O   UNL     1     -12.734   7.705  72.505  1.00  0.00    -0.519 OA 
HETATM    2  C   UNL     1     -12.145   6.477  72.055  1.00  0.00    -0.312 C  
HETATM    3  H   UNL     1     -13.199   7.561  73.320  1.00  0.00     0.000 HD 
ENDROOT
BRANCH   2   4
HETATM    4  C   UNL     1     -11.395   6.710  70.740  1.00  0.00    -0.336 C  
HETATM    5  H   UNL     1     -10.217   5.644  69.570  1.00  0.00     0.000 HD 
HETATM    6  O   UNL     1     -10.683   5.500  70.385  1.00  0.00    -0.285 OA 
BRANCH   4   7
HETATM    7  C   UNL     1     -10.330   7.824  70.780  1.00  0.00    -0.203 C  
HETATM    8  O   UNL     1      -9.998   8.087  72.154  1.00  0.00    -0.189 OA 
HETATM    9  H   UNL     1      -9.342   8.774  72.178  1.00  0.00     0.000 HD 
BRANCH   7  10
HETATM   10  C   UNL     1      -9.038   7.607  69.964  1.00  0.00    -0.151 C  
HETATM   11  H   UNL     1      -7.074   7.740  70.256  1.00  0.00     0.000 HD 
HETATM   12  O   UNL     1      -7.869   7.874  70.757  1.00  0.00    -0.087 OA 
BRANCH  10  13
HETATM   13  C   UNL     1      -8.925   8.388  68.639  1.00  0.00    -0.140 C  
HETATM   14  H   UNL     1     -10.146   9.206  67.284  1.00  0.00     0.000 HD 
HETATM   15  O   UNL     1     -10.216   8.725  68.100  1.00  0.00    -0.189 OA 
BRANCH  13  16
HETATM   16  C   UNL     1      -8.120   7.664  67.554  1.00  0.00    -0.120 C  
HETATM   17  O   UNL     1      -6.761   7.552  68.002  1.00  0.00    -0.055 OA 
HETATM   18  H   UNL     1      -6.263   7.103  67.329  1.00  0.00     0.000 HD 
ENDBRANCH  13  16
ENDBRANCH  10  13
ENDBRANCH   7  10
ENDBRANCH   4   7
ENDBRANCH   2   4
TORSDOF 5
ENDMDL
MODEL      305
REMARK 921   NORMALIZED FREE ENERGY PREDICTED BY IDOCK:   -1.80 KCAL/MOL
REMARK 922        TOTAL FREE ENERGY PREDICTED BY IDOCK:   -3.17 KCAL/MOL
REMARK 923 INTER-LIGAND FREE ENERGY PREDICTED BY IDOCK:   -2.76 KCAL/MOL
REMARK 924 INTRA-LIGAND FREE ENERGY PREDICTED BY IDOCK:   -0.41 KCAL/MOL
REMARK 927      BINDING AFFINITY PREDICTED BY RF-SCORE:    0.00 PKD
ROOT
HETATM    1  O   UNL     1     -11.580   4.634  65.270  1.00  0.00    -1.093 OA 
HETATM    2  C   UNL     1     -10.629   5.186  66.191  1.00  0.00    -0.236 C  
HETATM    3  H   UNL     1     -12.289   5.250  65.129  1.00  0.00     0.000 HD 
ENDROOT
BRANCH   2   4
HETATM    4  C   UNL     1      -9.484   4.193  66.417  1.00  0.00    -0.189 C  
HETATM    5  H   UNL     1      -8.689   2.692  65.415  1.00  0.00     0.000 HD 
HETATM    6  O   UNL     1      -9.399   3.308  65.275  1.00  0.00    -0.148 OA 
BRANCH   4   7
HETATM    7  C   UNL     1      -9.644   3.276  67.645  1.00  0.00    -0.083 C  
HETATM    8  O   UNL     1      -9.584   1.909  67.203  1.00  0.00    -0.387 OA 
HETATM    9  H   UNL     1      -9.683   1.344  67.960  1.00  0.00     0.000 HD 
BRANCH   7  10
HETATM   10  C   UNL     1      -8.672   3.486  68.825  1.00  0.00    -0.099 C  
HETATM   11  H   UNL     1      -8.638   3.137  70.784  1.00  0.00     0.000 HD 
HETATM   12  O   UNL     1      -9.237   3.008  70.058  1.00  0.00    -0.118 OA 
BRANCH  10  13
HETATM   13  C   UNL     1      -8.158   4.923  69.042  1.00  0.00    -0.079 C  
HETATM   14  H   UNL     1      -6.452   5.943  68.826  1.00  0.00     0.000 HD 
HETATM   15  O   UNL     1      -6.768   5.058  68.692  1.00  0.00    -0.047 OA 
BRANCH  13  16
HETATM   16  C   UNL     1      -8.351   5.447  70.469  1.00  0.00    -0.111 C  
HETATM   17  O   UNL     1      -9.710   5.889  70.606  1.00  0.00    -0.169 OA 
HETATM   18  H   UNL     1      -9.830   6.214  71.490  1.00  0.00     0.000 HD 
ENDBRANCH  13  16
ENDBRANCH  10  13
ENDBRANCH   7  10
ENDBRANCH   4   7
ENDBRANCH   2   4
TORSDOF 5
ENDMDL
MODEL      306
REMARK 921   NORMALIZED FREE ENERGY PREDICTED BY IDOCK:   -1.78 KCAL/MOL
REMARK 922        TOTAL FREE ENERGY PREDICTED BY IDOCK:   -3.14 KCAL/MOL
REMARK 923 INTER-LIGAND FREE ENERGY PREDICTED BY IDOCK:   -2.41 KCAL/MOL
REMARK 924 INTRA-LIGAND FREE ENERGY PREDICTED BY IDOCK:   -0.73 KCAL/MOL
REMARK 927      BINDING AFFINITY PREDICTED BY RF-SCORE:    0.00 PKD
ROOT
HETATM    1  O   UNL     1     -11.563   4.369  65.055  1.00  0.00    -1.067 OA 
HETATM    2  C   UNL     1     -10.656   4.997  65.971  1.00  0.00    -0.232 C  
HETATM    3  H   UNL     1     -12.370   4.869  65.004  1.00  0.00     0.000 HD 
ENDROOT
BRANCH   2   4
HETATM    4  C   UNL     1      -9.356   4.191  66.054  1.00  0.00    -0.164 C  
HETATM    5  H   UNL     1      -8.621   2.589  65.169  1.00  0.00     0.000 HD 
HETATM    6  O   UNL     1      -9.427   3.089  65.117  1.00  0.00    -0.154 OA 
BRANCH   4   7
HETATM    7  C   UNL     1      -9.066   3.553  67.427  1.00  0.00    -0.167 C  
HETATM    8  O   UNL     1      -9.542   2.196  67.408  1.00  0.00    -0.401 OA 
HETATM    9  H   UNL     1      -9.363   1.803  68.254  1.00  0.00     0.000 HD 
BRANCH   7  10
HETATM   10  C   UNL     1      -7.610   3.588  67.937  1.00  0.00    -0.065 C  
HETATM   11  H   UNL     1      -5.979   4.692  67.655  1.00  0.00     0.000 HD 
HETATM   12  O   UNL     1      -6.875   4.670  67.341  1.00  0.00    -0.057 OA 
BRANCH  10  13
HETATM   13  C   UNL     1      -6.795   2.289  67.773  1.00  0.00    -0.039 C  
HETATM   14  H   UNL     1      -5.635   1.108  68.893  1.00  0.00     0.000 HD 
HETATM   15  O   UNL     1      -6.137   1.908  68.995  1.00  0.00    -0.023 OA 
BRANCH  13  16
HETATM   16  C   UNL     1      -5.748   2.346  66.655  1.00  0.00    -0.022 C  
HETATM   17  O   UNL     1      -6.435   2.350  65.395  1.00  0.00    -0.023 OA 
HETATM   18  H   UNL     1      -5.786   2.385  64.703  1.00  0.00     0.000 HD 
ENDBRANCH  13  16
ENDBRANCH  10  13
ENDBRANCH   7  10
ENDBRANCH   4   7
ENDBRANCH   2   4
TORSDOF 5
ENDMDL
MODEL      307
REMARK 921   NORMALIZED FREE ENERGY PREDICTED BY IDOCK:   -1.77 KCAL/MOL
REMARK 922        TOTAL FREE ENERGY PREDICTED BY IDOCK:   -3.13 KCAL/MOL
REMARK 923 INTER-LIGAND FREE ENERGY PREDICTED BY IDOCK:   -2.75 KCAL/MOL
REMARK 924 INTRA-LIGAND FREE ENERGY PREDICTED BY IDOCK:   -0.39 KCAL/MOL
REMARK 927      BINDING AFFINITY PREDICTED BY RF-SCORE:    0.00 PKD
ROOT
HETATM    1  O   UNL     1     -12.126  12.796  69.542  1.00  0.00    -0.280 OA 
HETATM    2  C   UNL     1     -11.423  11.671  68.997  1.00  0.00    -0.294 C  
HETATM    3  H   UNL     1     -11.943  13.573  69.027  1.00  0.00     0.000 HD 
ENDROOT
BRANCH   2   4
HETATM    4  C   UNL     1     -11.719  10.419  69.828  1.00  0.00    -0.237 C  
HETATM    5  H   UNL     1     -12.040  10.023  71.734  1.00  0.00     0.000 HD 
HETATM    6  O   UNL     1     -11.856  10.800  71.219  1.00  0.00    -0.268 OA 
BRANCH   4   7
HETATM    7  C   UNL     1     -10.622   9.336  69.798  1.00  0.00    -0.231 C  
HETATM    8  O   UNL     1     -11.073   8.255  68.964  1.00  0.00    -0.430 OA 
HETATM    9  H   UNL     1     -10.397   7.588  68.946  1.00  0.00     0.000 HD 
BRANCH   7  10
HETATM   10  C   UNL     1      -9.204   9.769  69.370  1.00  0.00    -0.205 C  
HETATM   11  H   UNL     1      -8.065   9.672  67.741  1.00  0.00     0.000 HD 
HETATM   12  O   UNL     1      -8.938   9.405  68.005  1.00  0.00    -0.128 OA 
BRANCH  10  13
HETATM   13  C   UNL     1      -8.041   9.268  70.250  1.00  0.00    -0.154 C  
HETATM   14  H   UNL     1      -7.690   8.890  72.181  1.00  0.00     0.000 HD 
HETATM   15  O   UNL     1      -8.407   9.199  71.640  1.00  0.00    -0.339 OA 
BRANCH  13  16
HETATM   16  C   UNL     1      -6.761  10.102  70.127  1.00  0.00    -0.138 C  
HETATM   17  O   UNL     1      -6.253   9.953  68.792  1.00  0.00    -0.042 OA 
HETATM   18  H   UNL     1      -5.460  10.470  68.717  1.00  0.00     0.000 HD 
ENDBRANCH  13  16
ENDBRANCH  10  13
ENDBRANCH   7  10
ENDBRANCH   4   7
ENDBRANCH   2   4
TORSDOF 5
ENDMDL
MODEL      308
REMARK 921   NORMALIZED FREE ENERGY PREDICTED BY IDOCK:   -1.77 KCAL/MOL
REMARK 922        TOTAL FREE ENERGY PREDICTED BY IDOCK:   -3.13 KCAL/MOL
REMARK 923 INTER-LIGAND FREE ENERGY PREDICTED BY IDOCK:   -2.44 KCAL/MOL
REMARK 924 INTRA-LIGAND FREE ENERGY PREDICTED BY IDOCK:   -0.70 KCAL/MOL
REMARK 927      BINDING AFFINITY PREDICTED BY RF-SCORE:    0.00 PKD
ROOT
HETATM    1  O   UNL     1     -11.301  13.006  67.425  1.00  0.00    -0.275 OA 
HETATM    2  C   UNL     1      -9.920  13.057  67.040  1.00  0.00    -0.242 C  
HETATM    3  H   UNL     1     -11.519  13.770  67.947  1.00  0.00     0.000 HD 
ENDROOT
BRANCH   2   4
HETATM    4  C   UNL     1      -9.568  11.826  66.198  1.00  0.00    -0.232 C  
HETATM    5  H   UNL     1     -10.493  10.708  64.863  1.00  0.00     0.000 HD 
HETATM    6  O   UNL     1     -10.712  11.471  65.384  1.00  0.00    -0.280 OA 
BRANCH   4   7
HETATM    7  C   UNL     1      -9.219  10.558  67.003  1.00  0.00    -0.150 C  
HETATM    8  O   UNL     1     -10.361   9.684  66.992  1.00  0.00    -0.234 OA 
HETATM    9  H   UNL     1     -10.146   8.903  67.488  1.00  0.00     0.000 HD 
BRANCH   7  10
HETATM   10  C   UNL     1      -7.957   9.774  66.588  1.00  0.00    -0.112 C  
HETATM   11  H   UNL     1      -6.369  10.053  65.422  1.00  0.00     0.000 HD 
HETATM   12  O   UNL     1      -7.146  10.535  65.677  1.00  0.00    -0.142 OA 
BRANCH  10  13
HETATM   13  C   UNL     1      -8.188   8.372  65.990  1.00  0.00    -0.112 C  
HETATM   14  H   UNL     1      -7.440   6.528  66.184  1.00  0.00     0.000 HD 
HETATM   15  O   UNL     1      -7.297   7.391  66.553  1.00  0.00    -0.080 OA 
BRANCH  13  16
HETATM   16  C   UNL     1      -8.065   8.317  64.463  1.00  0.00    -0.146 C  
HETATM   17  O   UNL     1      -9.076   9.166  63.900  1.00  0.00    -0.432 OA 
HETATM   18  H   UNL     1      -9.000   9.132  62.954  1.00  0.00     0.000 HD 
ENDBRANCH  13  16
ENDBRANCH  10  13
ENDBRANCH   7  10
ENDBRANCH   4   7
ENDBRANCH   2   4
TORSDOF 5
ENDMDL
MODEL      309
REMARK 921   NORMALIZED FREE ENERGY PREDICTED BY IDOCK:   -1.76 KCAL/MOL
REMARK 922        TOTAL FREE ENERGY PREDICTED BY IDOCK:   -3.12 KCAL/MOL
REMARK 923 INTER-LIGAND FREE ENERGY PREDICTED BY IDOCK:   -2.41 KCAL/MOL
REMARK 924 INTRA-LIGAND FREE ENERGY PREDICTED BY IDOCK:   -0.71 KCAL/MOL
REMARK 927      BINDING AFFINITY PREDICTED BY RF-SCORE:    0.00 PKD
ROOT
HETATM    1  O   UNL     1      -8.519   4.329  71.065  1.00  0.00    -0.081 OA 
HETATM    2  C   UNL     1      -8.510   4.276  69.632  1.00  0.00    -0.068 C  
HETATM    3  H   UNL     1      -7.652   4.133  71.401  1.00  0.00     0.000 HD 
ENDROOT
BRANCH   2   4
HETATM    4  C   UNL     1      -9.908   4.593  69.090  1.00  0.00    -0.172 C  
HETATM    5  H   UNL     1     -10.719   4.831  67.307  1.00  0.00     0.000 HD 
HETATM    6  O   UNL     1      -9.852   4.635  67.643  1.00  0.00    -0.168 OA 
BRANCH   4   7
HETATM    7  C   UNL     1     -10.488   5.954  69.524  1.00  0.00    -0.278 C  
HETATM    8  O   UNL     1     -10.924   5.846  70.890  1.00  0.00    -0.277 OA 
HETATM    9  H   UNL     1     -11.282   6.685  71.158  1.00  0.00     0.000 HD 
BRANCH   7  10
HETATM   10  C   UNL     1      -9.590   7.198  69.360  1.00  0.00    -0.153 C  
HETATM   11  H   UNL     1      -8.416   8.326  70.504  1.00  0.00     0.000 HD 
HETATM   12  O   UNL     1      -8.969   7.561  70.604  1.00  0.00    -0.152 OA 
BRANCH  10  13
HETATM   13  C   UNL     1     -10.259   8.451  68.759  1.00  0.00    -0.207 C  
HETATM   14  H   UNL     1     -10.761   9.150  66.955  1.00  0.00     0.000 HD 
HETATM   15  O   UNL     1     -10.349   8.378  67.324  1.00  0.00    -0.248 OA 
BRANCH  13  16
HETATM   16  C   UNL     1      -9.570   9.767  69.135  1.00  0.00    -0.188 C  
HETATM   17  O   UNL     1     -10.178  10.265  70.337  1.00  0.00    -0.417 OA 
HETATM   18  H   UNL     1      -9.751  11.081  70.570  1.00  0.00     0.000 HD 
ENDBRANCH  13  16
ENDBRANCH  10  13
ENDBRANCH   7  10
ENDBRANCH   4   7
ENDBRANCH   2   4
TORSDOF 5
ENDMDL
MODEL      310
REMARK 921   NORMALIZED FREE ENERGY PREDICTED BY IDOCK:   -1.75 KCAL/MOL
REMARK 922        TOTAL FREE ENERGY PREDICTED BY IDOCK:   -3.11 KCAL/MOL
REMARK 923 INTER-LIGAND FREE ENERGY PREDICTED BY IDOCK:   -2.35 KCAL/MOL
REMARK 924 INTRA-LIGAND FREE ENERGY PREDICTED BY IDOCK:   -0.76 KCAL/MOL
REMARK 927      BINDING AFFINITY PREDICTED BY RF-SCORE:    0.00 PKD
ROOT
HETATM    1  O   UNL     1     -11.838   6.567  69.373  1.00  0.00    -0.636 OA 
HETATM    2  C   UNL     1     -12.259   6.750  70.732  1.00  0.00    -0.297 C  
HETATM    3  H   UNL     1     -12.566   6.731  68.784  1.00  0.00     0.000 HD 
ENDROOT
BRANCH   2   4
HETATM    4  C   UNL     1     -11.085   6.485  71.681  1.00  0.00    -0.259 C  
HETATM    5  H   UNL     1      -9.476   7.470  72.257  1.00  0.00     0.000 HD 
HETATM    6  O   UNL     1     -10.203   7.634  71.669  1.00  0.00    -0.184 OA 
BRANCH   4   7
HETATM    7  C   UNL     1     -10.202   5.277  71.312  1.00  0.00    -0.224 C  
HETATM    8  O   UNL     1      -9.286   5.682  70.280  1.00  0.00    -0.146 OA 
HETATM    9  H   UNL     1      -8.742   4.937  70.053  1.00  0.00     0.000 HD 
BRANCH   7  10
HETATM   10  C   UNL     1      -9.430   4.582  72.453  1.00  0.00    -0.135 C  
HETATM   11  H   UNL     1      -9.614   4.340  74.420  1.00  0.00     0.000 HD 
HETATM   12  O   UNL     1     -10.089   4.768  73.717  1.00  0.00    -0.152 OA 
BRANCH  10  13
HETATM   13  C   UNL     1      -7.945   4.969  72.610  1.00  0.00    -0.098 C  
HETATM   14  H   UNL     1      -6.232   4.102  73.166  1.00  0.00     0.000 HD 
HETATM   15  O   UNL     1      -7.146   3.864  73.070  1.00  0.00    -0.054 OA 
BRANCH  13  16
HETATM   16  C   UNL     1      -7.706   6.161  73.542  1.00  0.00    -0.095 C  
HETATM   17  O   UNL     1      -7.358   7.299  72.738  1.00  0.00    -0.074 OA 
HETATM   18  H   UNL     1      -7.210   8.037  73.316  1.00  0.00     0.000 HD 
ENDBRANCH  13  16
ENDBRANCH  10  13
ENDBRANCH   7  10
ENDBRANCH   4   7
ENDBRANCH   2   4
TORSDOF 5
ENDMDL
MODEL      311
REMARK 921   NORMALIZED FREE ENERGY PREDICTED BY IDOCK:   -1.74 KCAL/MOL
REMARK 922        TOTAL FREE ENERGY PREDICTED BY IDOCK:   -3.09 KCAL/MOL
REMARK 923 INTER-LIGAND FREE ENERGY PREDICTED BY IDOCK:   -2.73 KCAL/MOL
REMARK 924 INTRA-LIGAND FREE ENERGY PREDICTED BY IDOCK:   -0.36 KCAL/MOL
REMARK 927      BINDING AFFINITY PREDICTED BY RF-SCORE:    0.00 PKD
ROOT
HETATM    1  O   UNL     1     -11.513  11.547  70.361  1.00  0.00    -0.495 OA 
HETATM    2  C   UNL     1     -11.760  10.649  69.271  1.00  0.00    -0.264 C  
HETATM    3  H   UNL     1     -12.327  11.949  70.640  1.00  0.00     0.000 HD 
ENDROOT
BRANCH   2   4
HETATM    4  C   UNL     1     -10.447  10.000  68.821  1.00  0.00    -0.208 C  
HETATM    5  H   UNL     1      -9.245   8.599  69.516  1.00  0.00     0.000 HD 
HETATM    6  O   UNL     1     -10.059   9.001  69.796  1.00  0.00    -0.187 OA 
BRANCH   4   7
HETATM    7  C   UNL     1      -9.246  10.960  68.706  1.00  0.00    -0.183 C  
HETATM    8  O   UNL     1      -8.331  10.672  69.778  1.00  0.00    -0.381 OA 
HETATM    9  H   UNL     1      -7.591  11.264  69.707  1.00  0.00     0.000 HD 
BRANCH   7  10
HETATM   10  C   UNL     1      -8.485  10.994  67.365  1.00  0.00    -0.132 C  
HETATM   11  H   UNL     1      -8.538  12.035  65.670  1.00  0.00     0.000 HD 
HETATM   12  O   UNL     1      -9.006  12.014  66.496  1.00  0.00    -0.206 OA 
BRANCH  10  13
HETATM   13  C   UNL     1      -8.417   9.667  66.582  1.00  0.00    -0.123 C  
HETATM   14  H   UNL     1      -7.994   7.746  66.942  1.00  0.00     0.000 HD 
HETATM   15  O   UNL     1      -8.036   8.563  67.424  1.00  0.00    -0.101 OA 
BRANCH  13  16
HETATM   16  C   UNL     1      -7.474   9.702  65.374  1.00  0.00    -0.111 C  
HETATM   17  O   UNL     1      -8.017  10.613  64.406  1.00  0.00    -0.339 OA 
HETATM   18  H   UNL     1      -7.433  10.634  63.658  1.00  0.00     0.000 HD 
ENDBRANCH  13  16
ENDBRANCH  10  13
ENDBRANCH   7  10
ENDBRANCH   4   7
ENDBRANCH   2   4
TORSDOF 5
ENDMDL
MODEL      312
REMARK 921   NORMALIZED FREE ENERGY PREDICTED BY IDOCK:   -1.74 KCAL/MOL
REMARK 922        TOTAL FREE ENERGY PREDICTED BY IDOCK:   -3.09 KCAL/MOL
REMARK 923 INTER-LIGAND FREE ENERGY PREDICTED BY IDOCK:   -3.05 KCAL/MOL
REMARK 924 INTRA-LIGAND FREE ENERGY PREDICTED BY IDOCK:   -0.04 KCAL/MOL
REMARK 927      BINDING AFFINITY PREDICTED BY RF-SCORE:    0.00 PKD
ROOT
HETATM    1  O   UNL     1     -12.305  11.310  68.530  1.00  0.00    -0.583 OA 
HETATM    2  C   UNL     1     -12.208  11.705  69.906  1.00  0.00    -0.239 C  
HETATM    3  H   UNL     1     -12.472  10.377  68.473  1.00  0.00     0.000 HD 
ENDROOT
BRANCH   2   4
HETATM    4  C   UNL     1     -11.939  13.211  69.998  1.00  0.00    -0.321 C  
HETATM    5  H   UNL     1     -13.034  14.839  70.194  1.00  0.00     0.000 HD 
HETATM    6  O   UNL     1     -13.201  13.906  70.137  1.00  0.00     0.121 OA 
BRANCH   4   7
HETATM    7  C   UNL     1     -11.254  13.832  68.764  1.00  0.00    -0.271 C  
HETATM    8  O   UNL     1     -12.166  13.763  67.655  1.00  0.00    -0.402 OA 
HETATM    9  H   UNL     1     -11.744  14.146  66.895  1.00  0.00     0.000 HD 
BRANCH   7  10
HETATM   10  C   UNL     1     -10.705  15.268  68.900  1.00  0.00    -0.245 C  
HETATM   11  H   UNL     1     -11.423  17.124  68.896  1.00  0.00     0.000 HD 
HETATM   12  O   UNL     1     -11.760  16.240  68.813  1.00  0.00    -0.317 OA 
BRANCH  10  13
HETATM   13  C   UNL     1      -9.583  15.668  67.920  1.00  0.00    -0.206 C  
HETATM   14  H   UNL     1      -7.666  15.211  67.585  1.00  0.00     0.000 HD 
HETATM   15  O   UNL     1      -8.357  14.964  68.189  1.00  0.00    -0.136 OA 
BRANCH  13  16
HETATM   16  C   UNL     1      -9.284  17.171  67.893  1.00  0.00    -0.241 C  
HETATM   17  O   UNL     1      -9.735  17.741  69.131  1.00  0.00    -0.210 OA 
HETATM   18  H   UNL     1      -9.550  18.672  69.114  1.00  0.00     0.000 HD 
ENDBRANCH  13  16
ENDBRANCH  10  13
ENDBRANCH   7  10
ENDBRANCH   4   7
ENDBRANCH   2   4
TORSDOF 5
ENDMDL
MODEL      313
REMARK 921   NORMALIZED FREE ENERGY PREDICTED BY IDOCK:   -1.74 KCAL/MOL
REMARK 922        TOTAL FREE ENERGY PREDICTED BY IDOCK:   -3.09 KCAL/MOL
REMARK 923 INTER-LIGAND FREE ENERGY PREDICTED BY IDOCK:   -2.54 KCAL/MOL
REMARK 924 INTRA-LIGAND FREE ENERGY PREDICTED BY IDOCK:   -0.55 KCAL/MOL
REMARK 927      BINDING AFFINITY PREDICTED BY RF-SCORE:    0.00 PKD
ROOT
HETATM    1  O   UNL     1     -11.219  11.876  68.517  1.00  0.00    -0.215 OA 
HETATM    2  C   UNL     1     -10.972  11.674  67.119  1.00  0.00    -0.280 C  
HETATM    3  H   UNL     1     -12.056  12.308  68.639  1.00  0.00     0.000 HD 
ENDROOT
BRANCH   2   4
HETATM    4  C   UNL     1      -9.622  10.977  66.923  1.00  0.00    -0.182 C  
HETATM    5  H   UNL     1      -8.711  10.036  65.448  1.00  0.00     0.000 HD 
HETATM    6  O   UNL     1      -9.549  10.468  65.570  1.00  0.00    -0.199 OA 
BRANCH   4   7
HETATM    7  C   UNL     1      -9.370   9.764  67.840  1.00  0.00    -0.127 C  
HETATM    8  O   UNL     1      -9.036  10.247  69.153  1.00  0.00    -0.171 OA 
HETATM    9  H   UNL     1      -8.881   9.499  69.717  1.00  0.00     0.000 HD 
BRANCH   7  10
HETATM   10  C   UNL     1     -10.486   8.703  67.943  1.00  0.00    -0.209 C  
HETATM   11  H   UNL     1     -11.243   7.494  69.330  1.00  0.00     0.000 HD 
HETATM   12  O   UNL     1     -10.556   8.146  69.267  1.00  0.00    -0.222 OA 
BRANCH  10  13
HETATM   13  C   UNL     1     -10.429   7.547  66.924  1.00  0.00    -0.315 C  
HETATM   14  H   UNL     1     -11.209   5.720  66.699  1.00  0.00     0.000 HD 
HETATM   15  O   UNL     1     -11.245   6.432  67.327  1.00  0.00    -0.364 OA 
BRANCH  13  16
HETATM   16  C   UNL     1      -9.012   7.034  66.642  1.00  0.00    -0.142 C  
HETATM   17  O   UNL     1      -8.557   6.312  67.797  1.00  0.00    -0.116 OA 
HETATM   18  H   UNL     1      -7.680   5.994  67.622  1.00  0.00     0.000 HD 
ENDBRANCH  13  16
ENDBRANCH  10  13
ENDBRANCH   7  10
ENDBRANCH   4   7
ENDBRANCH   2   4
TORSDOF 5
ENDMDL
MODEL      314
REMARK 921   NORMALIZED FREE ENERGY PREDICTED BY IDOCK:   -1.74 KCAL/MOL
REMARK 922        TOTAL FREE ENERGY PREDICTED BY IDOCK:   -3.09 KCAL/MOL
REMARK 923 INTER-LIGAND FREE ENERGY PREDICTED BY IDOCK:   -2.29 KCAL/MOL
REMARK 924 INTRA-LIGAND FREE ENERGY PREDICTED BY IDOCK:   -0.80 KCAL/MOL
REMARK 927      BINDING AFFINITY PREDICTED BY RF-SCORE:    0.00 PKD
ROOT
HETATM    1  O   UNL     1      -9.600   6.249  72.240  1.00  0.00    -0.153 OA 
HETATM    2  C   UNL     1     -10.424   7.412  72.084  1.00  0.00    -0.209 C  
HETATM    3  H   UNL     1      -9.157   6.276  73.080  1.00  0.00     0.000 HD 
ENDROOT
BRANCH   2   4
HETATM    4  C   UNL     1     -11.139   7.367  70.730  1.00  0.00    -0.265 C  
HETATM    5  H   UNL     1     -12.321   6.098  69.790  1.00  0.00     0.000 HD 
HETATM    6  O   UNL     1     -11.878   6.126  70.630  1.00  0.00    -0.222 OA 
BRANCH   4   7
HETATM    7  C   UNL     1     -10.213   7.401  69.497  1.00  0.00    -0.204 C  
HETATM    8  O   UNL     1      -8.959   7.990  69.887  1.00  0.00    -0.143 OA 
HETATM    9  H   UNL     1      -8.389   8.011  69.127  1.00  0.00     0.000 HD 
BRANCH   7  10
HETATM   10  C   UNL     1      -9.957   6.071  68.759  1.00  0.00    -0.150 C  
HETATM   11  H   UNL     1      -8.633   4.586  68.818  1.00  0.00     0.000 HD 
HETATM   12  O   UNL     1      -8.791   5.406  69.272  1.00  0.00    -0.100 OA 
BRANCH  10  13
HETATM   13  C   UNL     1      -9.844   6.151  67.223  1.00  0.00    -0.134 C  
HETATM   14  H   UNL     1     -11.054   6.406  65.652  1.00  0.00     0.000 HD 
HETATM   15  O   UNL     1     -11.124   6.357  66.598  1.00  0.00    -0.292 OA 
BRANCH  13  16
HETATM   16  C   UNL     1      -9.183   4.926  66.581  1.00  0.00    -0.126 C  
HETATM   17  O   UNL     1      -9.828   3.749  67.090  1.00  0.00    -0.288 OA 
HETATM   18  H   UNL     1      -9.419   2.990  66.692  1.00  0.00     0.000 HD 
ENDBRANCH  13  16
ENDBRANCH  10  13
ENDBRANCH   7  10
ENDBRANCH   4   7
ENDBRANCH   2   4
TORSDOF 5
ENDMDL
MODEL      315
REMARK 921   NORMALIZED FREE ENERGY PREDICTED BY IDOCK:   -1.73 KCAL/MOL
REMARK 922        TOTAL FREE ENERGY PREDICTED BY IDOCK:   -3.07 KCAL/MOL
REMARK 923 INTER-LIGAND FREE ENERGY PREDICTED BY IDOCK:   -2.29 KCAL/MOL
REMARK 924 INTRA-LIGAND FREE ENERGY PREDICTED BY IDOCK:   -0.78 KCAL/MOL
REMARK 927      BINDING AFFINITY PREDICTED BY RF-SCORE:    0.00 PKD
ROOT
HETATM    1  O   UNL     1     -12.465   6.423  72.285  1.00  0.00    -0.532 OA 
HETATM    2  C   UNL     1     -11.548   7.510  72.467  1.00  0.00    -0.303 C  
HETATM    3  H   UNL     1     -13.284   6.746  71.926  1.00  0.00     0.000 HD 
ENDROOT
BRANCH   2   4
HETATM    4  C   UNL     1     -10.229   6.989  73.045  1.00  0.00    -0.233 C  
HETATM    5  H   UNL     1      -8.718   7.758  74.052  1.00  0.00     0.000 HD 
HETATM    6  O   UNL     1      -9.536   8.082  73.694  1.00  0.00    -0.259 OA 
BRANCH   4   7
HETATM    7  C   UNL     1      -9.237   6.423  72.009  1.00  0.00    -0.148 C  
HETATM    8  O   UNL     1      -7.915   6.872  72.353  1.00  0.00    -0.096 OA 
HETATM    9  H   UNL     1      -7.304   6.523  71.715  1.00  0.00     0.000 HD 
BRANCH   7  10
HETATM   10  C   UNL     1      -9.228   4.895  71.789  1.00  0.00    -0.141 C  
HETATM   11  H   UNL     1     -10.361   3.534  70.882  1.00  0.00     0.000 HD 
HETATM   12  O   UNL     1     -10.366   4.473  71.018  1.00  0.00    -0.142 OA 
BRANCH  10  13
HETATM   13  C   UNL     1      -9.140   4.021  73.056  1.00  0.00    -0.110 C  
HETATM   14  H   UNL     1      -8.057   3.938  74.735  1.00  0.00     0.000 HD 
HETATM   15  O   UNL     1      -8.111   4.477  73.954  1.00  0.00    -0.099 OA 
BRANCH  13  16
HETATM   16  C   UNL     1      -8.911   2.532  72.773  1.00  0.00    -0.077 C  
HETATM   17  O   UNL     1     -10.101   2.002  72.170  1.00  0.00    -0.150 OA 
HETATM   18  H   UNL     1      -9.959   1.079  71.995  1.00  0.00     0.000 HD 
ENDBRANCH  13  16
ENDBRANCH  10  13
ENDBRANCH   7  10
ENDBRANCH   4   7
ENDBRANCH   2   4
TORSDOF 5
ENDMDL
MODEL      316
REMARK 921   NORMALIZED FREE ENERGY PREDICTED BY IDOCK:   -1.72 KCAL/MOL
REMARK 922        TOTAL FREE ENERGY PREDICTED BY IDOCK:   -3.07 KCAL/MOL
REMARK 923 INTER-LIGAND FREE ENERGY PREDICTED BY IDOCK:   -2.63 KCAL/MOL
REMARK 924 INTRA-LIGAND FREE ENERGY PREDICTED BY IDOCK:   -0.45 KCAL/MOL
REMARK 927      BINDING AFFINITY PREDICTED BY RF-SCORE:    0.00 PKD
ROOT
HETATM    1  O   UNL     1      -7.407   5.117  67.962  1.00  0.00    -0.073 OA 
HETATM    2  C   UNL     1      -8.632   5.168  67.219  1.00  0.00    -0.104 C  
HETATM    3  H   UNL     1      -7.082   4.225  67.991  1.00  0.00     0.000 HD 
ENDROOT
BRANCH   2   4
HETATM    4  C   UNL     1      -9.156   6.607  67.174  1.00  0.00    -0.128 C  
HETATM    5  H   UNL     1      -8.381   8.407  67.399  1.00  0.00     0.000 HD 
HETATM    6  O   UNL     1      -8.056   7.514  67.428  1.00  0.00    -0.113 OA 
BRANCH   4   7
HETATM    7  C   UNL     1     -10.230   6.948  68.225  1.00  0.00    -0.180 C  
HETATM    8  O   UNL     1     -11.520   6.628  67.677  1.00  0.00    -0.687 OA 
HETATM    9  H   UNL     1     -12.182   6.838  68.325  1.00  0.00     0.000 HD 
BRANCH   7  10
HETATM   10  C   UNL     1     -10.086   6.315  69.625  1.00  0.00    -0.174 C  
HETATM   11  H   UNL     1     -11.026   4.950  70.726  1.00  0.00     0.000 HD 
HETATM   12  O   UNL     1     -11.115   5.340  69.864  1.00  0.00    -0.027 OA 
BRANCH  10  13
HETATM   13  C   UNL     1     -10.046   7.292  70.817  1.00  0.00    -0.190 C  
HETATM   14  H   UNL     1     -10.121   7.209  72.813  1.00  0.00     0.000 HD 
HETATM   15  O   UNL     1     -10.146   6.607  72.079  1.00  0.00    -0.184 OA 
BRANCH  13  16
HETATM   16  C   UNL     1     -11.125   8.380  70.770  1.00  0.00    -0.258 C  
HETATM   17  O   UNL     1     -12.407   7.739  70.700  1.00  0.00    -0.510 OA 
HETATM   18  H   UNL     1     -13.075   8.413  70.670  1.00  0.00     0.000 HD 
ENDBRANCH  13  16
ENDBRANCH  10  13
ENDBRANCH   7  10
ENDBRANCH   4   7
ENDBRANCH   2   4
TORSDOF 5
ENDMDL
MODEL      317
REMARK 921   NORMALIZED FREE ENERGY PREDICTED BY IDOCK:   -1.71 KCAL/MOL
REMARK 922        TOTAL FREE ENERGY PREDICTED BY IDOCK:   -3.05 KCAL/MOL
REMARK 923 INTER-LIGAND FREE ENERGY PREDICTED BY IDOCK:   -2.55 KCAL/MOL
REMARK 924 INTRA-LIGAND FREE ENERGY PREDICTED BY IDOCK:   -0.51 KCAL/MOL
REMARK 927      BINDING AFFINITY PREDICTED BY RF-SCORE:    0.00 PKD
ROOT
HETATM    1  O   UNL     1     -11.043   6.624  66.571  1.00  0.00    -0.549 OA 
HETATM    2  C   UNL     1      -9.630   6.385  66.621  1.00  0.00    -0.157 C  
HETATM    3  H   UNL     1     -11.462   5.974  66.020  1.00  0.00     0.000 HD 
ENDROOT
BRANCH   2   4
HETATM    4  C   UNL     1      -8.954   7.433  67.509  1.00  0.00    -0.126 C  
HETATM    5  H   UNL     1      -8.030   7.435  69.252  1.00  0.00     0.000 HD 
HETATM    6  O   UNL     1      -8.449   6.784  68.701  1.00  0.00    -0.122 OA 
BRANCH   4   7
HETATM    7  C   UNL     1      -9.876   8.564  68.009  1.00  0.00    -0.169 C  
HETATM    8  O   UNL     1      -9.485   8.911  69.348  1.00  0.00    -0.158 OA 
HETATM    9  H   UNL     1     -10.054   9.607  69.656  1.00  0.00     0.000 HD 
BRANCH   7  10
HETATM   10  C   UNL     1      -9.972   9.840  67.146  1.00  0.00    -0.198 C  
HETATM   11  H   UNL     1     -10.275  10.304  65.235  1.00  0.00     0.000 HD 
HETATM   12  O   UNL     1     -10.215   9.519  65.766  1.00  0.00    -0.255 OA 
BRANCH  10  13
HETATM   13  C   UNL     1      -8.777  10.811  67.225  1.00  0.00    -0.130 C  
HETATM   14  H   UNL     1      -6.898  10.808  67.905  1.00  0.00     0.000 HD 
HETATM   15  O   UNL     1      -7.633  10.209  67.858  1.00  0.00    -0.088 OA 
BRANCH  13  16
HETATM   16  C   UNL     1      -9.090  12.129  67.942  1.00  0.00    -0.185 C  
HETATM   17  O   UNL     1      -9.966  11.844  69.043  1.00  0.00    -0.407 OA 
HETATM   18  H   UNL     1     -10.160  12.661  69.488  1.00  0.00     0.000 HD 
ENDBRANCH  13  16
ENDBRANCH  10  13
ENDBRANCH   7  10
ENDBRANCH   4   7
ENDBRANCH   2   4
TORSDOF 5
ENDMDL
MODEL      318
REMARK 921   NORMALIZED FREE ENERGY PREDICTED BY IDOCK:   -1.70 KCAL/MOL
REMARK 922        TOTAL FREE ENERGY PREDICTED BY IDOCK:   -3.05 KCAL/MOL
REMARK 923 INTER-LIGAND FREE ENERGY PREDICTED BY IDOCK:   -2.85 KCAL/MOL
REMARK 924 INTRA-LIGAND FREE ENERGY PREDICTED BY IDOCK:   -0.19 KCAL/MOL
REMARK 927      BINDING AFFINITY PREDICTED BY RF-SCORE:    0.00 PKD
ROOT
HETATM    1  O   UNL     1     -11.334  11.310  69.054  1.00  0.00    -0.227 OA 
HETATM    2  C   UNL     1     -11.364  10.217  69.982  1.00  0.00    -0.301 C  
HETATM    3  H   UNL     1     -12.069  11.891  69.213  1.00  0.00     0.000 HD 
ENDROOT
BRANCH   2   4
HETATM    4  C   UNL     1     -10.179   9.282  69.725  1.00  0.00    -0.211 C  
HETATM    5  H   UNL     1      -9.753   7.852  68.435  1.00  0.00     0.000 HD 
HETATM    6  O   UNL     1     -10.488   8.432  68.594  1.00  0.00    -0.208 OA 
BRANCH   4   7
HETATM    7  C   UNL     1      -9.834   8.325  70.884  1.00  0.00    -0.182 C  
HETATM    8  O   UNL     1      -9.083   9.056  71.869  1.00  0.00    -0.365 OA 
HETATM    9  H   UNL     1      -8.871   8.466  72.583  1.00  0.00     0.000 HD 
BRANCH   7  10
HETATM   10  C   UNL     1     -11.001   7.580  71.565  1.00  0.00    -0.229 C  
HETATM   11  H   UNL     1     -12.020   7.689  73.271  1.00  0.00     0.000 HD 
HETATM   12  O   UNL     1     -11.302   8.147  72.851  1.00  0.00    -0.387 OA 
BRANCH  10  13
HETATM   13  C   UNL     1     -10.839   6.055  71.725  1.00  0.00    -0.260 C  
HETATM   14  H   UNL     1     -10.633   4.448  70.552  1.00  0.00     0.000 HD 
HETATM   15  O   UNL     1     -10.733   5.388  70.454  1.00  0.00    -0.274 OA 
BRANCH  13  16
HETATM   16  C   UNL     1     -11.961   5.388  72.529  1.00  0.00     0.049 C  
HETATM   17  O   UNL     1     -11.394   4.302  73.277  1.00  0.00    -0.259 OA 
HETATM   18  H   UNL     1     -12.089   3.890  73.775  1.00  0.00     0.000 HD 
ENDBRANCH  13  16
ENDBRANCH  10  13
ENDBRANCH   7  10
ENDBRANCH   4   7
ENDBRANCH   2   4
TORSDOF 5
ENDMDL
MODEL      319
REMARK 921   NORMALIZED FREE ENERGY PREDICTED BY IDOCK:   -1.65 KCAL/MOL
REMARK 922        TOTAL FREE ENERGY PREDICTED BY IDOCK:   -2.97 KCAL/MOL
REMARK 923 INTER-LIGAND FREE ENERGY PREDICTED BY IDOCK:   -2.54 KCAL/MOL
REMARK 924 INTRA-LIGAND FREE ENERGY PREDICTED BY IDOCK:   -0.43 KCAL/MOL
REMARK 927      BINDING AFFINITY PREDICTED BY RF-SCORE:    0.00 PKD
ROOT
HETATM    1  O   UNL     1      -8.405   7.165  66.294  1.00  0.00    -0.117 OA 
HETATM    2  C   UNL     1      -9.422   8.102  66.674  1.00  0.00    -0.213 C  
HETATM    3  H   UNL     1      -8.614   6.785  65.449  1.00  0.00     0.000 HD 
ENDROOT
BRANCH   2   4
HETATM    4  C   UNL     1      -9.084   8.714  68.037  1.00  0.00    -0.140 C  
HETATM    5  H   UNL     1      -7.462   9.411  68.917  1.00  0.00     0.000 HD 
HETATM    6  O   UNL     1      -7.671   9.031  68.072  1.00  0.00    -0.095 OA 
BRANCH   4   7
HETATM    7  C   UNL     1      -9.336   7.797  69.250  1.00  0.00    -0.148 C  
HETATM    8  O   UNL     1      -8.165   6.990  69.461  1.00  0.00    -0.128 OA 
HETATM    9  H   UNL     1      -8.320   6.424  70.208  1.00  0.00     0.000 HD 
BRANCH   7  10
HETATM   10  C   UNL     1      -9.754   8.465  70.576  1.00  0.00    -0.173 C  
HETATM   11  H   UNL     1      -9.049   9.861  71.807  1.00  0.00     0.000 HD 
HETATM   12  O   UNL     1      -8.792   9.449  70.990  1.00  0.00    -0.250 OA 
BRANCH  10  13
HETATM   13  C   UNL     1     -10.034   7.520  71.762  1.00  0.00    -0.171 C  
HETATM   14  H   UNL     1     -10.705   5.660  72.056  1.00  0.00     0.000 HD 
HETATM   15  O   UNL     1     -10.533   6.242  71.326  1.00  0.00    -0.206 OA 
BRANCH  13  16
HETATM   16  C   UNL     1     -11.006   8.090  72.800  1.00  0.00    -0.382 C  
HETATM   17  O   UNL     1     -12.154   7.231  72.861  1.00  0.00    -0.519 OA 
HETATM   18  H   UNL     1     -12.756   7.585  73.504  1.00  0.00     0.000 HD 
ENDBRANCH  13  16
ENDBRANCH  10  13
ENDBRANCH   7  10
ENDBRANCH   4   7
ENDBRANCH   2   4
TORSDOF 5
ENDMDL
MODEL      320
REMARK 921   NORMALIZED FREE ENERGY PREDICTED BY IDOCK:   -1.64 KCAL/MOL
REMARK 922        TOTAL FREE ENERGY PREDICTED BY IDOCK:   -2.96 KCAL/MOL
REMARK 923 INTER-LIGAND FREE ENERGY PREDICTED BY IDOCK:   -2.58 KCAL/MOL
REMARK 924 INTRA-LIGAND FREE ENERGY PREDICTED BY IDOCK:   -0.38 KCAL/MOL
REMARK 927      BINDING AFFINITY PREDICTED BY RF-SCORE:    0.00 PKD
ROOT
HETATM    1  O   UNL     1     -12.553  12.673  68.361  1.00  0.00     0.287 OA 
HETATM    2  C   UNL     1     -11.674  12.204  69.392  1.00  0.00    -0.329 C  
HETATM    3  H   UNL     1     -12.263  12.349  67.516  1.00  0.00     0.000 HD 
ENDROOT
BRANCH   2   4
HETATM    4  C   UNL     1     -12.142  12.727  70.754  1.00  0.00    -0.155 C  
HETATM    5  H   UNL     1     -13.326  12.079  72.192  1.00  0.00     0.000 HD 
HETATM    6  O   UNL     1     -13.036  11.755  71.348  1.00  0.00    -0.364 OA 
BRANCH   4   7
HETATM    7  C   UNL     1     -12.931  14.050  70.713  1.00  0.00    -0.230 C  
HETATM    8  O   UNL     1     -14.004  13.970  71.668  1.00  0.00    -0.364 OA 
HETATM    9  H   UNL     1     -14.490  14.785  71.643  1.00  0.00     0.000 HD 
BRANCH   7  10
HETATM   10  C   UNL     1     -12.142  15.359  70.925  1.00  0.00    -0.364 C  
HETATM   11  H   UNL     1     -12.387  17.086  71.883  1.00  0.00     0.000 HD 
HETATM   12  O   UNL     1     -12.872  16.280  71.752  1.00  0.00    -0.213 OA 
BRANCH  10  13
HETATM   13  C   UNL     1     -11.685  16.097  69.650  1.00  0.00    -0.192 C  
HETATM   14  H   UNL     1     -11.726  15.815  67.671  1.00  0.00     0.000 HD 
HETATM   15  O   UNL     1     -12.007  15.360  68.456  1.00  0.00    -0.316 OA 
BRANCH  13  16
HETATM   16  C   UNL     1     -10.189  16.431  69.624  1.00  0.00    -0.198 C  
HETATM   17  O   UNL     1     -10.049  17.858  69.554  1.00  0.00    -0.139 OA 
HETATM   18  H   UNL     1      -9.122  18.064  69.538  1.00  0.00     0.000 HD 
ENDBRANCH  13  16
ENDBRANCH  10  13
ENDBRANCH   7  10
ENDBRANCH   4   7
ENDBRANCH   2   4
TORSDOF 5
ENDMDL
MODEL      321
REMARK 921   NORMALIZED FREE ENERGY PREDICTED BY IDOCK:   -1.63 KCAL/MOL
REMARK 922        TOTAL FREE ENERGY PREDICTED BY IDOCK:   -2.95 KCAL/MOL
REMARK 923 INTER-LIGAND FREE ENERGY PREDICTED BY IDOCK:   -2.52 KCAL/MOL
REMARK 924 INTRA-LIGAND FREE ENERGY PREDICTED BY IDOCK:   -0.43 KCAL/MOL
REMARK 927      BINDING AFFINITY PREDICTED BY RF-SCORE:    0.00 PKD
ROOT
HETATM    1  O   UNL     1     -11.299   7.323  67.919  1.00  0.00    -0.458 OA 
HETATM    2  C   UNL     1     -10.713   6.419  66.973  1.00  0.00    -0.363 C  
HETATM    3  H   UNL     1     -12.069   6.928  68.311  1.00  0.00     0.000 HD 
ENDROOT
BRANCH   2   4
HETATM    4  C   UNL     1      -9.471   7.056  66.342  1.00  0.00    -0.124 C  
HETATM    5  H   UNL     1      -7.692   6.430  65.765  1.00  0.00     0.000 HD 
HETATM    6  O   UNL     1      -8.462   6.035  66.157  1.00  0.00    -0.123 OA 
BRANCH   4   7
HETATM    7  C   UNL     1      -8.799   8.158  67.185  1.00  0.00    -0.131 C  
HETATM    8  O   UNL     1      -7.439   7.769  67.441  1.00  0.00    -0.089 OA 
HETATM    9  H   UNL     1      -7.025   8.448  67.960  1.00  0.00     0.000 HD 
BRANCH   7  10
HETATM   10  C   UNL     1      -8.835   9.600  66.635  1.00  0.00    -0.138 C  
HETATM   11  H   UNL     1      -7.529  11.018  66.139  1.00  0.00     0.000 HD 
HETATM   12  O   UNL     1      -7.508  10.131  66.478  1.00  0.00    -0.102 OA 
BRANCH  10  13
HETATM   13  C   UNL     1      -9.682  10.615  67.428  1.00  0.00    -0.167 C  
HETATM   14  H   UNL     1     -11.524  11.388  67.366  1.00  0.00     0.000 HD 
HETATM   15  O   UNL     1     -11.003  10.762  66.876  1.00  0.00    -0.256 OA 
BRANCH  13  16
HETATM   16  C   UNL     1      -9.046  12.005  67.541  1.00  0.00    -0.177 C  
HETATM   17  O   UNL     1      -8.967  12.572  66.225  1.00  0.00    -0.396 OA 
HETATM   18  H   UNL     1      -8.573  13.433  66.295  1.00  0.00     0.000 HD 
ENDBRANCH  13  16
ENDBRANCH  10  13
ENDBRANCH   7  10
ENDBRANCH   4   7
ENDBRANCH   2   4
TORSDOF 5
ENDMDL
MODEL      322
REMARK 921   NORMALIZED FREE ENERGY PREDICTED BY IDOCK:   -1.63 KCAL/MOL
REMARK 922        TOTAL FREE ENERGY PREDICTED BY IDOCK:   -2.95 KCAL/MOL
REMARK 923 INTER-LIGAND FREE ENERGY PREDICTED BY IDOCK:   -3.60 KCAL/MOL
REMARK 924 INTRA-LIGAND FREE ENERGY PREDICTED BY IDOCK:    0.66 KCAL/MOL
REMARK 927      BINDING AFFINITY PREDICTED BY RF-SCORE:    0.00 PKD
ROOT
HETATM    1  O   UNL     1      -7.279  11.154  65.495  1.00  0.00    -0.362 OA 
HETATM    2  C   UNL     1      -7.693  11.203  66.867  1.00  0.00    -0.148 C  
HETATM    3  H   UNL     1      -6.353  11.355  65.429  1.00  0.00     0.000 HD 
ENDROOT
BRANCH   2   4
HETATM    4  C   UNL     1      -9.186  10.878  66.973  1.00  0.00    -0.152 C  
HETATM    5  H   UNL     1     -10.868  11.718  66.375  1.00  0.00     0.000 HD 
HETATM    6  O   UNL     1      -9.942  11.920  66.309  1.00  0.00    -0.211 OA 
BRANCH   4   7
HETATM    7  C   UNL     1      -9.743  10.810  68.409  1.00  0.00    -0.174 C  
HETATM    8  O   UNL     1      -8.712  11.234  69.317  1.00  0.00    -0.377 OA 
HETATM    9  H   UNL     1      -9.055  11.191  70.202  1.00  0.00     0.000 HD 
BRANCH   7  10
HETATM   10  C   UNL     1     -11.048  11.578  68.707  1.00  0.00    -0.233 C  
HETATM   11  H   UNL     1     -12.958  11.501  68.155  1.00  0.00     0.000 HD 
HETATM   12  O   UNL     1     -12.155  11.029  67.973  1.00  0.00    -0.615 OA 
BRANCH  10  13
HETATM   13  C   UNL     1     -11.012  13.103  68.478  1.00  0.00    -0.263 C  
HETATM   14  H   UNL     1      -9.710  14.607  68.672  1.00  0.00     0.000 HD 
HETATM   15  O   UNL     1      -9.731  13.668  68.813  1.00  0.00    -0.157 OA 
BRANCH  13  16
HETATM   16  C   UNL     1     -12.096  13.874  69.240  1.00  0.00    -0.339 C  
HETATM   17  O   UNL     1     -12.353  15.100  68.538  1.00  0.00    -0.572 OA 
HETATM   18  H   UNL     1     -13.024  15.577  69.011  1.00  0.00     0.000 HD 
ENDBRANCH  13  16
ENDBRANCH  10  13
ENDBRANCH   7  10
ENDBRANCH   4   7
ENDBRANCH   2   4
TORSDOF 5
ENDMDL
MODEL      323
REMARK 921   NORMALIZED FREE ENERGY PREDICTED BY IDOCK:   -1.62 KCAL/MOL
REMARK 922        TOTAL FREE ENERGY PREDICTED BY IDOCK:   -2.94 KCAL/MOL
REMARK 923 INTER-LIGAND FREE ENERGY PREDICTED BY IDOCK:   -2.77 KCAL/MOL
REMARK 924 INTRA-LIGAND FREE ENERGY PREDICTED BY IDOCK:   -0.17 KCAL/MOL
REMARK 927      BINDING AFFINITY PREDICTED BY RF-SCORE:    0.00 PKD
ROOT
HETATM    1  O   UNL     1     -10.863  15.642  67.098  1.00  0.00    -0.312 OA 
HETATM    2  C   UNL     1      -9.973  16.641  66.581  1.00  0.00    -0.283 C  
HETATM    3  H   UNL     1     -10.779  14.841  66.595  1.00  0.00     0.000 HD 
ENDROOT
BRANCH   2   4
HETATM    4  C   UNL     1     -10.109  17.932  67.393  1.00  0.00    -0.340 C  
HETATM    5  H   UNL     1     -11.542  19.238  67.755  1.00  0.00     0.000 HD 
HETATM    6  O   UNL     1     -11.458  18.437  67.251  1.00  0.00     0.392 OA 
BRANCH   4   7
HETATM    7  C   UNL     1      -9.184  19.085  66.954  1.00  0.00    -0.303 C  
HETATM    8  O   UNL     1     -10.002  20.182  66.513  1.00  0.00    -0.432 OA 
HETATM    9  H   UNL     1      -9.432  20.892  66.242  1.00  0.00     0.000 HD 
BRANCH   7  10
HETATM   10  C   UNL     1      -8.138  19.589  67.971  1.00  0.00    -0.312 C  
HETATM   11  H   UNL     1      -6.914  21.145  68.173  1.00  0.00     0.000 HD 
HETATM   12  O   UNL     1      -7.558  20.834  67.547  1.00  0.00    -0.325 OA 
BRANCH  10  13
HETATM   13  C   UNL     1      -7.001  18.610  68.326  1.00  0.00    -0.246 C  
HETATM   14  H   UNL     1      -5.456  18.519  69.591  1.00  0.00     0.000 HD 
HETATM   15  O   UNL     1      -6.156  19.123  69.372  1.00  0.00    -0.245 OA 
BRANCH  13  16
HETATM   16  C   UNL     1      -6.117  18.221  67.136  1.00  0.00    -0.160 C  
HETATM   17  O   UNL     1      -6.577  16.959  66.629  1.00  0.00    -0.205 OA 
HETATM   18  H   UNL     1      -6.029  16.718  65.891  1.00  0.00     0.000 HD 
ENDBRANCH  13  16
ENDBRANCH  10  13
ENDBRANCH   7  10
ENDBRANCH   4   7
ENDBRANCH   2   4
TORSDOF 5
ENDMDL
MODEL      324
REMARK 921   NORMALIZED FREE ENERGY PREDICTED BY IDOCK:   -1.62 KCAL/MOL
REMARK 922        TOTAL FREE ENERGY PREDICTED BY IDOCK:   -2.94 KCAL/MOL
REMARK 923 INTER-LIGAND FREE ENERGY PREDICTED BY IDOCK:   -2.34 KCAL/MOL
REMARK 924 INTRA-LIGAND FREE ENERGY PREDICTED BY IDOCK:   -0.60 KCAL/MOL
REMARK 927      BINDING AFFINITY PREDICTED BY RF-SCORE:    0.00 PKD
ROOT
HETATM    1  O   UNL     1     -10.885  10.955  70.187  1.00  0.00    -0.461 OA 
HETATM    2  C   UNL     1     -10.767  10.176  68.988  1.00  0.00    -0.221 C  
HETATM    3  H   UNL     1     -11.691  11.458  70.167  1.00  0.00     0.000 HD 
ENDROOT
BRANCH   2   4
HETATM    4  C   UNL     1      -9.468   9.364  69.020  1.00  0.00    -0.160 C  
HETATM    5  H   UNL     1      -7.872   9.284  70.177  1.00  0.00     0.000 HD 
HETATM    6  O   UNL     1      -8.678   9.787  70.157  1.00  0.00    -0.207 OA 
BRANCH   4   7
HETATM    7  C   UNL     1      -8.555   9.537  67.790  1.00  0.00    -0.115 C  
HETATM    8  O   UNL     1      -7.197   9.663  68.245  1.00  0.00    -0.077 OA 
HETATM    9  H   UNL     1      -6.635   9.770  67.487  1.00  0.00     0.000 HD 
BRANCH   7  10
HETATM   10  C   UNL     1      -8.637   8.465  66.683  1.00  0.00    -0.120 C  
HETATM   11  H   UNL     1      -9.833   8.015  65.157  1.00  0.00     0.000 HD 
HETATM   12  O   UNL     1      -9.782   8.675  65.839  1.00  0.00    -0.209 OA 
BRANCH  10  13
HETATM   13  C   UNL     1      -8.631   6.996  67.151  1.00  0.00    -0.121 C  
HETATM   14  H   UNL     1      -7.433   5.764  68.171  1.00  0.00     0.000 HD 
HETATM   15  O   UNL     1      -7.436   6.669  67.883  1.00  0.00    -0.093 OA 
BRANCH  13  16
HETATM   16  C   UNL     1      -8.798   5.979  66.016  1.00  0.00    -0.153 C  
HETATM   17  O   UNL     1     -10.184   5.612  65.942  1.00  0.00    -0.403 OA 
HETATM   18  H   UNL     1     -10.287   4.982  65.239  1.00  0.00     0.000 HD 
ENDBRANCH  13  16
ENDBRANCH  10  13
ENDBRANCH   7  10
ENDBRANCH   4   7
ENDBRANCH   2   4
TORSDOF 5
ENDMDL
MODEL      325
REMARK 921   NORMALIZED FREE ENERGY PREDICTED BY IDOCK:   -1.62 KCAL/MOL
REMARK 922        TOTAL FREE ENERGY PREDICTED BY IDOCK:   -2.93 KCAL/MOL
REMARK 923 INTER-LIGAND FREE ENERGY PREDICTED BY IDOCK:   -2.59 KCAL/MOL
REMARK 924 INTRA-LIGAND FREE ENERGY PREDICTED BY IDOCK:   -0.34 KCAL/MOL
REMARK 927      BINDING AFFINITY PREDICTED BY RF-SCORE:    0.00 PKD
ROOT
HETATM    1  O   UNL     1      -6.696  10.223  66.285  1.00  0.00    -0.091 OA 
HETATM    2  C   UNL     1      -6.859  10.977  67.494  1.00  0.00    -0.084 C  
HETATM    3  H   UNL     1      -6.387   9.348  66.488  1.00  0.00     0.000 HD 
ENDROOT
BRANCH   2   4
HETATM    4  C   UNL     1      -7.358  12.388  67.166  1.00  0.00    -0.081 C  
HETATM    5  H   UNL     1      -6.591  14.205  67.182  1.00  0.00     0.000 HD 
HETATM    6  O   UNL     1      -6.281  13.330  67.385  1.00  0.00    -0.277 OA 
BRANCH   4   7
HETATM    7  C   UNL     1      -8.532  12.887  68.032  1.00  0.00    -0.178 C  
HETATM    8  O   UNL     1      -8.073  13.996  68.824  1.00  0.00    -0.208 OA 
HETATM    9  H   UNL     1      -8.797  14.303  69.357  1.00  0.00     0.000 HD 
BRANCH   7  10
HETATM   10  C   UNL     1      -9.841  13.267  67.310  1.00  0.00    -0.233 C  
HETATM   11  H   UNL     1     -10.454  14.630  65.995  1.00  0.00     0.000 HD 
HETATM   12  O   UNL     1      -9.648  14.396  66.440  1.00  0.00    -0.277 OA 
BRANCH  10  13
HETATM   13  C   UNL     1     -11.065  13.540  68.208  1.00  0.00    -0.261 C  
HETATM   14  H   UNL     1     -11.539  14.699  69.766  1.00  0.00     0.000 HD 
HETATM   15  O   UNL     1     -10.785  14.532  69.213  1.00  0.00    -0.243 OA 
BRANCH  13  16
HETATM   16  C   UNL     1     -11.621  12.291  68.901  1.00  0.00    -0.316 C  
HETATM   17  O   UNL     1     -12.156  12.685  70.174  1.00  0.00    -0.341 OA 
HETATM   18  H   UNL     1     -12.500  11.911  70.604  1.00  0.00     0.000 HD 
ENDBRANCH  13  16
ENDBRANCH  10  13
ENDBRANCH   7  10
ENDBRANCH   4   7
ENDBRANCH   2   4
TORSDOF 5
ENDMDL
MODEL      326
REMARK 921   NORMALIZED FREE ENERGY PREDICTED BY IDOCK:   -1.61 KCAL/MOL
REMARK 922        TOTAL FREE ENERGY PREDICTED BY IDOCK:   -2.93 KCAL/MOL
REMARK 923 INTER-LIGAND FREE ENERGY PREDICTED BY IDOCK:   -2.41 KCAL/MOL
REMARK 924 INTRA-LIGAND FREE ENERGY PREDICTED BY IDOCK:   -0.52 KCAL/MOL
REMARK 927      BINDING AFFINITY PREDICTED BY RF-SCORE:    0.00 PKD
ROOT
HETATM    1  O   UNL     1     -10.144  12.765  67.599  1.00  0.00    -0.213 OA 
HETATM    2  C   UNL     1      -8.879  12.777  66.924  1.00  0.00    -0.194 C  
HETATM    3  H   UNL     1     -10.788  13.240  67.088  1.00  0.00     0.000 HD 
ENDROOT
BRANCH   2   4
HETATM    4  C   UNL     1      -7.840  12.010  67.748  1.00  0.00    -0.145 C  
HETATM    5  H   UNL     1      -5.987  11.391  67.475  1.00  0.00     0.000 HD 
HETATM    6  O   UNL     1      -6.631  11.866  66.963  1.00  0.00    -0.142 OA 
BRANCH   4   7
HETATM    7  C   UNL     1      -8.248  10.579  68.151  1.00  0.00    -0.114 C  
HETATM    8  O   UNL     1      -7.239   9.669  67.683  1.00  0.00    -0.087 OA 
HETATM    9  H   UNL     1      -7.490   8.787  67.931  1.00  0.00     0.000 HD 
BRANCH   7  10
HETATM   10  C   UNL     1      -8.539  10.313  69.643  1.00  0.00    -0.107 C  
HETATM   11  H   UNL     1      -7.900   9.080  71.069  1.00  0.00     0.000 HD 
HETATM   12  O   UNL     1      -7.722   9.244  70.151  1.00  0.00    -0.088 OA 
BRANCH  10  13
HETATM   13  C   UNL     1     -10.008  10.031  70.015  1.00  0.00    -0.222 C  
HETATM   14  H   UNL     1     -11.023   8.958  71.362  1.00  0.00     0.000 HD 
HETATM   15  O   UNL     1     -10.118   9.131  71.134  1.00  0.00    -0.267 OA 
BRANCH  13  16
HETATM   16  C   UNL     1     -10.849   9.474  68.861  1.00  0.00    -0.150 C  
HETATM   17  O   UNL     1     -11.794  10.479  68.467  1.00  0.00    -0.682 OA 
HETATM   18  H   UNL     1     -12.315  10.134  67.752  1.00  0.00     0.000 HD 
ENDBRANCH  13  16
ENDBRANCH  10  13
ENDBRANCH   7  10
ENDBRANCH   4   7
ENDBRANCH   2   4
TORSDOF 5
ENDMDL
MODEL      327
REMARK 921   NORMALIZED FREE ENERGY PREDICTED BY IDOCK:   -1.61 KCAL/MOL
REMARK 922        TOTAL FREE ENERGY PREDICTED BY IDOCK:   -2.93 KCAL/MOL
REMARK 923 INTER-LIGAND FREE ENERGY PREDICTED BY IDOCK:   -2.17 KCAL/MOL
REMARK 924 INTRA-LIGAND FREE ENERGY PREDICTED BY IDOCK:   -0.76 KCAL/MOL
REMARK 927      BINDING AFFINITY PREDICTED BY RF-SCORE:    0.00 PKD
ROOT
HETATM    1  O   UNL     1      -5.710   5.360  65.500  1.00  0.00    -0.013 OA 
HETATM    2  C   UNL     1      -6.257   4.264  66.247  1.00  0.00    -0.032 C  
HETATM    3  H   UNL     1      -4.832   5.146  65.208  1.00  0.00     0.000 HD 
ENDROOT
BRANCH   2   4
HETATM    4  C   UNL     1      -7.673   4.609  66.718  1.00  0.00    -0.095 C  
HETATM    5  H   UNL     1      -9.506   4.243  66.088  1.00  0.00     0.000 HD 
HETATM    6  O   UNL     1      -8.628   4.030  65.796  1.00  0.00    -0.109 OA 
BRANCH   4   7
HETATM    7  C   UNL     1      -8.001   6.114  66.767  1.00  0.00    -0.105 C  
HETATM    8  O   UNL     1      -8.575   6.496  65.505  1.00  0.00    -0.187 OA 
HETATM    9  H   UNL     1      -8.776   7.424  65.536  1.00  0.00     0.000 HD 
BRANCH   7  10
HETATM   10  C   UNL     1      -8.897   6.613  67.920  1.00  0.00    -0.115 C  
HETATM   11  H   UNL     1      -8.823   6.704  69.906  1.00  0.00     0.000 HD 
HETATM   12  O   UNL     1      -8.272   6.398  69.197  1.00  0.00    -0.110 OA 
BRANCH  10  13
HETATM   13  C   UNL     1     -10.329   6.043  67.970  1.00  0.00    -0.202 C  
HETATM   14  H   UNL     1     -12.012   6.150  66.897  1.00  0.00     0.000 HD 
HETATM   15  O   UNL     1     -11.131   6.502  66.866  1.00  0.00    -0.399 OA 
BRANCH  13  16
HETATM   16  C   UNL     1     -11.078   6.348  69.272  1.00  0.00    -0.373 C  
HETATM   17  O   UNL     1     -11.060   7.768  69.478  1.00  0.00    -0.427 OA 
HETATM   18  H   UNL     1     -11.524   7.957  70.285  1.00  0.00     0.000 HD 
ENDBRANCH  13  16
ENDBRANCH  10  13
ENDBRANCH   7  10
ENDBRANCH   4   7
ENDBRANCH   2   4
TORSDOF 5
ENDMDL
MODEL      328
REMARK 921   NORMALIZED FREE ENERGY PREDICTED BY IDOCK:   -1.61 KCAL/MOL
REMARK 922        TOTAL FREE ENERGY PREDICTED BY IDOCK:   -2.93 KCAL/MOL
REMARK 923 INTER-LIGAND FREE ENERGY PREDICTED BY IDOCK:   -2.85 KCAL/MOL
REMARK 924 INTRA-LIGAND FREE ENERGY PREDICTED BY IDOCK:   -0.08 KCAL/MOL
REMARK 927      BINDING AFFINITY PREDICTED BY RF-SCORE:    0.00 PKD
ROOT
HETATM    1  O   UNL     1      -8.129  11.370  66.124  1.00  0.00    -0.320 OA 
HETATM    2  C   UNL     1      -7.791  12.033  67.350  1.00  0.00    -0.162 C  
HETATM    3  H   UNL     1      -7.340  11.053  65.700  1.00  0.00     0.000 HD 
ENDROOT
BRANCH   2   4
HETATM    4  C   UNL     1      -9.063  12.543  68.035  1.00  0.00    -0.200 C  
HETATM    5  H   UNL     1     -10.989  12.578  67.608  1.00  0.00     0.000 HD 
HETATM    6  O   UNL     1     -10.200  12.261  67.183  1.00  0.00    -0.210 OA 
BRANCH   4   7
HETATM    7  C   UNL     1      -9.104  14.062  68.296  1.00  0.00    -0.191 C  
HETATM    8  O   UNL     1      -8.117  14.379  69.293  1.00  0.00    -0.337 OA 
HETATM    9  H   UNL     1      -8.142  15.315  69.454  1.00  0.00     0.000 HD 
BRANCH   7  10
HETATM   10  C   UNL     1      -8.939  15.000  67.082  1.00  0.00    -0.217 C  
HETATM   11  H   UNL     1      -7.752  16.500  66.533  1.00  0.00     0.000 HD 
HETATM   12  O   UNL     1      -7.854  15.923  67.280  1.00  0.00    -0.152 OA 
BRANCH  10  13
HETATM   13  C   UNL     1     -10.190  15.794  66.655  1.00  0.00    -0.285 C  
HETATM   14  H   UNL     1     -10.981  17.604  66.962  1.00  0.00     0.000 HD 
HETATM   15  O   UNL     1     -10.211  17.115  67.225  1.00  0.00    -0.300 OA 
BRANCH  13  16
HETATM   16  C   UNL     1     -11.515  15.100  66.992  1.00  0.00    -0.228 C  
HETATM   17  O   UNL     1     -12.154  14.730  65.761  1.00  0.00    -0.247 OA 
HETATM   18  H   UNL     1     -12.974  14.300  65.970  1.00  0.00     0.000 HD 
ENDBRANCH  13  16
ENDBRANCH  10  13
ENDBRANCH   7  10
ENDBRANCH   4   7
ENDBRANCH   2   4
TORSDOF 5
ENDMDL
MODEL      329
REMARK 921   NORMALIZED FREE ENERGY PREDICTED BY IDOCK:   -1.59 KCAL/MOL
REMARK 922        TOTAL FREE ENERGY PREDICTED BY IDOCK:   -2.90 KCAL/MOL
REMARK 923 INTER-LIGAND FREE ENERGY PREDICTED BY IDOCK:   -2.34 KCAL/MOL
REMARK 924 INTRA-LIGAND FREE ENERGY PREDICTED BY IDOCK:   -0.56 KCAL/MOL
REMARK 927      BINDING AFFINITY PREDICTED BY RF-SCORE:    0.00 PKD
ROOT
HETATM    1  O   UNL     1      -9.449  11.028  69.546  1.00  0.00    -0.407 OA 
HETATM    2  C   UNL     1     -10.154  10.343  68.501  1.00  0.00    -0.171 C  
HETATM    3  H   UNL     1      -9.731  11.935  69.586  1.00  0.00     0.000 HD 
ENDROOT
BRANCH   2   4
HETATM    4  C   UNL     1      -9.700   8.881  68.437  1.00  0.00    -0.161 C  
HETATM    5  H   UNL     1      -9.070   7.651  67.030  1.00  0.00     0.000 HD 
HETATM    6  O   UNL     1      -9.351   8.557  67.069  1.00  0.00    -0.147 OA 
BRANCH   4   7
HETATM    7  C   UNL     1     -10.762   7.845  68.854  1.00  0.00    -0.073 C  
HETATM    8  O   UNL     1     -11.053   7.010  67.720  1.00  0.00    -0.495 OA 
HETATM    9  H   UNL     1     -11.708   6.372  67.977  1.00  0.00     0.000 HD 
BRANCH   7  10
HETATM   10  C   UNL     1     -10.458   6.966  70.085  1.00  0.00    -0.209 C  
HETATM   11  H   UNL     1     -10.268   7.204  72.052  1.00  0.00     0.000 HD 
HETATM   12  O   UNL     1     -10.455   7.744  71.294  1.00  0.00    -0.205 OA 
BRANCH  10  13
HETATM   13  C   UNL     1      -9.160   6.136  70.030  1.00  0.00    -0.147 C  
HETATM   14  H   UNL     1      -8.560   4.353  69.352  1.00  0.00     0.000 HD 
HETATM   15  O   UNL     1      -9.360   4.864  69.386  1.00  0.00    -0.108 OA 
BRANCH  13  16
HETATM   16  C   UNL     1      -8.517   5.890  71.399  1.00  0.00    -0.128 C  
HETATM   17  O   UNL     1      -7.674   7.010  71.708  1.00  0.00    -0.092 OA 
HETATM   18  H   UNL     1      -7.276   6.857  72.556  1.00  0.00     0.000 HD 
ENDBRANCH  13  16
ENDBRANCH  10  13
ENDBRANCH   7  10
ENDBRANCH   4   7
ENDBRANCH   2   4
TORSDOF 5
ENDMDL
MODEL      330
REMARK 921   NORMALIZED FREE ENERGY PREDICTED BY IDOCK:   -1.59 KCAL/MOL
REMARK 922        TOTAL FREE ENERGY PREDICTED BY IDOCK:   -2.90 KCAL/MOL
REMARK 923 INTER-LIGAND FREE ENERGY PREDICTED BY IDOCK:   -2.24 KCAL/MOL
REMARK 924 INTRA-LIGAND FREE ENERGY PREDICTED BY IDOCK:   -0.65 KCAL/MOL
REMARK 927      BINDING AFFINITY PREDICTED BY RF-SCORE:    0.00 PKD
ROOT
HETATM    1  O   UNL     1      -6.458   5.966  65.921  1.00  0.00    -0.040 OA 
HETATM    2  C   UNL     1      -6.969   5.999  67.261  1.00  0.00    -0.069 C  
HETATM    3  H   UNL     1      -5.803   5.283  65.841  1.00  0.00     0.000 HD 
ENDROOT
BRANCH   2   4
HETATM    4  C   UNL     1      -8.026   7.100  67.389  1.00  0.00    -0.112 C  
HETATM    5  H   UNL     1      -9.574   7.452  68.559  1.00  0.00     0.000 HD 
HETATM    6  O   UNL     1      -8.919   6.769  68.480  1.00  0.00    -0.123 OA 
BRANCH   4   7
HETATM    7  C   UNL     1      -8.929   7.291  66.154  1.00  0.00    -0.149 C  
HETATM    8  O   UNL     1     -10.212   6.706  66.434  1.00  0.00    -0.414 OA 
HETATM    9  H   UNL     1     -10.768   6.823  65.673  1.00  0.00     0.000 HD 
BRANCH   7  10
HETATM   10  C   UNL     1      -9.115   8.727  65.621  1.00  0.00    -0.191 C  
HETATM   11  H   UNL     1      -7.992  10.147  64.796  1.00  0.00     0.000 HD 
HETATM   12  O   UNL     1      -7.878   9.264  65.124  1.00  0.00    -0.104 OA 
BRANCH  10  13
HETATM   13  C   UNL     1      -9.736   9.745  66.599  1.00  0.00    -0.201 C  
HETATM   14  H   UNL     1     -11.254   9.827  67.897  1.00  0.00     0.000 HD 
HETATM   15  O   UNL     1     -10.872   9.200  67.295  1.00  0.00    -0.233 OA 
BRANCH  13  16
HETATM   16  C   UNL     1     -10.158  11.064  65.942  1.00  0.00    -0.249 C  
HETATM   17  O   UNL     1     -10.495  10.797  64.573  1.00  0.00    -0.357 OA 
HETATM   18  H   UNL     1     -10.756  11.614  64.166  1.00  0.00     0.000 HD 
ENDBRANCH  13  16
ENDBRANCH  10  13
ENDBRANCH   7  10
ENDBRANCH   4   7
ENDBRANCH   2   4
TORSDOF 5
ENDMDL
MODEL      331
REMARK 921   NORMALIZED FREE ENERGY PREDICTED BY IDOCK:   -1.59 KCAL/MOL
REMARK 922        TOTAL FREE ENERGY PREDICTED BY IDOCK:   -2.90 KCAL/MOL
REMARK 923 INTER-LIGAND FREE ENERGY PREDICTED BY IDOCK:   -2.52 KCAL/MOL
REMARK 924 INTRA-LIGAND FREE ENERGY PREDICTED BY IDOCK:   -0.37 KCAL/MOL
REMARK 927      BINDING AFFINITY PREDICTED BY RF-SCORE:    0.00 PKD
ROOT
HETATM    1  O   UNL     1      -8.196  11.514  69.490  1.00  0.00    -0.264 OA 
HETATM    2  C   UNL     1      -8.131  10.086  69.375  1.00  0.00    -0.149 C  
HETATM    3  H   UNL     1      -7.333  11.863  69.677  1.00  0.00     0.000 HD 
ENDROOT
BRANCH   2   4
HETATM    4  C   UNL     1      -9.523   9.522  69.074  1.00  0.00    -0.158 C  
HETATM    5  H   UNL     1     -10.590   7.977  69.678  1.00  0.00     0.000 HD 
HETATM    6  O   UNL     1      -9.727   8.326  69.865  1.00  0.00    -0.177 OA 
BRANCH   4   7
HETATM    7  C   UNL     1      -9.758   9.099  67.610  1.00  0.00    -0.159 C  
HETATM    8  O   UNL     1     -10.692   8.006  67.597  1.00  0.00    -0.420 OA 
HETATM    9  H   UNL     1     -10.836   7.746  66.695  1.00  0.00     0.000 HD 
BRANCH   7  10
HETATM   10  C   UNL     1     -10.214  10.188  66.617  1.00  0.00    -0.224 C  
HETATM   11  H   UNL     1     -11.820  11.325  66.316  1.00  0.00     0.000 HD 
HETATM   12  O   UNL     1     -11.538  10.655  66.927  1.00  0.00    -0.174 OA 
BRANCH  10  13
HETATM   13  C   UNL     1     -10.160   9.817  65.121  1.00  0.00     0.016 C  
HETATM   14  H   UNL     1      -8.901   8.918  63.855  1.00  0.00     0.000 HD 
HETATM   15  O   UNL     1      -8.934   9.146  64.776  1.00  0.00    -0.194 OA 
BRANCH  13  16
HETATM   16  C   UNL     1     -10.342  11.010  64.175  1.00  0.00    -0.369 C  
HETATM   17  O   UNL     1     -11.735  11.354  64.148  1.00  0.00    -0.248 OA 
HETATM   18  H   UNL     1     -11.848  12.092  63.562  1.00  0.00     0.000 HD 
ENDBRANCH  13  16
ENDBRANCH  10  13
ENDBRANCH   7  10
ENDBRANCH   4   7
ENDBRANCH   2   4
TORSDOF 5
ENDMDL
MODEL      332
REMARK 921   NORMALIZED FREE ENERGY PREDICTED BY IDOCK:   -1.57 KCAL/MOL
REMARK 922        TOTAL FREE ENERGY PREDICTED BY IDOCK:   -2.87 KCAL/MOL
REMARK 923 INTER-LIGAND FREE ENERGY PREDICTED BY IDOCK:   -2.48 KCAL/MOL
REMARK 924 INTRA-LIGAND FREE ENERGY PREDICTED BY IDOCK:   -0.40 KCAL/MOL
REMARK 927      BINDING AFFINITY PREDICTED BY RF-SCORE:    0.00 PKD
ROOT
HETATM    1  O   UNL     1      -9.811  10.393  70.191  1.00  0.00    -0.408 OA 
HETATM    2  C   UNL     1     -10.874   9.548  69.730  1.00  0.00    -0.243 C  
HETATM    3  H   UNL     1      -9.662  11.095  69.568  1.00  0.00     0.000 HD 
ENDROOT
BRANCH   2   4
HETATM    4  C   UNL     1     -11.114   8.417  70.735  1.00  0.00    -0.258 C  
HETATM    5  H   UNL     1     -11.271   8.270  72.696  1.00  0.00     0.000 HD 
HETATM    6  O   UNL     1     -11.122   8.971  72.073  1.00  0.00    -0.364 OA 
BRANCH   4   7
HETATM    7  C   UNL     1     -10.040   7.311  70.748  1.00  0.00    -0.190 C  
HETATM    8  O   UNL     1      -8.747   7.931  70.640  1.00  0.00    -0.131 OA 
HETATM    9  H   UNL     1      -8.086   7.249  70.648  1.00  0.00     0.000 HD 
BRANCH   7  10
HETATM   10  C   UNL     1     -10.047   6.322  71.932  1.00  0.00    -0.181 C  
HETATM   11  H   UNL     1      -8.799   5.737  73.367  1.00  0.00     0.000 HD 
HETATM   12  O   UNL     1      -8.795   6.345  72.638  1.00  0.00    -0.127 OA 
BRANCH  10  13
HETATM   13  C   UNL     1     -10.400   4.858  71.600  1.00  0.00    -0.170 C  
HETATM   14  H   UNL     1     -10.011   3.033  72.318  1.00  0.00     0.000 HD 
HETATM   15  O   UNL     1      -9.793   3.935  72.523  1.00  0.00    -0.141 OA 
BRANCH  13  16
HETATM   16  C   UNL     1     -10.027   4.434  70.175  1.00  0.00    -0.179 C  
HETATM   17  O   UNL     1      -8.920   3.524  70.253  1.00  0.00    -0.085 OA 
HETATM   18  H   UNL     1      -8.689   3.261  69.370  1.00  0.00     0.000 HD 
ENDBRANCH  13  16
ENDBRANCH  10  13
ENDBRANCH   7  10
ENDBRANCH   4   7
ENDBRANCH   2   4
TORSDOF 5
ENDMDL
MODEL      333
REMARK 921   NORMALIZED FREE ENERGY PREDICTED BY IDOCK:   -1.56 KCAL/MOL
REMARK 922        TOTAL FREE ENERGY PREDICTED BY IDOCK:   -2.86 KCAL/MOL
REMARK 923 INTER-LIGAND FREE ENERGY PREDICTED BY IDOCK:   -3.32 KCAL/MOL
REMARK 924 INTRA-LIGAND FREE ENERGY PREDICTED BY IDOCK:    0.46 KCAL/MOL
REMARK 927      BINDING AFFINITY PREDICTED BY RF-SCORE:    0.00 PKD
ROOT
HETATM    1  O   UNL     1     -11.177  12.089  70.424  1.00  0.00    -0.338 OA 
HETATM    2  C   UNL     1     -12.099  11.864  69.348  1.00  0.00    -0.216 C  
HETATM    3  H   UNL     1     -11.652  12.223  71.235  1.00  0.00     0.000 HD 
ENDROOT
BRANCH   2   4
HETATM    4  C   UNL     1     -11.331  11.647  68.040  1.00  0.00    -0.296 C  
HETATM    5  H   UNL     1     -10.661  10.092  67.029  1.00  0.00     0.000 HD 
HETATM    6  O   UNL     1     -11.137  10.226  67.840  1.00  0.00    -0.291 OA 
BRANCH   4   7
HETATM    7  C   UNL     1      -9.923  12.272  67.994  1.00  0.00    -0.202 C  
HETATM    8  O   UNL     1      -8.960  11.213  67.850  1.00  0.00    -0.136 OA 
HETATM    9  H   UNL     1      -8.092  11.598  67.822  1.00  0.00     0.000 HD 
BRANCH   7  10
HETATM   10  C   UNL     1      -9.660  13.363  66.935  1.00  0.00    -0.257 C  
HETATM   11  H   UNL     1      -9.750  15.347  66.814  1.00  0.00     0.000 HD 
HETATM   12  O   UNL     1      -9.912  14.675  67.465  1.00  0.00    -0.222 OA 
BRANCH  10  13
HETATM   13  C   UNL     1     -10.417  13.217  65.599  1.00  0.00    -0.281 C  
HETATM   14  H   UNL     1     -12.253  13.554  64.884  1.00  0.00     0.000 HD 
HETATM   15  O   UNL     1     -11.787  13.644  65.707  1.00  0.00    -0.339 OA 
BRANCH  13  16
HETATM   16  C   UNL     1     -10.395  11.798  65.021  1.00  0.00    -0.281 C  
HETATM   17  O   UNL     1      -9.500  11.783  63.899  1.00  0.00    -0.465 OA 
HETATM   18  H   UNL     1      -9.487  10.904  63.541  1.00  0.00     0.000 HD 
ENDBRANCH  13  16
ENDBRANCH  10  13
ENDBRANCH   7  10
ENDBRANCH   4   7
ENDBRANCH   2   4
TORSDOF 5
ENDMDL
MODEL      334
REMARK 921   NORMALIZED FREE ENERGY PREDICTED BY IDOCK:   -1.53 KCAL/MOL
REMARK 922        TOTAL FREE ENERGY PREDICTED BY IDOCK:   -2.82 KCAL/MOL
REMARK 923 INTER-LIGAND FREE ENERGY PREDICTED BY IDOCK:   -2.52 KCAL/MOL
REMARK 924 INTRA-LIGAND FREE ENERGY PREDICTED BY IDOCK:   -0.30 KCAL/MOL
REMARK 927      BINDING AFFINITY PREDICTED BY RF-SCORE:    0.00 PKD
ROOT
HETATM    1  O   UNL     1      -7.074  10.801  65.038  1.00  0.00    -0.357 OA 
HETATM    2  C   UNL     1      -7.228  10.518  66.435  1.00  0.00    -0.129 C  
HETATM    3  H   UNL     1      -6.213  10.525  64.745  1.00  0.00     0.000 HD 
ENDROOT
BRANCH   2   4
HETATM    4  C   UNL     1      -8.615  10.964  66.908  1.00  0.00    -0.136 C  
HETATM    5  H   UNL     1      -9.758  12.552  66.656  1.00  0.00     0.000 HD 
HETATM    6  O   UNL     1      -8.898  12.275  66.363  1.00  0.00    -0.172 OA 
BRANCH   4   7
HETATM    7  C   UNL     1      -8.775  11.103  68.435  1.00  0.00    -0.157 C  
HETATM    8  O   UNL     1      -9.301  12.411  68.719  1.00  0.00    -0.396 OA 
HETATM    9  H   UNL     1      -9.399  12.497  69.660  1.00  0.00     0.000 HD 
BRANCH   7  10
HETATM   10  C   UNL     1      -9.614  10.034  69.165  1.00  0.00    -0.210 C  
HETATM   11  H   UNL     1      -9.458   8.903  70.796  1.00  0.00     0.000 HD 
HETATM   12  O   UNL     1      -8.943   9.561  70.345  1.00  0.00    -0.237 OA 
BRANCH  10  13
HETATM   13  C   UNL     1     -10.053   8.817  68.327  1.00  0.00    -0.188 C  
HETATM   14  H   UNL     1     -11.551   8.315  67.102  1.00  0.00     0.000 HD 
HETATM   15  O   UNL     1     -11.281   9.065  67.618  1.00  0.00     0.104 OA 
BRANCH  13  16
HETATM   16  C   UNL     1     -10.213   7.525  69.137  1.00  0.00    -0.202 C  
HETATM   17  O   UNL     1     -11.390   7.647  69.949  1.00  0.00    -0.441 OA 
HETATM   18  H   UNL     1     -11.489   6.847  70.451  1.00  0.00     0.000 HD 
ENDBRANCH  13  16
ENDBRANCH  10  13
ENDBRANCH   7  10
ENDBRANCH   4   7
ENDBRANCH   2   4
TORSDOF 5
ENDMDL
MODEL      335
REMARK 921   NORMALIZED FREE ENERGY PREDICTED BY IDOCK:   -1.51 KCAL/MOL
REMARK 922        TOTAL FREE ENERGY PREDICTED BY IDOCK:   -2.80 KCAL/MOL
REMARK 923 INTER-LIGAND FREE ENERGY PREDICTED BY IDOCK:   -2.48 KCAL/MOL
REMARK 924 INTRA-LIGAND FREE ENERGY PREDICTED BY IDOCK:   -0.32 KCAL/MOL
REMARK 927      BINDING AFFINITY PREDICTED BY RF-SCORE:    0.00 PKD
ROOT
HETATM    1  O   UNL     1      -7.049   8.989  64.971  1.00  0.00    -0.085 OA 
HETATM    2  C   UNL     1      -8.391   8.958  64.466  1.00  0.00    -0.170 C  
HETATM    3  H   UNL     1      -6.523   8.332  64.532  1.00  0.00     0.000 HD 
ENDROOT
BRANCH   2   4
HETATM    4  C   UNL     1      -9.240  10.019  65.174  1.00  0.00    -0.222 C  
HETATM    5  H   UNL     1      -9.404  11.984  65.105  1.00  0.00     0.000 HD 
HETATM    6  O   UNL     1      -8.877  11.326  64.666  1.00  0.00    -0.016 OA 
BRANCH   4   7
HETATM    7  C   UNL     1      -9.052  10.098  66.702  1.00  0.00    -0.144 C  
HETATM    8  O   UNL     1      -8.741  11.458  67.052  1.00  0.00    -0.150 OA 
HETATM    9  H   UNL     1      -8.625  11.506  67.994  1.00  0.00     0.000 HD 
BRANCH   7  10
HETATM   10  C   UNL     1     -10.202   9.580  67.591  1.00  0.00    -0.220 C  
HETATM   11  H   UNL     1     -11.484   8.058  67.599  1.00  0.00     0.000 HD 
HETATM   12  O   UNL     1     -10.776   8.377  67.052  1.00  0.00    -0.289 OA 
BRANCH  10  13
HETATM   13  C   UNL     1     -11.339  10.578  67.889  1.00  0.00    -0.222 C  
HETATM   14  H   UNL     1     -12.353  12.010  66.931  1.00  0.00     0.000 HD 
HETATM   15  O   UNL     1     -11.653  11.396  66.747  1.00  0.00    -0.465 OA 
BRANCH  13  16
HETATM   16  C   UNL     1     -11.064  11.499  69.083  1.00  0.00    -0.259 C  
HETATM   17  O   UNL     1     -10.685  12.789  68.578  1.00  0.00    -0.241 OA 
HETATM   18  H   UNL     1     -10.515  13.359  69.318  1.00  0.00     0.000 HD 
ENDBRANCH  13  16
ENDBRANCH  10  13
ENDBRANCH   7  10
ENDBRANCH   4   7
ENDBRANCH   2   4
TORSDOF 5
ENDMDL
MODEL      336
REMARK 921   NORMALIZED FREE ENERGY PREDICTED BY IDOCK:   -1.51 KCAL/MOL
REMARK 922        TOTAL FREE ENERGY PREDICTED BY IDOCK:   -2.80 KCAL/MOL
REMARK 923 INTER-LIGAND FREE ENERGY PREDICTED BY IDOCK:   -2.60 KCAL/MOL
REMARK 924 INTRA-LIGAND FREE ENERGY PREDICTED BY IDOCK:   -0.20 KCAL/MOL
REMARK 927      BINDING AFFINITY PREDICTED BY RF-SCORE:    0.00 PKD
ROOT
HETATM    1  O   UNL     1      -7.257   4.799  68.083  1.00  0.00    -0.063 OA 
HETATM    2  C   UNL     1      -7.659   3.846  69.077  1.00  0.00    -0.054 C  
HETATM    3  H   UNL     1      -6.314   4.915  68.110  1.00  0.00     0.000 HD 
ENDROOT
BRANCH   2   4
HETATM    4  C   UNL     1      -9.179   3.659  69.034  1.00  0.00    -0.159 C  
HETATM    5  H   UNL     1     -10.610   3.960  67.710  1.00  0.00     0.000 HD 
HETATM    6  O   UNL     1      -9.667   4.077  67.737  1.00  0.00    -0.166 OA 
BRANCH   4   7
HETATM    7  C   UNL     1      -9.972   4.487  70.065  1.00  0.00    -0.210 C  
HETATM    8  O   UNL     1      -9.621   4.030  71.382  1.00  0.00    -0.148 OA 
HETATM    9  H   UNL     1     -10.110   4.540  72.017  1.00  0.00     0.000 HD 
BRANCH   7  10
HETATM   10  C   UNL     1      -9.846   6.023  69.995  1.00  0.00    -0.172 C  
HETATM   11  H   UNL     1      -9.002   7.480  71.056  1.00  0.00     0.000 HD 
HETATM   12  O   UNL     1      -9.080   6.534  71.099  1.00  0.00    -0.151 OA 
BRANCH  10  13
HETATM   13  C   UNL     1     -11.166   6.815  69.903  1.00  0.00    -0.326 C  
HETATM   14  H   UNL     1     -11.752   8.711  69.666  1.00  0.00     0.000 HD 
HETATM   15  O   UNL     1     -10.938   8.224  69.723  1.00  0.00    -0.224 OA 
BRANCH  13  16
HETATM   16  C   UNL     1     -12.094   6.624  71.108  1.00  0.00    -0.335 C  
HETATM   17  O   UNL     1     -13.234   7.481  70.938  1.00  0.00    -0.588 OA 
HETATM   18  H   UNL     1     -13.808   7.363  71.684  1.00  0.00     0.000 HD 
ENDBRANCH  13  16
ENDBRANCH  10  13
ENDBRANCH   7  10
ENDBRANCH   4   7
ENDBRANCH   2   4
TORSDOF 5
ENDMDL
MODEL      337
REMARK 921   NORMALIZED FREE ENERGY PREDICTED BY IDOCK:   -1.49 KCAL/MOL
REMARK 922        TOTAL FREE ENERGY PREDICTED BY IDOCK:   -2.78 KCAL/MOL
REMARK 923 INTER-LIGAND FREE ENERGY PREDICTED BY IDOCK:   -2.08 KCAL/MOL
REMARK 924 INTRA-LIGAND FREE ENERGY PREDICTED BY IDOCK:   -0.69 KCAL/MOL
REMARK 927      BINDING AFFINITY PREDICTED BY RF-SCORE:    0.00 PKD
ROOT
HETATM    1  O   UNL     1     -10.316  12.713  67.618  1.00  0.00    -0.215 OA 
HETATM    2  C   UNL     1      -9.109  12.867  66.858  1.00  0.00    -0.224 C  
HETATM    3  H   UNL     1     -11.061  13.006  67.106  1.00  0.00     0.000 HD 
ENDROOT
BRANCH   2   4
HETATM    4  C   UNL     1      -7.909  12.393  67.683  1.00  0.00    -0.163 C  
HETATM    5  H   UNL     1      -5.984  12.111  67.356  1.00  0.00     0.000 HD 
HETATM    6  O   UNL     1      -6.729  12.405  66.844  1.00  0.00    -0.064 OA 
BRANCH   4   7
HETATM    7  C   UNL     1      -8.016  10.956  68.232  1.00  0.00    -0.121 C  
HETATM    8  O   UNL     1      -8.849  10.978  69.404  1.00  0.00    -0.388 OA 
HETATM    9  H   UNL     1      -8.915  10.093  69.742  1.00  0.00     0.000 HD 
BRANCH   7  10
HETATM   10  C   UNL     1      -8.504   9.857  67.265  1.00  0.00    -0.121 C  
HETATM   11  H   UNL     1     -10.140   8.756  66.995  1.00  0.00     0.000 HD 
HETATM   12  O   UNL     1      -9.839   9.432  67.590  1.00  0.00    -0.160 OA 
BRANCH  10  13
HETATM   13  C   UNL     1      -7.607   8.609  67.138  1.00  0.00    -0.092 C  
HETATM   14  H   UNL     1      -6.180   7.920  65.919  1.00  0.00     0.000 HD 
HETATM   15  O   UNL     1      -6.732   8.688  65.997  1.00  0.00    -0.060 OA 
BRANCH  13  16
HETATM   16  C   UNL     1      -8.381   7.288  67.063  1.00  0.00    -0.118 C  
HETATM   17  O   UNL     1      -9.099   7.258  65.821  1.00  0.00    -0.356 OA 
HETATM   18  H   UNL     1      -9.579   6.439  65.775  1.00  0.00     0.000 HD 
ENDBRANCH  13  16
ENDBRANCH  10  13
ENDBRANCH   7  10
ENDBRANCH   4   7
ENDBRANCH   2   4
TORSDOF 5
ENDMDL
MODEL      338
REMARK 921   NORMALIZED FREE ENERGY PREDICTED BY IDOCK:   -1.48 KCAL/MOL
REMARK 922        TOTAL FREE ENERGY PREDICTED BY IDOCK:   -2.76 KCAL/MOL
REMARK 923 INTER-LIGAND FREE ENERGY PREDICTED BY IDOCK:   -2.50 KCAL/MOL
REMARK 924 INTRA-LIGAND FREE ENERGY PREDICTED BY IDOCK:   -0.26 KCAL/MOL
REMARK 927      BINDING AFFINITY PREDICTED BY RF-SCORE:    0.00 PKD
ROOT
HETATM    1  O   UNL     1      -8.124   5.479  71.252  1.00  0.00    -0.108 OA 
HETATM    2  C   UNL     1      -8.349   5.833  69.881  1.00  0.00    -0.119 C  
HETATM    3  H   UNL     1      -7.237   5.155  71.361  1.00  0.00     0.000 HD 
ENDROOT
BRANCH   2   4
HETATM    4  C   UNL     1      -9.779   6.355  69.705  1.00  0.00    -0.154 C  
HETATM    5  H   UNL     1     -11.594   5.666  70.052  1.00  0.00     0.000 HD 
HETATM    6  O   UNL     1     -10.708   5.342  70.161  1.00  0.00    -0.298 OA 
BRANCH   4   7
HETATM    7  C   UNL     1     -10.188   6.674  68.254  1.00  0.00    -0.171 C  
HETATM    8  O   UNL     1     -10.055   8.091  68.045  1.00  0.00    -0.179 OA 
HETATM    9  H   UNL     1     -10.307   8.287  67.150  1.00  0.00     0.000 HD 
BRANCH   7  10
HETATM   10  C   UNL     1      -9.465   5.911  67.124  1.00  0.00    -0.117 C  
HETATM   11  H   UNL     1      -8.724   6.308  65.320  1.00  0.00     0.000 HD 
HETATM   12  O   UNL     1      -9.169   6.777  66.016  1.00  0.00    -0.132 OA 
BRANCH  10  13
HETATM   13  C   UNL     1     -10.173   4.650  66.589  1.00  0.00    -0.213 C  
HETATM   14  H   UNL     1     -10.184   2.683  66.947  1.00  0.00     0.000 HD 
HETATM   15  O   UNL     1      -9.748   3.459  67.277  1.00  0.00    -0.162 OA 
BRANCH  13  16
HETATM   16  C   UNL     1      -9.996   4.427  65.082  1.00  0.00    -0.177 C  
HETATM   17  O   UNL     1     -11.167   3.761  64.586  1.00  0.00    -0.670 OA 
HETATM   18  H   UNL     1     -11.058   3.623  63.653  1.00  0.00     0.000 HD 
ENDBRANCH  13  16
ENDBRANCH  10  13
ENDBRANCH   7  10
ENDBRANCH   4   7
ENDBRANCH   2   4
TORSDOF 5
ENDMDL
MODEL      339
REMARK 921   NORMALIZED FREE ENERGY PREDICTED BY IDOCK:   -1.45 KCAL/MOL
REMARK 922        TOTAL FREE ENERGY PREDICTED BY IDOCK:   -2.72 KCAL/MOL
REMARK 923 INTER-LIGAND FREE ENERGY PREDICTED BY IDOCK:   -1.98 KCAL/MOL
REMARK 924 INTRA-LIGAND FREE ENERGY PREDICTED BY IDOCK:   -0.74 KCAL/MOL
REMARK 927      BINDING AFFINITY PREDICTED BY RF-SCORE:    0.00 PKD
ROOT
HETATM    1  O   UNL     1     -10.524   4.489  66.171  1.00  0.00    -0.372 OA 
HETATM    2  C   UNL     1     -10.846   5.733  66.808  1.00  0.00    -0.248 C  
HETATM    3  H   UNL     1     -11.322   4.021  65.952  1.00  0.00     0.000 HD 
ENDROOT
BRANCH   2   4
HETATM    4  C   UNL     1      -9.560   6.487  67.160  1.00  0.00    -0.136 C  
HETATM    5  H   UNL     1      -9.018   7.812  68.518  1.00  0.00     0.000 HD 
HETATM    6  O   UNL     1      -9.816   7.344  68.299  1.00  0.00    -0.153 OA 
BRANCH   4   7
HETATM    7  C   UNL     1      -9.019   7.414  66.054  1.00  0.00    -0.121 C  
HETATM    8  O   UNL     1      -9.917   8.528  65.913  1.00  0.00    -0.470 OA 
HETATM    9  H   UNL     1      -9.583   9.099  65.231  1.00  0.00     0.000 HD 
BRANCH   7  10
HETATM   10  C   UNL     1      -7.570   7.927  66.198  1.00  0.00    -0.083 C  
HETATM   11  H   UNL     1      -5.916   7.407  67.175  1.00  0.00     0.000 HD 
HETATM   12  O   UNL     1      -6.808   7.092  67.086  1.00  0.00    -0.070 OA 
BRANCH  10  13
HETATM   13  C   UNL     1      -7.405   9.396  66.638  1.00  0.00    -0.090 C  
HETATM   14  H   UNL     1      -6.548  11.067  65.953  1.00  0.00     0.000 HD 
HETATM   15  O   UNL     1      -6.650  10.163  65.682  1.00  0.00    -0.096 OA 
BRANCH  13  16
HETATM   16  C   UNL     1      -6.756   9.565  68.016  1.00  0.00    -0.063 C  
HETATM   17  O   UNL     1      -7.695   9.133  69.012  1.00  0.00    -0.076 OA 
HETATM   18  H   UNL     1      -7.293   9.239  69.865  1.00  0.00     0.000 HD 
ENDBRANCH  13  16
ENDBRANCH  10  13
ENDBRANCH   7  10
ENDBRANCH   4   7
ENDBRANCH   2   4
TORSDOF 5
ENDMDL
MODEL      340
REMARK 921   NORMALIZED FREE ENERGY PREDICTED BY IDOCK:   -1.41 KCAL/MOL
REMARK 922        TOTAL FREE ENERGY PREDICTED BY IDOCK:   -2.67 KCAL/MOL
REMARK 923 INTER-LIGAND FREE ENERGY PREDICTED BY IDOCK:   -2.36 KCAL/MOL
REMARK 924 INTRA-LIGAND FREE ENERGY PREDICTED BY IDOCK:   -0.31 KCAL/MOL
REMARK 927      BINDING AFFINITY PREDICTED BY RF-SCORE:    0.00 PKD
ROOT
HETATM    1  O   UNL     1     -10.235  11.241  67.455  1.00  0.00    -0.183 OA 
HETATM    2  C   UNL     1      -9.889  10.303  66.427  1.00  0.00    -0.217 C  
HETATM    3  H   UNL     1     -10.864  10.851  68.051  1.00  0.00     0.000 HD 
ENDROOT
BRANCH   2   4
HETATM    4  C   UNL     1      -8.873  10.932  65.468  1.00  0.00    -0.188 C  
HETATM    5  H   UNL     1      -8.521  10.862  63.528  1.00  0.00     0.000 HD 
HETATM    6  O   UNL     1      -9.151  10.472  64.123  1.00  0.00    -0.199 OA 
BRANCH   4   7
HETATM    7  C   UNL     1      -7.400  10.565  65.739  1.00  0.00    -0.137 C  
HETATM    8  O   UNL     1      -6.689  10.587  64.489  1.00  0.00    -0.323 OA 
HETATM    9  H   UNL     1      -5.782  10.361  64.656  1.00  0.00     0.000 HD 
BRANCH   7  10
HETATM   10  C   UNL     1      -6.638  11.401  66.788  1.00  0.00    -0.136 C  
HETATM   11  H   UNL     1      -4.894  12.350  66.928  1.00  0.00     0.000 HD 
HETATM   12  O   UNL     1      -5.364  11.836  66.282  1.00  0.00    -0.317 OA 
BRANCH  10  13
HETATM   13  C   UNL     1      -6.423  10.742  68.165  1.00  0.00    -0.058 C  
HETATM   14  H   UNL     1      -6.551   8.921  68.980  1.00  0.00     0.000 HD 
HETATM   15  O   UNL     1      -6.683   9.326  68.131  1.00  0.00    -0.059 OA 
BRANCH  13  16
HETATM   16  C   UNL     1      -7.259  11.361  69.291  1.00  0.00    -0.075 C  
HETATM   17  O   UNL     1      -6.505  11.275  70.509  1.00  0.00    -0.467 OA 
HETATM   18  H   UNL     1      -7.023  11.659  71.207  1.00  0.00     0.000 HD 
ENDBRANCH  13  16
ENDBRANCH  10  13
ENDBRANCH   7  10
ENDBRANCH   4   7
ENDBRANCH   2   4
TORSDOF 5
ENDMDL
MODEL      341
REMARK 921   NORMALIZED FREE ENERGY PREDICTED BY IDOCK:   -1.40 KCAL/MOL
REMARK 922        TOTAL FREE ENERGY PREDICTED BY IDOCK:   -2.65 KCAL/MOL
REMARK 923 INTER-LIGAND FREE ENERGY PREDICTED BY IDOCK:   -2.12 KCAL/MOL
REMARK 924 INTRA-LIGAND FREE ENERGY PREDICTED BY IDOCK:   -0.54 KCAL/MOL
REMARK 927      BINDING AFFINITY PREDICTED BY RF-SCORE:    0.00 PKD
ROOT
HETATM    1  O   UNL     1     -10.205   8.673  69.893  1.00  0.00    -0.193 OA 
HETATM    2  C   UNL     1     -10.520   7.390  69.335  1.00  0.00    -0.217 C  
HETATM    3  H   UNL     1      -9.546   9.104  69.362  1.00  0.00     0.000 HD 
ENDROOT
BRANCH   2   4
HETATM    4  C   UNL     1     -11.584   6.695  70.192  1.00  0.00    -0.386 C  
HETATM    5  H   UNL     1     -13.430   7.094  70.760  1.00  0.00     0.000 HD 
HETATM    6  O   UNL     1     -12.771   7.524  70.229  1.00  0.00     0.364 OA 
BRANCH   4   7
HETATM    7  C   UNL     1     -11.191   6.462  71.664  1.00  0.00    -0.278 C  
HETATM    8  O   UNL     1     -12.355   6.014  72.380  1.00  0.00    -0.516 OA 
HETATM    9  H   UNL     1     -12.114   5.870  73.287  1.00  0.00     0.000 HD 
BRANCH   7  10
HETATM   10  C   UNL     1     -10.008   5.513  71.946  1.00  0.00    -0.180 C  
HETATM   11  H   UNL     1      -9.649   3.899  73.054  1.00  0.00     0.000 HD 
HETATM   12  O   UNL     1     -10.376   4.484  72.880  1.00  0.00    -0.169 OA 
BRANCH  10  13
HETATM   13  C   UNL     1      -8.701   6.173  72.430  1.00  0.00    -0.125 C  
HETATM   14  H   UNL     1      -7.276   5.833  73.790  1.00  0.00     0.000 HD 
HETATM   15  O   UNL     1      -8.081   5.426  73.493  1.00  0.00    -0.112 OA 
BRANCH  13  16
HETATM   16  C   UNL     1      -8.868   7.625  72.892  1.00  0.00    -0.160 C  
HETATM   17  O   UNL     1      -8.273   8.481  71.906  1.00  0.00    -0.144 OA 
HETATM   18  H   UNL     1      -8.377   9.381  72.192  1.00  0.00     0.000 HD 
ENDBRANCH  13  16
ENDBRANCH  10  13
ENDBRANCH   7  10
ENDBRANCH   4   7
ENDBRANCH   2   4
TORSDOF 5
ENDMDL
MODEL      342
REMARK 921   NORMALIZED FREE ENERGY PREDICTED BY IDOCK:   -1.39 KCAL/MOL
REMARK 922        TOTAL FREE ENERGY PREDICTED BY IDOCK:   -2.64 KCAL/MOL
REMARK 923 INTER-LIGAND FREE ENERGY PREDICTED BY IDOCK:   -2.20 KCAL/MOL
REMARK 924 INTRA-LIGAND FREE ENERGY PREDICTED BY IDOCK:   -0.44 KCAL/MOL
REMARK 927      BINDING AFFINITY PREDICTED BY RF-SCORE:    0.00 PKD
ROOT
HETATM    1  O   UNL     1     -12.112  10.900  67.327  1.00  0.00    -0.059 OA 
HETATM    2  C   UNL     1     -11.252  10.128  68.177  1.00  0.00    -0.180 C  
HETATM    3  H   UNL     1     -12.673  10.323  66.823  1.00  0.00     0.000 HD 
ENDROOT
BRANCH   2   4
HETATM    4  C   UNL     1     -10.348  11.059  68.989  1.00  0.00    -0.209 C  
HETATM    5  H   UNL     1     -10.502  12.074  70.674  1.00  0.00     0.000 HD 
HETATM    6  O   UNL     1     -11.063  11.496  70.170  1.00  0.00    -0.055 OA 
BRANCH   4   7
HETATM    7  C   UNL     1      -9.913  12.349  68.265  1.00  0.00    -0.224 C  
HETATM    8  O   UNL     1     -10.009  13.445  69.190  1.00  0.00    -0.416 OA 
HETATM    9  H   UNL     1      -9.741  14.239  68.743  1.00  0.00     0.000 HD 
BRANCH   7  10
HETATM   10  C   UNL     1      -8.525  12.356  67.591  1.00  0.00    -0.169 C  
HETATM   11  H   UNL     1      -7.114  11.035  67.115  1.00  0.00     0.000 HD 
HETATM   12  O   UNL     1      -7.968  11.031  67.530  1.00  0.00    -0.112 OA 
BRANCH  10  13
HETATM   13  C   UNL     1      -7.473  13.305  68.199  1.00  0.00    -0.128 C  
HETATM   14  H   UNL     1      -6.336  14.841  67.612  1.00  0.00     0.000 HD 
HETATM   15  O   UNL     1      -6.984  14.256  67.236  1.00  0.00    -0.199 OA 
BRANCH  13  16
HETATM   16  C   UNL     1      -6.271  12.587  68.823  1.00  0.00    -0.074 C  
HETATM   17  O   UNL     1      -6.622  12.200  70.160  1.00  0.00    -0.375 OA 
HETATM   18  H   UNL     1      -5.877  11.756  70.547  1.00  0.00     0.000 HD 
ENDBRANCH  13  16
ENDBRANCH  10  13
ENDBRANCH   7  10
ENDBRANCH   4   7
ENDBRANCH   2   4
TORSDOF 5
ENDMDL
MODEL      343
REMARK 921   NORMALIZED FREE ENERGY PREDICTED BY IDOCK:   -1.34 KCAL/MOL
REMARK 922        TOTAL FREE ENERGY PREDICTED BY IDOCK:   -2.57 KCAL/MOL
REMARK 923 INTER-LIGAND FREE ENERGY PREDICTED BY IDOCK:   -2.18 KCAL/MOL
REMARK 924 INTRA-LIGAND FREE ENERGY PREDICTED BY IDOCK:   -0.39 KCAL/MOL
REMARK 927      BINDING AFFINITY PREDICTED BY RF-SCORE:    0.00 PKD
ROOT
HETATM    1  O   UNL     1      -9.593  11.233  69.214  1.00  0.00    -0.410 OA 
HETATM    2  C   UNL     1      -9.316   9.859  68.911  1.00  0.00    -0.170 C  
HETATM    3  H   UNL     1      -9.838  11.696  68.422  1.00  0.00     0.000 HD 
ENDROOT
BRANCH   2   4
HETATM    4  C   UNL     1      -8.921   9.112  70.189  1.00  0.00    -0.198 C  
HETATM    5  H   UNL     1      -7.517   9.293  71.562  1.00  0.00     0.000 HD 
HETATM    6  O   UNL     1      -7.762   9.756  70.769  1.00  0.00    -0.308 OA 
BRANCH   4   7
HETATM    7  C   UNL     1      -8.523   7.636  69.990  1.00  0.00    -0.136 C  
HETATM    8  O   UNL     1      -8.621   6.964  71.258  1.00  0.00    -0.123 OA 
HETATM    9  H   UNL     1      -8.376   6.055  71.135  1.00  0.00     0.000 HD 
BRANCH   7  10
HETATM   10  C   UNL     1      -9.281   6.831  68.913  1.00  0.00    -0.131 C  
HETATM   11  H   UNL     1     -10.622   5.362  68.847  1.00  0.00     0.000 HD 
HETATM   12  O   UNL     1     -10.155   5.857  69.509  1.00  0.00    -0.174 OA 
BRANCH  10  13
HETATM   13  C   UNL     1      -8.415   6.129  67.847  1.00  0.00    -0.116 C  
HETATM   14  H   UNL     1      -7.008   6.619  66.514  1.00  0.00     0.000 HD 
HETATM   15  O   UNL     1      -7.541   7.051  67.171  1.00  0.00    -0.102 OA 
BRANCH  13  16
HETATM   16  C   UNL     1      -9.222   5.364  66.793  1.00  0.00    -0.128 C  
HETATM   17  O   UNL     1      -9.567   4.081  67.335  1.00  0.00    -0.185 OA 
HETATM   18  H   UNL     1     -10.067   3.606  66.681  1.00  0.00     0.000 HD 
ENDBRANCH  13  16
ENDBRANCH  10  13
ENDBRANCH   7  10
ENDBRANCH   4   7
ENDBRANCH   2   4
TORSDOF 5
ENDMDL
MODEL      344
REMARK 921   NORMALIZED FREE ENERGY PREDICTED BY IDOCK:   -1.31 KCAL/MOL
REMARK 922        TOTAL FREE ENERGY PREDICTED BY IDOCK:   -2.54 KCAL/MOL
REMARK 923 INTER-LIGAND FREE ENERGY PREDICTED BY IDOCK:   -2.48 KCAL/MOL
REMARK 924 INTRA-LIGAND FREE ENERGY PREDICTED BY IDOCK:   -0.06 KCAL/MOL
REMARK 927      BINDING AFFINITY PREDICTED BY RF-SCORE:    0.00 PKD
ROOT
HETATM    1  O   UNL     1     -10.173   3.901  66.042  1.00  0.00    -0.423 OA 
HETATM    2  C   UNL     1     -10.193   4.867  67.101  1.00  0.00    -0.162 C  
HETATM    3  H   UNL     1     -11.052   3.577  65.882  1.00  0.00     0.000 HD 
ENDROOT
BRANCH   2   4
HETATM    4  C   UNL     1      -8.775   5.389  67.359  1.00  0.00    -0.107 C  
HETATM    5  H   UNL     1      -7.836   6.270  68.853  1.00  0.00     0.000 HD 
HETATM    6  O   UNL     1      -8.716   5.947  68.693  1.00  0.00    -0.110 OA 
BRANCH   4   7
HETATM    7  C   UNL     1      -8.308   6.514  66.414  1.00  0.00    -0.120 C  
HETATM    8  O   UNL     1      -8.991   6.366  65.157  1.00  0.00    -0.367 OA 
HETATM    9  H   UNL     1      -8.703   7.059  64.576  1.00  0.00     0.000 HD 
BRANCH   7  10
HETATM   10  C   UNL     1      -8.445   7.968  66.914  1.00  0.00    -0.124 C  
HETATM   11  H   UNL     1      -7.932   9.026  68.519  1.00  0.00     0.000 HD 
HETATM   12  O   UNL     1      -7.848   8.131  68.211  1.00  0.00    -0.117 OA 
BRANCH  10  13
HETATM   13  C   UNL     1      -9.873   8.548  66.950  1.00  0.00    -0.242 C  
HETATM   14  H   UNL     1     -11.037   9.713  65.817  1.00  0.00     0.000 HD 
HETATM   15  O   UNL     1     -10.157   9.356  65.793  1.00  0.00    -0.288 OA 
BRANCH  13  16
HETATM   16  C   UNL     1     -10.179   9.374  68.205  1.00  0.00    -0.200 C  
HETATM   17  O   UNL     1     -10.466   8.468  69.281  1.00  0.00    -0.220 OA 
HETATM   18  H   UNL     1     -10.656   8.980  70.058  1.00  0.00     0.000 HD 
ENDBRANCH  13  16
ENDBRANCH  10  13
ENDBRANCH   7  10
ENDBRANCH   4   7
ENDBRANCH   2   4
TORSDOF 5
ENDMDL
MODEL      345
REMARK 921   NORMALIZED FREE ENERGY PREDICTED BY IDOCK:   -1.29 KCAL/MOL
REMARK 922        TOTAL FREE ENERGY PREDICTED BY IDOCK:   -2.51 KCAL/MOL
REMARK 923 INTER-LIGAND FREE ENERGY PREDICTED BY IDOCK:   -2.84 KCAL/MOL
REMARK 924 INTRA-LIGAND FREE ENERGY PREDICTED BY IDOCK:    0.33 KCAL/MOL
REMARK 927      BINDING AFFINITY PREDICTED BY RF-SCORE:    0.00 PKD
ROOT
HETATM    1  O   UNL     1      -8.043   5.491  68.031  1.00  0.00    -0.096 OA 
HETATM    2  C   UNL     1      -8.801   5.979  69.146  1.00  0.00    -0.119 C  
HETATM    3  H   UNL     1      -7.114   5.595  68.201  1.00  0.00     0.000 HD 
ENDROOT
BRANCH   2   4
HETATM    4  C   UNL     1     -10.299   5.810  68.872  1.00  0.00    -0.227 C  
HETATM    5  H   UNL     1     -11.591   6.522  67.562  1.00  0.00     0.000 HD 
HETATM    6  O   UNL     1     -10.662   6.627  67.732  1.00  0.00    -0.221 OA 
BRANCH   4   7
HETATM    7  C   UNL     1     -11.230   6.255  70.017  1.00  0.00    -0.412 C  
HETATM    8  O   UNL     1     -10.872   5.526  71.204  1.00  0.00    -0.239 OA 
HETATM    9  H   UNL     1     -11.446   5.800  71.909  1.00  0.00     0.000 HD 
BRANCH   7  10
HETATM   10  C   UNL     1     -11.303   7.764  70.333  1.00  0.00    -0.207 C  
HETATM   11  H   UNL     1     -10.154   9.372  70.104  1.00  0.00     0.000 HD 
HETATM   12  O   UNL     1     -10.110   8.443  69.910  1.00  0.00    -0.188 OA 
BRANCH  10  13
HETATM   13  C   UNL     1     -11.593   8.143  71.800  1.00  0.00    -0.291 C  
HETATM   14  H   UNL     1     -12.638   9.520  72.803  1.00  0.00     0.000 HD 
HETATM   15  O   UNL     1     -12.460   9.287  71.900  1.00  0.00    -0.342 OA 
BRANCH  13  16
HETATM   16  C   UNL     1     -10.336   8.414  72.634  1.00  0.00    -0.244 C  
HETATM   17  O   UNL     1     -10.064   7.249  73.428  1.00  0.00    -0.251 OA 
HETATM   18  H   UNL     1      -9.285   7.417  73.945  1.00  0.00     0.000 HD 
ENDBRANCH  13  16
ENDBRANCH  10  13
ENDBRANCH   7  10
ENDBRANCH   4   7
ENDBRANCH   2   4
TORSDOF 5
ENDMDL
MODEL      346
REMARK 921   NORMALIZED FREE ENERGY PREDICTED BY IDOCK:   -1.25 KCAL/MOL
REMARK 922        TOTAL FREE ENERGY PREDICTED BY IDOCK:   -2.46 KCAL/MOL
REMARK 923 INTER-LIGAND FREE ENERGY PREDICTED BY IDOCK:   -2.26 KCAL/MOL
REMARK 924 INTRA-LIGAND FREE ENERGY PREDICTED BY IDOCK:   -0.20 KCAL/MOL
REMARK 927      BINDING AFFINITY PREDICTED BY RF-SCORE:    0.00 PKD
ROOT
HETATM    1  O   UNL     1     -10.002  10.097  70.331  1.00  0.00    -0.397 OA 
HETATM    2  C   UNL     1     -10.859   9.155  69.670  1.00  0.00    -0.197 C  
HETATM    3  H   UNL     1      -9.715  10.760  69.715  1.00  0.00     0.000 HD 
ENDROOT
BRANCH   2   4
HETATM    4  C   UNL     1     -11.323   8.085  70.664  1.00  0.00    -0.252 C  
HETATM    5  H   UNL     1     -12.101   8.073  72.476  1.00  0.00     0.000 HD 
HETATM    6  O   UNL     1     -11.813   8.737  71.860  1.00  0.00    -0.319 OA 
BRANCH   4   7
HETATM    7  C   UNL     1     -10.226   7.111  71.139  1.00  0.00    -0.191 C  
HETATM    8  O   UNL     1     -10.672   6.481  72.352  1.00  0.00    -0.210 OA 
HETATM    9  H   UNL     1      -9.996   5.881  72.645  1.00  0.00     0.000 HD 
BRANCH   7  10
HETATM   10  C   UNL     1      -9.743   6.038  70.141  1.00  0.00    -0.167 C  
HETATM   11  H   UNL     1      -9.892   4.066  69.915  1.00  0.00     0.000 HD 
HETATM   12  O   UNL     1     -10.189   4.727  70.529  1.00  0.00    -0.233 OA 
BRANCH  10  13
HETATM   13  C   UNL     1      -8.226   5.984  69.874  1.00  0.00    -0.118 C  
HETATM   14  H   UNL     1      -6.838   4.611  69.442  1.00  0.00     0.000 HD 
HETATM   15  O   UNL     1      -7.773   4.644  69.607  1.00  0.00    -0.057 OA 
BRANCH  13  16
HETATM   16  C   UNL     1      -7.372   6.566  71.006  1.00  0.00    -0.083 C  
HETATM   17  O   UNL     1      -6.644   7.690  70.488  1.00  0.00    -0.038 OA 
HETATM   18  H   UNL     1      -6.115   8.050  71.189  1.00  0.00     0.000 HD 
ENDBRANCH  13  16
ENDBRANCH  10  13
ENDBRANCH   7  10
ENDBRANCH   4   7
ENDBRANCH   2   4
TORSDOF 5
ENDMDL
MODEL      347
REMARK 921   NORMALIZED FREE ENERGY PREDICTED BY IDOCK:   -1.08 KCAL/MOL
REMARK 922        TOTAL FREE ENERGY PREDICTED BY IDOCK:   -2.24 KCAL/MOL
REMARK 923 INTER-LIGAND FREE ENERGY PREDICTED BY IDOCK:   -1.52 KCAL/MOL
REMARK 924 INTRA-LIGAND FREE ENERGY PREDICTED BY IDOCK:   -0.72 KCAL/MOL
REMARK 927      BINDING AFFINITY PREDICTED BY RF-SCORE:    0.00 PKD
ROOT
HETATM    1  O   UNL     1      -6.175   5.426  65.020  1.00  0.00    -0.031 OA 
HETATM    2  C   UNL     1      -6.428   6.781  64.623  1.00  0.00    -0.042 C  
HETATM    3  H   UNL     1      -5.575   5.016  64.409  1.00  0.00     0.000 HD 
ENDROOT
BRANCH   2   4
HETATM    4  C   UNL     1      -7.396   7.442  65.609  1.00  0.00    -0.074 C  
HETATM    5  H   UNL     1      -7.828   9.288  66.153  1.00  0.00     0.000 HD 
HETATM    6  O   UNL     1      -7.228   8.878  65.541  1.00  0.00    -0.083 OA 
BRANCH   4   7
HETATM    7  C   UNL     1      -7.184   7.066  67.089  1.00  0.00    -0.089 C  
HETATM    8  O   UNL     1      -7.082   8.278  67.856  1.00  0.00    -0.079 OA 
HETATM    9  H   UNL     1      -6.951   8.047  68.768  1.00  0.00     0.000 HD 
BRANCH   7  10
HETATM   10  C   UNL     1      -8.215   6.121  67.741  1.00  0.00    -0.117 C  
HETATM   11  H   UNL     1      -8.525   4.161  67.892  1.00  0.00     0.000 HD 
HETATM   12  O   UNL     1      -7.891   4.743  67.491  1.00  0.00    -0.092 OA 
BRANCH  10  13
HETATM   13  C   UNL     1      -9.692   6.356  67.366  1.00  0.00    -0.121 C  
HETATM   14  H   UNL     1     -11.371   6.984  68.251  1.00  0.00     0.000 HD 
HETATM   15  O   UNL     1     -10.462   6.839  68.483  1.00  0.00    -0.178 OA 
BRANCH  13  16
HETATM   16  C   UNL     1     -10.395   5.121  66.792  1.00  0.00    -0.261 C  
HETATM   17  O   UNL     1      -9.989   4.969  65.423  1.00  0.00    -0.355 OA 
HETATM   18  H   UNL     1     -10.425   4.203  65.068  1.00  0.00     0.000 HD 
ENDBRANCH  13  16
ENDBRANCH  10  13
ENDBRANCH   7  10
ENDBRANCH   4   7
ENDBRANCH   2   4
TORSDOF 5
ENDMDL
MODEL      348
REMARK 921   NORMALIZED FREE ENERGY PREDICTED BY IDOCK:   -0.95 KCAL/MOL
REMARK 922        TOTAL FREE ENERGY PREDICTED BY IDOCK:   -2.07 KCAL/MOL
REMARK 923 INTER-LIGAND FREE ENERGY PREDICTED BY IDOCK:   -1.70 KCAL/MOL
REMARK 924 INTRA-LIGAND FREE ENERGY PREDICTED BY IDOCK:   -0.37 KCAL/MOL
REMARK 927      BINDING AFFINITY PREDICTED BY RF-SCORE:    0.00 PKD
ROOT
HETATM    1  O   UNL     1      -5.611   4.547  64.701  1.00  0.00    -0.013 OA 
HETATM    2  C   UNL     1      -6.125   5.535  63.797  1.00  0.00    -0.022 C  
HETATM    3  H   UNL     1      -4.765   4.238  64.396  1.00  0.00     0.000 HD 
ENDROOT
BRANCH   2   4
HETATM    4  C   UNL     1      -7.487   6.033  64.289  1.00  0.00    -0.076 C  
HETATM    5  H   UNL     1      -8.733   7.480  63.794  1.00  0.00     0.000 HD 
HETATM    6  O   UNL     1      -7.888   7.171  63.488  1.00  0.00    -0.118 OA 
BRANCH   4   7
HETATM    7  C   UNL     1      -7.520   6.520  65.752  1.00  0.00    -0.082 C  
HETATM    8  O   UNL     1      -6.277   7.183  66.038  1.00  0.00    -0.038 OA 
HETATM    9  H   UNL     1      -6.297   7.482  66.939  1.00  0.00     0.000 HD 
BRANCH   7  10
HETATM   10  C   UNL     1      -8.700   7.417  66.180  1.00  0.00    -0.156 C  
HETATM   11  H   UNL     1      -9.166   9.351  66.145  1.00  0.00     0.000 HD 
HETATM   12  O   UNL     1      -8.439   8.799  65.882  1.00  0.00    -0.127 OA 
BRANCH  10  13
HETATM   13  C   UNL     1      -9.147   7.305  67.651  1.00  0.00    -0.124 C  
HETATM   14  H   UNL     1      -8.301   7.157  69.457  1.00  0.00     0.000 HD 
HETATM   15  O   UNL     1      -8.025   7.225  68.550  1.00  0.00    -0.120 OA 
BRANCH  13  16
HETATM   16  C   UNL     1     -10.078   6.120  67.933  1.00  0.00    -0.153 C  
HETATM   17  O   UNL     1     -11.317   6.350  67.246  1.00  0.00    -0.673 OA 
HETATM   18  H   UNL     1     -11.894   5.616  67.421  1.00  0.00     0.000 HD 
ENDBRANCH  13  16
ENDBRANCH  10  13
ENDBRANCH   7  10
ENDBRANCH   4   7
ENDBRANCH   2   4
TORSDOF 5
ENDMDL
MODEL      349
REMARK 921   NORMALIZED FREE ENERGY PREDICTED BY IDOCK:   -0.81 KCAL/MOL
REMARK 922        TOTAL FREE ENERGY PREDICTED BY IDOCK:   -1.89 KCAL/MOL
REMARK 923 INTER-LIGAND FREE ENERGY PREDICTED BY IDOCK:   -1.27 KCAL/MOL
REMARK 924 INTRA-LIGAND FREE ENERGY PREDICTED BY IDOCK:   -0.63 KCAL/MOL
REMARK 927      BINDING AFFINITY PREDICTED BY RF-SCORE:    0.00 PKD
ROOT
HETATM    1  O   UNL     1      -5.731   4.542  64.664  1.00  0.00    -0.013 OA 
HETATM    2  C   UNL     1      -6.237   5.257  63.527  1.00  0.00    -0.022 C  
HETATM    3  H   UNL     1      -4.792   4.426  64.581  1.00  0.00     0.000 HD 
ENDROOT
BRANCH   2   4
HETATM    4  C   UNL     1      -7.752   5.445  63.662  1.00  0.00    -0.083 C  
HETATM    5  H   UNL     1      -9.161   6.380  62.648  1.00  0.00     0.000 HD 
HETATM    6  O   UNL     1      -8.222   6.264  62.564  1.00  0.00    -0.109 OA 
BRANCH   4   7
HETATM    7  C   UNL     1      -8.213   6.163  64.946  1.00  0.00    -0.125 C  
HETATM    8  O   UNL     1      -8.013   5.275  66.060  1.00  0.00    -0.102 OA 
HETATM    9  H   UNL     1      -8.297   5.718  66.851  1.00  0.00     0.000 HD 
BRANCH   7  10
HETATM   10  C   UNL     1      -7.589   7.540  65.257  1.00  0.00    -0.097 C  
HETATM   11  H   UNL     1      -5.930   8.247  66.097  1.00  0.00     0.000 HD 
HETATM   12  O   UNL     1      -6.314   7.400  65.905  1.00  0.00    -0.040 OA 
BRANCH  10  13
HETATM   13  C   UNL     1      -8.457   8.514  66.080  1.00  0.00    -0.140 C  
HETATM   14  H   UNL     1      -9.754   8.433  67.599  1.00  0.00     0.000 HD 
HETATM   15  O   UNL     1      -9.220   7.832  67.092  1.00  0.00    -0.138 OA 
BRANCH  13  16
HETATM   16  C   UNL     1      -9.417   9.359  65.236  1.00  0.00    -0.227 C  
HETATM   17  O   UNL     1      -8.640  10.293  64.470  1.00  0.00    -0.171 OA 
HETATM   18  H   UNL     1      -9.236  10.816  63.948  1.00  0.00     0.000 HD 
ENDBRANCH  13  16
ENDBRANCH  10  13
ENDBRANCH   7  10
ENDBRANCH   4   7
ENDBRANCH   2   4
TORSDOF 5
ENDMDL
MODEL      350
REMARK 921   NORMALIZED FREE ENERGY PREDICTED BY IDOCK:   -0.79 KCAL/MOL
REMARK 922        TOTAL FREE ENERGY PREDICTED BY IDOCK:   -1.86 KCAL/MOL
REMARK 923 INTER-LIGAND FREE ENERGY PREDICTED BY IDOCK:   -1.19 KCAL/MOL
REMARK 924 INTRA-LIGAND FREE ENERGY PREDICTED BY IDOCK:   -0.67 KCAL/MOL
REMARK 927      BINDING AFFINITY PREDICTED BY RF-SCORE:    0.00 PKD
ROOT
HETATM    1  O   UNL     1      -5.992   5.407  64.975  1.00  0.00    -0.021 OA 
HETATM    2  C   UNL     1      -6.249   6.767  64.599  1.00  0.00    -0.036 C  
HETATM    3  H   UNL     1      -5.611   4.936  64.243  1.00  0.00     0.000 HD 
ENDROOT
BRANCH   2   4
HETATM    4  C   UNL     1      -6.862   7.527  65.779  1.00  0.00    -0.056 C  
HETATM    5  H   UNL     1      -6.657   9.321  66.573  1.00  0.00     0.000 HD 
HETATM    6  O   UNL     1      -6.276   8.850  65.841  1.00  0.00    -0.054 OA 
BRANCH   4   7
HETATM    7  C   UNL     1      -6.617   6.897  67.164  1.00  0.00    -0.051 C  
HETATM    8  O   UNL     1      -5.603   7.662  67.839  1.00  0.00    -0.029 OA 
HETATM    9  H   UNL     1      -5.452   7.273  68.692  1.00  0.00     0.000 HD 
BRANCH   7  10
HETATM   10  C   UNL     1      -7.837   6.715  68.092  1.00  0.00    -0.110 C  
HETATM   11  H   UNL     1      -9.556   5.714  68.082  1.00  0.00     0.000 HD 
HETATM   12  O   UNL     1      -8.805   5.826  67.511  1.00  0.00    -0.109 OA 
BRANCH  10  13
HETATM   13  C   UNL     1      -8.555   8.004  68.539  1.00  0.00    -0.128 C  
HETATM   14  H   UNL     1      -8.077   9.782  69.318  1.00  0.00     0.000 HD 
HETATM   15  O   UNL     1      -7.634   8.988  69.043  1.00  0.00    -0.076 OA 
BRANCH  13  16
HETATM   16  C   UNL     1      -9.646   7.778  69.592  1.00  0.00    -0.163 C  
HETATM   17  O   UNL     1     -10.843   7.362  68.917  1.00  0.00    -0.358 OA 
HETATM   18  H   UNL     1     -11.519   7.222  69.569  1.00  0.00     0.000 HD 
ENDBRANCH  13  16
ENDBRANCH  10  13
ENDBRANCH   7  10
ENDBRANCH   4   7
ENDBRANCH   2   4
TORSDOF 5
ENDMDL
MODEL      351
REMARK 921   NORMALIZED FREE ENERGY PREDICTED BY IDOCK:   -0.78 KCAL/MOL
REMARK 922        TOTAL FREE ENERGY PREDICTED BY IDOCK:   -1.85 KCAL/MOL
REMARK 923 INTER-LIGAND FREE ENERGY PREDICTED BY IDOCK:   -1.41 KCAL/MOL
REMARK 924 INTRA-LIGAND FREE ENERGY PREDICTED BY IDOCK:   -0.44 KCAL/MOL
REMARK 927      BINDING AFFINITY PREDICTED BY RF-SCORE:    0.00 PKD
ROOT
HETATM    1  O   UNL     1      -6.446   3.648  64.849  1.00  0.00    -0.030 OA 
HETATM    2  C   UNL     1      -7.042   3.808  63.554  1.00  0.00    -0.049 C  
HETATM    3  H   UNL     1      -5.501   3.591  64.766  1.00  0.00     0.000 HD 
ENDROOT
BRANCH   2   4
HETATM    4  C   UNL     1      -8.565   3.899  63.689  1.00  0.00    -0.096 C  
HETATM    5  H   UNL     1      -9.978   5.114  63.041  1.00  0.00     0.000 HD 
HETATM    6  O   UNL     1      -9.033   5.058  62.957  1.00  0.00    -0.102 OA 
BRANCH   4   7
HETATM    7  C   UNL     1      -9.088   4.076  65.129  1.00  0.00    -0.139 C  
HETATM    8  O   UNL     1      -8.597   2.986  65.928  1.00  0.00    -0.106 OA 
HETATM    9  H   UNL     1      -8.919   3.096  66.815  1.00  0.00     0.000 HD 
BRANCH   7  10
HETATM   10  C   UNL     1      -8.792   5.416  65.836  1.00  0.00    -0.148 C  
HETATM   11  H   UNL     1      -7.411   6.159  67.060  1.00  0.00     0.000 HD 
HETATM   12  O   UNL     1      -7.594   5.335  66.625  1.00  0.00    -0.086 OA 
BRANCH  10  13
HETATM   13  C   UNL     1      -9.923   5.991  66.712  1.00  0.00    -0.174 C  
HETATM   14  H   UNL     1     -10.838   7.745  67.000  1.00  0.00     0.000 HD 
HETATM   15  O   UNL     1     -10.141   7.391  66.459  1.00  0.00    -0.198 OA 
BRANCH  13  16
HETATM   16  C   UNL     1      -9.705   5.799  68.217  1.00  0.00    -0.129 C  
HETATM   17  O   UNL     1      -9.741   4.392  68.501  1.00  0.00    -0.154 OA 
HETATM   18  H   UNL     1      -9.606   4.274  69.433  1.00  0.00     0.000 HD 
ENDBRANCH  13  16
ENDBRANCH  10  13
ENDBRANCH   7  10
ENDBRANCH   4   7
ENDBRANCH   2   4
TORSDOF 5
ENDMDL
MODEL      352
REMARK 921   NORMALIZED FREE ENERGY PREDICTED BY IDOCK:   -0.74 KCAL/MOL
REMARK 922        TOTAL FREE ENERGY PREDICTED BY IDOCK:   -1.81 KCAL/MOL
REMARK 923 INTER-LIGAND FREE ENERGY PREDICTED BY IDOCK:   -1.56 KCAL/MOL
REMARK 924 INTRA-LIGAND FREE ENERGY PREDICTED BY IDOCK:   -0.25 KCAL/MOL
REMARK 927      BINDING AFFINITY PREDICTED BY RF-SCORE:    0.00 PKD
ROOT
HETATM    1  O   UNL     1      -6.512   5.587  65.283  1.00  0.00    -0.037 OA 
HETATM    2  C   UNL     1      -6.947   6.930  65.031  1.00  0.00    -0.051 C  
HETATM    3  H   UNL     1      -5.871   5.327  64.631  1.00  0.00     0.000 HD 
ENDROOT
BRANCH   2   4
HETATM    4  C   UNL     1      -7.980   7.349  66.082  1.00  0.00    -0.112 C  
HETATM    5  H   UNL     1      -9.728   6.677  66.701  1.00  0.00     0.000 HD 
HETATM    6  O   UNL     1      -9.087   6.417  66.049  1.00  0.00    -0.154 OA 
BRANCH   4   7
HETATM    7  C   UNL     1      -8.601   8.744  65.872  1.00  0.00    -0.154 C  
HETATM    8  O   UNL     1     -10.031   8.601  65.815  1.00  0.00    -0.456 OA 
HETATM    9  H   UNL     1     -10.414   9.460  65.686  1.00  0.00     0.000 HD 
BRANCH   7  10
HETATM   10  C   UNL     1      -8.228   9.852  66.880  1.00  0.00    -0.120 C  
HETATM   11  H   UNL     1      -9.097  11.437  67.712  1.00  0.00     0.000 HD 
HETATM   12  O   UNL     1      -9.326  10.755  67.092  1.00  0.00    -0.154 OA 
BRANCH  10  13
HETATM   13  C   UNL     1      -6.966  10.676  66.554  1.00  0.00    -0.125 C  
HETATM   14  H   UNL     1      -5.786  11.034  64.981  1.00  0.00     0.000 HD 
HETATM   15  O   UNL     1      -6.563  10.525  65.181  1.00  0.00    -0.112 OA 
BRANCH  13  16
HETATM   16  C   UNL     1      -5.764  10.358  67.450  1.00  0.00    -0.045 C  
HETATM   17  O   UNL     1      -6.136  10.618  68.812  1.00  0.00    -0.041 OA 
HETATM   18  H   UNL     1      -5.391  10.421  69.367  1.00  0.00     0.000 HD 
ENDBRANCH  13  16
ENDBRANCH  10  13
ENDBRANCH   7  10
ENDBRANCH   4   7
ENDBRANCH   2   4
TORSDOF 5
ENDMDL
MODEL      353
REMARK 921   NORMALIZED FREE ENERGY PREDICTED BY IDOCK:   -0.62 KCAL/MOL
REMARK 922        TOTAL FREE ENERGY PREDICTED BY IDOCK:   -1.65 KCAL/MOL
REMARK 923 INTER-LIGAND FREE ENERGY PREDICTED BY IDOCK:   -1.69 KCAL/MOL
REMARK 924 INTRA-LIGAND FREE ENERGY PREDICTED BY IDOCK:    0.04 KCAL/MOL
REMARK 927      BINDING AFFINITY PREDICTED BY RF-SCORE:    0.00 PKD
ROOT
HETATM    1  O   UNL     1      -6.353   6.342  65.837  1.00  0.00    -0.036 OA 
HETATM    2  C   UNL     1      -7.216   7.293  66.477  1.00  0.00    -0.079 C  
HETATM    3  H   UNL     1      -6.164   6.622  64.949  1.00  0.00     0.000 HD 
ENDROOT
BRANCH   2   4
HETATM    4  C   UNL     1      -7.520   6.841  67.908  1.00  0.00    -0.098 C  
HETATM    5  H   UNL     1      -9.029   5.969  68.832  1.00  0.00     0.000 HD 
HETATM    6  O   UNL     1      -8.841   6.249  67.944  1.00  0.00    -0.114 OA 
BRANCH   4   7
HETATM    7  C   UNL     1      -7.539   7.967  68.962  1.00  0.00    -0.098 C  
HETATM    8  O   UNL     1      -6.485   8.895  68.655  1.00  0.00    -0.052 OA 
HETATM    9  H   UNL     1      -6.497   9.589  69.304  1.00  0.00     0.000 HD 
BRANCH   7  10
HETATM   10  C   UNL     1      -8.864   8.731  69.166  1.00  0.00    -0.137 C  
HETATM   11  H   UNL     1     -10.752   8.305  69.628  1.00  0.00     0.000 HD 
HETATM   12  O   UNL     1      -9.936   7.835  69.503  1.00  0.00    -0.180 OA 
BRANCH  10  13
HETATM   13  C   UNL     1      -9.322   9.632  68.001  1.00  0.00    -0.132 C  
HETATM   14  H   UNL     1      -9.585  11.580  67.640  1.00  0.00     0.000 HD 
HETATM   15  O   UNL     1      -9.304  11.026  68.358  1.00  0.00    -0.164 OA 
BRANCH  13  16
HETATM   16  C   UNL     1     -10.713   9.290  67.456  1.00  0.00    -0.203 C  
HETATM   17  O   UNL     1     -10.585   8.169  66.568  1.00  0.00    -0.398 OA 
HETATM   18  H   UNL     1     -11.447   7.958  66.230  1.00  0.00     0.000 HD 
ENDBRANCH  13  16
ENDBRANCH  10  13
ENDBRANCH   7  10
ENDBRANCH   4   7
ENDBRANCH   2   4
TORSDOF 5
ENDMDL
