MODEL        1
REMARK 921   NORMALIZED FREE ENERGY PREDICTED BY IDOCK:   -5.68 KCAL/MOL
REMARK 922        TOTAL FREE ENERGY PREDICTED BY IDOCK:   -8.32 KCAL/MOL
REMARK 923 INTER-LIGAND FREE ENERGY PREDICTED BY IDOCK:   -7.67 KCAL/MOL
REMARK 924 INTRA-LIGAND FREE ENERGY PREDICTED BY IDOCK:   -0.65 KCAL/MOL
REMARK 927      BINDING AFFINITY PREDICTED BY RF-SCORE:    0.00 PKD
ROOT
HETATM    1  C   UNL     1     -10.484  11.434  65.282  1.00  0.00    -0.340 C  
HETATM    2  C   UNL     1     -10.763  12.371  64.107  1.00  0.00    -0.379 C  
HETATM    3  C   UNL     1     -12.274  12.552  63.943  1.00  0.00    -0.590 C  
ENDROOT
BRANCH   2   4
HETATM    4  N   UNL     1     -10.074  13.648  64.348  1.00  0.00    -0.748 NA 
HETATM    5  H   UNL     1      -9.563  13.953  63.519  1.00  0.00     0.000 HD 
BRANCH   4   6
HETATM    6  C   UNL     1     -10.991  14.695  64.822  1.00  0.00    -0.386 C  
BRANCH   6   7
HETATM    7  C   UNL     1     -10.378  15.637  65.889  1.00  0.00    -0.350 C  
HETATM    8  H   UNL     1     -10.403  17.559  66.236  1.00  0.00     0.000 HD 
HETATM    9  O   UNL     1     -10.778  16.982  65.583  1.00  0.00    -0.379 OA 
BRANCH   7  10
HETATM   10  C   UNL     1     -10.791  15.303  67.320  1.00  0.00    -0.318 A  
HETATM   11  C   UNL     1     -10.399  16.075  68.426  1.00  0.00    -0.251 A  
HETATM   12  C   UNL     1     -10.779  15.727  69.723  1.00  0.00    -0.317 A  
HETATM   13  C   UNL     1     -11.548  14.591  69.938  1.00  0.00    -0.287 A  
HETATM   14  C   UNL     1     -11.601  14.178  67.557  1.00  0.00    -0.396 A  
HETATM   15  C   UNL     1     -11.981  13.826  68.858  1.00  0.00    -0.394 A  
BRANCH  13  16
HETATM   16  N   UNL     1     -11.903  14.246  71.274  1.00  0.00    -0.473 N  
HETATM   17  H   UNL     1     -11.313  13.629  71.832  1.00  0.00     0.000 HD 
BRANCH  16  18
HETATM   18  S   UNL     1     -13.331  14.893  71.904  1.00  0.00    -0.404 S  
HETATM   19  O   UNL     1     -14.068  15.573  70.866  1.00  0.00    -0.460 OA 
HETATM   20  O   UNL     1     -13.929  13.818  72.669  1.00  0.00    -0.710 OA 
HETATM   21  C   UNL     1     -12.705  16.091  73.065  1.00  0.00    -0.493 C  
ENDBRANCH  16  18
ENDBRANCH  13  16
ENDBRANCH   7  10
ENDBRANCH   6   7
ENDBRANCH   4   6
ENDBRANCH   2   4
TORSDOF 6
ENDMDL
MODEL        2
REMARK 921   NORMALIZED FREE ENERGY PREDICTED BY IDOCK:   -5.48 KCAL/MOL
REMARK 922        TOTAL FREE ENERGY PREDICTED BY IDOCK:   -8.04 KCAL/MOL
REMARK 923 INTER-LIGAND FREE ENERGY PREDICTED BY IDOCK:   -7.70 KCAL/MOL
REMARK 924 INTRA-LIGAND FREE ENERGY PREDICTED BY IDOCK:   -0.34 KCAL/MOL
REMARK 927      BINDING AFFINITY PREDICTED BY RF-SCORE:    0.00 PKD
ROOT
HETATM    1  C   UNL     1     -13.903  13.512  72.269  1.00  0.00    -0.680 C  
HETATM    2  C   UNL     1     -14.095  15.012  72.054  1.00  0.00    -0.535 C  
HETATM    3  C   UNL     1     -13.278  15.788  73.090  1.00  0.00    -0.694 C  
ENDROOT
BRANCH   2   4
HETATM    4  N   UNL     1     -13.703  15.347  70.676  1.00  0.00    -0.841 NA 
HETATM    5  H   UNL     1     -13.541  16.349  70.571  1.00  0.00     0.000 HD 
BRANCH   4   6
HETATM    6  C   UNL     1     -12.539  14.571  70.224  1.00  0.00    -0.323 C  
BRANCH   6   7
HETATM    7  C   UNL     1     -11.488  15.403  69.445  1.00  0.00    -0.324 C  
HETATM    8  H   UNL     1      -9.643  15.965  69.751  1.00  0.00     0.000 HD 
HETATM    9  O   UNL     1     -10.287  15.456  70.228  1.00  0.00    -0.289 OA 
BRANCH   7  10
HETATM   10  C   UNL     1     -11.162  14.846  68.061  1.00  0.00    -0.318 A  
HETATM   11  C   UNL     1     -12.150  14.396  67.168  1.00  0.00    -0.367 A  
HETATM   12  C   UNL     1     -11.813  13.874  65.919  1.00  0.00    -0.399 A  
HETATM   13  C   UNL     1     -10.479  13.781  65.544  1.00  0.00    -0.318 A  
HETATM   14  C   UNL     1      -9.821  14.778  67.646  1.00  0.00    -0.218 A  
HETATM   15  C   UNL     1      -9.480  14.252  66.393  1.00  0.00    -0.297 A  
BRANCH  13  16
HETATM   16  N   UNL     1     -10.162  13.224  64.272  1.00  0.00    -0.640 N  
HETATM   17  H   UNL     1      -9.642  13.760  63.577  1.00  0.00     0.000 HD 
BRANCH  16  18
HETATM   18  S   UNL     1     -10.676  11.647  63.952  1.00  0.00    -0.435 S  
HETATM   19  O   UNL     1     -10.614  10.850  65.153  1.00  0.00    -0.269 OA 
HETATM   20  O   UNL     1     -11.913  11.794  63.212  1.00  0.00    -0.422 OA 
HETATM   21  C   UNL     1      -9.432  11.086  62.806  1.00  0.00    -0.334 C  
ENDBRANCH  16  18
ENDBRANCH  13  16
ENDBRANCH   7  10
ENDBRANCH   6   7
ENDBRANCH   4   6
ENDBRANCH   2   4
TORSDOF 6
ENDMDL
MODEL        3
REMARK 921   NORMALIZED FREE ENERGY PREDICTED BY IDOCK:   -5.47 KCAL/MOL
REMARK 922        TOTAL FREE ENERGY PREDICTED BY IDOCK:   -8.03 KCAL/MOL
REMARK 923 INTER-LIGAND FREE ENERGY PREDICTED BY IDOCK:   -7.59 KCAL/MOL
REMARK 924 INTRA-LIGAND FREE ENERGY PREDICTED BY IDOCK:   -0.43 KCAL/MOL
REMARK 927      BINDING AFFINITY PREDICTED BY RF-SCORE:    0.00 PKD
ROOT
HETATM    1  C   UNL     1      -8.731  11.066  62.573  1.00  0.00    -0.332 C  
HETATM    2  C   UNL     1      -9.947  10.476  63.284  1.00  0.00    -0.169 C  
HETATM    3  C   UNL     1      -9.581  10.135  64.731  1.00  0.00    -0.378 C  
ENDROOT
BRANCH   2   4
HETATM    4  N   UNL     1     -11.055  11.440  63.205  1.00  0.00    -0.843 NA 
HETATM    5  H   UNL     1     -11.937  11.012  63.486  1.00  0.00     0.000 HD 
BRANCH   4   6
HETATM    6  C   UNL     1     -10.787  12.662  63.978  1.00  0.00    -0.415 C  
BRANCH   6   7
HETATM    7  C   UNL     1     -12.042  13.270  64.654  1.00  0.00    -0.408 C  
HETATM    8  H   UNL     1     -13.900  12.723  64.903  1.00  0.00     0.000 HD 
HETATM    9  O   UNL     1     -13.131  12.351  64.489  1.00  0.00    -0.823 OA 
BRANCH   7  10
HETATM   10  C   UNL     1     -11.859  13.572  66.140  1.00  0.00    -0.426 A  
HETATM   11  C   UNL     1     -11.667  14.873  66.635  1.00  0.00    -0.225 A  
HETATM   12  C   UNL     1     -11.481  15.109  67.998  1.00  0.00    -0.355 A  
HETATM   13  C   UNL     1     -11.474  14.045  68.890  1.00  0.00    -0.294 A  
HETATM   14  C   UNL     1     -11.885  12.514  67.065  1.00  0.00    -0.394 A  
HETATM   15  C   UNL     1     -11.697  12.748  68.433  1.00  0.00    -0.380 A  
BRANCH  13  16
HETATM   16  N   UNL     1     -11.261  14.312  70.272  1.00  0.00    -0.477 N  
HETATM   17  H   UNL     1     -10.321  14.308  70.671  1.00  0.00     0.000 HD 
BRANCH  16  18
HETATM   18  S   UNL     1     -12.613  14.636  71.231  1.00  0.00    -0.360 S  
HETATM   19  O   UNL     1     -13.450  15.625  70.594  1.00  0.00    -0.476 OA 
HETATM   20  O   UNL     1     -13.136  13.337  71.601  1.00  0.00    -0.376 OA 
HETATM   21  C   UNL     1     -11.866  15.345  72.685  1.00  0.00    -0.463 C  
ENDBRANCH  16  18
ENDBRANCH  13  16
ENDBRANCH   7  10
ENDBRANCH   6   7
ENDBRANCH   4   6
ENDBRANCH   2   4
TORSDOF 6
ENDMDL
MODEL        4
REMARK 921   NORMALIZED FREE ENERGY PREDICTED BY IDOCK:   -5.38 KCAL/MOL
REMARK 922        TOTAL FREE ENERGY PREDICTED BY IDOCK:   -7.91 KCAL/MOL
REMARK 923 INTER-LIGAND FREE ENERGY PREDICTED BY IDOCK:   -7.59 KCAL/MOL
REMARK 924 INTRA-LIGAND FREE ENERGY PREDICTED BY IDOCK:   -0.32 KCAL/MOL
REMARK 927      BINDING AFFINITY PREDICTED BY RF-SCORE:    0.00 PKD
ROOT
HETATM    1  C   UNL     1     -10.006  10.041  65.615  1.00  0.00    -0.355 C  
HETATM    2  C   UNL     1      -9.324  10.883  64.537  1.00  0.00    -0.223 C  
HETATM    3  C   UNL     1      -9.313  10.113  63.215  1.00  0.00    -0.332 C  
ENDROOT
BRANCH   2   4
HETATM    4  N   UNL     1     -10.032  12.168  64.424  1.00  0.00    -0.442 NA 
HETATM    5  H   UNL     1     -10.195  12.414  63.448  1.00  0.00     0.000 HD 
BRANCH   4   6
HETATM    6  C   UNL     1     -11.285  12.184  65.192  1.00  0.00    -0.329 C  
BRANCH   6   7
HETATM    7  C   UNL     1     -11.704  13.590  65.691  1.00  0.00    -0.339 C  
HETATM    8  H   UNL     1     -13.262  14.746  65.465  1.00  0.00     0.000 HD 
HETATM    9  O   UNL     1     -13.005  13.885  65.160  1.00  0.00    -0.744 OA 
BRANCH   7  10
HETATM   10  C   UNL     1     -11.740  13.723  67.211  1.00  0.00    -0.416 A  
HETATM   11  C   UNL     1     -11.848  12.616  68.070  1.00  0.00    -0.376 A  
HETATM   12  C   UNL     1     -11.899  12.777  69.455  1.00  0.00    -0.379 A  
HETATM   13  C   UNL     1     -11.854  14.051  70.007  1.00  0.00    -0.320 A  
HETATM   14  C   UNL     1     -11.658  15.000  67.792  1.00  0.00    -0.336 A  
HETATM   15  C   UNL     1     -11.711  15.164  69.182  1.00  0.00    -0.349 A  
BRANCH  13  16
HETATM   16  N   UNL     1     -11.930  14.187  71.422  1.00  0.00    -0.424 N  
HETATM   17  H   UNL     1     -11.111  14.032  72.011  1.00  0.00     0.000 HD 
BRANCH  16  18
HETATM   18  S   UNL     1     -13.420  14.613  72.095  1.00  0.00    -0.441 S  
HETATM   19  O   UNL     1     -14.149  15.467  71.189  1.00  0.00    -0.537 OA 
HETATM   20  O   UNL     1     -13.988  13.371  72.577  1.00  0.00    -0.707 OA 
HETATM   21  C   UNL     1     -12.917  15.558  73.520  1.00  0.00    -0.542 C  
ENDBRANCH  16  18
ENDBRANCH  13  16
ENDBRANCH   7  10
ENDBRANCH   6   7
ENDBRANCH   4   6
ENDBRANCH   2   4
TORSDOF 6
ENDMDL
MODEL        5
REMARK 921   NORMALIZED FREE ENERGY PREDICTED BY IDOCK:   -5.21 KCAL/MOL
REMARK 922        TOTAL FREE ENERGY PREDICTED BY IDOCK:   -7.68 KCAL/MOL
REMARK 923 INTER-LIGAND FREE ENERGY PREDICTED BY IDOCK:   -7.31 KCAL/MOL
REMARK 924 INTRA-LIGAND FREE ENERGY PREDICTED BY IDOCK:   -0.38 KCAL/MOL
REMARK 927      BINDING AFFINITY PREDICTED BY RF-SCORE:    0.00 PKD
ROOT
HETATM    1  C   UNL     1     -10.475  10.847  64.226  1.00  0.00    -0.405 C  
HETATM    2  C   UNL     1     -10.777  12.177  63.537  1.00  0.00    -0.457 C  
HETATM    3  C   UNL     1     -12.291  12.383  63.460  1.00  0.00    -0.648 C  
ENDROOT
BRANCH   2   4
HETATM    4  N   UNL     1     -10.107  13.256  64.280  1.00  0.00    -0.699 NA 
HETATM    5  H   UNL     1     -10.631  14.129  64.214  1.00  0.00     0.000 HD 
BRANCH   4   6
HETATM    6  C   UNL     1      -9.853  12.894  65.682  1.00  0.00    -0.175 C  
BRANCH   6   7
HETATM    7  C   UNL     1      -9.461  14.091  66.584  1.00  0.00    -0.287 C  
HETATM    8  H   UNL     1      -8.973  15.960  66.292  1.00  0.00     0.000 HD 
HETATM    9  O   UNL     1      -9.214  15.226  65.740  1.00  0.00    -0.289 OA 
BRANCH   7  10
HETATM   10  C   UNL     1     -10.519  14.457  67.622  1.00  0.00    -0.245 A  
HETATM   11  C   UNL     1     -10.746  15.777  68.045  1.00  0.00    -0.296 A  
HETATM   12  C   UNL     1     -11.708  16.071  69.012  1.00  0.00    -0.322 A  
HETATM   13  C   UNL     1     -12.453  15.047  69.584  1.00  0.00    -0.133 A  
HETATM   14  C   UNL     1     -11.309  13.440  68.186  1.00  0.00    -0.321 A  
HETATM   15  C   UNL     1     -12.273  13.733  69.158  1.00  0.00    -0.289 A  
BRANCH  13  16
HETATM   16  N   UNL     1     -13.412  15.373  70.584  1.00  0.00    -0.792 N  
HETATM   17  H   UNL     1     -14.310  15.790  70.337  1.00  0.00     0.000 HD 
BRANCH  16  18
HETATM   18  S   UNL     1     -13.015  15.048  72.194  1.00  0.00    -0.374 S  
HETATM   19  O   UNL     1     -11.582  15.051  72.363  1.00  0.00    -0.374 OA 
HETATM   20  O   UNL     1     -13.865  15.921  72.978  1.00  0.00    -0.592 OA 
HETATM   21  C   UNL     1     -13.629  13.387  72.391  1.00  0.00    -0.606 C  
ENDBRANCH  16  18
ENDBRANCH  13  16
ENDBRANCH   7  10
ENDBRANCH   6   7
ENDBRANCH   4   6
ENDBRANCH   2   4
TORSDOF 6
ENDMDL
MODEL        6
REMARK 921   NORMALIZED FREE ENERGY PREDICTED BY IDOCK:   -5.20 KCAL/MOL
REMARK 922        TOTAL FREE ENERGY PREDICTED BY IDOCK:   -7.66 KCAL/MOL
REMARK 923 INTER-LIGAND FREE ENERGY PREDICTED BY IDOCK:   -7.01 KCAL/MOL
REMARK 924 INTRA-LIGAND FREE ENERGY PREDICTED BY IDOCK:   -0.66 KCAL/MOL
REMARK 927      BINDING AFFINITY PREDICTED BY RF-SCORE:    0.00 PKD
ROOT
HETATM    1  C   UNL     1     -14.256  14.853  72.047  1.00  0.00    -0.638 C  
HETATM    2  C   UNL     1     -13.041  15.586  71.482  1.00  0.00    -0.496 C  
HETATM    3  C   UNL     1     -11.780  15.139  72.225  1.00  0.00    -0.496 C  
ENDROOT
BRANCH   2   4
HETATM    4  N   UNL     1     -12.957  15.318  70.038  1.00  0.00    -0.646 NA 
HETATM    5  H   UNL     1     -13.027  16.181  69.498  1.00  0.00     0.000 HD 
BRANCH   4   6
HETATM    6  C   UNL     1     -11.747  14.565  69.680  1.00  0.00    -0.307 C  
BRANCH   6   7
HETATM    7  C   UNL     1     -12.020  13.281  68.856  1.00  0.00    -0.297 C  
HETATM    8  H   UNL     1     -11.327  12.507  67.202  1.00  0.00     0.000 HD 
HETATM    9  O   UNL     1     -11.159  13.293  67.707  1.00  0.00    -0.250 OA 
BRANCH   7  10
HETATM   10  C   UNL     1     -11.799  11.987  69.636  1.00  0.00    -0.401 A  
HETATM   11  C   UNL     1     -10.830  11.035  69.275  1.00  0.00    -0.285 A  
HETATM   12  C   UNL     1     -10.671   9.853  69.999  1.00  0.00    -0.338 A  
HETATM   13  C   UNL     1     -11.488   9.596  71.093  1.00  0.00    -0.384 A  
HETATM   14  C   UNL     1     -12.590  11.723  70.768  1.00  0.00    -0.344 A  
HETATM   15  C   UNL     1     -12.433  10.536  71.495  1.00  0.00    -0.493 A  
BRANCH  13  16
HETATM   16  N   UNL     1     -11.319   8.372  71.800  1.00  0.00    -0.280 N  
HETATM   17  H   UNL     1     -10.638   8.290  72.556  1.00  0.00     0.000 HD 
BRANCH  16  18
HETATM   18  S   UNL     1     -12.281   7.059  71.348  1.00  0.00    -0.380 S  
HETATM   19  O   UNL     1     -13.673   7.357  71.586  1.00  0.00    -0.377 OA 
HETATM   20  O   UNL     1     -11.810   6.678  70.032  1.00  0.00    -0.372 OA 
HETATM   21  C   UNL     1     -11.743   5.803  72.492  1.00  0.00    -0.225 C  
ENDBRANCH  16  18
ENDBRANCH  13  16
ENDBRANCH   7  10
ENDBRANCH   6   7
ENDBRANCH   4   6
ENDBRANCH   2   4
TORSDOF 6
ENDMDL
MODEL        7
REMARK 921   NORMALIZED FREE ENERGY PREDICTED BY IDOCK:   -5.16 KCAL/MOL
REMARK 922        TOTAL FREE ENERGY PREDICTED BY IDOCK:   -7.62 KCAL/MOL
REMARK 923 INTER-LIGAND FREE ENERGY PREDICTED BY IDOCK:   -7.07 KCAL/MOL
REMARK 924 INTRA-LIGAND FREE ENERGY PREDICTED BY IDOCK:   -0.55 KCAL/MOL
REMARK 927      BINDING AFFINITY PREDICTED BY RF-SCORE:    0.00 PKD
ROOT
HETATM    1  C   UNL     1      -7.644  18.638  68.304  1.00  0.00    -0.307 C  
HETATM    2  C   UNL     1      -7.287  18.534  66.822  1.00  0.00    -0.215 C  
HETATM    3  C   UNL     1      -6.428  17.289  66.587  1.00  0.00    -0.263 C  
ENDROOT
BRANCH   2   4
HETATM    4  N   UNL     1      -8.532  18.504  66.037  1.00  0.00    -0.501 NA 
HETATM    5  H   UNL     1      -8.469  17.831  65.273  1.00  0.00     0.000 HD 
BRANCH   4   6
HETATM    6  C   UNL     1      -9.713  18.249  66.874  1.00  0.00    -0.315 C  
BRANCH   6   7
HETATM    7  C   UNL     1     -10.466  16.941  66.525  1.00  0.00    -0.253 C  
HETATM    8  H   UNL     1     -10.077  15.343  65.472  1.00  0.00     0.000 HD 
HETATM    9  O   UNL     1      -9.616  16.144  65.686  1.00  0.00    -0.424 OA 
BRANCH   7  10
HETATM   10  C   UNL     1     -10.881  16.121  67.744  1.00  0.00    -0.318 A  
HETATM   11  C   UNL     1     -11.446  14.838  67.643  1.00  0.00    -0.363 A  
HETATM   12  C   UNL     1     -11.833  14.127  68.779  1.00  0.00    -0.384 A  
HETATM   13  C   UNL     1     -11.673  14.691  70.039  1.00  0.00    -0.294 A  
HETATM   14  C   UNL     1     -10.694  16.658  69.030  1.00  0.00    -0.343 A  
HETATM   15  C   UNL     1     -11.084  15.946  70.172  1.00  0.00    -0.369 A  
BRANCH  13  16
HETATM   16  N   UNL     1     -12.097  13.952  71.179  1.00  0.00    -0.454 N  
HETATM   17  H   UNL     1     -11.621  13.094  71.457  1.00  0.00     0.000 HD 
BRANCH  16  18
HETATM   18  S   UNL     1     -13.414  14.542  72.057  1.00  0.00    -0.428 S  
HETATM   19  O   UNL     1     -14.158  15.490  71.262  1.00  0.00    -0.548 OA 
HETATM   20  O   UNL     1     -14.053  13.369  72.618  1.00  0.00    -0.767 OA 
HETATM   21  C   UNL     1     -12.605  15.400  73.393  1.00  0.00    -0.523 C  
ENDBRANCH  16  18
ENDBRANCH  13  16
ENDBRANCH   7  10
ENDBRANCH   6   7
ENDBRANCH   4   6
ENDBRANCH   2   4
TORSDOF 6
ENDMDL
MODEL        8
REMARK 921   NORMALIZED FREE ENERGY PREDICTED BY IDOCK:   -5.16 KCAL/MOL
REMARK 922        TOTAL FREE ENERGY PREDICTED BY IDOCK:   -7.62 KCAL/MOL
REMARK 923 INTER-LIGAND FREE ENERGY PREDICTED BY IDOCK:   -7.29 KCAL/MOL
REMARK 924 INTRA-LIGAND FREE ENERGY PREDICTED BY IDOCK:   -0.33 KCAL/MOL
REMARK 927      BINDING AFFINITY PREDICTED BY RF-SCORE:    0.00 PKD
ROOT
HETATM    1  C   UNL     1     -12.654  11.893  63.560  1.00  0.00    -0.579 C  
HETATM    2  C   UNL     1     -12.475  12.577  64.914  1.00  0.00    -0.450 C  
HETATM    3  C   UNL     1     -11.091  12.249  65.477  1.00  0.00    -0.348 C  
ENDROOT
BRANCH   2   4
HETATM    4  N   UNL     1     -12.676  14.024  64.743  1.00  0.00    -0.683 NA 
HETATM    5  H   UNL     1     -13.663  14.271  64.818  1.00  0.00     0.000 HD 
BRANCH   4   6
HETATM    6  C   UNL     1     -11.858  14.814  65.674  1.00  0.00    -0.212 C  
BRANCH   6   7
HETATM    7  C   UNL     1     -10.880  15.797  64.981  1.00  0.00    -0.443 C  
HETATM    8  H   UNL     1     -11.013  17.134  63.563  1.00  0.00     0.000 HD 
HETATM    9  O   UNL     1     -11.611  16.531  63.988  1.00  0.00    -1.154 OA 
BRANCH   7  10
HETATM   10  C   UNL     1     -10.207  16.778  65.939  1.00  0.00    -0.345 A  
HETATM   11  C   UNL     1     -10.381  18.170  65.849  1.00  0.00    -0.284 A  
HETATM   12  C   UNL     1      -9.733  19.038  66.728  1.00  0.00    -0.375 A  
HETATM   13  C   UNL     1      -8.889  18.530  67.707  1.00  0.00    -0.275 A  
HETATM   14  C   UNL     1      -9.379  16.283  66.960  1.00  0.00    -0.235 A  
HETATM   15  C   UNL     1      -8.725  17.153  67.843  1.00  0.00    -0.222 A  
BRANCH  13  16
HETATM   16  N   UNL     1      -8.223  19.439  68.577  1.00  0.00    -0.351 N  
HETATM   17  H   UNL     1      -8.637  19.716  69.468  1.00  0.00     0.000 HD 
BRANCH  16  18
HETATM   18  S   UNL     1      -6.725  20.047  68.087  1.00  0.00    -0.301 S  
HETATM   19  O   UNL     1      -5.974  19.024  67.399  1.00  0.00    -0.180 OA 
HETATM   20  O   UNL     1      -7.018  21.317  67.454  1.00  0.00    -0.509 OA 
HETATM   21  C   UNL     1      -5.946  20.398  69.651  1.00  0.00    -0.349 C  
ENDBRANCH  16  18
ENDBRANCH  13  16
ENDBRANCH   7  10
ENDBRANCH   6   7
ENDBRANCH   4   6
ENDBRANCH   2   4
TORSDOF 6
ENDMDL
MODEL        9
REMARK 921   NORMALIZED FREE ENERGY PREDICTED BY IDOCK:   -5.14 KCAL/MOL
REMARK 922        TOTAL FREE ENERGY PREDICTED BY IDOCK:   -7.59 KCAL/MOL
REMARK 923 INTER-LIGAND FREE ENERGY PREDICTED BY IDOCK:   -7.07 KCAL/MOL
REMARK 924 INTRA-LIGAND FREE ENERGY PREDICTED BY IDOCK:   -0.52 KCAL/MOL
REMARK 927      BINDING AFFINITY PREDICTED BY RF-SCORE:    0.00 PKD
ROOT
HETATM    1  C   UNL     1     -13.950  13.632  72.297  1.00  0.00    -0.661 C  
HETATM    2  C   UNL     1     -14.149  15.142  72.176  1.00  0.00    -0.554 C  
HETATM    3  C   UNL     1     -13.270  15.860  73.203  1.00  0.00    -0.692 C  
ENDROOT
BRANCH   2   4
HETATM    4  N   UNL     1     -13.837  15.551  70.798  1.00  0.00    -0.865 NA 
HETATM    5  H   UNL     1     -14.142  16.508  70.619  1.00  0.00     0.000 HD 
BRANCH   4   6
HETATM    6  C   UNL     1     -12.414  15.378  70.473  1.00  0.00    -0.422 C  
BRANCH   6   7
HETATM    7  C   UNL     1     -12.135  15.119  68.971  1.00  0.00    -0.209 C  
HETATM    8  H   UNL     1     -10.845  15.771  67.656  1.00  0.00     0.000 HD 
HETATM    9  O   UNL     1     -11.017  15.929  68.576  1.00  0.00    -0.288 OA 
BRANCH   7  10
HETATM   10  C   UNL     1     -11.839  13.658  68.639  1.00  0.00    -0.409 A  
HETATM   11  C   UNL     1     -11.617  13.204  67.328  1.00  0.00    -0.404 A  
HETATM   12  C   UNL     1     -11.370  11.857  67.060  1.00  0.00    -0.392 A  
HETATM   13  C   UNL     1     -11.353  10.936  68.100  1.00  0.00    -0.315 A  
HETATM   14  C   UNL     1     -11.780  12.715  69.680  1.00  0.00    -0.373 A  
HETATM   15  C   UNL     1     -11.535  11.362  69.413  1.00  0.00    -0.378 A  
BRANCH  13  16
HETATM   16  N   UNL     1     -11.121   9.565  67.796  1.00  0.00    -0.494 N  
HETATM   17  H   UNL     1     -11.810   9.015  67.281  1.00  0.00     0.000 HD 
BRANCH  16  18
HETATM   18  S   UNL     1      -9.668   8.876  68.314  1.00  0.00    -0.162 S  
HETATM   19  O   UNL     1      -8.627   9.875  68.346  1.00  0.00    -0.113 OA 
HETATM   20  O   UNL     1     -10.011   8.112  69.496  1.00  0.00    -0.179 OA 
HETATM   21  C   UNL     1      -9.330   7.714  67.006  1.00  0.00    -0.157 C  
ENDBRANCH  16  18
ENDBRANCH  13  16
ENDBRANCH   7  10
ENDBRANCH   6   7
ENDBRANCH   4   6
ENDBRANCH   2   4
TORSDOF 6
ENDMDL
MODEL       10
REMARK 921   NORMALIZED FREE ENERGY PREDICTED BY IDOCK:   -5.14 KCAL/MOL
REMARK 922        TOTAL FREE ENERGY PREDICTED BY IDOCK:   -7.59 KCAL/MOL
REMARK 923 INTER-LIGAND FREE ENERGY PREDICTED BY IDOCK:   -7.04 KCAL/MOL
REMARK 924 INTRA-LIGAND FREE ENERGY PREDICTED BY IDOCK:   -0.55 KCAL/MOL
REMARK 927      BINDING AFFINITY PREDICTED BY RF-SCORE:    0.00 PKD
ROOT
HETATM    1  C   UNL     1     -14.036  13.563  72.288  1.00  0.00    -0.638 C  
HETATM    2  C   UNL     1     -14.247  15.070  72.158  1.00  0.00    -0.540 C  
HETATM    3  C   UNL     1     -13.364  15.802  73.171  1.00  0.00    -0.685 C  
ENDROOT
BRANCH   2   4
HETATM    4  N   UNL     1     -13.952  15.471  70.774  1.00  0.00    -0.851 NA 
HETATM    5  H   UNL     1     -14.439  16.332  70.527  1.00  0.00     0.000 HD 
BRANCH   4   6
HETATM    6  C   UNL     1     -12.508  15.587  70.523  1.00  0.00    -0.427 C  
BRANCH   6   7
HETATM    7  C   UNL     1     -12.098  15.322  69.052  1.00  0.00    -0.213 C  
HETATM    8  H   UNL     1     -10.635  15.883  67.886  1.00  0.00     0.000 HD 
HETATM    9  O   UNL     1     -10.887  16.045  68.787  1.00  0.00    -0.265 OA 
BRANCH   7  10
HETATM   10  C   UNL     1     -11.884  13.845  68.726  1.00  0.00    -0.396 A  
HETATM   11  C   UNL     1     -11.664  12.871  69.715  1.00  0.00    -0.351 A  
HETATM   12  C   UNL     1     -11.451  11.534  69.378  1.00  0.00    -0.376 A  
HETATM   13  C   UNL     1     -11.442  11.148  68.043  1.00  0.00    -0.293 A  
HETATM   14  C   UNL     1     -11.908  13.427  67.384  1.00  0.00    -0.418 A  
HETATM   15  C   UNL     1     -11.692  12.086  67.044  1.00  0.00    -0.341 A  
BRANCH  13  16
HETATM   16  N   UNL     1     -11.200   9.781  67.727  1.00  0.00    -0.476 N  
HETATM   17  H   UNL     1     -11.859   9.053  68.002  1.00  0.00     0.000 HD 
BRANCH  16  18
HETATM   18  S   UNL     1      -9.787   9.404  66.882  1.00  0.00    -0.219 S  
HETATM   19  O   UNL     1     -10.033   9.441  65.460  1.00  0.00    -0.281 OA 
HETATM   20  O   UNL     1      -8.754  10.222  67.486  1.00  0.00    -0.125 OA 
HETATM   21  C   UNL     1      -9.499   7.720  67.388  1.00  0.00    -0.144 C  
ENDBRANCH  16  18
ENDBRANCH  13  16
ENDBRANCH   7  10
ENDBRANCH   6   7
ENDBRANCH   4   6
ENDBRANCH   2   4
TORSDOF 6
ENDMDL
MODEL       11
REMARK 921   NORMALIZED FREE ENERGY PREDICTED BY IDOCK:   -5.13 KCAL/MOL
REMARK 922        TOTAL FREE ENERGY PREDICTED BY IDOCK:   -7.58 KCAL/MOL
REMARK 923 INTER-LIGAND FREE ENERGY PREDICTED BY IDOCK:   -7.07 KCAL/MOL
REMARK 924 INTRA-LIGAND FREE ENERGY PREDICTED BY IDOCK:   -0.50 KCAL/MOL
REMARK 927      BINDING AFFINITY PREDICTED BY RF-SCORE:    0.00 PKD
ROOT
HETATM    1  C   UNL     1      -8.257  19.548  66.241  1.00  0.00    -0.354 C  
HETATM    2  C   UNL     1      -9.325  19.900  67.274  1.00  0.00    -0.356 C  
HETATM    3  C   UNL     1     -10.714  19.622  66.693  1.00  0.00    -0.552 C  
ENDROOT
BRANCH   2   4
HETATM    4  N   UNL     1      -9.072  19.124  68.499  1.00  0.00    -0.358 NA 
HETATM    5  H   UNL     1      -9.898  19.100  69.098  1.00  0.00     0.000 HD 
BRANCH   4   6
HETATM    6  C   UNL     1      -8.588  17.767  68.209  1.00  0.00    -0.277 C  
BRANCH   6   7
HETATM    7  C   UNL     1      -9.557  16.641  68.650  1.00  0.00    -0.248 C  
HETATM    8  H   UNL     1     -11.137  16.525  69.793  1.00  0.00     0.000 HD 
HETATM    9  O   UNL     1     -10.543  17.214  69.522  1.00  0.00    -0.296 OA 
BRANCH   7  10
HETATM   10  C   UNL     1     -10.259  15.939  67.490  1.00  0.00    -0.269 A  
HETATM   11  C   UNL     1      -9.880  16.119  66.149  1.00  0.00    -0.358 A  
HETATM   12  C   UNL     1     -10.559  15.478  65.112  1.00  0.00    -0.455 A  
HETATM   13  C   UNL     1     -11.639  14.652  65.398  1.00  0.00    -0.345 A  
HETATM   14  C   UNL     1     -11.331  15.070  67.759  1.00  0.00    -0.340 A  
HETATM   15  C   UNL     1     -12.016  14.427  66.720  1.00  0.00    -0.423 A  
BRANCH  13  16
HETATM   16  N   UNL     1     -12.328  14.027  64.320  1.00  0.00    -0.653 N  
HETATM   17  H   UNL     1     -12.887  14.574  63.664  1.00  0.00     0.000 HD 
BRANCH  16  18
HETATM   18  S   UNL     1     -12.190  12.351  64.160  1.00  0.00    -0.474 S  
HETATM   19  O   UNL     1     -12.197  11.725  65.461  1.00  0.00    -0.280 OA 
HETATM   20  O   UNL     1     -13.158  11.985  63.146  1.00  0.00    -0.624 OA 
HETATM   21  C   UNL     1     -10.570  12.187  63.437  1.00  0.00    -0.410 C  
ENDBRANCH  16  18
ENDBRANCH  13  16
ENDBRANCH   7  10
ENDBRANCH   6   7
ENDBRANCH   4   6
ENDBRANCH   2   4
TORSDOF 6
ENDMDL
MODEL       12
REMARK 921   NORMALIZED FREE ENERGY PREDICTED BY IDOCK:   -5.09 KCAL/MOL
REMARK 922        TOTAL FREE ENERGY PREDICTED BY IDOCK:   -7.52 KCAL/MOL
REMARK 923 INTER-LIGAND FREE ENERGY PREDICTED BY IDOCK:   -6.73 KCAL/MOL
REMARK 924 INTRA-LIGAND FREE ENERGY PREDICTED BY IDOCK:   -0.79 KCAL/MOL
REMARK 927      BINDING AFFINITY PREDICTED BY RF-SCORE:    0.00 PKD
ROOT
HETATM    1  C   UNL     1      -6.697  18.224  68.984  1.00  0.00    -0.269 C  
HETATM    2  C   UNL     1      -6.809  18.808  67.577  1.00  0.00    -0.201 C  
HETATM    3  C   UNL     1      -6.784  17.676  66.547  1.00  0.00    -0.268 C  
ENDROOT
BRANCH   2   4
HETATM    4  N   UNL     1      -8.043  19.606  67.493  1.00  0.00    -0.289 NA 
HETATM    5  H   UNL     1      -8.444  19.566  66.556  1.00  0.00     0.000 HD 
BRANCH   4   6
HETATM    6  C   UNL     1      -9.030  19.214  68.510  1.00  0.00    -0.363 C  
BRANCH   6   7
HETATM    7  C   UNL     1     -10.434  18.893  67.938  1.00  0.00    -0.388 C  
HETATM    8  H   UNL     1     -11.643  19.726  66.650  1.00  0.00     0.000 HD 
HETATM    9  O   UNL     1     -10.783  19.923  67.001  1.00  0.00    -0.450 OA 
BRANCH   7  10
HETATM   10  C   UNL     1     -10.525  17.533  67.250  1.00  0.00    -0.327 A  
HETATM   11  C   UNL     1     -10.611  16.324  67.961  1.00  0.00    -0.308 A  
HETATM   12  C   UNL     1     -10.672  15.098  67.297  1.00  0.00    -0.305 A  
HETATM   13  C   UNL     1     -10.636  15.058  65.909  1.00  0.00    -0.329 A  
HETATM   14  C   UNL     1     -10.529  17.473  65.845  1.00  0.00    -0.251 A  
HETATM   15  C   UNL     1     -10.587  16.243  65.178  1.00  0.00    -0.327 A  
BRANCH  13  16
HETATM   16  N   UNL     1     -10.678  13.793  65.259  1.00  0.00    -0.321 N  
HETATM   17  H   UNL     1      -9.847  13.403  64.812  1.00  0.00     0.000 HD 
BRANCH  16  18
HETATM   18  S   UNL     1     -12.146  12.956  65.251  1.00  0.00    -0.475 S  
HETATM   19  O   UNL     1     -12.149  11.949  66.285  1.00  0.00    -0.535 OA 
HETATM   20  O   UNL     1     -13.167  13.983  65.201  1.00  0.00    -0.768 OA 
HETATM   21  C   UNL     1     -12.105  12.165  63.656  1.00  0.00    -0.551 C  
ENDBRANCH  16  18
ENDBRANCH  13  16
ENDBRANCH   7  10
ENDBRANCH   6   7
ENDBRANCH   4   6
ENDBRANCH   2   4
TORSDOF 6
ENDMDL
MODEL       13
REMARK 921   NORMALIZED FREE ENERGY PREDICTED BY IDOCK:   -5.09 KCAL/MOL
REMARK 922        TOTAL FREE ENERGY PREDICTED BY IDOCK:   -7.52 KCAL/MOL
REMARK 923 INTER-LIGAND FREE ENERGY PREDICTED BY IDOCK:   -6.81 KCAL/MOL
REMARK 924 INTRA-LIGAND FREE ENERGY PREDICTED BY IDOCK:   -0.71 KCAL/MOL
REMARK 927      BINDING AFFINITY PREDICTED BY RF-SCORE:    0.00 PKD
ROOT
HETATM    1  C   UNL     1     -11.715  13.256  69.260  1.00  0.00    -0.380 C  
HETATM    2  C   UNL     1     -11.439  11.765  69.071  1.00  0.00    -0.297 C  
HETATM    3  C   UNL     1     -12.074  10.976  70.218  1.00  0.00    -0.448 C  
ENDROOT
BRANCH   2   4
HETATM    4  N   UNL     1     -11.960  11.351  67.758  1.00  0.00    -0.646 NA 
HETATM    5  H   UNL     1     -12.734  11.947  67.464  1.00  0.00     0.000 HD 
BRANCH   4   6
HETATM    6  C   UNL     1     -10.909  11.302  66.732  1.00  0.00    -0.282 C  
BRANCH   6   7
HETATM    7  C   UNL     1     -11.162  12.236  65.521  1.00  0.00    -0.332 C  
HETATM    8  H   UNL     1     -12.736  12.923  64.591  1.00  0.00     0.000 HD 
HETATM    9  O   UNL     1     -12.580  12.351  65.333  1.00  0.00    -0.637 OA 
BRANCH   7  10
HETATM   10  C   UNL     1     -10.560  13.631  65.679  1.00  0.00    -0.294 A  
HETATM   11  C   UNL     1      -9.440  13.890  66.486  1.00  0.00    -0.288 A  
HETATM   12  C   UNL     1      -8.930  15.182  66.623  1.00  0.00    -0.319 A  
HETATM   13  C   UNL     1      -9.540  16.241  65.963  1.00  0.00    -0.337 A  
HETATM   14  C   UNL     1     -11.139  14.711  64.990  1.00  0.00    -0.401 A  
HETATM   15  C   UNL     1     -10.630  16.009  65.128  1.00  0.00    -0.394 A  
BRANCH  13  16
HETATM   16  N   UNL     1      -9.012  17.552  66.138  1.00  0.00    -0.179 N  
HETATM   17  H   UNL     1      -8.071  17.787  65.821  1.00  0.00     0.000 HD 
BRANCH  16  18
HETATM   18  S   UNL     1      -9.994  18.705  66.886  1.00  0.00    -0.368 S  
HETATM   19  O   UNL     1     -10.692  19.485  65.891  1.00  0.00    -0.483 OA 
HETATM   20  O   UNL     1     -10.715  17.981  67.912  1.00  0.00    -0.395 OA 
HETATM   21  C   UNL     1      -8.790  19.733  67.703  1.00  0.00    -0.329 C  
ENDBRANCH  16  18
ENDBRANCH  13  16
ENDBRANCH   7  10
ENDBRANCH   6   7
ENDBRANCH   4   6
ENDBRANCH   2   4
TORSDOF 6
ENDMDL
MODEL       14
REMARK 921   NORMALIZED FREE ENERGY PREDICTED BY IDOCK:   -5.06 KCAL/MOL
REMARK 922        TOTAL FREE ENERGY PREDICTED BY IDOCK:   -7.48 KCAL/MOL
REMARK 923 INTER-LIGAND FREE ENERGY PREDICTED BY IDOCK:   -7.04 KCAL/MOL
REMARK 924 INTRA-LIGAND FREE ENERGY PREDICTED BY IDOCK:   -0.44 KCAL/MOL
REMARK 927      BINDING AFFINITY PREDICTED BY RF-SCORE:    0.00 PKD
ROOT
HETATM    1  C   UNL     1     -13.679  13.539  72.226  1.00  0.00    -0.700 C  
HETATM    2  C   UNL     1     -14.047  15.013  72.064  1.00  0.00    -0.535 C  
HETATM    3  C   UNL     1     -13.284  15.849  73.095  1.00  0.00    -0.692 C  
ENDROOT
BRANCH   2   4
HETATM    4  N   UNL     1     -13.748  15.426  70.684  1.00  0.00    -0.841 NA 
HETATM    5  H   UNL     1     -14.009  16.399  70.526  1.00  0.00     0.000 HD 
BRANCH   4   6
HETATM    6  C   UNL     1     -12.343  15.188  70.323  1.00  0.00    -0.352 C  
BRANCH   6   7
HETATM    7  C   UNL     1     -11.954  15.712  68.918  1.00  0.00    -0.279 C  
HETATM    8  H   UNL     1     -10.530  16.834  68.190  1.00  0.00     0.000 HD 
HETATM    9  O   UNL     1     -10.769  16.513  69.050  1.00  0.00    -0.291 OA 
BRANCH   7  10
HETATM   10  C   UNL     1     -11.702  14.608  67.893  1.00  0.00    -0.379 A  
HETATM   11  C   UNL     1     -11.222  14.866  66.598  1.00  0.00    -0.340 A  
HETATM   12  C   UNL     1     -11.025  13.833  65.681  1.00  0.00    -0.288 A  
HETATM   13  C   UNL     1     -11.316  12.523  66.039  1.00  0.00    -0.344 A  
HETATM   14  C   UNL     1     -11.955  13.271  68.247  1.00  0.00    -0.338 A  
HETATM   15  C   UNL     1     -11.760  12.233  67.327  1.00  0.00    -0.394 A  
BRANCH  13  16
HETATM   16  N   UNL     1     -11.126  11.492  65.076  1.00  0.00    -0.244 N  
HETATM   17  H   UNL     1     -11.811  11.328  64.338  1.00  0.00     0.000 HD 
BRANCH  16  18
HETATM   18  S   UNL     1      -9.730  10.548  65.195  1.00  0.00    -0.308 S  
HETATM   19  O   UNL     1      -8.646  11.330  65.740  1.00  0.00    -0.160 OA 
HETATM   20  O   UNL     1     -10.157   9.316  65.825  1.00  0.00    -0.268 OA 
HETATM   21  C   UNL     1      -9.391  10.183  63.484  1.00  0.00    -0.290 C  
ENDBRANCH  16  18
ENDBRANCH  13  16
ENDBRANCH   7  10
ENDBRANCH   6   7
ENDBRANCH   4   6
ENDBRANCH   2   4
TORSDOF 6
ENDMDL
MODEL       15
REMARK 921   NORMALIZED FREE ENERGY PREDICTED BY IDOCK:   -5.06 KCAL/MOL
REMARK 922        TOTAL FREE ENERGY PREDICTED BY IDOCK:   -7.48 KCAL/MOL
REMARK 923 INTER-LIGAND FREE ENERGY PREDICTED BY IDOCK:   -6.85 KCAL/MOL
REMARK 924 INTRA-LIGAND FREE ENERGY PREDICTED BY IDOCK:   -0.63 KCAL/MOL
REMARK 927      BINDING AFFINITY PREDICTED BY RF-SCORE:    0.00 PKD
ROOT
HETATM    1  C   UNL     1     -10.091  10.966  63.825  1.00  0.00    -0.413 C  
HETATM    2  C   UNL     1     -10.804  12.238  63.370  1.00  0.00    -0.403 C  
HETATM    3  C   UNL     1     -12.313  12.081  63.571  1.00  0.00    -0.661 C  
ENDROOT
BRANCH   2   4
HETATM    4  N   UNL     1     -10.260  13.380  64.121  1.00  0.00    -0.757 NA 
HETATM    5  H   UNL     1      -9.930  14.112  63.492  1.00  0.00     0.000 HD 
BRANCH   4   6
HETATM    6  C   UNL     1     -11.220  13.912  65.098  1.00  0.00    -0.326 C  
BRANCH   6   7
HETATM    7  C   UNL     1     -10.640  14.090  66.524  1.00  0.00    -0.279 C  
HETATM    8  H   UNL     1     -10.720  15.470  67.904  1.00  0.00     0.000 HD 
HETATM    9  O   UNL     1     -11.075  15.361  67.031  1.00  0.00    -0.322 OA 
BRANCH   7  10
HETATM   10  C   UNL     1     -11.052  12.991  67.501  1.00  0.00    -0.297 A  
HETATM   11  C   UNL     1     -11.005  11.625  67.175  1.00  0.00    -0.330 A  
HETATM   12  C   UNL     1     -11.410  10.649  68.087  1.00  0.00    -0.354 A  
HETATM   13  C   UNL     1     -11.881  11.024  69.339  1.00  0.00    -0.335 A  
HETATM   14  C   UNL     1     -11.497  13.346  68.787  1.00  0.00    -0.344 A  
HETATM   15  C   UNL     1     -11.906  12.368  69.702  1.00  0.00    -0.380 A  
BRANCH  13  16
HETATM   16  N   UNL     1     -12.308  10.009  70.241  1.00  0.00    -0.493 N  
HETATM   17  H   UNL     1     -13.266   9.985  70.593  1.00  0.00     0.000 HD 
BRANCH  16  18
HETATM   18  S   UNL     1     -11.179   8.844  70.712  1.00  0.00    -0.281 S  
HETATM   19  O   UNL     1     -11.124   7.781  69.736  1.00  0.00    -0.204 OA 
HETATM   20  O   UNL     1      -9.992   9.591  71.074  1.00  0.00    -0.278 OA 
HETATM   21  C   UNL     1     -11.901   8.225  72.218  1.00  0.00    -0.388 C  
ENDBRANCH  16  18
ENDBRANCH  13  16
ENDBRANCH   7  10
ENDBRANCH   6   7
ENDBRANCH   4   6
ENDBRANCH   2   4
TORSDOF 6
ENDMDL
MODEL       16
REMARK 921   NORMALIZED FREE ENERGY PREDICTED BY IDOCK:   -5.02 KCAL/MOL
REMARK 922        TOTAL FREE ENERGY PREDICTED BY IDOCK:   -7.42 KCAL/MOL
REMARK 923 INTER-LIGAND FREE ENERGY PREDICTED BY IDOCK:   -7.06 KCAL/MOL
REMARK 924 INTRA-LIGAND FREE ENERGY PREDICTED BY IDOCK:   -0.36 KCAL/MOL
REMARK 927      BINDING AFFINITY PREDICTED BY RF-SCORE:    0.00 PKD
ROOT
HETATM    1  C   UNL     1     -12.201  16.268  74.258  1.00  0.00    -0.558 C  
HETATM    2  C   UNL     1     -12.612  15.698  72.902  1.00  0.00    -0.446 C  
HETATM    3  C   UNL     1     -14.131  15.799  72.741  1.00  0.00    -0.425 C  
ENDROOT
BRANCH   2   4
HETATM    4  N   UNL     1     -11.892  16.426  71.845  1.00  0.00    -0.658 NA 
HETATM    5  H   UNL     1     -11.262  17.123  72.242  1.00  0.00     0.000 HD 
BRANCH   4   6
HETATM    6  C   UNL     1     -11.178  15.522  70.932  1.00  0.00    -0.371 C  
BRANCH   6   7
HETATM    7  C   UNL     1     -12.091  14.816  69.898  1.00  0.00    -0.332 C  
HETATM    8  H   UNL     1     -12.135  14.657  67.951  1.00  0.00     0.000 HD 
HETATM    9  O   UNL     1     -11.576  15.089  68.585  1.00  0.00    -0.297 OA 
BRANCH   7  10
HETATM   10  C   UNL     1     -12.194  13.305  70.093  1.00  0.00    -0.376 A  
HETATM   11  C   UNL     1     -11.716  12.381  69.149  1.00  0.00    -0.376 A  
HETATM   12  C   UNL     1     -11.848  11.006  69.351  1.00  0.00    -0.407 A  
HETATM   13  C   UNL     1     -12.471  10.531  70.498  1.00  0.00    -0.347 A  
HETATM   14  C   UNL     1     -12.788  12.802  71.264  1.00  0.00    -0.355 A  
HETATM   15  C   UNL     1     -12.923  11.423  71.467  1.00  0.00    -0.505 A  
BRANCH  13  16
HETATM   16  N   UNL     1     -12.611   9.125  70.668  1.00  0.00    -0.484 N  
HETATM   17  H   UNL     1     -13.507   8.662  70.514  1.00  0.00     0.000 HD 
BRANCH  16  18
HETATM   18  S   UNL     1     -11.246   8.246  71.135  1.00  0.00    -0.265 S  
HETATM   19  O   UNL     1     -10.564   7.731  69.971  1.00  0.00    -0.230 OA 
HETATM   20  O   UNL     1     -10.561   9.090  72.093  1.00  0.00    -0.324 OA 
HETATM   21  C   UNL     1     -11.975   6.894  72.038  1.00  0.00    -0.306 C  
ENDBRANCH  16  18
ENDBRANCH  13  16
ENDBRANCH   7  10
ENDBRANCH   6   7
ENDBRANCH   4   6
ENDBRANCH   2   4
TORSDOF 6
ENDMDL
MODEL       17
REMARK 921   NORMALIZED FREE ENERGY PREDICTED BY IDOCK:   -5.00 KCAL/MOL
REMARK 922        TOTAL FREE ENERGY PREDICTED BY IDOCK:   -7.40 KCAL/MOL
REMARK 923 INTER-LIGAND FREE ENERGY PREDICTED BY IDOCK:   -6.63 KCAL/MOL
REMARK 924 INTRA-LIGAND FREE ENERGY PREDICTED BY IDOCK:   -0.77 KCAL/MOL
REMARK 927      BINDING AFFINITY PREDICTED BY RF-SCORE:    0.00 PKD
ROOT
HETATM    1  C   UNL     1     -12.123  14.702  64.243  1.00  0.00    -0.437 C  
HETATM    2  C   UNL     1     -12.143  13.178  64.134  1.00  0.00    -0.430 C  
HETATM    3  C   UNL     1     -10.726  12.663  63.872  1.00  0.00    -0.465 C  
ENDROOT
BRANCH   2   4
HETATM    4  N   UNL     1     -12.716  12.624  65.370  1.00  0.00    -0.582 NA 
HETATM    5  H   UNL     1     -13.262  11.783  65.179  1.00  0.00     0.000 HD 
BRANCH   4   6
HETATM    6  C   UNL     1     -11.692  12.370  66.394  1.00  0.00    -0.391 C  
BRANCH   6   7
HETATM    7  C   UNL     1     -11.897  13.169  67.706  1.00  0.00    -0.348 C  
HETATM    8  H   UNL     1     -11.610  12.831  69.608  1.00  0.00     0.000 HD 
HETATM    9  O   UNL     1     -11.484  12.342  68.804  1.00  0.00    -0.256 OA 
BRANCH   7  10
HETATM   10  C   UNL     1     -11.128  14.488  67.753  1.00  0.00    -0.295 A  
HETATM   11  C   UNL     1     -11.616  15.630  68.411  1.00  0.00    -0.358 A  
HETATM   12  C   UNL     1     -10.895  16.825  68.415  1.00  0.00    -0.355 A  
HETATM   13  C   UNL     1      -9.678  16.903  67.751  1.00  0.00    -0.250 A  
HETATM   14  C   UNL     1      -9.877  14.578  67.118  1.00  0.00    -0.245 A  
HETATM   15  C   UNL     1      -9.154  15.778  67.120  1.00  0.00    -0.228 A  
BRANCH  13  16
HETATM   16  N   UNL     1      -8.975  18.141  67.753  1.00  0.00    -0.260 N  
HETATM   17  H   UNL     1      -8.381  18.408  68.538  1.00  0.00     0.000 HD 
BRANCH  16  18
HETATM   18  S   UNL     1      -9.156  19.154  66.413  1.00  0.00    -0.323 S  
HETATM   19  O   UNL     1      -7.885  19.340  65.754  1.00  0.00    -0.444 OA 
HETATM   20  O   UNL     1     -10.303  18.635  65.697  1.00  0.00    -0.572 OA 
HETATM   21  C   UNL     1      -9.652  20.684  67.179  1.00  0.00    -0.393 C  
ENDBRANCH  16  18
ENDBRANCH  13  16
ENDBRANCH   7  10
ENDBRANCH   6   7
ENDBRANCH   4   6
ENDBRANCH   2   4
TORSDOF 6
ENDMDL
MODEL       18
REMARK 921   NORMALIZED FREE ENERGY PREDICTED BY IDOCK:   -4.98 KCAL/MOL
REMARK 922        TOTAL FREE ENERGY PREDICTED BY IDOCK:   -7.38 KCAL/MOL
REMARK 923 INTER-LIGAND FREE ENERGY PREDICTED BY IDOCK:   -6.61 KCAL/MOL
REMARK 924 INTRA-LIGAND FREE ENERGY PREDICTED BY IDOCK:   -0.77 KCAL/MOL
REMARK 927      BINDING AFFINITY PREDICTED BY RF-SCORE:    0.00 PKD
ROOT
HETATM    1  C   UNL     1     -12.500  12.108  63.501  1.00  0.00    -0.666 C  
HETATM    2  C   UNL     1     -11.716  12.783  64.625  1.00  0.00    -0.355 C  
HETATM    3  C   UNL     1     -11.923  14.298  64.557  1.00  0.00    -0.478 C  
ENDROOT
BRANCH   2   4
HETATM    4  N   UNL     1     -12.156  12.221  65.911  1.00  0.00    -0.620 NA 
HETATM    5  H   UNL     1     -12.932  11.571  65.784  1.00  0.00     0.000 HD 
BRANCH   4   6
HETATM    6  C   UNL     1     -11.052  11.590  66.650  1.00  0.00    -0.295 C  
BRANCH   6   7
HETATM    7  C   UNL     1     -10.828  12.171  68.069  1.00  0.00    -0.222 C  
HETATM    8  H   UNL     1      -9.522  11.906  69.497  1.00  0.00     0.000 HD 
HETATM    9  O   UNL     1      -9.660  11.551  68.628  1.00  0.00    -0.193 OA 
BRANCH   7  10
HETATM   10  C   UNL     1     -10.654  13.688  68.096  1.00  0.00    -0.255 A  
HETATM   11  C   UNL     1     -11.652  14.561  68.560  1.00  0.00    -0.344 A  
HETATM   12  C   UNL     1     -11.466  15.944  68.550  1.00  0.00    -0.377 A  
HETATM   13  C   UNL     1     -10.280  16.480  68.065  1.00  0.00    -0.271 A  
HETATM   14  C   UNL     1      -9.447  14.250  67.645  1.00  0.00    -0.211 A  
HETATM   15  C   UNL     1      -9.259  15.638  67.632  1.00  0.00    -0.193 A  
BRANCH  13  16
HETATM   16  N   UNL     1     -10.125  17.895  68.046  1.00  0.00    -0.338 N  
HETATM   17  H   UNL     1      -9.976  18.420  68.908  1.00  0.00     0.000 HD 
BRANCH  16  18
HETATM   18  S   UNL     1     -10.197  18.677  66.551  1.00  0.00    -0.431 S  
HETATM   19  O   UNL     1     -10.653  17.762  65.532  1.00  0.00    -0.632 OA 
HETATM   20  O   UNL     1     -10.892  19.923  66.806  1.00  0.00    -0.442 OA 
HETATM   21  C   UNL     1      -8.483  19.071  66.265  1.00  0.00    -0.280 C  
ENDBRANCH  16  18
ENDBRANCH  13  16
ENDBRANCH   7  10
ENDBRANCH   6   7
ENDBRANCH   4   6
ENDBRANCH   2   4
TORSDOF 6
ENDMDL
MODEL       19
REMARK 921   NORMALIZED FREE ENERGY PREDICTED BY IDOCK:   -4.96 KCAL/MOL
REMARK 922        TOTAL FREE ENERGY PREDICTED BY IDOCK:   -7.35 KCAL/MOL
REMARK 923 INTER-LIGAND FREE ENERGY PREDICTED BY IDOCK:   -7.06 KCAL/MOL
REMARK 924 INTRA-LIGAND FREE ENERGY PREDICTED BY IDOCK:   -0.28 KCAL/MOL
REMARK 927      BINDING AFFINITY PREDICTED BY RF-SCORE:    0.00 PKD
ROOT
HETATM    1  C   UNL     1     -11.198  14.922  66.909  1.00  0.00    -0.343 C  
HETATM    2  C   UNL     1     -10.883  15.902  68.038  1.00  0.00    -0.317 C  
HETATM    3  C   UNL     1     -10.610  17.290  67.453  1.00  0.00    -0.303 C  
ENDROOT
BRANCH   2   4
HETATM    4  N   UNL     1     -12.011  15.911  68.983  1.00  0.00    -0.492 NA 
HETATM    5  H   UNL     1     -12.676  15.168  68.770  1.00  0.00     0.000 HD 
BRANCH   4   6
HETATM    6  C   UNL     1     -11.565  15.839  70.382  1.00  0.00    -0.360 C  
BRANCH   6   7
HETATM    7  C   UNL     1     -12.546  15.093  71.321  1.00  0.00    -0.353 C  
HETATM    8  H   UNL     1     -14.468  15.149  71.665  1.00  0.00     0.000 HD 
HETATM    9  O   UNL     1     -13.867  15.606  71.090  1.00  0.00    -0.583 OA 
BRANCH   7  10
HETATM   10  C   UNL     1     -12.555  13.578  71.129  1.00  0.00    -0.438 A  
HETATM   11  C   UNL     1     -11.916  12.943  70.050  1.00  0.00    -0.380 A  
HETATM   12  C   UNL     1     -11.963  11.557  69.895  1.00  0.00    -0.426 A  
HETATM   13  C   UNL     1     -12.661  10.781  70.812  1.00  0.00    -0.360 A  
HETATM   14  C   UNL     1     -13.224  12.770  72.065  1.00  0.00    -0.538 A  
HETATM   15  C   UNL     1     -13.274  11.379  71.910  1.00  0.00    -0.485 A  
BRANCH  13  16
HETATM   16  N   UNL     1     -12.711   9.371  70.617  1.00  0.00    -0.509 N  
HETATM   17  H   UNL     1     -13.580   8.907  70.350  1.00  0.00     0.000 HD 
BRANCH  16  18
HETATM   18  S   UNL     1     -11.286   8.492  70.843  1.00  0.00    -0.267 S  
HETATM   19  O   UNL     1     -10.607   8.314  69.582  1.00  0.00    -0.227 OA 
HETATM   20  O   UNL     1     -10.626   9.122  71.968  1.00  0.00    -0.333 OA 
HETATM   21  C   UNL     1     -11.914   6.921  71.402  1.00  0.00    -0.349 C  
ENDBRANCH  16  18
ENDBRANCH  13  16
ENDBRANCH   7  10
ENDBRANCH   6   7
ENDBRANCH   4   6
ENDBRANCH   2   4
TORSDOF 6
ENDMDL
MODEL       20
REMARK 921   NORMALIZED FREE ENERGY PREDICTED BY IDOCK:   -4.93 KCAL/MOL
REMARK 922        TOTAL FREE ENERGY PREDICTED BY IDOCK:   -7.30 KCAL/MOL
REMARK 923 INTER-LIGAND FREE ENERGY PREDICTED BY IDOCK:   -6.66 KCAL/MOL
REMARK 924 INTRA-LIGAND FREE ENERGY PREDICTED BY IDOCK:   -0.65 KCAL/MOL
REMARK 927      BINDING AFFINITY PREDICTED BY RF-SCORE:    0.00 PKD
ROOT
HETATM    1  C   UNL     1     -10.853  10.399  69.948  1.00  0.00    -0.353 C  
HETATM    2  C   UNL     1     -11.957  11.245  69.317  1.00  0.00    -0.342 C  
HETATM    3  C   UNL     1     -11.677  12.728  69.571  1.00  0.00    -0.383 C  
ENDROOT
BRANCH   2   4
HETATM    4  N   UNL     1     -12.030  10.932  67.882  1.00  0.00    -0.735 NA 
HETATM    5  H   UNL     1     -12.864  11.338  67.458  1.00  0.00     0.000 HD 
BRANCH   4   6
HETATM    6  C   UNL     1     -10.816  11.340  67.160  1.00  0.00    -0.270 C  
BRANCH   6   7
HETATM    7  C   UNL     1     -11.085  12.232  65.922  1.00  0.00    -0.322 C  
HETATM    8  H   UNL     1     -12.671  12.896  64.996  1.00  0.00     0.000 HD 
HETATM    9  O   UNL     1     -12.506  12.350  65.754  1.00  0.00    -0.615 OA 
BRANCH   7  10
HETATM   10  C   UNL     1     -10.473  13.628  66.020  1.00  0.00    -0.300 A  
HETATM   11  C   UNL     1     -11.017  14.746  65.366  1.00  0.00    -0.365 A  
HETATM   12  C   UNL     1     -10.418  16.003  65.461  1.00  0.00    -0.426 A  
HETATM   13  C   UNL     1      -9.255  16.161  66.203  1.00  0.00    -0.347 A  
HETATM   14  C   UNL     1      -9.316  13.818  66.796  1.00  0.00    -0.276 A  
HETATM   15  C   UNL     1      -8.712  15.078  66.891  1.00  0.00    -0.285 A  
BRANCH  13  16
HETATM   16  N   UNL     1      -8.652  17.450  66.265  1.00  0.00    -0.238 N  
HETATM   17  H   UNL     1      -7.865  17.692  65.664  1.00  0.00     0.000 HD 
BRANCH  16  18
HETATM   18  S   UNL     1      -9.284  18.564  67.367  1.00  0.00    -0.281 S  
HETATM   19  O   UNL     1     -10.266  17.927  68.211  1.00  0.00    -0.347 OA 
HETATM   20  O   UNL     1      -8.130  19.234  67.932  1.00  0.00    -0.275 OA 
HETATM   21  C   UNL     1     -10.098  19.723  66.286  1.00  0.00    -0.496 C  
ENDBRANCH  16  18
ENDBRANCH  13  16
ENDBRANCH   7  10
ENDBRANCH   6   7
ENDBRANCH   4   6
ENDBRANCH   2   4
TORSDOF 6
ENDMDL
MODEL       21
REMARK 921   NORMALIZED FREE ENERGY PREDICTED BY IDOCK:   -4.91 KCAL/MOL
REMARK 922        TOTAL FREE ENERGY PREDICTED BY IDOCK:   -7.28 KCAL/MOL
REMARK 923 INTER-LIGAND FREE ENERGY PREDICTED BY IDOCK:   -6.86 KCAL/MOL
REMARK 924 INTRA-LIGAND FREE ENERGY PREDICTED BY IDOCK:   -0.42 KCAL/MOL
REMARK 927      BINDING AFFINITY PREDICTED BY RF-SCORE:    0.00 PKD
ROOT
HETATM    1  C   UNL     1      -6.946  19.582  65.645  1.00  0.00    -0.317 C  
HETATM    2  C   UNL     1      -7.233  20.200  67.012  1.00  0.00    -0.255 C  
HETATM    3  C   UNL     1      -6.151  21.229  67.347  1.00  0.00    -0.434 C  
ENDROOT
BRANCH   2   4
HETATM    4  N   UNL     1      -8.577  20.797  66.988  1.00  0.00    -0.578 NA 
HETATM    5  H   UNL     1      -8.909  20.919  66.031  1.00  0.00     0.000 HD 
BRANCH   4   6
HETATM    6  C   UNL     1      -9.541  20.032  67.791  1.00  0.00    -0.384 C  
BRANCH   6   7
HETATM    7  C   UNL     1     -10.685  19.390  66.966  1.00  0.00    -0.474 C  
HETATM    8  H   UNL     1     -11.328  19.527  65.127  1.00  0.00     0.000 HD 
HETATM    9  O   UNL     1     -10.627  19.920  65.633  1.00  0.00    -0.495 OA 
BRANCH   7  10
HETATM   10  C   UNL     1     -10.624  17.866  66.905  1.00  0.00    -0.271 A  
HETATM   11  C   UNL     1     -10.782  17.051  68.039  1.00  0.00    -0.365 A  
HETATM   12  C   UNL     1     -10.699  15.661  67.948  1.00  0.00    -0.294 A  
HETATM   13  C   UNL     1     -10.444  15.061  66.722  1.00  0.00    -0.283 A  
HETATM   14  C   UNL     1     -10.404  17.236  65.668  1.00  0.00    -0.185 A  
HETATM   15  C   UNL     1     -10.318  15.841  65.575  1.00  0.00    -0.430 A  
BRANCH  13  16
HETATM   16  N   UNL     1     -10.342  13.642  66.663  1.00  0.00    -0.271 N  
HETATM   17  H   UNL     1      -9.472  13.165  66.902  1.00  0.00     0.000 HD 
BRANCH  16  18
HETATM   18  S   UNL     1     -11.709  12.772  66.183  1.00  0.00    -0.418 S  
HETATM   19  O   UNL     1     -11.978  11.711  67.124  1.00  0.00    -0.614 OA 
HETATM   20  O   UNL     1     -12.709  13.774  65.876  1.00  0.00    -0.467 OA 
HETATM   21  C   UNL     1     -11.167  12.067  64.639  1.00  0.00    -0.326 C  
ENDBRANCH  16  18
ENDBRANCH  13  16
ENDBRANCH   7  10
ENDBRANCH   6   7
ENDBRANCH   4   6
ENDBRANCH   2   4
TORSDOF 6
ENDMDL
MODEL       22
REMARK 921   NORMALIZED FREE ENERGY PREDICTED BY IDOCK:   -4.91 KCAL/MOL
REMARK 922        TOTAL FREE ENERGY PREDICTED BY IDOCK:   -7.28 KCAL/MOL
REMARK 923 INTER-LIGAND FREE ENERGY PREDICTED BY IDOCK:   -6.92 KCAL/MOL
REMARK 924 INTRA-LIGAND FREE ENERGY PREDICTED BY IDOCK:   -0.36 KCAL/MOL
REMARK 927      BINDING AFFINITY PREDICTED BY RF-SCORE:    0.00 PKD
ROOT
HETATM    1  C   UNL     1     -11.054   9.583  71.092  1.00  0.00    -0.450 C  
HETATM    2  C   UNL     1     -12.515   9.877  70.755  1.00  0.00    -0.256 C  
HETATM    3  C   UNL     1     -13.114  10.793  71.824  1.00  0.00    -0.573 C  
ENDROOT
BRANCH   2   4
HETATM    4  N   UNL     1     -12.579  10.475  69.413  1.00  0.00    -0.690 NA 
HETATM    5  H   UNL     1     -13.530  10.455  69.045  1.00  0.00     0.000 HD 
BRANCH   4   6
HETATM    6  C   UNL     1     -12.027  11.837  69.383  1.00  0.00    -0.298 C  
BRANCH   6   7
HETATM    7  C   UNL     1     -11.212  12.162  68.105  1.00  0.00    -0.267 C  
HETATM    8  H   UNL     1     -11.521  12.036  66.181  1.00  0.00     0.000 HD 
HETATM    9  O   UNL     1     -12.019  11.837  66.963  1.00  0.00    -0.610 OA 
BRANCH   7  10
HETATM   10  C   UNL     1     -10.768  13.620  68.009  1.00  0.00    -0.258 A  
HETATM   11  C   UNL     1      -9.499  14.000  67.541  1.00  0.00    -0.221 A  
HETATM   12  C   UNL     1      -9.120  15.342  67.487  1.00  0.00    -0.199 A  
HETATM   13  C   UNL     1     -10.000  16.329  67.911  1.00  0.00    -0.241 A  
HETATM   14  C   UNL     1     -11.657  14.637  68.398  1.00  0.00    -0.351 A  
HETATM   15  C   UNL     1     -11.278  15.985  68.347  1.00  0.00    -0.364 A  
BRANCH  13  16
HETATM   16  N   UNL     1      -9.579  17.688  67.866  1.00  0.00    -0.275 N  
HETATM   17  H   UNL     1      -9.352  18.198  68.720  1.00  0.00     0.000 HD 
BRANCH  16  18
HETATM   18  S   UNL     1      -9.469  18.430  66.352  1.00  0.00    -0.260 S  
HETATM   19  O   UNL     1      -8.103  18.410  65.887  1.00  0.00    -0.502 OA 
HETATM   20  O   UNL     1     -10.539  17.850  65.566  1.00  0.00    -0.638 OA 
HETATM   21  C   UNL     1      -9.936  20.107  66.734  1.00  0.00    -0.469 C  
ENDBRANCH  16  18
ENDBRANCH  13  16
ENDBRANCH   7  10
ENDBRANCH   6   7
ENDBRANCH   4   6
ENDBRANCH   2   4
TORSDOF 6
ENDMDL
MODEL       23
REMARK 921   NORMALIZED FREE ENERGY PREDICTED BY IDOCK:   -4.90 KCAL/MOL
REMARK 922        TOTAL FREE ENERGY PREDICTED BY IDOCK:   -7.26 KCAL/MOL
REMARK 923 INTER-LIGAND FREE ENERGY PREDICTED BY IDOCK:   -6.94 KCAL/MOL
REMARK 924 INTRA-LIGAND FREE ENERGY PREDICTED BY IDOCK:   -0.33 KCAL/MOL
REMARK 927      BINDING AFFINITY PREDICTED BY RF-SCORE:    0.00 PKD
ROOT
HETATM    1  C   UNL     1     -11.044   6.570  71.845  1.00  0.00    -0.300 C  
HETATM    2  C   UNL     1     -10.687   7.907  72.493  1.00  0.00    -0.328 C  
HETATM    3  C   UNL     1      -9.299   8.350  72.025  1.00  0.00    -0.332 C  
ENDROOT
BRANCH   2   4
HETATM    4  N   UNL     1     -11.727   8.890  72.151  1.00  0.00    -0.362 NA 
HETATM    5  H   UNL     1     -12.048   9.391  72.980  1.00  0.00     0.000 HD 
BRANCH   4   6
HETATM    6  C   UNL     1     -11.290   9.823  71.103  1.00  0.00    -0.389 C  
BRANCH   6   7
HETATM    7  C   UNL     1     -12.420  10.728  70.550  1.00  0.00    -0.360 C  
HETATM    8  H   UNL     1     -13.567  12.132  71.275  1.00  0.00     0.000 HD 
HETATM    9  O   UNL     1     -12.875  11.577  71.614  1.00  0.00    -0.408 OA 
BRANCH   7  10
HETATM   10  C   UNL     1     -11.996  11.591  69.364  1.00  0.00    -0.392 A  
HETATM   11  C   UNL     1     -11.976  12.996  69.412  1.00  0.00    -0.338 A  
HETATM   12  C   UNL     1     -11.603  13.753  68.301  1.00  0.00    -0.373 A  
HETATM   13  C   UNL     1     -11.254  13.118  67.115  1.00  0.00    -0.294 A  
HETATM   14  C   UNL     1     -11.603  10.969  68.166  1.00  0.00    -0.345 A  
HETATM   15  C   UNL     1     -11.231  11.727  67.048  1.00  0.00    -0.382 A  
BRANCH  13  16
HETATM   16  N   UNL     1     -10.899  13.916  65.991  1.00  0.00    -0.288 N  
HETATM   17  H   UNL     1      -9.978  14.348  65.921  1.00  0.00     0.000 HD 
BRANCH  16  18
HETATM   18  S   UNL     1     -12.053  14.124  64.774  1.00  0.00    -0.453 S  
HETATM   19  O   UNL     1     -13.374  13.859  65.292  1.00  0.00    -0.732 OA 
HETATM   20  O   UNL     1     -11.730  15.394  64.158  1.00  0.00    -0.356 OA 
HETATM   21  C   UNL     1     -11.603  12.841  63.623  1.00  0.00    -0.506 C  
ENDBRANCH  16  18
ENDBRANCH  13  16
ENDBRANCH   7  10
ENDBRANCH   6   7
ENDBRANCH   4   6
ENDBRANCH   2   4
TORSDOF 6
ENDMDL
MODEL       24
REMARK 921   NORMALIZED FREE ENERGY PREDICTED BY IDOCK:   -4.83 KCAL/MOL
REMARK 922        TOTAL FREE ENERGY PREDICTED BY IDOCK:   -7.17 KCAL/MOL
REMARK 923 INTER-LIGAND FREE ENERGY PREDICTED BY IDOCK:   -6.80 KCAL/MOL
REMARK 924 INTRA-LIGAND FREE ENERGY PREDICTED BY IDOCK:   -0.36 KCAL/MOL
REMARK 927      BINDING AFFINITY PREDICTED BY RF-SCORE:    0.00 PKD
ROOT
HETATM    1  C   UNL     1     -14.136   8.650  71.972  1.00  0.00    -0.523 C  
HETATM    2  C   UNL     1     -12.948   9.596  71.813  1.00  0.00    -0.420 C  
HETATM    3  C   UNL     1     -11.642   8.810  71.953  1.00  0.00    -0.432 C  
ENDROOT
BRANCH   2   4
HETATM    4  N   UNL     1     -13.051  10.270  70.509  1.00  0.00    -0.554 NA 
HETATM    5  H   UNL     1     -14.026  10.423  70.250  1.00  0.00     0.000 HD 
BRANCH   4   6
HETATM    6  C   UNL     1     -12.288  11.526  70.469  1.00  0.00    -0.342 C  
BRANCH   6   7
HETATM    7  C   UNL     1     -11.551  11.776  69.129  1.00  0.00    -0.310 C  
HETATM    8  H   UNL     1     -11.818  11.249  67.267  1.00  0.00     0.000 HD 
HETATM    9  O   UNL     1     -12.270  11.096  68.088  1.00  0.00    -0.612 OA 
BRANCH   7  10
HETATM   10  C   UNL     1     -11.414  13.252  68.764  1.00  0.00    -0.346 A  
HETATM   11  C   UNL     1     -11.092  13.690  67.468  1.00  0.00    -0.296 A  
HETATM   12  C   UNL     1     -10.954  15.047  67.176  1.00  0.00    -0.329 A  
HETATM   13  C   UNL     1     -11.123  15.993  68.179  1.00  0.00    -0.344 A  
HETATM   14  C   UNL     1     -11.618  14.227  69.756  1.00  0.00    -0.350 A  
HETATM   15  C   UNL     1     -11.477  15.591  69.465  1.00  0.00    -0.341 A  
BRANCH  13  16
HETATM   16  N   UNL     1     -10.955  17.370  67.859  1.00  0.00    -0.261 N  
HETATM   17  H   UNL     1     -11.757  17.995  67.783  1.00  0.00     0.000 HD 
BRANCH  16  18
HETATM   18  S   UNL     1      -9.383  17.935  67.607  1.00  0.00    -0.261 S  
HETATM   19  O   UNL     1      -8.477  17.321  68.549  1.00  0.00    -0.252 OA 
HETATM   20  O   UNL     1      -9.165  17.829  66.179  1.00  0.00    -0.457 OA 
HETATM   21  C   UNL     1      -9.553  19.666  67.994  1.00  0.00    -0.369 C  
ENDBRANCH  16  18
ENDBRANCH  13  16
ENDBRANCH   7  10
ENDBRANCH   6   7
ENDBRANCH   4   6
ENDBRANCH   2   4
TORSDOF 6
ENDMDL
MODEL       25
REMARK 921   NORMALIZED FREE ENERGY PREDICTED BY IDOCK:   -4.82 KCAL/MOL
REMARK 922        TOTAL FREE ENERGY PREDICTED BY IDOCK:   -7.16 KCAL/MOL
REMARK 923 INTER-LIGAND FREE ENERGY PREDICTED BY IDOCK:   -6.73 KCAL/MOL
REMARK 924 INTRA-LIGAND FREE ENERGY PREDICTED BY IDOCK:   -0.43 KCAL/MOL
REMARK 927      BINDING AFFINITY PREDICTED BY RF-SCORE:    0.00 PKD
ROOT
HETATM    1  C   UNL     1     -12.762   7.018  71.593  1.00  0.00    -0.417 C  
HETATM    2  C   UNL     1     -11.277   7.374  71.600  1.00  0.00    -0.247 C  
HETATM    3  C   UNL     1     -10.688   7.150  70.205  1.00  0.00    -0.260 C  
ENDROOT
BRANCH   2   4
HETATM    4  N   UNL     1     -11.127   8.767  72.048  1.00  0.00    -0.363 NA 
HETATM    5  H   UNL     1     -10.426   8.843  72.785  1.00  0.00     0.000 HD 
BRANCH   4   6
HETATM    6  C   UNL     1     -10.829   9.681  70.936  1.00  0.00    -0.339 C  
BRANCH   6   7
HETATM    7  C   UNL     1     -12.044  10.519  70.463  1.00  0.00    -0.345 C  
HETATM    8  H   UNL     1     -13.182  11.898  71.249  1.00  0.00     0.000 HD 
HETATM    9  O   UNL     1     -12.438  11.385  71.539  1.00  0.00    -0.297 OA 
BRANCH   7  10
HETATM   10  C   UNL     1     -11.770  11.358  69.217  1.00  0.00    -0.404 A  
HETATM   11  C   UNL     1     -11.404  10.792  67.984  1.00  0.00    -0.378 A  
HETATM   12  C   UNL     1     -11.140  11.592  66.871  1.00  0.00    -0.366 A  
HETATM   13  C   UNL     1     -11.226  12.974  66.975  1.00  0.00    -0.289 A  
HETATM   14  C   UNL     1     -11.888  12.757  69.290  1.00  0.00    -0.358 A  
HETATM   15  C   UNL     1     -11.621  13.561  68.175  1.00  0.00    -0.368 A  
BRANCH  13  16
HETATM   16  N   UNL     1     -10.930  13.767  65.830  1.00  0.00    -0.279 N  
HETATM   17  H   UNL     1     -10.022  14.220  65.723  1.00  0.00     0.000 HD 
BRANCH  16  18
HETATM   18  S   UNL     1     -12.131  13.934  64.654  1.00  0.00    -0.437 S  
HETATM   19  O   UNL     1     -13.401  13.482  65.171  1.00  0.00    -0.655 OA 
HETATM   20  O   UNL     1     -11.968  15.276  64.133  1.00  0.00    -0.485 OA 
HETATM   21  C   UNL     1     -11.570  12.802  63.398  1.00  0.00    -0.443 C  
ENDBRANCH  16  18
ENDBRANCH  13  16
ENDBRANCH   7  10
ENDBRANCH   6   7
ENDBRANCH   4   6
ENDBRANCH   2   4
TORSDOF 6
ENDMDL
MODEL       26
REMARK 921   NORMALIZED FREE ENERGY PREDICTED BY IDOCK:   -4.81 KCAL/MOL
REMARK 922        TOTAL FREE ENERGY PREDICTED BY IDOCK:   -7.15 KCAL/MOL
REMARK 923 INTER-LIGAND FREE ENERGY PREDICTED BY IDOCK:   -6.30 KCAL/MOL
REMARK 924 INTRA-LIGAND FREE ENERGY PREDICTED BY IDOCK:   -0.85 KCAL/MOL
REMARK 927      BINDING AFFINITY PREDICTED BY RF-SCORE:    0.00 PKD
ROOT
HETATM    1  C   UNL     1     -10.625  16.363  66.525  1.00  0.00    -0.235 C  
HETATM    2  C   UNL     1      -9.648  15.477  65.755  1.00  0.00    -0.332 C  
HETATM    3  C   UNL     1      -8.834  14.634  66.739  1.00  0.00    -0.269 C  
ENDROOT
BRANCH   2   4
HETATM    4  N   UNL     1     -10.409  14.645  64.810  1.00  0.00    -0.504 NA 
HETATM    5  H   UNL     1     -10.150  13.662  64.894  1.00  0.00     0.000 HD 
BRANCH   4   6
HETATM    6  C   UNL     1     -11.861  14.826  64.952  1.00  0.00    -0.377 C  
BRANCH   6   7
HETATM    7  C   UNL     1     -12.622  13.538  65.358  1.00  0.00    -0.483 C  
HETATM    8  H   UNL     1     -13.184  11.902  64.451  1.00  0.00     0.000 HD 
HETATM    9  O   UNL     1     -12.718  12.691  64.203  1.00  0.00    -0.660 OA 
BRANCH   7  10
HETATM   10  C   UNL     1     -11.965  12.764  66.498  1.00  0.00    -0.428 A  
HETATM   11  C   UNL     1     -12.031  13.179  67.838  1.00  0.00    -0.347 A  
HETATM   12  C   UNL     1     -11.399  12.456  68.851  1.00  0.00    -0.342 A  
HETATM   13  C   UNL     1     -10.679  11.310  68.540  1.00  0.00    -0.201 A  
HETATM   14  C   UNL     1     -11.263  11.580  66.209  1.00  0.00    -0.286 A  
HETATM   15  C   UNL     1     -10.626  10.855  67.224  1.00  0.00    -0.296 A  
BRANCH  13  16
HETATM   16  N   UNL     1     -10.027  10.604  69.590  1.00  0.00    -0.435 N  
HETATM   17  H   UNL     1      -9.078  10.847  69.877  1.00  0.00     0.000 HD 
BRANCH  16  18
HETATM   18  S   UNL     1     -10.873   9.352  70.345  1.00  0.00    -0.290 S  
HETATM   19  O   UNL     1     -12.126   9.843  70.866  1.00  0.00    -0.302 OA 
HETATM   20  O   UNL     1     -10.830   8.247  69.409  1.00  0.00    -0.193 OA 
HETATM   21  C   UNL     1      -9.789   8.947  71.700  1.00  0.00    -0.317 C  
ENDBRANCH  16  18
ENDBRANCH  13  16
ENDBRANCH   7  10
ENDBRANCH   6   7
ENDBRANCH   4   6
ENDBRANCH   2   4
TORSDOF 6
ENDMDL
MODEL       27
REMARK 921   NORMALIZED FREE ENERGY PREDICTED BY IDOCK:   -4.80 KCAL/MOL
REMARK 922        TOTAL FREE ENERGY PREDICTED BY IDOCK:   -7.14 KCAL/MOL
REMARK 923 INTER-LIGAND FREE ENERGY PREDICTED BY IDOCK:   -6.92 KCAL/MOL
REMARK 924 INTRA-LIGAND FREE ENERGY PREDICTED BY IDOCK:   -0.21 KCAL/MOL
REMARK 927      BINDING AFFINITY PREDICTED BY RF-SCORE:    0.00 PKD
ROOT
HETATM    1  C   UNL     1     -12.299  15.822  71.723  1.00  0.00    -0.523 C  
HETATM    2  C   UNL     1     -12.289  14.330  71.394  1.00  0.00    -0.353 C  
HETATM    3  C   UNL     1     -13.377  13.619  72.202  1.00  0.00    -0.587 C  
ENDROOT
BRANCH   2   4
HETATM    4  N   UNL     1     -12.477  14.165  69.944  1.00  0.00    -0.423 NA 
HETATM    5  H   UNL     1     -12.375  15.054  69.455  1.00  0.00     0.000 HD 
BRANCH   4   6
HETATM    6  C   UNL     1     -11.584  13.143  69.379  1.00  0.00    -0.300 C  
BRANCH   6   7
HETATM    7  C   UNL     1     -12.275  11.784  69.099  1.00  0.00    -0.108 C  
HETATM    8  H   UNL     1     -12.252  10.478  67.647  1.00  0.00     0.000 HD 
HETATM    9  O   UNL     1     -11.829  11.310  67.819  1.00  0.00    -0.610 OA 
BRANCH   7  10
HETATM   10  C   UNL     1     -11.995  10.718  70.156  1.00  0.00    -0.432 A  
HETATM   11  C   UNL     1     -10.709  10.210  70.403  1.00  0.00    -0.329 A  
HETATM   12  C   UNL     1     -10.494   9.220  71.363  1.00  0.00    -0.408 A  
HETATM   13  C   UNL     1     -11.566   8.711  72.085  1.00  0.00    -0.370 A  
HETATM   14  C   UNL     1     -13.060  10.215  70.923  1.00  0.00    -0.412 A  
HETATM   15  C   UNL     1     -12.847   9.219  71.885  1.00  0.00    -0.485 A  
BRANCH  13  16
HETATM   16  N   UNL     1     -11.321   7.685  73.042  1.00  0.00    -0.581 N  
HETATM   17  H   UNL     1     -11.413   7.866  74.042  1.00  0.00     0.000 HD 
BRANCH  16  18
HETATM   18  S   UNL     1     -10.874   6.160  72.469  1.00  0.00    -0.254 S  
HETATM   19  O   UNL     1      -9.439   6.010  72.522  1.00  0.00    -0.148 OA 
HETATM   20  O   UNL     1     -11.751   5.228  73.146  1.00  0.00    -0.268 OA 
HETATM   21  C   UNL     1     -11.395   6.245  70.767  1.00  0.00    -0.332 C  
ENDBRANCH  16  18
ENDBRANCH  13  16
ENDBRANCH   7  10
ENDBRANCH   6   7
ENDBRANCH   4   6
ENDBRANCH   2   4
TORSDOF 6
ENDMDL
MODEL       28
REMARK 921   NORMALIZED FREE ENERGY PREDICTED BY IDOCK:   -4.78 KCAL/MOL
REMARK 922        TOTAL FREE ENERGY PREDICTED BY IDOCK:   -7.11 KCAL/MOL
REMARK 923 INTER-LIGAND FREE ENERGY PREDICTED BY IDOCK:   -6.64 KCAL/MOL
REMARK 924 INTRA-LIGAND FREE ENERGY PREDICTED BY IDOCK:   -0.46 KCAL/MOL
REMARK 927      BINDING AFFINITY PREDICTED BY RF-SCORE:    0.00 PKD
ROOT
HETATM    1  C   UNL     1      -9.304   9.877  64.755  1.00  0.00    -0.339 C  
HETATM    2  C   UNL     1      -9.284  10.459  63.343  1.00  0.00    -0.285 C  
HETATM    3  C   UNL     1      -8.914   9.362  62.341  1.00  0.00    -0.258 C  
ENDROOT
BRANCH   2   4
HETATM    4  N   UNL     1     -10.600  11.050  63.057  1.00  0.00    -0.805 NA 
HETATM    5  H   UNL     1     -11.162  10.433  62.471  1.00  0.00     0.000 HD 
BRANCH   4   6
HETATM    6  C   UNL     1     -11.322  11.423  64.282  1.00  0.00    -0.168 C  
BRANCH   6   7
HETATM    7  C   UNL     1     -12.126  12.742  64.166  1.00  0.00    -0.438 C  
HETATM    8  H   UNL     1     -13.890  13.359  64.735  1.00  0.00     0.000 HD 
HETATM    9  O   UNL     1     -13.397  12.551  64.806  1.00  0.00    -0.773 OA 
BRANCH   7  10
HETATM   10  C   UNL     1     -11.427  13.950  64.787  1.00  0.00    -0.368 A  
HETATM   11  C   UNL     1     -11.770  15.275  64.469  1.00  0.00    -0.306 A  
HETATM   12  C   UNL     1     -11.095  16.354  65.041  1.00  0.00    -0.216 A  
HETATM   13  C   UNL     1     -10.055  16.126  65.933  1.00  0.00    -0.354 A  
HETATM   14  C   UNL     1     -10.397  13.743  65.720  1.00  0.00    -0.315 A  
HETATM   15  C   UNL     1      -9.716  14.824  66.293  1.00  0.00    -0.326 A  
BRANCH  13  16
HETATM   16  N   UNL     1      -9.368  17.245  66.484  1.00  0.00    -0.256 N  
HETATM   17  H   UNL     1      -8.375  17.396  66.303  1.00  0.00     0.000 HD 
BRANCH  16  18
HETATM   18  S   UNL     1     -10.251  18.317  67.447  1.00  0.00    -0.388 S  
HETATM   19  O   UNL     1     -10.874  19.326  66.625  1.00  0.00    -0.420 OA 
HETATM   20  O   UNL     1     -11.035  17.476  68.329  1.00  0.00    -0.290 OA 
HETATM   21  C   UNL     1      -8.966  19.066  68.428  1.00  0.00    -0.338 C  
ENDBRANCH  16  18
ENDBRANCH  13  16
ENDBRANCH   7  10
ENDBRANCH   6   7
ENDBRANCH   4   6
ENDBRANCH   2   4
TORSDOF 6
ENDMDL
MODEL       29
REMARK 921   NORMALIZED FREE ENERGY PREDICTED BY IDOCK:   -4.77 KCAL/MOL
REMARK 922        TOTAL FREE ENERGY PREDICTED BY IDOCK:   -7.09 KCAL/MOL
REMARK 923 INTER-LIGAND FREE ENERGY PREDICTED BY IDOCK:   -6.75 KCAL/MOL
REMARK 924 INTRA-LIGAND FREE ENERGY PREDICTED BY IDOCK:   -0.34 KCAL/MOL
REMARK 927      BINDING AFFINITY PREDICTED BY RF-SCORE:    0.00 PKD
ROOT
HETATM    1  C   UNL     1     -11.427   6.488  71.382  1.00  0.00    -0.360 C  
HETATM    2  C   UNL     1     -11.526   7.266  72.693  1.00  0.00    -0.261 C  
HETATM    3  C   UNL     1     -10.124   7.654  73.167  1.00  0.00    -0.382 C  
ENDROOT
BRANCH   2   4
HETATM    4  N   UNL     1     -12.385   8.441  72.482  1.00  0.00    -0.529 NA 
HETATM    5  H   UNL     1     -12.653   8.866  73.370  1.00  0.00     0.000 HD 
BRANCH   4   6
HETATM    6  C   UNL     1     -11.768   9.429  71.585  1.00  0.00    -0.398 C  
BRANCH   6   7
HETATM    7  C   UNL     1     -12.770  10.437  70.968  1.00  0.00    -0.394 C  
HETATM    8  H   UNL     1     -13.914  11.866  71.649  1.00  0.00     0.000 HD 
HETATM    9  O   UNL     1     -13.300  11.248  72.027  1.00  0.00    -0.462 OA 
BRANCH   7  10
HETATM   10  C   UNL     1     -12.159  11.340  69.899  1.00  0.00    -0.414 A  
HETATM   11  C   UNL     1     -11.608  10.843  68.706  1.00  0.00    -0.378 A  
HETATM   12  C   UNL     1     -11.039  11.698  67.760  1.00  0.00    -0.309 A  
HETATM   13  C   UNL     1     -11.001  13.066  67.997  1.00  0.00    -0.250 A  
HETATM   14  C   UNL     1     -12.144  12.731  70.101  1.00  0.00    -0.370 A  
HETATM   15  C   UNL     1     -11.571  13.591  69.155  1.00  0.00    -0.359 A  
BRANCH  13  16
HETATM   16  N   UNL     1     -10.395  13.913  67.026  1.00  0.00    -0.265 N  
HETATM   17  H   UNL     1      -9.516  14.392  67.221  1.00  0.00     0.000 HD 
BRANCH  16  18
HETATM   18  S   UNL     1     -11.179  14.098  65.541  1.00  0.00    -0.328 S  
HETATM   19  O   UNL     1     -10.612  13.199  64.564  1.00  0.00    -0.363 OA 
HETATM   20  O   UNL     1     -12.594  14.072  65.853  1.00  0.00    -0.488 OA 
HETATM   21  C   UNL     1     -10.757  15.775  65.114  1.00  0.00    -0.435 C  
ENDBRANCH  16  18
ENDBRANCH  13  16
ENDBRANCH   7  10
ENDBRANCH   6   7
ENDBRANCH   4   6
ENDBRANCH   2   4
TORSDOF 6
ENDMDL
MODEL       30
REMARK 921   NORMALIZED FREE ENERGY PREDICTED BY IDOCK:   -4.73 KCAL/MOL
REMARK 922        TOTAL FREE ENERGY PREDICTED BY IDOCK:   -7.04 KCAL/MOL
REMARK 923 INTER-LIGAND FREE ENERGY PREDICTED BY IDOCK:   -6.35 KCAL/MOL
REMARK 924 INTRA-LIGAND FREE ENERGY PREDICTED BY IDOCK:   -0.69 KCAL/MOL
REMARK 927      BINDING AFFINITY PREDICTED BY RF-SCORE:    0.00 PKD
ROOT
HETATM    1  C   UNL     1     -11.876  12.241  63.509  1.00  0.00    -0.601 C  
HETATM    2  C   UNL     1     -11.795  13.644  64.107  1.00  0.00    -0.422 C  
HETATM    3  C   UNL     1     -12.731  13.744  65.313  1.00  0.00    -0.481 C  
ENDROOT
BRANCH   2   4
HETATM    4  N   UNL     1     -10.396  13.924  64.466  1.00  0.00    -0.652 NA 
HETATM    5  H   UNL     1      -9.955  14.538  63.781  1.00  0.00     0.000 HD 
BRANCH   4   6
HETATM    6  C   UNL     1     -10.268  14.468  65.826  1.00  0.00    -0.335 C  
BRANCH   6   7
HETATM    7  C   UNL     1      -9.428  13.587  66.784  1.00  0.00    -0.269 C  
HETATM    8  H   UNL     1      -8.165  13.913  68.238  1.00  0.00     0.000 HD 
HETATM    9  O   UNL     1      -8.680  14.453  67.651  1.00  0.00    -0.170 OA 
BRANCH   7  10
HETATM   10  C   UNL     1     -10.259  12.624  67.629  1.00  0.00    -0.217 A  
HETATM   11  C   UNL     1     -10.393  11.260  67.320  1.00  0.00    -0.236 A  
HETATM   12  C   UNL     1     -11.179  10.414  68.104  1.00  0.00    -0.333 A  
HETATM   13  C   UNL     1     -11.856  10.922  69.206  1.00  0.00    -0.324 A  
HETATM   14  C   UNL     1     -10.923  13.109  68.770  1.00  0.00    -0.298 A  
HETATM   15  C   UNL     1     -11.715  12.262  69.556  1.00  0.00    -0.398 A  
BRANCH  13  16
HETATM   16  N   UNL     1     -12.669  10.041  69.975  1.00  0.00    -0.467 N  
HETATM   17  H   UNL     1     -13.630   9.836  69.699  1.00  0.00     0.000 HD 
BRANCH  16  18
HETATM   18  S   UNL     1     -11.991   9.348  71.358  1.00  0.00    -0.396 S  
HETATM   19  O   UNL     1     -10.552   9.433  71.303  1.00  0.00    -0.313 OA 
HETATM   20  O   UNL     1     -12.735   9.910  72.467  1.00  0.00    -0.196 OA 
HETATM   21  C   UNL     1     -12.488   7.645  71.191  1.00  0.00    -0.247 C  
ENDBRANCH  16  18
ENDBRANCH  13  16
ENDBRANCH   7  10
ENDBRANCH   6   7
ENDBRANCH   4   6
ENDBRANCH   2   4
TORSDOF 6
ENDMDL
MODEL       31
REMARK 921   NORMALIZED FREE ENERGY PREDICTED BY IDOCK:   -4.73 KCAL/MOL
REMARK 922        TOTAL FREE ENERGY PREDICTED BY IDOCK:   -7.04 KCAL/MOL
REMARK 923 INTER-LIGAND FREE ENERGY PREDICTED BY IDOCK:   -6.63 KCAL/MOL
REMARK 924 INTRA-LIGAND FREE ENERGY PREDICTED BY IDOCK:   -0.40 KCAL/MOL
REMARK 927      BINDING AFFINITY PREDICTED BY RF-SCORE:    0.00 PKD
ROOT
HETATM    1  C   UNL     1     -12.855   9.701  71.591  1.00  0.00    -0.499 C  
HETATM    2  C   UNL     1     -11.540   8.926  71.522  1.00  0.00    -0.318 C  
HETATM    3  C   UNL     1     -11.482   7.910  72.665  1.00  0.00    -0.454 C  
ENDROOT
BRANCH   2   4
HETATM    4  N   UNL     1     -11.440   8.283  70.203  1.00  0.00    -0.465 NA 
HETATM    5  H   UNL     1     -12.243   8.514  69.618  1.00  0.00     0.000 HD 
BRANCH   4   6
HETATM    6  C   UNL     1     -10.178   8.604  69.521  1.00  0.00    -0.209 C  
BRANCH   6   7
HETATM    7  C   UNL     1      -9.659  10.039  69.791  1.00  0.00    -0.216 C  
HETATM    8  H   UNL     1      -7.907  10.871  70.023  1.00  0.00     0.000 HD 
HETATM    9  O   UNL     1      -8.226   9.992  69.857  1.00  0.00    -0.176 OA 
BRANCH   7  10
HETATM   10  C   UNL     1     -10.081  11.059  68.736  1.00  0.00    -0.214 A  
HETATM   11  C   UNL     1      -9.255  11.430  67.662  1.00  0.00    -0.158 A  
HETATM   12  C   UNL     1      -9.667  12.382  66.728  1.00  0.00    -0.226 A  
HETATM   13  C   UNL     1     -10.909  12.989  66.859  1.00  0.00    -0.264 A  
HETATM   14  C   UNL     1     -11.350  11.658  68.829  1.00  0.00    -0.324 A  
HETATM   15  C   UNL     1     -11.763  12.616  67.894  1.00  0.00    -0.412 A  
BRANCH  13  16
HETATM   16  N   UNL     1     -11.294  13.973  65.905  1.00  0.00    -0.312 N  
HETATM   17  H   UNL     1     -11.072  14.959  66.046  1.00  0.00     0.000 HD 
BRANCH  16  18
HETATM   18  S   UNL     1     -12.130  13.456  64.531  1.00  0.00    -0.414 S  
HETATM   19  O   UNL     1     -13.109  12.458  64.891  1.00  0.00    -0.765 OA 
HETATM   20  O   UNL     1     -12.515  14.670  63.841  1.00  0.00    -0.813 OA 
HETATM   21  C   UNL     1     -10.831  12.691  63.581  1.00  0.00    -0.395 C  
ENDBRANCH  16  18
ENDBRANCH  13  16
ENDBRANCH   7  10
ENDBRANCH   6   7
ENDBRANCH   4   6
ENDBRANCH   2   4
TORSDOF 6
ENDMDL
MODEL       32
REMARK 921   NORMALIZED FREE ENERGY PREDICTED BY IDOCK:   -4.71 KCAL/MOL
REMARK 922        TOTAL FREE ENERGY PREDICTED BY IDOCK:   -7.01 KCAL/MOL
REMARK 923 INTER-LIGAND FREE ENERGY PREDICTED BY IDOCK:   -6.65 KCAL/MOL
REMARK 924 INTRA-LIGAND FREE ENERGY PREDICTED BY IDOCK:   -0.36 KCAL/MOL
REMARK 927      BINDING AFFINITY PREDICTED BY RF-SCORE:    0.00 PKD
ROOT
HETATM    1  C   UNL     1     -14.202  14.846  71.740  1.00  0.00    -0.635 C  
HETATM    2  C   UNL     1     -12.794  15.266  71.322  1.00  0.00    -0.425 C  
HETATM    3  C   UNL     1     -12.151  16.092  72.438  1.00  0.00    -0.630 C  
ENDROOT
BRANCH   2   4
HETATM    4  N   UNL     1     -12.015  14.057  71.008  1.00  0.00    -0.483 NA 
HETATM    5  H   UNL     1     -11.161  14.014  71.565  1.00  0.00     0.000 HD 
BRANCH   4   6
HETATM    6  C   UNL     1     -12.808  12.829  71.156  1.00  0.00    -0.226 C  
BRANCH   6   7
HETATM    7  C   UNL     1     -12.336  11.658  70.257  1.00  0.00    -0.258 C  
HETATM    8  H   UNL     1     -10.880  11.370  68.987  1.00  0.00     0.000 HD 
HETATM    9  O   UNL     1     -11.169  12.087  69.538  1.00  0.00    -0.226 OA 
BRANCH   7  10
HETATM   10  C   UNL     1     -12.011  10.380  71.026  1.00  0.00    -0.481 A  
HETATM   11  C   UNL     1     -12.983   9.640  71.719  1.00  0.00    -0.514 A  
HETATM   12  C   UNL     1     -12.645   8.487  72.429  1.00  0.00    -0.409 A  
HETATM   13  C   UNL     1     -11.324   8.059  72.468  1.00  0.00    -0.406 A  
HETATM   14  C   UNL     1     -10.686   9.908  71.047  1.00  0.00    -0.241 A  
HETATM   15  C   UNL     1     -10.345   8.753  71.762  1.00  0.00    -0.413 A  
BRANCH  13  16
HETATM   16  N   UNL     1     -11.004   6.892  73.218  1.00  0.00    -0.481 N  
HETATM   17  H   UNL     1     -11.146   6.860  74.228  1.00  0.00     0.000 HD 
BRANCH  16  18
HETATM   18  S   UNL     1     -10.383   5.562  72.382  1.00  0.00    -0.214 S  
HETATM   19  O   UNL     1     -10.947   5.502  71.055  1.00  0.00    -0.222 OA 
HETATM   20  O   UNL     1      -8.950   5.620  72.588  1.00  0.00    -0.132 OA 
HETATM   21  C   UNL     1     -11.006   4.202  73.350  1.00  0.00    -0.259 C  
ENDBRANCH  16  18
ENDBRANCH  13  16
ENDBRANCH   7  10
ENDBRANCH   6   7
ENDBRANCH   4   6
ENDBRANCH   2   4
TORSDOF 6
ENDMDL
MODEL       33
REMARK 921   NORMALIZED FREE ENERGY PREDICTED BY IDOCK:   -4.71 KCAL/MOL
REMARK 922        TOTAL FREE ENERGY PREDICTED BY IDOCK:   -7.01 KCAL/MOL
REMARK 923 INTER-LIGAND FREE ENERGY PREDICTED BY IDOCK:   -6.07 KCAL/MOL
REMARK 924 INTRA-LIGAND FREE ENERGY PREDICTED BY IDOCK:   -0.94 KCAL/MOL
REMARK 927      BINDING AFFINITY PREDICTED BY RF-SCORE:    0.00 PKD
ROOT
HETATM    1  C   UNL     1     -10.283  10.790  64.235  1.00  0.00    -0.422 C  
HETATM    2  C   UNL     1     -10.650  12.071  63.488  1.00  0.00    -0.465 C  
HETATM    3  C   UNL     1     -12.170  12.248  63.487  1.00  0.00    -0.669 C  
ENDROOT
BRANCH   2   4
HETATM    4  N   UNL     1      -9.961  13.204  64.126  1.00  0.00    -0.729 NA 
HETATM    5  H   UNL     1      -9.518  13.805  63.430  1.00  0.00     0.000 HD 
BRANCH   4   6
HETATM    6  C   UNL     1     -10.852  13.975  65.004  1.00  0.00    -0.392 C  
BRANCH   6   7
HETATM    7  C   UNL     1     -10.371  14.061  66.475  1.00  0.00    -0.285 C  
HETATM    8  H   UNL     1     -10.899  15.072  68.061  1.00  0.00     0.000 HD 
HETATM    9  O   UNL     1     -11.193  15.019  67.160  1.00  0.00    -0.331 OA 
BRANCH   7  10
HETATM   10  C   UNL     1     -10.422  12.730  67.221  1.00  0.00    -0.238 A  
HETATM   11  C   UNL     1     -11.625  12.068  67.516  1.00  0.00    -0.401 A  
HETATM   12  C   UNL     1     -11.634  10.862  68.219  1.00  0.00    -0.335 A  
HETATM   13  C   UNL     1     -10.438  10.303  68.651  1.00  0.00    -0.193 A  
HETATM   14  C   UNL     1      -9.221  12.128  67.635  1.00  0.00    -0.181 A  
HETATM   15  C   UNL     1      -9.227  10.919  68.343  1.00  0.00    -0.168 A  
BRANCH  13  16
HETATM   16  N   UNL     1     -10.478   9.084  69.385  1.00  0.00    -0.220 N  
HETATM   17  H   UNL     1     -10.726   9.073  70.375  1.00  0.00     0.000 HD 
BRANCH  16  18
HETATM   18  S   UNL     1     -10.100   7.656  68.566  1.00  0.00    -0.193 S  
HETATM   19  O   UNL     1     -10.576   7.723  67.205  1.00  0.00    -0.321 OA 
HETATM   20  O   UNL     1      -8.704   7.406  68.861  1.00  0.00    -0.132 OA 
HETATM   21  C   UNL     1     -11.059   6.455  69.467  1.00  0.00    -0.396 C  
ENDBRANCH  16  18
ENDBRANCH  13  16
ENDBRANCH   7  10
ENDBRANCH   6   7
ENDBRANCH   4   6
ENDBRANCH   2   4
TORSDOF 6
ENDMDL
MODEL       34
REMARK 921   NORMALIZED FREE ENERGY PREDICTED BY IDOCK:   -4.71 KCAL/MOL
REMARK 922        TOTAL FREE ENERGY PREDICTED BY IDOCK:   -7.01 KCAL/MOL
REMARK 923 INTER-LIGAND FREE ENERGY PREDICTED BY IDOCK:   -6.35 KCAL/MOL
REMARK 924 INTRA-LIGAND FREE ENERGY PREDICTED BY IDOCK:   -0.66 KCAL/MOL
REMARK 927      BINDING AFFINITY PREDICTED BY RF-SCORE:    0.00 PKD
ROOT
HETATM    1  C   UNL     1     -10.301  12.164  64.955  1.00  0.00    -0.320 C  
HETATM    2  C   UNL     1     -11.181  13.409  64.857  1.00  0.00    -0.331 C  
HETATM    3  C   UNL     1     -12.654  13.006  64.965  1.00  0.00    -0.515 C  
ENDROOT
BRANCH   2   4
HETATM    4  N   UNL     1     -10.785  14.353  65.913  1.00  0.00    -0.297 NA 
HETATM    5  H   UNL     1     -10.480  15.242  65.517  1.00  0.00     0.000 HD 
BRANCH   4   6
HETATM    6  C   UNL     1     -11.848  14.552  66.909  1.00  0.00    -0.377 C  
BRANCH   6   7
HETATM    7  C   UNL     1     -11.355  14.505  68.378  1.00  0.00    -0.289 C  
HETATM    8  H   UNL     1     -11.645  15.578  69.984  1.00  0.00     0.000 HD 
HETATM    9  O   UNL     1     -11.946  15.607  69.084  1.00  0.00    -0.368 OA 
BRANCH   7  10
HETATM   10  C   UNL     1     -11.692  13.204  69.102  1.00  0.00    -0.376 A  
HETATM   11  C   UNL     1     -12.169  13.169  70.424  1.00  0.00    -0.389 A  
HETATM   12  C   UNL     1     -12.446  11.960  71.061  1.00  0.00    -0.390 A  
HETATM   13  C   UNL     1     -12.239  10.760  70.392  1.00  0.00    -0.349 A  
HETATM   14  C   UNL     1     -11.526  11.980  68.431  1.00  0.00    -0.356 A  
HETATM   15  C   UNL     1     -11.801  10.765  69.070  1.00  0.00    -0.325 A  
BRANCH  13  16
HETATM   16  N   UNL     1     -12.510   9.540  71.074  1.00  0.00    -0.415 N  
HETATM   17  H   UNL     1     -13.467   9.241  71.260  1.00  0.00     0.000 HD 
BRANCH  16  18
HETATM   18  S   UNL     1     -11.193   8.602  71.565  1.00  0.00    -0.316 S  
HETATM   19  O   UNL     1      -9.978   9.378  71.500  1.00  0.00    -0.266 OA 
HETATM   20  O   UNL     1     -11.616   7.972  72.800  1.00  0.00    -0.405 OA 
HETATM   21  C   UNL     1     -11.156   7.341  70.308  1.00  0.00    -0.266 C  
ENDBRANCH  16  18
ENDBRANCH  13  16
ENDBRANCH   7  10
ENDBRANCH   6   7
ENDBRANCH   4   6
ENDBRANCH   2   4
TORSDOF 6
ENDMDL
MODEL       35
REMARK 921   NORMALIZED FREE ENERGY PREDICTED BY IDOCK:   -4.71 KCAL/MOL
REMARK 922        TOTAL FREE ENERGY PREDICTED BY IDOCK:   -7.00 KCAL/MOL
REMARK 923 INTER-LIGAND FREE ENERGY PREDICTED BY IDOCK:   -6.75 KCAL/MOL
REMARK 924 INTRA-LIGAND FREE ENERGY PREDICTED BY IDOCK:   -0.25 KCAL/MOL
REMARK 927      BINDING AFFINITY PREDICTED BY RF-SCORE:    0.00 PKD
ROOT
HETATM    1  C   UNL     1     -11.950  14.235  64.786  1.00  0.00    -0.449 C  
HETATM    2  C   UNL     1     -12.566  12.840  64.872  1.00  0.00    -0.470 C  
HETATM    3  C   UNL     1     -12.402  12.123  63.530  1.00  0.00    -0.682 C  
ENDROOT
BRANCH   2   4
HETATM    4  N   UNL     1     -11.924  12.107  65.974  1.00  0.00    -0.585 NA 
HETATM    5  H   UNL     1     -10.987  11.799  65.715  1.00  0.00     0.000 HD 
BRANCH   4   6
HETATM    6  C   UNL     1     -11.902  12.884  67.222  1.00  0.00    -0.356 C  
BRANCH   6   7
HETATM    7  C   UNL     1     -10.661  12.619  68.111  1.00  0.00    -0.228 C  
HETATM    8  H   UNL     1      -9.559  13.679  69.326  1.00  0.00     0.000 HD 
HETATM    9  O   UNL     1     -10.320  13.841  68.782  1.00  0.00    -0.237 OA 
BRANCH   7  10
HETATM   10  C   UNL     1     -10.866  11.516  69.147  1.00  0.00    -0.241 A  
HETATM   11  C   UNL     1      -9.951  10.467  69.335  1.00  0.00    -0.240 A  
HETATM   12  C   UNL     1     -10.183   9.464  70.277  1.00  0.00    -0.295 A  
HETATM   13  C   UNL     1     -11.342   9.487  71.042  1.00  0.00    -0.352 A  
HETATM   14  C   UNL     1     -12.015  11.540  69.958  1.00  0.00    -0.435 A  
HETATM   15  C   UNL     1     -12.250  10.534  70.903  1.00  0.00    -0.490 A  
BRANCH  13  16
HETATM   16  N   UNL     1     -11.563   8.440  71.981  1.00  0.00    -0.325 N  
HETATM   17  H   UNL     1     -11.280   8.538  72.956  1.00  0.00     0.000 HD 
BRANCH  16  18
HETATM   18  S   UNL     1     -12.309   7.029  71.428  1.00  0.00    -0.382 S  
HETATM   19  O   UNL     1     -11.954   6.785  70.050  1.00  0.00    -0.291 OA 
HETATM   20  O   UNL     1     -12.055   6.038  72.455  1.00  0.00    -0.280 OA 
HETATM   21  C   UNL     1     -14.033   7.468  71.524  1.00  0.00    -0.410 C  
ENDBRANCH  16  18
ENDBRANCH  13  16
ENDBRANCH   7  10
ENDBRANCH   6   7
ENDBRANCH   4   6
ENDBRANCH   2   4
TORSDOF 6
ENDMDL
MODEL       36
REMARK 921   NORMALIZED FREE ENERGY PREDICTED BY IDOCK:   -4.69 KCAL/MOL
REMARK 922        TOTAL FREE ENERGY PREDICTED BY IDOCK:   -6.98 KCAL/MOL
REMARK 923 INTER-LIGAND FREE ENERGY PREDICTED BY IDOCK:   -6.57 KCAL/MOL
REMARK 924 INTRA-LIGAND FREE ENERGY PREDICTED BY IDOCK:   -0.41 KCAL/MOL
REMARK 927      BINDING AFFINITY PREDICTED BY RF-SCORE:    0.00 PKD
ROOT
HETATM    1  C   UNL     1     -11.694   8.031  72.319  1.00  0.00    -0.428 C  
HETATM    2  C   UNL     1     -12.594   7.145  71.460  1.00  0.00    -0.390 C  
HETATM    3  C   UNL     1     -14.005   7.737  71.414  1.00  0.00    -0.416 C  
ENDROOT
BRANCH   2   4
HETATM    4  N   UNL     1     -11.999   7.026  70.119  1.00  0.00    -0.614 NA 
HETATM    5  H   UNL     1     -12.686   7.227  69.392  1.00  0.00     0.000 HD 
BRANCH   4   6
HETATM    6  C   UNL     1     -10.802   7.864  69.964  1.00  0.00    -0.238 C  
BRANCH   6   7
HETATM    7  C   UNL     1     -10.218   7.874  68.529  1.00  0.00    -0.205 C  
HETATM    8  H   UNL     1     -10.555   6.891  66.876  1.00  0.00     0.000 HD 
HETATM    9  O   UNL     1     -10.913   6.885  67.755  1.00  0.00    -0.241 OA 
BRANCH   7  10
HETATM   10  C   UNL     1     -10.322   9.226  67.827  1.00  0.00    -0.292 A  
HETATM   11  C   UNL     1     -11.030  10.313  68.369  1.00  0.00    -0.308 A  
HETATM   12  C   UNL     1     -11.122  11.528  67.689  1.00  0.00    -0.324 A  
HETATM   13  C   UNL     1     -10.516  11.675  66.448  1.00  0.00    -0.244 A  
HETATM   14  C   UNL     1      -9.685   9.409  66.588  1.00  0.00    -0.280 A  
HETATM   15  C   UNL     1      -9.778  10.627  65.902  1.00  0.00    -0.273 A  
BRANCH  13  16
HETATM   16  N   UNL     1     -10.644  12.918  65.766  1.00  0.00    -0.271 N  
HETATM   17  H   UNL     1     -10.082  13.726  66.034  1.00  0.00     0.000 HD 
BRANCH  16  18
HETATM   18  S   UNL     1     -11.757  13.013  64.499  1.00  0.00    -0.394 S  
HETATM   19  O   UNL     1     -11.174  12.492  63.285  1.00  0.00    -0.452 OA 
HETATM   20  O   UNL     1     -12.989  12.469  65.034  1.00  0.00    -0.779 OA 
HETATM   21  C   UNL     1     -11.976  14.774  64.338  1.00  0.00    -0.417 C  
ENDBRANCH  16  18
ENDBRANCH  13  16
ENDBRANCH   7  10
ENDBRANCH   6   7
ENDBRANCH   4   6
ENDBRANCH   2   4
TORSDOF 6
ENDMDL
MODEL       37
REMARK 921   NORMALIZED FREE ENERGY PREDICTED BY IDOCK:   -4.68 KCAL/MOL
REMARK 922        TOTAL FREE ENERGY PREDICTED BY IDOCK:   -6.97 KCAL/MOL
REMARK 923 INTER-LIGAND FREE ENERGY PREDICTED BY IDOCK:   -6.77 KCAL/MOL
REMARK 924 INTRA-LIGAND FREE ENERGY PREDICTED BY IDOCK:   -0.21 KCAL/MOL
REMARK 927      BINDING AFFINITY PREDICTED BY RF-SCORE:    0.00 PKD
ROOT
HETATM    1  C   UNL     1      -6.189  18.594  65.362  1.00  0.00    -0.314 C  
HETATM    2  C   UNL     1      -6.563  20.032  65.714  1.00  0.00    -0.244 C  
HETATM    3  C   UNL     1      -6.145  20.965  64.575  1.00  0.00    -0.326 C  
ENDROOT
BRANCH   2   4
HETATM    4  N   UNL     1      -8.010  20.093  65.977  1.00  0.00    -0.515 NA 
HETATM    5  H   UNL     1      -8.534  19.561  65.282  1.00  0.00     0.000 HD 
BRANCH   4   6
HETATM    6  C   UNL     1      -8.347  19.660  67.341  1.00  0.00    -0.300 C  
BRANCH   6   7
HETATM    7  C   UNL     1      -9.737  18.986  67.466  1.00  0.00    -0.314 C  
HETATM    8  H   UNL     1     -11.583  19.514  67.110  1.00  0.00     0.000 HD 
HETATM    9  O   UNL     1     -10.731  19.927  67.034  1.00  0.00    -0.450 OA 
BRANCH   7  10
HETATM   10  C   UNL     1      -9.876  17.699  66.656  1.00  0.00    -0.309 A  
HETATM   11  C   UNL     1     -10.782  17.564  65.591  1.00  0.00    -0.089 A  
HETATM   12  C   UNL     1     -10.897  16.364  64.887  1.00  0.00    -0.268 A  
HETATM   13  C   UNL     1     -10.114  15.274  65.243  1.00  0.00    -0.327 A  
HETATM   14  C   UNL     1      -9.066  16.595  66.975  1.00  0.00    -0.232 A  
HETATM   15  C   UNL     1      -9.181  15.390  66.271  1.00  0.00    -0.354 A  
BRANCH  13  16
HETATM   16  N   UNL     1     -10.267  14.056  64.522  1.00  0.00    -0.661 N  
HETATM   17  H   UNL     1      -9.471  13.612  64.062  1.00  0.00     0.000 HD 
BRANCH  16  18
HETATM   18  S   UNL     1     -11.809  13.369  64.451  1.00  0.00    -0.429 S  
HETATM   19  O   UNL     1     -12.557  13.937  63.355  1.00  0.00    -0.853 OA 
HETATM   20  O   UNL     1     -11.592  11.940  64.551  1.00  0.00    -0.322 OA 
HETATM   21  C   UNL     1     -12.519  13.910  65.993  1.00  0.00    -0.461 C  
ENDBRANCH  16  18
ENDBRANCH  13  16
ENDBRANCH   7  10
ENDBRANCH   6   7
ENDBRANCH   4   6
ENDBRANCH   2   4
TORSDOF 6
ENDMDL
MODEL       38
REMARK 921   NORMALIZED FREE ENERGY PREDICTED BY IDOCK:   -4.66 KCAL/MOL
REMARK 922        TOTAL FREE ENERGY PREDICTED BY IDOCK:   -6.94 KCAL/MOL
REMARK 923 INTER-LIGAND FREE ENERGY PREDICTED BY IDOCK:   -6.59 KCAL/MOL
REMARK 924 INTRA-LIGAND FREE ENERGY PREDICTED BY IDOCK:   -0.35 KCAL/MOL
REMARK 927      BINDING AFFINITY PREDICTED BY RF-SCORE:    0.00 PKD
ROOT
HETATM    1  C   UNL     1     -10.742   7.000  68.135  1.00  0.00    -0.242 C  
HETATM    2  C   UNL     1     -11.279   6.132  69.271  1.00  0.00    -0.367 C  
HETATM    3  C   UNL     1     -10.110   5.543  70.064  1.00  0.00    -0.311 C  
ENDROOT
BRANCH   2   4
HETATM    4  N   UNL     1     -12.164   6.950  70.114  1.00  0.00    -0.623 NA 
HETATM    5  H   UNL     1     -13.145   6.786  69.886  1.00  0.00     0.000 HD 
BRANCH   4   6
HETATM    6  C   UNL     1     -11.912   6.749  71.548  1.00  0.00    -0.350 C  
BRANCH   6   7
HETATM    7  C   UNL     1     -11.693   8.061  72.342  1.00  0.00    -0.386 C  
HETATM    8  H   UNL     1     -10.294   8.776  73.503  1.00  0.00     0.000 HD 
HETATM    9  O   UNL     1     -10.429   7.972  73.017  1.00  0.00    -0.342 OA 
BRANCH   7  10
HETATM   10  C   UNL     1     -11.713   9.319  71.477  1.00  0.00    -0.450 A  
HETATM   11  C   UNL     1     -12.786  10.227  71.477  1.00  0.00    -0.557 A  
HETATM   12  C   UNL     1     -12.780  11.355  70.657  1.00  0.00    -0.282 A  
HETATM   13  C   UNL     1     -11.703  11.591  69.811  1.00  0.00    -0.353 A  
HETATM   14  C   UNL     1     -10.617   9.597  70.641  1.00  0.00    -0.386 A  
HETATM   15  C   UNL     1     -10.610  10.728  69.815  1.00  0.00    -0.191 A  
BRANCH  13  16
HETATM   16  N   UNL     1     -11.733  12.738  68.968  1.00  0.00    -0.308 N  
HETATM   17  H   UNL     1     -11.981  13.656  69.337  1.00  0.00     0.000 HD 
BRANCH  16  18
HETATM   18  S   UNL     1     -11.343  12.531  67.338  1.00  0.00    -0.334 S  
HETATM   19  O   UNL     1      -9.951  12.845  67.115  1.00  0.00    -0.233 OA 
HETATM   20  O   UNL     1     -11.886  11.237  66.979  1.00  0.00    -0.484 OA 
HETATM   21  C   UNL     1     -12.358  13.771  66.561  1.00  0.00    -0.386 C  
ENDBRANCH  16  18
ENDBRANCH  13  16
ENDBRANCH   7  10
ENDBRANCH   6   7
ENDBRANCH   4   6
ENDBRANCH   2   4
TORSDOF 6
ENDMDL
MODEL       39
REMARK 921   NORMALIZED FREE ENERGY PREDICTED BY IDOCK:   -4.64 KCAL/MOL
REMARK 922        TOTAL FREE ENERGY PREDICTED BY IDOCK:   -6.91 KCAL/MOL
REMARK 923 INTER-LIGAND FREE ENERGY PREDICTED BY IDOCK:   -6.42 KCAL/MOL
REMARK 924 INTRA-LIGAND FREE ENERGY PREDICTED BY IDOCK:   -0.50 KCAL/MOL
REMARK 927      BINDING AFFINITY PREDICTED BY RF-SCORE:    0.00 PKD
ROOT
HETATM    1  C   UNL     1     -12.590  11.976  63.471  1.00  0.00    -0.625 C  
HETATM    2  C   UNL     1     -11.579  12.094  64.610  1.00  0.00    -0.328 C  
HETATM    3  C   UNL     1     -10.482  13.089  64.223  1.00  0.00    -0.424 C  
ENDROOT
BRANCH   2   4
HETATM    4  N   UNL     1     -12.290  12.501  65.833  1.00  0.00    -0.603 NA 
HETATM    5  H   UNL     1     -11.952  11.984  66.645  1.00  0.00     0.000 HD 
BRANCH   4   6
HETATM    6  C   UNL     1     -12.222  13.951  66.061  1.00  0.00    -0.462 C  
BRANCH   6   7
HETATM    7  C   UNL     1     -11.564  14.351  67.406  1.00  0.00    -0.375 C  
HETATM    8  H   UNL     1     -10.203  13.584  68.578  1.00  0.00     0.000 HD 
HETATM    9  O   UNL     1     -10.607  13.339  67.754  1.00  0.00    -0.235 OA 
BRANCH   7  10
HETATM   10  C   UNL     1     -10.871  15.711  67.376  1.00  0.00    -0.315 A  
HETATM   11  C   UNL     1     -10.377  16.288  66.194  1.00  0.00    -0.352 A  
HETATM   12  C   UNL     1      -9.730  17.525  66.209  1.00  0.00    -0.271 A  
HETATM   13  C   UNL     1      -9.555  18.201  67.409  1.00  0.00    -0.275 A  
HETATM   14  C   UNL     1     -10.716  16.430  68.574  1.00  0.00    -0.320 A  
HETATM   15  C   UNL     1     -10.065  17.670  68.591  1.00  0.00    -0.377 A  
BRANCH  13  16
HETATM   16  N   UNL     1      -8.871  19.450  67.398  1.00  0.00    -0.295 N  
HETATM   17  H   UNL     1      -9.294  20.278  66.977  1.00  0.00     0.000 HD 
BRANCH  16  18
HETATM   18  S   UNL     1      -7.338  19.518  68.103  1.00  0.00    -0.308 S  
HETATM   19  O   UNL     1      -7.455  19.653  69.535  1.00  0.00    -0.275 OA 
HETATM   20  O   UNL     1      -6.599  18.421  67.511  1.00  0.00    -0.192 OA 
HETATM   21  C   UNL     1      -6.690  21.030  67.419  1.00  0.00    -0.383 C  
ENDBRANCH  16  18
ENDBRANCH  13  16
ENDBRANCH   7  10
ENDBRANCH   6   7
ENDBRANCH   4   6
ENDBRANCH   2   4
TORSDOF 6
ENDMDL
MODEL       40
REMARK 921   NORMALIZED FREE ENERGY PREDICTED BY IDOCK:   -4.62 KCAL/MOL
REMARK 922        TOTAL FREE ENERGY PREDICTED BY IDOCK:   -6.89 KCAL/MOL
REMARK 923 INTER-LIGAND FREE ENERGY PREDICTED BY IDOCK:   -6.15 KCAL/MOL
REMARK 924 INTRA-LIGAND FREE ENERGY PREDICTED BY IDOCK:   -0.74 KCAL/MOL
REMARK 927      BINDING AFFINITY PREDICTED BY RF-SCORE:    0.00 PKD
ROOT
HETATM    1  C   UNL     1     -12.205  11.746  63.583  1.00  0.00    -0.489 C  
HETATM    2  C   UNL     1     -11.289  12.960  63.451  1.00  0.00    -0.259 C  
HETATM    3  C   UNL     1     -11.963  14.183  64.077  1.00  0.00    -0.359 C  
ENDROOT
BRANCH   2   4
HETATM    4  N   UNL     1     -10.000  12.651  64.089  1.00  0.00    -0.609 NA 
HETATM    5  H   UNL     1      -9.725  13.386  64.741  1.00  0.00     0.000 HD 
BRANCH   4   6
HETATM    6  C   UNL     1     -10.003  11.335  64.744  1.00  0.00    -0.277 C  
BRANCH   6   7
HETATM    7  C   UNL     1      -9.630  11.375  66.247  1.00  0.00    -0.213 C  
HETATM    8  H   UNL     1      -7.980  11.575  67.273  1.00  0.00     0.000 HD 
HETATM    9  O   UNL     1      -8.209  11.551  66.352  1.00  0.00    -0.161 OA 
BRANCH   7  10
HETATM   10  C   UNL     1     -10.333  12.481  67.030  1.00  0.00    -0.236 A  
HETATM   11  C   UNL     1      -9.650  13.586  67.567  1.00  0.00    -0.221 A  
HETATM   12  C   UNL     1     -10.323  14.567  68.296  1.00  0.00    -0.236 A  
HETATM   13  C   UNL     1     -11.691  14.455  68.512  1.00  0.00    -0.335 A  
HETATM   14  C   UNL     1     -11.723  12.406  67.228  1.00  0.00    -0.419 A  
HETATM   15  C   UNL     1     -12.399  13.389  67.962  1.00  0.00     0.061 A  
BRANCH  13  16
HETATM   16  N   UNL     1     -12.348  15.459  69.278  1.00  0.00    -0.606 N  
HETATM   17  H   UNL     1     -12.557  16.374  68.877  1.00  0.00     0.000 HD 
BRANCH  16  18
HETATM   18  S   UNL     1     -12.770  15.088  70.871  1.00  0.00    -0.406 S  
HETATM   19  O   UNL     1     -14.135  15.480  71.128  1.00  0.00    -0.537 OA 
HETATM   20  O   UNL     1     -12.332  13.721  71.070  1.00  0.00    -0.355 OA 
HETATM   21  C   UNL     1     -11.670  16.142  71.794  1.00  0.00    -0.488 C  
ENDBRANCH  16  18
ENDBRANCH  13  16
ENDBRANCH   7  10
ENDBRANCH   6   7
ENDBRANCH   4   6
ENDBRANCH   2   4
TORSDOF 6
ENDMDL
MODEL       41
REMARK 921   NORMALIZED FREE ENERGY PREDICTED BY IDOCK:   -4.62 KCAL/MOL
REMARK 922        TOTAL FREE ENERGY PREDICTED BY IDOCK:   -6.89 KCAL/MOL
REMARK 923 INTER-LIGAND FREE ENERGY PREDICTED BY IDOCK:   -6.56 KCAL/MOL
REMARK 924 INTRA-LIGAND FREE ENERGY PREDICTED BY IDOCK:   -0.33 KCAL/MOL
REMARK 927      BINDING AFFINITY PREDICTED BY RF-SCORE:    0.00 PKD
ROOT
HETATM    1  C   UNL     1     -11.404  10.597  68.976  1.00  0.00    -0.340 C  
HETATM    2  C   UNL     1     -10.812  11.455  67.860  1.00  0.00    -0.225 C  
HETATM    3  C   UNL     1      -9.714  10.671  67.136  1.00  0.00    -0.199 C  
ENDROOT
BRANCH   2   4
HETATM    4  N   UNL     1     -11.895  11.861  66.951  1.00  0.00    -0.610 NA 
HETATM    5  H   UNL     1     -12.474  12.589  67.370  1.00  0.00     0.000 HD 
BRANCH   4   6
HETATM    6  C   UNL     1     -11.391  12.276  65.634  1.00  0.00    -0.350 C  
BRANCH   6   7
HETATM    7  C   UNL     1     -11.769  13.726  65.239  1.00  0.00    -0.338 C  
HETATM    8  H   UNL     1     -13.431  14.731  65.034  1.00  0.00     0.000 HD 
HETATM    9  O   UNL     1     -13.199  13.842  65.276  1.00  0.00    -0.774 OA 
BRANCH   7  10
HETATM   10  C   UNL     1     -11.154  14.793  66.142  1.00  0.00    -0.339 A  
HETATM   11  C   UNL     1     -11.633  15.064  67.435  1.00  0.00    -0.304 A  
HETATM   12  C   UNL     1     -11.060  16.062  68.225  1.00  0.00    -0.351 A  
HETATM   13  C   UNL     1     -10.003  16.816  67.729  1.00  0.00    -0.268 A  
HETATM   14  C   UNL     1     -10.061  15.543  65.675  1.00  0.00    -0.406 A  
HETATM   15  C   UNL     1      -9.485  16.547  66.465  1.00  0.00    -0.296 A  
BRANCH  13  16
HETATM   16  N   UNL     1      -9.452  17.843  68.547  1.00  0.00    -0.305 N  
HETATM   17  H   UNL     1      -8.759  17.629  69.265  1.00  0.00     0.000 HD 
BRANCH  16  18
HETATM   18  S   UNL     1      -9.981  19.427  68.291  1.00  0.00    -0.445 S  
HETATM   19  O   UNL     1     -11.058  19.442  67.330  1.00  0.00    -0.445 OA 
HETATM   20  O   UNL     1     -10.150  19.989  69.616  1.00  0.00    -0.228 OA 
HETATM   21  C   UNL     1      -8.537  20.180  67.570  1.00  0.00    -0.336 C  
ENDBRANCH  16  18
ENDBRANCH  13  16
ENDBRANCH   7  10
ENDBRANCH   6   7
ENDBRANCH   4   6
ENDBRANCH   2   4
TORSDOF 6
ENDMDL
MODEL       42
REMARK 921   NORMALIZED FREE ENERGY PREDICTED BY IDOCK:   -4.62 KCAL/MOL
REMARK 922        TOTAL FREE ENERGY PREDICTED BY IDOCK:   -6.89 KCAL/MOL
REMARK 923 INTER-LIGAND FREE ENERGY PREDICTED BY IDOCK:   -6.47 KCAL/MOL
REMARK 924 INTRA-LIGAND FREE ENERGY PREDICTED BY IDOCK:   -0.42 KCAL/MOL
REMARK 927      BINDING AFFINITY PREDICTED BY RF-SCORE:    0.00 PKD
ROOT
HETATM    1  C   UNL     1     -10.650  19.305  65.803  1.00  0.00    -0.450 C  
HETATM    2  C   UNL     1     -10.279  17.823  65.804  1.00  0.00    -0.136 C  
HETATM    3  C   UNL     1     -10.501  17.238  67.201  1.00  0.00    -0.297 C  
ENDROOT
BRANCH   2   4
HETATM    4  N   UNL     1     -11.082  17.135  64.781  1.00  0.00    -0.925 NA 
HETATM    5  H   UNL     1     -10.965  17.570  63.866  1.00  0.00     0.000 HD 
BRANCH   4   6
HETATM    6  C   UNL     1     -10.796  15.694  64.724  1.00  0.00    -0.355 C  
BRANCH   6   7
HETATM    7  C   UNL     1     -12.030  14.793  64.984  1.00  0.00    -0.318 C  
HETATM    8  H   UNL     1     -13.269  13.766  63.877  1.00  0.00     0.000 HD 
HETATM    9  O   UNL     1     -12.513  14.318  63.718  1.00  0.00    -0.810 OA 
BRANCH   7  10
HETATM   10  C   UNL     1     -11.744  13.600  65.893  1.00  0.00    -0.378 A  
HETATM   11  C   UNL     1     -11.319  12.353  65.402  1.00  0.00    -0.379 A  
HETATM   12  C   UNL     1     -11.088  11.278  66.262  1.00  0.00    -0.229 A  
HETATM   13  C   UNL     1     -11.289  11.428  67.628  1.00  0.00    -0.290 A  
HETATM   14  C   UNL     1     -11.905  13.740  67.282  1.00  0.00    -0.436 A  
HETATM   15  C   UNL     1     -11.676  12.661  68.146  1.00  0.00    -0.396 A  
BRANCH  13  16
HETATM   16  N   UNL     1     -11.067  10.308  68.480  1.00  0.00    -0.347 N  
HETATM   17  H   UNL     1     -11.840   9.716  68.783  1.00  0.00     0.000 HD 
BRANCH  16  18
HETATM   18  S   UNL     1      -9.482   9.993  68.971  1.00  0.00    -0.198 S  
HETATM   19  O   UNL     1      -8.961   8.846  68.265  1.00  0.00    -0.137 OA 
HETATM   20  O   UNL     1      -8.807  11.274  68.922  1.00  0.00    -0.142 OA 
HETATM   21  C   UNL     1      -9.710   9.574  70.688  1.00  0.00    -0.245 C  
ENDBRANCH  16  18
ENDBRANCH  13  16
ENDBRANCH   7  10
ENDBRANCH   6   7
ENDBRANCH   4   6
ENDBRANCH   2   4
TORSDOF 6
ENDMDL
MODEL       43
REMARK 921   NORMALIZED FREE ENERGY PREDICTED BY IDOCK:   -4.61 KCAL/MOL
REMARK 922        TOTAL FREE ENERGY PREDICTED BY IDOCK:   -6.87 KCAL/MOL
REMARK 923 INTER-LIGAND FREE ENERGY PREDICTED BY IDOCK:   -6.50 KCAL/MOL
REMARK 924 INTRA-LIGAND FREE ENERGY PREDICTED BY IDOCK:   -0.38 KCAL/MOL
REMARK 927      BINDING AFFINITY PREDICTED BY RF-SCORE:    0.00 PKD
ROOT
HETATM    1  C   UNL     1     -12.645  15.266  73.799  1.00  0.00    -0.736 C  
HETATM    2  C   UNL     1     -13.156  14.385  72.661  1.00  0.00    -0.476 C  
HETATM    3  C   UNL     1     -14.401  15.021  72.037  1.00  0.00    -0.666 C  
ENDROOT
BRANCH   2   4
HETATM    4  N   UNL     1     -12.075  14.206  71.680  1.00  0.00    -0.320 NA 
HETATM    5  H   UNL     1     -11.667  13.273  71.747  1.00  0.00     0.000 HD 
BRANCH   4   6
HETATM    6  C   UNL     1     -12.513  14.496  70.307  1.00  0.00    -0.348 C  
BRANCH   6   7
HETATM    7  C   UNL     1     -11.410  14.303  69.236  1.00  0.00    -0.283 C  
HETATM    8  H   UNL     1     -11.365  13.787  67.353  1.00  0.00     0.000 HD 
HETATM    9  O   UNL     1     -12.041  13.905  68.009  1.00  0.00    -0.367 OA 
BRANCH   7  10
HETATM   10  C   UNL     1     -10.565  15.550  68.986  1.00  0.00    -0.246 A  
HETATM   11  C   UNL     1     -11.125  16.796  68.658  1.00  0.00    -0.247 A  
HETATM   12  C   UNL     1     -10.320  17.910  68.416  1.00  0.00    -0.380 A  
HETATM   13  C   UNL     1      -8.937  17.794  68.486  1.00  0.00    -0.287 A  
HETATM   14  C   UNL     1      -9.166  15.464  69.089  1.00  0.00    -0.242 A  
HETATM   15  C   UNL     1      -8.356  16.580  68.844  1.00  0.00    -0.241 A  
BRANCH  13  16
HETATM   16  N   UNL     1      -8.139  18.941  68.212  1.00  0.00    -0.307 N  
HETATM   17  H   UNL     1      -7.732  19.491  68.969  1.00  0.00     0.000 HD 
BRANCH  16  18
HETATM   18  S   UNL     1      -7.889  19.361  66.595  1.00  0.00    -0.292 S  
HETATM   19  O   UNL     1      -7.549  18.189  65.824  1.00  0.00    -0.519 OA 
HETATM   20  O   UNL     1      -9.021  20.191  66.239  1.00  0.00    -0.320 OA 
HETATM   21  C   UNL     1      -6.463  20.423  66.713  1.00  0.00    -0.219 C  
ENDBRANCH  16  18
ENDBRANCH  13  16
ENDBRANCH   7  10
ENDBRANCH   6   7
ENDBRANCH   4   6
ENDBRANCH   2   4
TORSDOF 6
ENDMDL
MODEL       44
REMARK 921   NORMALIZED FREE ENERGY PREDICTED BY IDOCK:   -4.60 KCAL/MOL
REMARK 922        TOTAL FREE ENERGY PREDICTED BY IDOCK:   -6.86 KCAL/MOL
REMARK 923 INTER-LIGAND FREE ENERGY PREDICTED BY IDOCK:   -6.76 KCAL/MOL
REMARK 924 INTRA-LIGAND FREE ENERGY PREDICTED BY IDOCK:   -0.10 KCAL/MOL
REMARK 927      BINDING AFFINITY PREDICTED BY RF-SCORE:    0.00 PKD
ROOT
HETATM    1  C   UNL     1     -13.360   9.392  72.230  1.00  0.00    -0.539 C  
HETATM    2  C   UNL     1     -11.921   9.188  71.761  1.00  0.00    -0.379 C  
HETATM    3  C   UNL     1     -11.240   8.134  72.636  1.00  0.00    -0.447 C  
ENDROOT
BRANCH   2   4
HETATM    4  N   UNL     1     -11.937   8.803  70.341  1.00  0.00    -0.469 NA 
HETATM    5  H   UNL     1     -12.612   9.359  69.816  1.00  0.00     0.000 HD 
BRANCH   4   6
HETATM    6  C   UNL     1     -10.602   8.873  69.729  1.00  0.00    -0.224 C  
BRANCH   6   7
HETATM    7  C   UNL     1     -10.014  10.305  69.654  1.00  0.00    -0.207 C  
HETATM    8  H   UNL     1      -8.269  11.080  69.242  1.00  0.00     0.000 HD 
HETATM    9  O   UNL     1      -8.630  10.203  69.288  1.00  0.00    -0.151 OA 
BRANCH   7  10
HETATM   10  C   UNL     1     -10.731  11.217  68.661  1.00  0.00    -0.241 A  
HETATM   11  C   UNL     1     -10.841  10.917  67.293  1.00  0.00    -0.342 A  
HETATM   12  C   UNL     1     -11.486  11.785  66.411  1.00  0.00    -0.309 A  
HETATM   13  C   UNL     1     -12.023  12.977  66.881  1.00  0.00    -0.352 A  
HETATM   14  C   UNL     1     -11.314  12.411  69.122  1.00  0.00    -0.327 A  
HETATM   15  C   UNL     1     -11.960  13.285  68.238  1.00  0.00    -0.338 A  
BRANCH  13  16
HETATM   16  N   UNL     1     -12.655  13.855  65.955  1.00  0.00    -0.458 N  
HETATM   17  H   UNL     1     -13.638  14.109  66.058  1.00  0.00     0.000 HD 
BRANCH  16  18
HETATM   18  S   UNL     1     -11.726  14.462  64.682  1.00  0.00    -0.429 S  
HETATM   19  O   UNL     1     -10.940  13.405  64.091  1.00  0.00    -0.378 OA 
HETATM   20  O   UNL     1     -12.645  15.249  63.884  1.00  0.00    -0.765 OA 
HETATM   21  C   UNL     1     -10.646  15.598  65.529  1.00  0.00    -0.404 C  
ENDBRANCH  16  18
ENDBRANCH  13  16
ENDBRANCH   7  10
ENDBRANCH   6   7
ENDBRANCH   4   6
ENDBRANCH   2   4
TORSDOF 6
ENDMDL
MODEL       45
REMARK 921   NORMALIZED FREE ENERGY PREDICTED BY IDOCK:   -4.58 KCAL/MOL
REMARK 922        TOTAL FREE ENERGY PREDICTED BY IDOCK:   -6.84 KCAL/MOL
REMARK 923 INTER-LIGAND FREE ENERGY PREDICTED BY IDOCK:   -6.42 KCAL/MOL
REMARK 924 INTRA-LIGAND FREE ENERGY PREDICTED BY IDOCK:   -0.42 KCAL/MOL
REMARK 927      BINDING AFFINITY PREDICTED BY RF-SCORE:    0.00 PKD
ROOT
HETATM    1  C   UNL     1     -10.139  10.954  64.415  1.00  0.00    -0.402 C  
HETATM    2  C   UNL     1     -10.769  12.124  63.662  1.00  0.00    -0.467 C  
HETATM    3  C   UNL     1     -12.295  12.012  63.723  1.00  0.00    -0.602 C  
ENDROOT
BRANCH   2   4
HETATM    4  N   UNL     1     -10.282  13.381  64.249  1.00  0.00    -0.706 NA 
HETATM    5  H   UNL     1     -10.756  14.187  63.841  1.00  0.00     0.000 HD 
BRANCH   4   6
HETATM    6  C   UNL     1     -10.386  13.390  65.715  1.00  0.00    -0.293 C  
BRANCH   6   7
HETATM    7  C   UNL     1     -11.244  14.549  66.282  1.00  0.00    -0.342 C  
HETATM    8  H   UNL     1     -12.632  14.725  67.645  1.00  0.00     0.000 HD 
HETATM    9  O   UNL     1     -12.106  14.015  67.298  1.00  0.00    -0.409 OA 
BRANCH   7  10
HETATM   10  C   UNL     1     -10.424  15.695  66.870  1.00  0.00    -0.307 A  
HETATM   11  C   UNL     1     -10.614  16.175  68.177  1.00  0.00    -0.290 A  
HETATM   12  C   UNL     1      -9.860  17.239  68.674  1.00  0.00    -0.313 A  
HETATM   13  C   UNL     1      -8.910  17.851  67.867  1.00  0.00    -0.260 A  
HETATM   14  C   UNL     1      -9.431  16.304  66.083  1.00  0.00    -0.373 A  
HETATM   15  C   UNL     1      -8.675  17.374  66.579  1.00  0.00    -0.290 A  
BRANCH  13  16
HETATM   16  N   UNL     1      -8.170  18.949  68.392  1.00  0.00    -0.330 N  
HETATM   17  H   UNL     1      -8.608  19.860  68.533  1.00  0.00     0.000 HD 
BRANCH  16  18
HETATM   18  S   UNL     1      -6.544  18.695  68.773  1.00  0.00    -0.273 S  
HETATM   19  O   UNL     1      -6.377  17.409  69.406  1.00  0.00    -0.232 OA 
HETATM   20  O   UNL     1      -5.814  19.041  67.571  1.00  0.00    -0.175 OA 
HETATM   21  C   UNL     1      -6.246  19.983  69.968  1.00  0.00    -0.359 C  
ENDBRANCH  16  18
ENDBRANCH  13  16
ENDBRANCH   7  10
ENDBRANCH   6   7
ENDBRANCH   4   6
ENDBRANCH   2   4
TORSDOF 6
ENDMDL
MODEL       46
REMARK 921   NORMALIZED FREE ENERGY PREDICTED BY IDOCK:   -4.57 KCAL/MOL
REMARK 922        TOTAL FREE ENERGY PREDICTED BY IDOCK:   -6.82 KCAL/MOL
REMARK 923 INTER-LIGAND FREE ENERGY PREDICTED BY IDOCK:   -6.08 KCAL/MOL
REMARK 924 INTRA-LIGAND FREE ENERGY PREDICTED BY IDOCK:   -0.75 KCAL/MOL
REMARK 927      BINDING AFFINITY PREDICTED BY RF-SCORE:    0.00 PKD
ROOT
HETATM    1  C   UNL     1     -12.826  12.039  63.550  1.00  0.00    -0.472 C  
HETATM    2  C   UNL     1     -11.798  13.165  63.457  1.00  0.00    -0.476 C  
HETATM    3  C   UNL     1     -12.105  14.230  64.512  1.00  0.00    -0.499 C  
ENDROOT
BRANCH   2   4
HETATM    4  N   UNL     1     -10.453  12.591  63.623  1.00  0.00    -0.419 NA 
HETATM    5  H   UNL     1      -9.966  13.017  64.412  1.00  0.00     0.000 HD 
BRANCH   4   6
HETATM    6  C   UNL     1     -10.483  11.126  63.746  1.00  0.00    -0.381 C  
BRANCH   6   7
HETATM    7  C   UNL     1      -9.852  10.588  65.054  1.00  0.00    -0.306 C  
HETATM    8  H   UNL     1      -8.054  10.096  65.640  1.00  0.00     0.000 HD 
HETATM    9  O   UNL     1      -8.442  10.426  64.839  1.00  0.00    -0.170 OA 
BRANCH   7  10
HETATM   10  C   UNL     1     -10.075  11.489  66.266  1.00  0.00    -0.261 A  
HETATM   11  C   UNL     1     -11.316  11.599  66.916  1.00  0.00    -0.364 A  
HETATM   12  C   UNL     1     -11.489  12.450  68.008  1.00  0.00    -0.377 A  
HETATM   13  C   UNL     1     -10.424  13.217  68.464  1.00  0.00    -0.250 A  
HETATM   14  C   UNL     1      -9.001  12.246  66.767  1.00  0.00    -0.209 A  
HETATM   15  C   UNL     1      -9.173  13.103  67.862  1.00  0.00    -0.207 A  
BRANCH  13  16
HETATM   16  N   UNL     1     -10.634  14.093  69.566  1.00  0.00    -0.443 N  
HETATM   17  H   UNL     1     -10.669  13.738  70.522  1.00  0.00     0.000 HD 
BRANCH  16  18
HETATM   18  S   UNL     1     -10.822  15.740  69.241  1.00  0.00    -0.281 S  
HETATM   19  O   UNL     1     -11.515  15.924  67.989  1.00  0.00    -0.328 OA 
HETATM   20  O   UNL     1     -11.329  16.314  70.471  1.00  0.00    -0.378 OA 
HETATM   21  C   UNL     1      -9.130  16.271  69.062  1.00  0.00    -0.255 C  
ENDBRANCH  16  18
ENDBRANCH  13  16
ENDBRANCH   7  10
ENDBRANCH   6   7
ENDBRANCH   4   6
ENDBRANCH   2   4
TORSDOF 6
ENDMDL
MODEL       47
REMARK 921   NORMALIZED FREE ENERGY PREDICTED BY IDOCK:   -4.57 KCAL/MOL
REMARK 922        TOTAL FREE ENERGY PREDICTED BY IDOCK:   -6.82 KCAL/MOL
REMARK 923 INTER-LIGAND FREE ENERGY PREDICTED BY IDOCK:   -6.42 KCAL/MOL
REMARK 924 INTRA-LIGAND FREE ENERGY PREDICTED BY IDOCK:   -0.40 KCAL/MOL
REMARK 927      BINDING AFFINITY PREDICTED BY RF-SCORE:    0.00 PKD
ROOT
HETATM    1  C   UNL     1     -10.572  16.338  65.687  1.00  0.00    -0.360 C  
HETATM    2  C   UNL     1      -9.475  15.276  65.629  1.00  0.00    -0.205 C  
HETATM    3  C   UNL     1      -8.813  15.145  67.003  1.00  0.00    -0.258 C  
ENDROOT
BRANCH   2   4
HETATM    4  N   UNL     1     -10.069  14.008  65.177  1.00  0.00    -0.544 NA 
HETATM    5  H   UNL     1      -9.753  13.227  65.752  1.00  0.00     0.000 HD 
BRANCH   4   6
HETATM    6  C   UNL     1     -11.537  14.068  65.122  1.00  0.00    -0.342 C  
BRANCH   6   7
HETATM    7  C   UNL     1     -12.246  13.108  66.110  1.00  0.00    -0.385 C  
HETATM    8  H   UNL     1     -12.153  11.199  66.515  1.00  0.00     0.000 HD 
HETATM    9  O   UNL     1     -11.718  11.788  65.910  1.00  0.00    -0.397 OA 
BRANCH   7  10
HETATM   10  C   UNL     1     -12.084  13.498  67.577  1.00  0.00    -0.340 A  
HETATM   11  C   UNL     1     -11.744  12.572  68.578  1.00  0.00    -0.369 A  
HETATM   12  C   UNL     1     -11.625  12.962  69.913  1.00  0.00    -0.246 A  
HETATM   13  C   UNL     1     -11.856  14.284  70.273  1.00  0.00    -0.307 A  
HETATM   14  C   UNL     1     -12.276  14.838  67.957  1.00  0.00    -0.028 A  
HETATM   15  C   UNL     1     -12.159  15.230  69.297  1.00  0.00    -0.280 A  
BRANCH  13  16
HETATM   16  N   UNL     1     -11.749  14.648  71.645  1.00  0.00    -0.450 N  
HETATM   17  H   UNL     1     -10.903  15.088  72.009  1.00  0.00     0.000 HD 
BRANCH  16  18
HETATM   18  S   UNL     1     -13.068  14.330  72.651  1.00  0.00    -0.472 S  
HETATM   19  O   UNL     1     -13.706  13.097  72.260  1.00  0.00    -0.550 OA 
HETATM   20  O   UNL     1     -12.572  14.524  73.999  1.00  0.00    -0.414 OA 
HETATM   21  C   UNL     1     -14.148  15.698  72.278  1.00  0.00    -0.475 C  
ENDBRANCH  16  18
ENDBRANCH  13  16
ENDBRANCH   7  10
ENDBRANCH   6   7
ENDBRANCH   4   6
ENDBRANCH   2   4
TORSDOF 6
ENDMDL
MODEL       48
REMARK 921   NORMALIZED FREE ENERGY PREDICTED BY IDOCK:   -4.57 KCAL/MOL
REMARK 922        TOTAL FREE ENERGY PREDICTED BY IDOCK:   -6.82 KCAL/MOL
REMARK 923 INTER-LIGAND FREE ENERGY PREDICTED BY IDOCK:   -6.39 KCAL/MOL
REMARK 924 INTRA-LIGAND FREE ENERGY PREDICTED BY IDOCK:   -0.42 KCAL/MOL
REMARK 927      BINDING AFFINITY PREDICTED BY RF-SCORE:    0.00 PKD
ROOT
HETATM    1  C   UNL     1     -10.842   6.031  71.022  1.00  0.00    -0.345 C  
HETATM    2  C   UNL     1     -11.634   7.262  71.461  1.00  0.00    -0.275 C  
HETATM    3  C   UNL     1     -11.159   7.712  72.844  1.00  0.00    -0.448 C  
ENDROOT
BRANCH   2   4
HETATM    4  N   UNL     1     -11.468   8.316  70.447  1.00  0.00    -0.433 NA 
HETATM    5  H   UNL     1     -12.216   8.282  69.755  1.00  0.00     0.000 HD 
BRANCH   4   6
HETATM    6  C   UNL     1     -11.360   9.653  71.047  1.00  0.00    -0.374 C  
BRANCH   6   7
HETATM    7  C   UNL     1     -12.636  10.519  70.897  1.00  0.00    -0.398 C  
HETATM    8  H   UNL     1     -13.974  11.259  72.113  1.00  0.00     0.000 HD 
HETATM    9  O   UNL     1     -13.192  10.729  72.204  1.00  0.00    -0.473 OA 
BRANCH   7  10
HETATM   10  C   UNL     1     -12.392  11.871  70.231  1.00  0.00    -0.287 A  
HETATM   11  C   UNL     1     -12.620  13.094  70.885  1.00  0.00    -0.377 A  
HETATM   12  C   UNL     1     -12.406  14.311  70.237  1.00  0.00    -0.418 A  
HETATM   13  C   UNL     1     -11.971  14.327  68.917  1.00  0.00    -0.320 A  
HETATM   14  C   UNL     1     -11.917  11.910  68.909  1.00  0.00    -0.313 A  
HETATM   15  C   UNL     1     -11.704  13.131  68.256  1.00  0.00    -0.384 A  
BRANCH  13  16
HETATM   16  N   UNL     1     -11.783  15.583  68.274  1.00  0.00    -0.422 N  
HETATM   17  H   UNL     1     -12.572  16.101  67.888  1.00  0.00     0.000 HD 
BRANCH  16  18
HETATM   18  S   UNL     1     -10.209  16.188  68.170  1.00  0.00    -0.255 S  
HETATM   19  O   UNL     1      -9.519  16.000  69.424  1.00  0.00    -0.250 OA 
HETATM   20  O   UNL     1      -9.677  15.652  66.933  1.00  0.00    -0.222 OA 
HETATM   21  C   UNL     1     -10.504  17.927  67.914  1.00  0.00    -0.396 C  
ENDBRANCH  16  18
ENDBRANCH  13  16
ENDBRANCH   7  10
ENDBRANCH   6   7
ENDBRANCH   4   6
ENDBRANCH   2   4
TORSDOF 6
ENDMDL
MODEL       49
REMARK 921   NORMALIZED FREE ENERGY PREDICTED BY IDOCK:   -4.56 KCAL/MOL
REMARK 922        TOTAL FREE ENERGY PREDICTED BY IDOCK:   -6.80 KCAL/MOL
REMARK 923 INTER-LIGAND FREE ENERGY PREDICTED BY IDOCK:   -6.54 KCAL/MOL
REMARK 924 INTRA-LIGAND FREE ENERGY PREDICTED BY IDOCK:   -0.26 KCAL/MOL
REMARK 927      BINDING AFFINITY PREDICTED BY RF-SCORE:    0.00 PKD
ROOT
HETATM    1  C   UNL     1     -11.862   9.931  71.007  1.00  0.00    -0.463 C  
HETATM    2  C   UNL     1     -11.055  10.112  69.723  1.00  0.00    -0.279 C  
HETATM    3  C   UNL     1     -10.436   8.773  69.312  1.00  0.00    -0.228 C  
ENDROOT
BRANCH   2   4
HETATM    4  N   UNL     1     -11.940  10.656  68.681  1.00  0.00    -0.772 NA 
HETATM    5  H   UNL     1     -12.918  10.441  68.879  1.00  0.00     0.000 HD 
BRANCH   4   6
HETATM    6  C   UNL     1     -11.744  12.099  68.481  1.00  0.00    -0.330 C  
BRANCH   6   7
HETATM    7  C   UNL     1     -11.238  12.478  67.066  1.00  0.00    -0.302 C  
HETATM    8  H   UNL     1     -11.934  12.334  65.247  1.00  0.00     0.000 HD 
HETATM    9  O   UNL     1     -12.244  12.101  66.114  1.00  0.00    -0.611 OA 
BRANCH   7  10
HETATM   10  C   UNL     1     -10.919  13.963  66.901  1.00  0.00    -0.300 A  
HETATM   11  C   UNL     1     -10.163  14.464  65.828  1.00  0.00    -0.355 A  
HETATM   12  C   UNL     1      -9.873  15.825  65.721  1.00  0.00    -0.383 A  
HETATM   13  C   UNL     1     -10.326  16.708  66.693  1.00  0.00    -0.296 A  
HETATM   14  C   UNL     1     -11.400  14.879  67.853  1.00  0.00    -0.340 A  
HETATM   15  C   UNL     1     -11.108  16.245  67.748  1.00  0.00    -0.227 A  
BRANCH  13  16
HETATM   16  N   UNL     1      -9.997  18.088  66.570  1.00  0.00    -0.353 N  
HETATM   17  H   UNL     1     -10.410  18.665  65.836  1.00  0.00     0.000 HD 
BRANCH  16  18
HETATM   18  S   UNL     1      -8.902  18.741  67.679  1.00  0.00    -0.282 S  
HETATM   19  O   UNL     1      -8.218  17.683  68.383  1.00  0.00    -0.271 OA 
HETATM   20  O   UNL     1      -8.168  19.747  66.939  1.00  0.00    -0.283 OA 
HETATM   21  C   UNL     1      -9.989  19.592  68.805  1.00  0.00    -0.463 C  
ENDBRANCH  16  18
ENDBRANCH  13  16
ENDBRANCH   7  10
ENDBRANCH   6   7
ENDBRANCH   4   6
ENDBRANCH   2   4
TORSDOF 6
ENDMDL
MODEL       50
REMARK 921   NORMALIZED FREE ENERGY PREDICTED BY IDOCK:   -4.54 KCAL/MOL
REMARK 922        TOTAL FREE ENERGY PREDICTED BY IDOCK:   -6.78 KCAL/MOL
REMARK 923 INTER-LIGAND FREE ENERGY PREDICTED BY IDOCK:   -6.04 KCAL/MOL
REMARK 924 INTRA-LIGAND FREE ENERGY PREDICTED BY IDOCK:   -0.74 KCAL/MOL
REMARK 927      BINDING AFFINITY PREDICTED BY RF-SCORE:    0.00 PKD
ROOT
HETATM    1  C   UNL     1     -13.035  13.918  65.338  1.00  0.00    -0.368 C  
HETATM    2  C   UNL     1     -12.024  14.456  64.328  1.00  0.00    -0.410 C  
HETATM    3  C   UNL     1     -10.722  14.817  65.047  1.00  0.00    -0.452 C  
ENDROOT
BRANCH   2   4
HETATM    4  N   UNL     1     -11.816  13.442  63.282  1.00  0.00    -0.747 NA 
HETATM    5  H   UNL     1     -10.892  13.532  62.860  1.00  0.00     0.000 HD 
BRANCH   4   6
HETATM    6  C   UNL     1     -12.044  12.077  63.775  1.00  0.00    -0.499 C  
BRANCH   6   7
HETATM    7  C   UNL     1     -10.747  11.258  63.995  1.00  0.00    -0.377 C  
HETATM    8  H   UNL     1      -8.891  11.395  63.403  1.00  0.00     0.000 HD 
HETATM    9  O   UNL     1      -9.686  11.897  63.269  1.00  0.00    -0.377 OA 
BRANCH   7  10
HETATM   10  C   UNL     1     -10.342  11.120  65.461  1.00  0.00    -0.326 A  
HETATM   11  C   UNL     1     -11.250  11.288  66.520  1.00  0.00    -0.222 A  
HETATM   12  C   UNL     1     -10.839  11.176  67.849  1.00  0.00    -0.285 A  
HETATM   13  C   UNL     1      -9.509  10.905  68.143  1.00  0.00    -0.165 A  
HETATM   14  C   UNL     1      -9.009  10.810  65.779  1.00  0.00    -0.203 A  
HETATM   15  C   UNL     1      -8.594  10.699  67.113  1.00  0.00    -0.127 A  
BRANCH  13  16
HETATM   16  N   UNL     1      -9.113  10.817  69.508  1.00  0.00    -0.402 N  
HETATM   17  H   UNL     1      -8.626  11.588  69.965  1.00  0.00     0.000 HD 
BRANCH  16  18
HETATM   18  S   UNL     1      -9.476   9.396  70.345  1.00  0.00    -0.271 S  
HETATM   19  O   UNL     1      -9.715   8.318  69.416  1.00  0.00    -0.173 OA 
HETATM   20  O   UNL     1      -8.459   9.290  71.372  1.00  0.00    -0.325 OA 
HETATM   21  C   UNL     1     -11.005   9.829  71.151  1.00  0.00    -0.316 C  
ENDBRANCH  16  18
ENDBRANCH  13  16
ENDBRANCH   7  10
ENDBRANCH   6   7
ENDBRANCH   4   6
ENDBRANCH   2   4
TORSDOF 6
ENDMDL
MODEL       51
REMARK 921   NORMALIZED FREE ENERGY PREDICTED BY IDOCK:   -4.52 KCAL/MOL
REMARK 922        TOTAL FREE ENERGY PREDICTED BY IDOCK:   -6.75 KCAL/MOL
REMARK 923 INTER-LIGAND FREE ENERGY PREDICTED BY IDOCK:   -6.55 KCAL/MOL
REMARK 924 INTRA-LIGAND FREE ENERGY PREDICTED BY IDOCK:   -0.20 KCAL/MOL
REMARK 927      BINDING AFFINITY PREDICTED BY RF-SCORE:    0.00 PKD
ROOT
HETATM    1  C   UNL     1      -7.108  19.441  65.970  1.00  0.00    -0.291 C  
HETATM    2  C   UNL     1      -8.408  18.829  66.490  1.00  0.00    -0.297 C  
HETATM    3  C   UNL     1      -9.584  19.739  66.130  1.00  0.00    -0.484 C  
ENDROOT
BRANCH   2   4
HETATM    4  N   UNL     1      -8.556  17.481  65.920  1.00  0.00    -0.533 NA 
HETATM    5  H   UNL     1      -8.329  17.474  64.926  1.00  0.00     0.000 HD 
BRANCH   4   6
HETATM    6  C   UNL     1      -7.769  16.477  66.651  1.00  0.00    -0.283 C  
BRANCH   6   7
HETATM    7  C   UNL     1      -8.520  15.147  66.907  1.00  0.00    -0.244 C  
HETATM    8  H   UNL     1      -8.055  13.396  67.637  1.00  0.00     0.000 HD 
HETATM    9  O   UNL     1      -7.594  14.211  67.481  1.00  0.00    -0.166 OA 
BRANCH   7  10
HETATM   10  C   UNL     1      -9.730  15.286  67.828  1.00  0.00    -0.215 A  
HETATM   11  C   UNL     1      -9.909  16.382  68.689  1.00  0.00    -0.234 A  
HETATM   12  C   UNL     1     -11.018  16.466  69.533  1.00  0.00    -0.317 A  
HETATM   13  C   UNL     1     -11.962  15.447  69.539  1.00  0.00    -0.334 A  
HETATM   14  C   UNL     1     -10.717  14.285  67.823  1.00  0.00    -0.253 A  
HETATM   15  C   UNL     1     -11.829  14.366  68.671  1.00  0.00    -0.366 A  
BRANCH  13  16
HETATM   16  N   UNL     1     -13.072  15.547  70.426  1.00  0.00    -0.717 N  
HETATM   17  H   UNL     1     -13.970  15.910  70.106  1.00  0.00     0.000 HD 
BRANCH  16  18
HETATM   18  S   UNL     1     -12.853  15.046  72.024  1.00  0.00    -0.361 S  
HETATM   19  O   UNL     1     -11.454  15.105  72.377  1.00  0.00    -0.425 OA 
HETATM   20  O   UNL     1     -13.850  15.768  72.788  1.00  0.00    -0.581 OA 
HETATM   21  C   UNL     1     -13.370  13.343  71.945  1.00  0.00    -0.451 C  
ENDBRANCH  16  18
ENDBRANCH  13  16
ENDBRANCH   7  10
ENDBRANCH   6   7
ENDBRANCH   4   6
ENDBRANCH   2   4
TORSDOF 6
ENDMDL
MODEL       52
REMARK 921   NORMALIZED FREE ENERGY PREDICTED BY IDOCK:   -4.52 KCAL/MOL
REMARK 922        TOTAL FREE ENERGY PREDICTED BY IDOCK:   -6.75 KCAL/MOL
REMARK 923 INTER-LIGAND FREE ENERGY PREDICTED BY IDOCK:   -6.74 KCAL/MOL
REMARK 924 INTRA-LIGAND FREE ENERGY PREDICTED BY IDOCK:   -0.01 KCAL/MOL
REMARK 927      BINDING AFFINITY PREDICTED BY RF-SCORE:    0.00 PKD
ROOT
HETATM    1  C   UNL     1     -12.350  10.911  70.124  1.00  0.00    -0.399 C  
HETATM    2  C   UNL     1     -11.315  10.779  69.009  1.00  0.00    -0.284 C  
HETATM    3  C   UNL     1     -10.730   9.364  69.016  1.00  0.00    -0.209 C  
ENDROOT
BRANCH   2   4
HETATM    4  N   UNL     1     -11.957  11.107  67.727  1.00  0.00    -0.652 NA 
HETATM    5  H   UNL     1     -12.588  11.902  67.824  1.00  0.00     0.000 HD 
BRANCH   4   6
HETATM    6  C   UNL     1     -10.977  11.335  66.655  1.00  0.00    -0.268 C  
BRANCH   6   7
HETATM    7  C   UNL     1     -11.386  12.439  65.647  1.00  0.00    -0.347 C  
HETATM    8  H   UNL     1     -13.058  13.041  64.836  1.00  0.00     0.000 HD 
HETATM    9  O   UNL     1     -12.807  12.365  65.454  1.00  0.00    -0.488 OA 
BRANCH   7  10
HETATM   10  C   UNL     1     -11.012  13.851  66.090  1.00  0.00    -0.293 A  
HETATM   11  C   UNL     1     -10.097  14.653  65.386  1.00  0.00    -0.403 A  
HETATM   12  C   UNL     1      -9.763  15.932  65.833  1.00  0.00    -0.386 A  
HETATM   13  C   UNL     1     -10.329  16.428  67.001  1.00  0.00    -0.293 A  
HETATM   14  C   UNL     1     -11.602  14.387  67.248  1.00  0.00    -0.401 A  
HETATM   15  C   UNL     1     -11.265  15.670  67.700  1.00  0.00    -0.274 A  
BRANCH  13  16
HETATM   16  N   UNL     1      -9.953  17.727  67.445  1.00  0.00    -0.311 N  
HETATM   17  H   UNL     1      -9.818  17.926  68.437  1.00  0.00     0.000 HD 
BRANCH  16  18
HETATM   18  S   UNL     1      -9.738  18.930  66.278  1.00  0.00    -0.302 S  
HETATM   19  O   UNL     1      -8.385  18.900  65.777  1.00  0.00    -0.443 OA 
HETATM   20  O   UNL     1     -10.872  18.799  65.385  1.00  0.00    -0.563 OA 
HETATM   21  C   UNL     1      -9.980  20.413  67.236  1.00  0.00    -0.424 C  
ENDBRANCH  16  18
ENDBRANCH  13  16
ENDBRANCH   7  10
ENDBRANCH   6   7
ENDBRANCH   4   6
ENDBRANCH   2   4
TORSDOF 6
ENDMDL
MODEL       53
REMARK 921   NORMALIZED FREE ENERGY PREDICTED BY IDOCK:   -4.51 KCAL/MOL
REMARK 922        TOTAL FREE ENERGY PREDICTED BY IDOCK:   -6.74 KCAL/MOL
REMARK 923 INTER-LIGAND FREE ENERGY PREDICTED BY IDOCK:   -6.33 KCAL/MOL
REMARK 924 INTRA-LIGAND FREE ENERGY PREDICTED BY IDOCK:   -0.41 KCAL/MOL
REMARK 927      BINDING AFFINITY PREDICTED BY RF-SCORE:    0.00 PKD
ROOT
HETATM    1  C   UNL     1     -10.213  19.893  68.449  1.00  0.00    -0.557 C  
HETATM    2  C   UNL     1     -10.695  19.300  67.126  1.00  0.00    -0.480 C  
HETATM    3  C   UNL     1     -10.008  20.016  65.961  1.00  0.00    -0.542 C  
ENDROOT
BRANCH   2   4
HETATM    4  N   UNL     1     -10.421  17.855  67.128  1.00  0.00    -0.366 NA 
HETATM    5  H   UNL     1     -11.148  17.342  67.627  1.00  0.00     0.000 HD 
BRANCH   4   6
HETATM    6  C   UNL     1     -10.231  17.322  65.771  1.00  0.00    -0.198 C  
BRANCH   6   7
HETATM    7  C   UNL     1     -11.391  16.423  65.276  1.00  0.00     0.158 C  
HETATM    8  H   UNL     1     -12.167  15.971  63.542  1.00  0.00     0.000 HD 
HETATM    9  O   UNL     1     -11.456  16.521  63.846  1.00  0.00    -1.145 OA 
BRANCH   7  10
HETATM   10  C   UNL     1     -11.250  14.955  65.674  1.00  0.00    -0.347 A  
HETATM   11  C   UNL     1     -10.377  14.070  65.020  1.00  0.00    -0.432 A  
HETATM   12  C   UNL     1     -10.290  12.729  65.397  1.00  0.00    -0.310 A  
HETATM   13  C   UNL     1     -11.085  12.246  66.428  1.00  0.00    -0.303 A  
HETATM   14  C   UNL     1     -12.018  14.454  66.739  1.00  0.00    -0.423 A  
HETATM   15  C   UNL     1     -11.934  13.108  67.117  1.00  0.00    -0.397 A  
BRANCH  13  16
HETATM   16  N   UNL     1     -10.992  10.869  66.777  1.00  0.00    -0.228 N  
HETATM   17  H   UNL     1     -11.316  10.141  66.140  1.00  0.00     0.000 HD 
BRANCH  16  18
HETATM   18  S   UNL     1     -10.327  10.479  68.281  1.00  0.00    -0.180 S  
HETATM   19  O   UNL     1      -9.224  11.360  68.581  1.00  0.00    -0.183 OA 
HETATM   20  O   UNL     1     -11.459  10.362  69.177  1.00  0.00    -0.238 OA 
HETATM   21  C   UNL     1      -9.706   8.835  67.988  1.00  0.00    -0.157 C  
ENDBRANCH  16  18
ENDBRANCH  13  16
ENDBRANCH   7  10
ENDBRANCH   6   7
ENDBRANCH   4   6
ENDBRANCH   2   4
TORSDOF 6
ENDMDL
MODEL       54
REMARK 921   NORMALIZED FREE ENERGY PREDICTED BY IDOCK:   -4.51 KCAL/MOL
REMARK 922        TOTAL FREE ENERGY PREDICTED BY IDOCK:   -6.74 KCAL/MOL
REMARK 923 INTER-LIGAND FREE ENERGY PREDICTED BY IDOCK:   -6.12 KCAL/MOL
REMARK 924 INTRA-LIGAND FREE ENERGY PREDICTED BY IDOCK:   -0.62 KCAL/MOL
REMARK 927      BINDING AFFINITY PREDICTED BY RF-SCORE:    0.00 PKD
ROOT
HETATM    1  C   UNL     1      -9.176  15.623  67.926  1.00  0.00    -0.190 C  
HETATM    2  C   UNL     1     -10.172  15.881  66.796  1.00  0.00    -0.282 C  
HETATM    3  C   UNL     1     -10.294  17.387  66.552  1.00  0.00    -0.312 C  
ENDROOT
BRANCH   2   4
HETATM    4  N   UNL     1      -9.721  15.159  65.596  1.00  0.00    -0.355 NA 
HETATM    5  H   UNL     1      -8.929  14.551  65.807  1.00  0.00     0.000 HD 
BRANCH   4   6
HETATM    6  C   UNL     1     -10.810  14.410  64.954  1.00  0.00    -0.416 C  
BRANCH   6   7
HETATM    7  C   UNL     1     -11.967  14.029  65.911  1.00  0.00    -0.408 C  
HETATM    8  H   UNL     1     -13.860  13.593  65.713  1.00  0.00     0.000 HD 
HETATM    9  O   UNL     1     -13.151  13.826  65.126  1.00  0.00    -0.762 OA 
BRANCH   7  10
HETATM   10  C   UNL     1     -11.695  12.778  66.744  1.00  0.00    -0.459 A  
HETATM   11  C   UNL     1     -11.113  11.617  66.207  1.00  0.00    -0.345 A  
HETATM   12  C   UNL     1     -10.899  10.485  66.993  1.00  0.00    -0.288 A  
HETATM   13  C   UNL     1     -11.274  10.489  68.331  1.00  0.00    -0.279 A  
HETATM   14  C   UNL     1     -12.032  12.774  68.109  1.00  0.00    -0.295 A  
HETATM   15  C   UNL     1     -11.820  11.637  68.899  1.00  0.00    -0.392 A  
BRANCH  13  16
HETATM   16  N   UNL     1     -11.064   9.312  69.105  1.00  0.00    -0.440 N  
HETATM   17  H   UNL     1     -11.696   8.514  69.032  1.00  0.00     0.000 HD 
BRANCH  16  18
HETATM   18  S   UNL     1      -9.735   9.280  70.147  1.00  0.00    -0.234 S  
HETATM   19  O   UNL     1      -8.706  10.171  69.669  1.00  0.00    -0.186 OA 
HETATM   20  O   UNL     1     -10.293   9.423  71.477  1.00  0.00    -0.327 OA 
HETATM   21  C   UNL     1      -9.182   7.595  69.978  1.00  0.00    -0.151 C  
ENDBRANCH  16  18
ENDBRANCH  13  16
ENDBRANCH   7  10
ENDBRANCH   6   7
ENDBRANCH   4   6
ENDBRANCH   2   4
TORSDOF 6
ENDMDL
MODEL       55
REMARK 921   NORMALIZED FREE ENERGY PREDICTED BY IDOCK:   -4.49 KCAL/MOL
REMARK 922        TOTAL FREE ENERGY PREDICTED BY IDOCK:   -6.71 KCAL/MOL
REMARK 923 INTER-LIGAND FREE ENERGY PREDICTED BY IDOCK:   -6.27 KCAL/MOL
REMARK 924 INTRA-LIGAND FREE ENERGY PREDICTED BY IDOCK:   -0.43 KCAL/MOL
REMARK 927      BINDING AFFINITY PREDICTED BY RF-SCORE:    0.00 PKD
ROOT
HETATM    1  C   UNL     1     -10.631  19.199  65.992  1.00  0.00    -0.524 C  
HETATM    2  C   UNL     1     -10.274  17.715  66.054  1.00  0.00    -0.297 C  
HETATM    3  C   UNL     1     -10.583  17.170  67.451  1.00  0.00    -0.297 C  
ENDROOT
BRANCH   2   4
HETATM    4  N   UNL     1     -11.022  17.005  65.004  1.00  0.00    -0.587 NA 
HETATM    5  H   UNL     1     -10.857  17.422  64.088  1.00  0.00     0.000 HD 
BRANCH   4   6
HETATM    6  C   UNL     1     -10.732  15.564  64.991  1.00  0.00    -0.441 C  
BRANCH   6   7
HETATM    7  C   UNL     1     -11.986  14.665  65.134  1.00  0.00    -0.334 C  
HETATM    8  H   UNL     1     -13.172  13.715  63.906  1.00  0.00     0.000 HD 
HETATM    9  O   UNL     1     -12.404  14.266  63.819  1.00  0.00    -0.735 OA 
BRANCH   7  10
HETATM   10  C   UNL     1     -11.761  13.420  65.990  1.00  0.00    -0.398 A  
HETATM   11  C   UNL     1     -12.021  13.388  67.370  1.00  0.00    -0.391 A  
HETATM   12  C   UNL     1     -11.783  12.239  68.125  1.00  0.00    -0.408 A  
HETATM   13  C   UNL     1     -11.269  11.102  67.513  1.00  0.00    -0.301 A  
HETATM   14  C   UNL     1     -11.277  12.248  65.384  1.00  0.00    -0.372 A  
HETATM   15  C   UNL     1     -11.035  11.093  66.140  1.00  0.00    -0.203 A  
BRANCH  13  16
HETATM   16  N   UNL     1     -11.016   9.951  68.311  1.00  0.00    -0.415 N  
HETATM   17  H   UNL     1     -11.781   9.378  68.668  1.00  0.00     0.000 HD 
BRANCH  16  18
HETATM   18  S   UNL     1      -9.407   9.563  68.649  1.00  0.00    -0.143 S  
HETATM   19  O   UNL     1      -8.572  10.731  68.498  1.00  0.00    -0.133 OA 
HETATM   20  O   UNL     1      -9.447   8.826  69.896  1.00  0.00    -0.163 OA 
HETATM   21  C   UNL     1      -9.033   8.399  67.353  1.00  0.00    -0.134 C  
ENDBRANCH  16  18
ENDBRANCH  13  16
ENDBRANCH   7  10
ENDBRANCH   6   7
ENDBRANCH   4   6
ENDBRANCH   2   4
TORSDOF 6
ENDMDL
MODEL       56
REMARK 921   NORMALIZED FREE ENERGY PREDICTED BY IDOCK:   -4.47 KCAL/MOL
REMARK 922        TOTAL FREE ENERGY PREDICTED BY IDOCK:   -6.69 KCAL/MOL
REMARK 923 INTER-LIGAND FREE ENERGY PREDICTED BY IDOCK:   -6.33 KCAL/MOL
REMARK 924 INTRA-LIGAND FREE ENERGY PREDICTED BY IDOCK:   -0.35 KCAL/MOL
REMARK 927      BINDING AFFINITY PREDICTED BY RF-SCORE:    0.00 PKD
ROOT
HETATM    1  C   UNL     1     -10.565  19.663  65.962  1.00  0.00    -0.584 C  
HETATM    2  C   UNL     1      -9.596  18.795  66.762  1.00  0.00    -0.321 C  
HETATM    3  C   UNL     1     -10.130  18.604  68.183  1.00  0.00    -0.418 C  
ENDROOT
BRANCH   2   4
HETATM    4  N   UNL     1      -9.419  17.514  66.060  1.00  0.00    -0.506 NA 
HETATM    5  H   UNL     1      -8.461  17.406  65.726  1.00  0.00     0.000 HD 
BRANCH   4   6
HETATM    6  C   UNL     1      -9.827  16.366  66.882  1.00  0.00    -0.261 C  
BRANCH   6   7
HETATM    7  C   UNL     1     -11.030  15.574  66.311  1.00  0.00    -0.242 C  
HETATM    8  H   UNL     1     -11.491  14.785  64.585  1.00  0.00     0.000 HD 
HETATM    9  O   UNL     1     -10.754  15.270  64.935  1.00  0.00    -0.419 OA 
BRANCH   7  10
HETATM   10  C   UNL     1     -11.330  14.278  67.061  1.00  0.00    -0.354 A  
HETATM   11  C   UNL     1     -11.655  14.248  68.428  1.00  0.00    -0.354 A  
HETATM   12  C   UNL     1     -11.903  13.042  69.086  1.00  0.00    -0.360 A  
HETATM   13  C   UNL     1     -11.818  11.843  68.391  1.00  0.00    -0.289 A  
HETATM   14  C   UNL     1     -11.286  13.056  66.368  1.00  0.00    -0.355 A  
HETATM   15  C   UNL     1     -11.532  11.845  67.028  1.00  0.00    -0.384 A  
BRANCH  13  16
HETATM   16  N   UNL     1     -12.054  10.627  69.092  1.00  0.00    -0.536 N  
HETATM   17  H   UNL     1     -12.998  10.346  69.356  1.00  0.00     0.000 HD 
BRANCH  16  18
HETATM   18  S   UNL     1     -10.719   9.663  69.473  1.00  0.00    -0.235 S  
HETATM   19  O   UNL     1     -10.768   8.429  68.727  1.00  0.00    -0.168 OA 
HETATM   20  O   UNL     1      -9.575  10.548  69.386  1.00  0.00    -0.207 OA 
HETATM   21  C   UNL     1     -10.999   9.321  71.199  1.00  0.00    -0.339 C  
ENDBRANCH  16  18
ENDBRANCH  13  16
ENDBRANCH   7  10
ENDBRANCH   6   7
ENDBRANCH   4   6
ENDBRANCH   2   4
TORSDOF 6
ENDMDL
MODEL       57
REMARK 921   NORMALIZED FREE ENERGY PREDICTED BY IDOCK:   -4.47 KCAL/MOL
REMARK 922        TOTAL FREE ENERGY PREDICTED BY IDOCK:   -6.69 KCAL/MOL
REMARK 923 INTER-LIGAND FREE ENERGY PREDICTED BY IDOCK:   -6.04 KCAL/MOL
REMARK 924 INTRA-LIGAND FREE ENERGY PREDICTED BY IDOCK:   -0.64 KCAL/MOL
REMARK 927      BINDING AFFINITY PREDICTED BY RF-SCORE:    0.00 PKD
ROOT
HETATM    1  C   UNL     1     -12.874  14.030  65.703  1.00  0.00    -0.442 C  
HETATM    2  C   UNL     1     -12.378  14.762  64.458  1.00  0.00    -0.366 C  
HETATM    3  C   UNL     1     -11.074  15.497  64.778  1.00  0.00    -0.421 C  
ENDROOT
BRANCH   2   4
HETATM    4  N   UNL     1     -12.210  13.785  63.371  1.00  0.00    -1.075 NA 
HETATM    5  H   UNL     1     -11.362  13.970  62.836  1.00  0.00     0.000 HD 
BRANCH   4   6
HETATM    6  C   UNL     1     -12.238  12.398  63.859  1.00  0.00    -0.513 C  
BRANCH   6   7
HETATM    7  C   UNL     1     -10.933  11.607  63.591  1.00  0.00    -0.431 C  
HETATM    8  H   UNL     1      -9.117  12.055  63.028  1.00  0.00     0.000 HD 
HETATM    9  O   UNL     1      -9.916  12.539  63.193  1.00  0.00    -0.258 OA 
BRANCH   7  10
HETATM   10  C   UNL     1     -10.437  10.806  64.793  1.00  0.00    -0.335 A  
HETATM   11  C   UNL     1      -9.504   9.761  64.680  1.00  0.00    -0.295 A  
HETATM   12  C   UNL     1      -9.090   9.037  65.798  1.00  0.00    -0.272 A  
HETATM   13  C   UNL     1      -9.611   9.337  67.051  1.00  0.00    -0.171 A  
HETATM   14  C   UNL     1     -10.923  11.118  66.075  1.00  0.00    -0.189 A  
HETATM   15  C   UNL     1     -10.511  10.390  67.199  1.00  0.00    -0.311 A  
BRANCH  13  16
HETATM   16  N   UNL     1      -9.188   8.567  68.171  1.00  0.00    -0.138 N  
HETATM   17  H   UNL     1      -8.234   8.636  68.527  1.00  0.00     0.000 HD 
BRANCH  16  18
HETATM   18  S   UNL     1     -10.315   7.537  68.893  1.00  0.00    -0.206 S  
HETATM   19  O   UNL     1     -11.032   8.234  69.933  1.00  0.00    -0.239 OA 
HETATM   20  O   UNL     1     -11.015   6.909  67.790  1.00  0.00    -0.241 OA 
HETATM   21  C   UNL     1      -9.261   6.303  69.628  1.00  0.00    -0.141 C  
ENDBRANCH  16  18
ENDBRANCH  13  16
ENDBRANCH   7  10
ENDBRANCH   6   7
ENDBRANCH   4   6
ENDBRANCH   2   4
TORSDOF 6
ENDMDL
MODEL       58
REMARK 921   NORMALIZED FREE ENERGY PREDICTED BY IDOCK:   -4.47 KCAL/MOL
REMARK 922        TOTAL FREE ENERGY PREDICTED BY IDOCK:   -6.69 KCAL/MOL
REMARK 923 INTER-LIGAND FREE ENERGY PREDICTED BY IDOCK:   -6.44 KCAL/MOL
REMARK 924 INTRA-LIGAND FREE ENERGY PREDICTED BY IDOCK:   -0.24 KCAL/MOL
REMARK 927      BINDING AFFINITY PREDICTED BY RF-SCORE:    0.00 PKD
ROOT
HETATM    1  C   UNL     1     -12.564  12.009  63.544  1.00  0.00    -0.625 C  
HETATM    2  C   UNL     1     -11.803  12.829  64.583  1.00  0.00    -0.374 C  
HETATM    3  C   UNL     1     -12.152  14.311  64.425  1.00  0.00    -0.490 C  
ENDROOT
BRANCH   2   4
HETATM    4  N   UNL     1     -12.136  12.322  65.923  1.00  0.00    -0.620 NA 
HETATM    5  H   UNL     1     -11.909  11.331  66.009  1.00  0.00     0.000 HD 
BRANCH   4   6
HETATM    6  C   UNL     1     -11.501  13.106  66.991  1.00  0.00    -0.336 C  
BRANCH   6   7
HETATM    7  C   UNL     1     -10.266  12.422  67.630  1.00  0.00    -0.207 C  
HETATM    8  H   UNL     1      -8.648  13.027  68.543  1.00  0.00     0.000 HD 
HETATM    9  O   UNL     1      -9.405  13.446  68.151  1.00  0.00    -0.207 OA 
BRANCH   7  10
HETATM   10  C   UNL     1     -10.612  11.440  68.747  1.00  0.00    -0.235 A  
HETATM   11  C   UNL     1     -11.834  11.473  69.439  1.00  0.00    -0.417 A  
HETATM   12  C   UNL     1     -12.107  10.572  70.469  1.00  0.00    -0.437 A  
HETATM   13  C   UNL     1     -11.156   9.627  70.834  1.00  0.00    -0.352 A  
HETATM   14  C   UNL     1      -9.679  10.452  69.107  1.00  0.00    -0.234 A  
HETATM   15  C   UNL     1      -9.950   9.548  70.142  1.00  0.00    -0.285 A  
BRANCH  13  16
HETATM   16  N   UNL     1     -11.452   8.735  71.903  1.00  0.00    -0.335 N  
HETATM   17  H   UNL     1     -11.209   8.968  72.866  1.00  0.00     0.000 HD 
BRANCH  16  18
HETATM   18  S   UNL     1     -12.220   7.278  71.525  1.00  0.00    -0.370 S  
HETATM   19  O   UNL     1     -13.633   7.374  71.801  1.00  0.00    -0.354 OA 
HETATM   20  O   UNL     1     -11.735   6.924  70.206  1.00  0.00    -0.330 OA 
HETATM   21  C   UNL     1     -11.467   6.159  72.689  1.00  0.00    -0.237 C  
ENDBRANCH  16  18
ENDBRANCH  13  16
ENDBRANCH   7  10
ENDBRANCH   6   7
ENDBRANCH   4   6
ENDBRANCH   2   4
TORSDOF 6
ENDMDL
MODEL       59
REMARK 921   NORMALIZED FREE ENERGY PREDICTED BY IDOCK:   -4.47 KCAL/MOL
REMARK 922        TOTAL FREE ENERGY PREDICTED BY IDOCK:   -6.68 KCAL/MOL
REMARK 923 INTER-LIGAND FREE ENERGY PREDICTED BY IDOCK:   -5.96 KCAL/MOL
REMARK 924 INTRA-LIGAND FREE ENERGY PREDICTED BY IDOCK:   -0.72 KCAL/MOL
REMARK 927      BINDING AFFINITY PREDICTED BY RF-SCORE:    0.00 PKD
ROOT
HETATM    1  C   UNL     1     -11.054   6.692  67.217  1.00  0.00    -0.418 C  
HETATM    2  C   UNL     1     -10.816   5.894  68.498  1.00  0.00    -0.248 C  
HETATM    3  C   UNL     1      -9.329   5.929  68.856  1.00  0.00    -0.139 C  
ENDROOT
BRANCH   2   4
HETATM    4  N   UNL     1     -11.657   6.455  69.567  1.00  0.00    -0.616 NA 
HETATM    5  H   UNL     1     -12.271   5.744  69.964  1.00  0.00     0.000 HD 
BRANCH   4   6
HETATM    6  C   UNL     1     -10.863   7.114  70.613  1.00  0.00    -0.245 C  
BRANCH   6   7
HETATM    7  C   UNL     1     -11.450   8.464  71.098  1.00  0.00    -0.274 C  
HETATM    8  H   UNL     1     -11.290   9.560  72.706  1.00  0.00     0.000 HD 
HETATM    9  O   UNL     1     -10.931   8.734  72.409  1.00  0.00    -0.321 OA 
BRANCH   7  10
HETATM   10  C   UNL     1     -11.134   9.642  70.179  1.00  0.00    -0.314 A  
HETATM   11  C   UNL     1     -10.081   9.621  69.249  1.00  0.00    -0.201 A  
HETATM   12  C   UNL     1      -9.808  10.725  68.440  1.00  0.00    -0.177 A  
HETATM   13  C   UNL     1     -10.577  11.876  68.556  1.00  0.00    -0.222 A  
HETATM   14  C   UNL     1     -11.923  10.803  70.254  1.00  0.00    -0.438 A  
HETATM   15  C   UNL     1     -11.649  11.913  69.445  1.00  0.00    -0.388 A  
BRANCH  13  16
HETATM   16  N   UNL     1     -10.263  12.995  67.734  1.00  0.00    -0.223 N  
HETATM   17  H   UNL     1      -9.369  13.479  67.822  1.00  0.00     0.000 HD 
BRANCH  16  18
HETATM   18  S   UNL     1     -11.419  13.498  66.609  1.00  0.00    -0.356 S  
HETATM   19  O   UNL     1     -12.185  12.366  66.144  1.00  0.00    -0.635 OA 
HETATM   20  O   UNL     1     -12.065  14.644  67.215  1.00  0.00    -0.358 OA 
HETATM   21  C   UNL     1     -10.395  14.102  65.282  1.00  0.00    -0.388 C  
ENDBRANCH  16  18
ENDBRANCH  13  16
ENDBRANCH   7  10
ENDBRANCH   6   7
ENDBRANCH   4   6
ENDBRANCH   2   4
TORSDOF 6
ENDMDL
MODEL       60
REMARK 921   NORMALIZED FREE ENERGY PREDICTED BY IDOCK:   -4.45 KCAL/MOL
REMARK 922        TOTAL FREE ENERGY PREDICTED BY IDOCK:   -6.66 KCAL/MOL
REMARK 923 INTER-LIGAND FREE ENERGY PREDICTED BY IDOCK:   -6.50 KCAL/MOL
REMARK 924 INTRA-LIGAND FREE ENERGY PREDICTED BY IDOCK:   -0.16 KCAL/MOL
REMARK 927      BINDING AFFINITY PREDICTED BY RF-SCORE:    0.00 PKD
ROOT
HETATM    1  C   UNL     1      -9.660   5.396  69.027  1.00  0.00    -0.191 C  
HETATM    2  C   UNL     1     -10.775   5.625  70.045  1.00  0.00    -0.320 C  
HETATM    3  C   UNL     1     -10.179   5.695  71.453  1.00  0.00    -0.270 C  
ENDROOT
BRANCH   2   4
HETATM    4  N   UNL     1     -11.496   6.857  69.687  1.00  0.00    -0.555 NA 
HETATM    5  H   UNL     1     -12.036   7.211  70.477  1.00  0.00     0.000 HD 
BRANCH   4   6
HETATM    6  C   UNL     1     -10.601   7.891  69.149  1.00  0.00    -0.173 C  
BRANCH   6   7
HETATM    7  C   UNL     1     -10.880   9.315  69.693  1.00  0.00    -0.212 C  
HETATM    8  H   UNL     1      -9.981  10.545  70.915  1.00  0.00     0.000 HD 
HETATM    9  O   UNL     1      -9.811   9.673  70.582  1.00  0.00    -0.265 OA 
BRANCH   7  10
HETATM   10  C   UNL     1     -11.008  10.379  68.605  1.00  0.00    -0.288 A  
HETATM   11  C   UNL     1     -10.384  10.265  67.351  1.00  0.00    -0.282 A  
HETATM   12  C   UNL     1     -10.506  11.268  66.389  1.00  0.00    -0.306 A  
HETATM   13  C   UNL     1     -11.245  12.410  66.668  1.00  0.00    -0.315 A  
HETATM   14  C   UNL     1     -11.782  11.526  68.853  1.00  0.00    -0.403 A  
HETATM   15  C   UNL     1     -11.903  12.535  67.889  1.00  0.00    -0.383 A  
BRANCH  13  16
HETATM   16  N   UNL     1     -11.334  13.427  65.676  1.00  0.00    -0.296 N  
HETATM   17  H   UNL     1     -10.856  14.321  65.793  1.00  0.00     0.000 HD 
BRANCH  16  18
HETATM   18  S   UNL     1     -12.258  13.107  64.298  1.00  0.00    -0.388 S  
HETATM   19  O   UNL     1     -13.392  12.283  64.640  1.00  0.00    -0.717 OA 
HETATM   20  O   UNL     1     -12.432  14.392  63.651  1.00  0.00    -0.805 OA 
HETATM   21  C   UNL     1     -11.118  12.161  63.308  1.00  0.00    -0.332 C  
ENDBRANCH  16  18
ENDBRANCH  13  16
ENDBRANCH   7  10
ENDBRANCH   6   7
ENDBRANCH   4   6
ENDBRANCH   2   4
TORSDOF 6
ENDMDL
MODEL       61
REMARK 921   NORMALIZED FREE ENERGY PREDICTED BY IDOCK:   -4.45 KCAL/MOL
REMARK 922        TOTAL FREE ENERGY PREDICTED BY IDOCK:   -6.65 KCAL/MOL
REMARK 923 INTER-LIGAND FREE ENERGY PREDICTED BY IDOCK:   -6.18 KCAL/MOL
REMARK 924 INTRA-LIGAND FREE ENERGY PREDICTED BY IDOCK:   -0.47 KCAL/MOL
REMARK 927      BINDING AFFINITY PREDICTED BY RF-SCORE:    0.00 PKD
ROOT
HETATM    1  C   UNL     1     -11.664  11.138  68.145  1.00  0.00    -0.304 C  
HETATM    2  C   UNL     1     -11.044  11.898  66.974  1.00  0.00    -0.302 C  
HETATM    3  C   UNL     1      -9.893  11.080  66.382  1.00  0.00    -0.252 C  
ENDROOT
BRANCH   2   4
HETATM    4  N   UNL     1     -12.094  12.176  65.982  1.00  0.00    -0.586 NA 
HETATM    5  H   UNL     1     -12.926  11.613  66.159  1.00  0.00     0.000 HD 
BRANCH   4   6
HETATM    6  C   UNL     1     -12.426  13.606  65.908  1.00  0.00    -0.452 C  
BRANCH   6   7
HETATM    7  C   UNL     1     -11.632  14.386  64.830  1.00  0.00    -0.408 C  
HETATM    8  H   UNL     1     -12.082  15.588  63.358  1.00  0.00     0.000 HD 
HETATM    9  O   UNL     1     -12.569  15.111  64.019  1.00  0.00    -0.791 OA 
BRANCH   7  10
HETATM   10  C   UNL     1     -10.603  15.359  65.402  1.00  0.00    -0.430 A  
HETATM   11  C   UNL     1      -9.365  14.941  65.917  1.00  0.00    -0.216 A  
HETATM   12  C   UNL     1      -8.458  15.857  66.452  1.00  0.00    -0.348 A  
HETATM   13  C   UNL     1      -8.779  17.208  66.492  1.00  0.00    -0.261 A  
HETATM   14  C   UNL     1     -10.893  16.734  65.418  1.00  0.00    -0.149 A  
HETATM   15  C   UNL     1      -9.985  17.655  65.957  1.00  0.00    -0.220 A  
BRANCH  13  16
HETATM   16  N   UNL     1      -7.845  18.118  67.063  1.00  0.00    -0.217 N  
HETATM   17  H   UNL     1      -6.868  18.124  66.768  1.00  0.00     0.000 HD 
BRANCH  16  18
HETATM   18  S   UNL     1      -8.405  19.187  68.245  1.00  0.00    -0.346 S  
HETATM   19  O   UNL     1      -8.839  20.421  67.635  1.00  0.00    -0.306 OA 
HETATM   20  O   UNL     1      -9.301  18.403  69.072  1.00  0.00    -0.232 OA 
HETATM   21  C   UNL     1      -6.927  19.486  69.194  1.00  0.00    -0.357 C  
ENDBRANCH  16  18
ENDBRANCH  13  16
ENDBRANCH   7  10
ENDBRANCH   6   7
ENDBRANCH   4   6
ENDBRANCH   2   4
TORSDOF 6
ENDMDL
MODEL       62
REMARK 921   NORMALIZED FREE ENERGY PREDICTED BY IDOCK:   -4.44 KCAL/MOL
REMARK 922        TOTAL FREE ENERGY PREDICTED BY IDOCK:   -6.64 KCAL/MOL
REMARK 923 INTER-LIGAND FREE ENERGY PREDICTED BY IDOCK:   -6.03 KCAL/MOL
REMARK 924 INTRA-LIGAND FREE ENERGY PREDICTED BY IDOCK:   -0.61 KCAL/MOL
REMARK 927      BINDING AFFINITY PREDICTED BY RF-SCORE:    0.00 PKD
ROOT
HETATM    1  C   UNL     1     -10.144   5.993  71.563  1.00  0.00    -0.232 C  
HETATM    2  C   UNL     1     -11.011   5.729  72.793  1.00  0.00    -0.272 C  
HETATM    3  C   UNL     1     -10.393   6.415  74.014  1.00  0.00    -0.340 C  
ENDROOT
BRANCH   2   4
HETATM    4  N   UNL     1     -12.375   6.207  72.520  1.00  0.00    -0.542 NA 
HETATM    5  H   UNL     1     -12.776   6.666  73.339  1.00  0.00     0.000 HD 
BRANCH   4   6
HETATM    6  C   UNL     1     -12.435   7.081  71.340  1.00  0.00    -0.384 C  
BRANCH   6   7
HETATM    7  C   UNL     1     -12.989   8.499  71.629  1.00  0.00    -0.343 C  
HETATM    8  H   UNL     1     -13.243   9.603  73.221  1.00  0.00     0.000 HD 
HETATM    9  O   UNL     1     -12.903   8.734  73.043  1.00  0.00    -0.272 OA 
BRANCH   7  10
HETATM   10  C   UNL     1     -12.255   9.614  70.888  1.00  0.00    -0.368 A  
HETATM   11  C   UNL     1     -12.644  10.962  70.962  1.00  0.00    -0.517 A  
HETATM   12  C   UNL     1     -11.961  11.952  70.253  1.00  0.00    -0.416 A  
HETATM   13  C   UNL     1     -10.882  11.608  69.448  1.00  0.00    -0.096 A  
HETATM   14  C   UNL     1     -11.138   9.294  70.097  1.00  0.00    -0.260 A  
HETATM   15  C   UNL     1     -10.452  10.285  69.383  1.00  0.00    -0.259 A  
BRANCH  13  16
HETATM   16  N   UNL     1     -10.218  12.635  68.719  1.00  0.00    -0.406 N  
HETATM   17  H   UNL     1      -9.456  13.170  69.137  1.00  0.00     0.000 HD 
BRANCH  16  18
HETATM   18  S   UNL     1     -10.731  12.940  67.138  1.00  0.00    -0.256 S  
HETATM   19  O   UNL     1     -12.047  12.385  66.927  1.00  0.00    -0.564 OA 
HETATM   20  O   UNL     1     -10.466  14.347  66.918  1.00  0.00    -0.266 OA 
HETATM   21  C   UNL     1      -9.541  12.017  66.186  1.00  0.00    -0.239 C  
ENDBRANCH  16  18
ENDBRANCH  13  16
ENDBRANCH   7  10
ENDBRANCH   6   7
ENDBRANCH   4   6
ENDBRANCH   2   4
TORSDOF 6
ENDMDL
MODEL       63
REMARK 921   NORMALIZED FREE ENERGY PREDICTED BY IDOCK:   -4.42 KCAL/MOL
REMARK 922        TOTAL FREE ENERGY PREDICTED BY IDOCK:   -6.61 KCAL/MOL
REMARK 923 INTER-LIGAND FREE ENERGY PREDICTED BY IDOCK:   -5.82 KCAL/MOL
REMARK 924 INTRA-LIGAND FREE ENERGY PREDICTED BY IDOCK:   -0.79 KCAL/MOL
REMARK 927      BINDING AFFINITY PREDICTED BY RF-SCORE:    0.00 PKD
ROOT
HETATM    1  C   UNL     1      -8.564  10.940  65.324  1.00  0.00    -0.103 C  
HETATM    2  C   UNL     1      -9.462   9.761  64.955  1.00  0.00    -0.272 C  
HETATM    3  C   UNL     1     -10.349   9.397  66.149  1.00  0.00    -0.162 C  
ENDROOT
BRANCH   2   4
HETATM    4  N   UNL     1     -10.253  10.122  63.768  1.00  0.00    -0.425 NA 
HETATM    5  H   UNL     1     -11.246   9.947  63.919  1.00  0.00     0.000 HD 
BRANCH   4   6
HETATM    6  C   UNL     1     -10.017  11.510  63.343  1.00  0.00    -0.417 C  
BRANCH   6   7
HETATM    7  C   UNL     1     -11.291  12.391  63.324  1.00  0.00    -0.327 C  
HETATM    8  H   UNL     1     -13.212  12.068  63.181  1.00  0.00     0.000 HD 
HETATM    9  O   UNL     1     -12.431  11.529  63.192  1.00  0.00    -0.326 OA 
BRANCH   7  10
HETATM   10  C   UNL     1     -11.460  13.262  64.567  1.00  0.00    -0.399 A  
HETATM   11  C   UNL     1     -10.978  14.579  64.645  1.00  0.00    -0.351 A  
HETATM   12  C   UNL     1     -11.132  15.338  65.806  1.00  0.00    -0.301 A  
HETATM   13  C   UNL     1     -11.761  14.788  66.915  1.00  0.00    -0.302 A  
HETATM   14  C   UNL     1     -12.127  12.737  65.688  1.00  0.00    -0.514 A  
HETATM   15  C   UNL     1     -12.280  13.497  66.855  1.00  0.00    -0.377 A  
BRANCH  13  16
HETATM   16  N   UNL     1     -11.885  15.577  68.094  1.00  0.00    -0.419 N  
HETATM   17  H   UNL     1     -12.536  16.362  68.136  1.00  0.00     0.000 HD 
BRANCH  16  18
HETATM   18  S   UNL     1     -10.919  15.173  69.420  1.00  0.00    -0.280 S  
HETATM   19  O   UNL     1      -9.730  14.484  68.978  1.00  0.00    -0.200 OA 
HETATM   20  O   UNL     1     -10.834  16.384  70.211  1.00  0.00    -0.309 OA 
HETATM   21  C   UNL     1     -11.968  14.033  70.299  1.00  0.00    -0.339 C  
ENDBRANCH  16  18
ENDBRANCH  13  16
ENDBRANCH   7  10
ENDBRANCH   6   7
ENDBRANCH   4   6
ENDBRANCH   2   4
TORSDOF 6
ENDMDL
MODEL       64
REMARK 921   NORMALIZED FREE ENERGY PREDICTED BY IDOCK:   -4.40 KCAL/MOL
REMARK 922        TOTAL FREE ENERGY PREDICTED BY IDOCK:   -6.59 KCAL/MOL
REMARK 923 INTER-LIGAND FREE ENERGY PREDICTED BY IDOCK:   -6.03 KCAL/MOL
REMARK 924 INTRA-LIGAND FREE ENERGY PREDICTED BY IDOCK:   -0.56 KCAL/MOL
REMARK 927      BINDING AFFINITY PREDICTED BY RF-SCORE:    0.00 PKD
ROOT
HETATM    1  C   UNL     1     -14.211   8.427  72.307  1.00  0.00    -0.436 C  
HETATM    2  C   UNL     1     -13.167   9.323  71.642  1.00  0.00    -0.388 C  
HETATM    3  C   UNL     1     -13.393  10.776  72.066  1.00  0.00    -0.403 C  
ENDROOT
BRANCH   2   4
HETATM    4  N   UNL     1     -11.827   8.840  72.011  1.00  0.00    -0.356 NA 
HETATM    5  H   UNL     1     -11.884   8.039  72.639  1.00  0.00     0.000 HD 
BRANCH   4   6
HETATM    6  C   UNL     1     -11.002   8.534  70.833  1.00  0.00    -0.251 C  
BRANCH   6   7
HETATM    7  C   UNL     1     -10.061   9.687  70.402  1.00  0.00    -0.276 C  
HETATM    8  H   UNL     1      -8.191   9.836  69.857  1.00  0.00     0.000 HD 
HETATM    9  O   UNL     1      -8.768   9.130  70.121  1.00  0.00    -0.145 OA 
BRANCH   7  10
HETATM   10  C   UNL     1     -10.551  10.463  69.182  1.00  0.00    -0.255 A  
HETATM   11  C   UNL     1     -11.335  11.624  69.282  1.00  0.00    -0.353 A  
HETATM   12  C   UNL     1     -11.783  12.295  68.143  1.00  0.00    -0.408 A  
HETATM   13  C   UNL     1     -11.464  11.809  66.882  1.00  0.00    -0.293 A  
HETATM   14  C   UNL     1     -10.209  10.009  67.896  1.00  0.00    -0.228 A  
HETATM   15  C   UNL     1     -10.659  10.679  66.752  1.00  0.00    -0.297 A  
BRANCH  13  16
HETATM   16  N   UNL     1     -11.953  12.501  65.737  1.00  0.00    -0.435 N  
HETATM   17  H   UNL     1     -12.914  12.376  65.417  1.00  0.00     0.000 HD 
BRANCH  16  18
HETATM   18  S   UNL     1     -10.891  13.534  64.927  1.00  0.00    -0.385 S  
HETATM   19  O   UNL     1      -9.948  14.108  65.857  1.00  0.00    -0.298 OA 
HETATM   20  O   UNL     1     -10.443  12.787  63.769  1.00  0.00    -0.408 OA 
HETATM   21  C   UNL     1     -11.995  14.806  64.346  1.00  0.00    -0.417 C  
ENDBRANCH  16  18
ENDBRANCH  13  16
ENDBRANCH   7  10
ENDBRANCH   6   7
ENDBRANCH   4   6
ENDBRANCH   2   4
TORSDOF 6
ENDMDL
MODEL       65
REMARK 921   NORMALIZED FREE ENERGY PREDICTED BY IDOCK:   -4.39 KCAL/MOL
REMARK 922        TOTAL FREE ENERGY PREDICTED BY IDOCK:   -6.57 KCAL/MOL
REMARK 923 INTER-LIGAND FREE ENERGY PREDICTED BY IDOCK:   -5.93 KCAL/MOL
REMARK 924 INTRA-LIGAND FREE ENERGY PREDICTED BY IDOCK:   -0.64 KCAL/MOL
REMARK 927      BINDING AFFINITY PREDICTED BY RF-SCORE:    0.00 PKD
ROOT
HETATM    1  C   UNL     1      -7.310  19.598  68.906  1.00  0.00    -0.373 C  
HETATM    2  C   UNL     1      -7.332  20.036  67.443  1.00  0.00    -0.270 C  
HETATM    3  C   UNL     1      -7.055  18.830  66.541  1.00  0.00    -0.240 C  
ENDROOT
BRANCH   2   4
HETATM    4  N   UNL     1      -8.634  20.656  67.154  1.00  0.00    -0.537 NA 
HETATM    5  H   UNL     1      -8.881  20.554  66.170  1.00  0.00     0.000 HD 
BRANCH   4   6
HETATM    6  C   UNL     1      -9.701  20.144  68.026  1.00  0.00    -0.334 C  
BRANCH   6   7
HETATM    7  C   UNL     1     -10.729  19.238  67.302  1.00  0.00    -0.488 C  
HETATM    8  H   UNL     1     -11.318  18.990  65.456  1.00  0.00     0.000 HD 
HETATM    9  O   UNL     1     -10.689  19.545  65.900  1.00  0.00    -0.483 OA 
BRANCH   7  10
HETATM   10  C   UNL     1     -10.482  17.743  67.497  1.00  0.00    -0.376 A  
HETATM   11  C   UNL     1     -10.625  16.806  66.460  1.00  0.00    -0.198 A  
HETATM   12  C   UNL     1     -10.412  15.445  66.681  1.00  0.00    -0.293 A  
HETATM   13  C   UNL     1     -10.062  14.995  67.947  1.00  0.00    -0.226 A  
HETATM   14  C   UNL     1     -10.091  17.271  68.762  1.00  0.00    -0.337 A  
HETATM   15  C   UNL     1      -9.878  15.904  68.986  1.00  0.00    -0.234 A  
BRANCH  13  16
HETATM   16  N   UNL     1      -9.872  13.598  68.149  1.00  0.00    -0.231 N  
HETATM   17  H   UNL     1      -8.939  13.185  68.129  1.00  0.00     0.000 HD 
BRANCH  16  18
HETATM   18  S   UNL     1     -11.240  12.646  68.423  1.00  0.00    -0.303 S  
HETATM   19  O   UNL     1     -11.924  12.388  67.179  1.00  0.00    -0.528 OA 
HETATM   20  O   UNL     1     -10.785  11.562  69.269  1.00  0.00    -0.204 OA 
HETATM   21  C   UNL     1     -12.238  13.726  69.430  1.00  0.00    -0.278 C  
ENDBRANCH  16  18
ENDBRANCH  13  16
ENDBRANCH   7  10
ENDBRANCH   6   7
ENDBRANCH   4   6
ENDBRANCH   2   4
TORSDOF 6
ENDMDL
MODEL       66
REMARK 921   NORMALIZED FREE ENERGY PREDICTED BY IDOCK:   -4.38 KCAL/MOL
REMARK 922        TOTAL FREE ENERGY PREDICTED BY IDOCK:   -6.56 KCAL/MOL
REMARK 923 INTER-LIGAND FREE ENERGY PREDICTED BY IDOCK:   -6.22 KCAL/MOL
REMARK 924 INTRA-LIGAND FREE ENERGY PREDICTED BY IDOCK:   -0.34 KCAL/MOL
REMARK 927      BINDING AFFINITY PREDICTED BY RF-SCORE:    0.00 PKD
ROOT
HETATM    1  C   UNL     1     -14.068  14.465  72.101  1.00  0.00    -0.627 C  
HETATM    2  C   UNL     1     -12.920  15.466  72.217  1.00  0.00    -0.391 C  
HETATM    3  C   UNL     1     -12.443  15.536  73.669  1.00  0.00    -0.713 C  
ENDROOT
BRANCH   2   4
HETATM    4  N   UNL     1     -11.844  15.059  71.299  1.00  0.00    -0.315 NA 
HETATM    5  H   UNL     1     -12.133  14.270  70.720  1.00  0.00     0.000 HD 
BRANCH   4   6
HETATM    6  C   UNL     1     -11.364  16.176  70.472  1.00  0.00    -0.373 C  
BRANCH   6   7
HETATM    7  C   UNL     1     -10.945  15.768  69.038  1.00  0.00    -0.262 C  
HETATM    8  H   UNL     1     -11.859  15.070  67.459  1.00  0.00     0.000 HD 
HETATM    9  O   UNL     1     -12.116  15.321  68.338  1.00  0.00    -0.236 OA 
BRANCH   7  10
HETATM   10  C   UNL     1     -10.282  16.891  68.243  1.00  0.00    -0.318 A  
HETATM   11  C   UNL     1     -10.639  17.201  66.920  1.00  0.00    -0.209 A  
HETATM   12  C   UNL     1      -9.996  18.221  66.218  1.00  0.00    -0.361 A  
HETATM   13  C   UNL     1      -8.975  18.942  66.823  1.00  0.00    -0.313 A  
HETATM   14  C   UNL     1      -9.271  17.658  68.849  1.00  0.00    -0.143 A  
HETATM   15  C   UNL     1      -8.623  18.680  68.145  1.00  0.00    -0.332 A  
BRANCH  13  16
HETATM   16  N   UNL     1      -8.321  19.963  66.075  1.00  0.00    -0.452 N  
HETATM   17  H   UNL     1      -8.814  20.813  65.801  1.00  0.00     0.000 HD 
BRANCH  16  18
HETATM   18  S   UNL     1      -6.702  19.721  65.657  1.00  0.00    -0.284 S  
HETATM   19  O   UNL     1      -5.841  20.142  66.736  1.00  0.00    -0.173 OA 
HETATM   20  O   UNL     1      -6.643  18.372  65.133  1.00  0.00    -0.471 OA 
HETATM   21  C   UNL     1      -6.512  20.837  64.281  1.00  0.00    -0.248 C  
ENDBRANCH  16  18
ENDBRANCH  13  16
ENDBRANCH   7  10
ENDBRANCH   6   7
ENDBRANCH   4   6
ENDBRANCH   2   4
TORSDOF 6
ENDMDL
MODEL       67
REMARK 921   NORMALIZED FREE ENERGY PREDICTED BY IDOCK:   -4.37 KCAL/MOL
REMARK 922        TOTAL FREE ENERGY PREDICTED BY IDOCK:   -6.55 KCAL/MOL
REMARK 923 INTER-LIGAND FREE ENERGY PREDICTED BY IDOCK:   -6.13 KCAL/MOL
REMARK 924 INTRA-LIGAND FREE ENERGY PREDICTED BY IDOCK:   -0.41 KCAL/MOL
REMARK 927      BINDING AFFINITY PREDICTED BY RF-SCORE:    0.00 PKD
ROOT
HETATM    1  C   UNL     1     -10.723  19.918  65.710  1.00  0.00    -0.423 C  
HETATM    2  C   UNL     1      -9.588  19.280  66.509  1.00  0.00    -0.363 C  
HETATM    3  C   UNL     1     -10.038  19.063  67.956  1.00  0.00    -0.458 C  
ENDROOT
BRANCH   2   4
HETATM    4  N   UNL     1      -9.198  18.022  65.855  1.00  0.00    -0.501 NA 
HETATM    5  H   UNL     1      -8.190  17.983  65.701  1.00  0.00     0.000 HD 
BRANCH   4   6
HETATM    6  C   UNL     1      -9.667  16.840  66.594  1.00  0.00    -0.269 C  
BRANCH   6   7
HETATM    7  C   UNL     1     -10.785  16.045  65.872  1.00  0.00    -0.280 C  
HETATM    8  H   UNL     1     -11.507  15.981  64.059  1.00  0.00     0.000 HD 
HETATM    9  O   UNL     1     -10.822  16.468  64.501  1.00  0.00    -0.802 OA 
BRANCH   7  10
HETATM   10  C   UNL     1     -10.601  14.530  65.928  1.00  0.00    -0.315 A  
HETATM   11  C   UNL     1      -9.446  13.922  66.449  1.00  0.00    -0.268 A  
HETATM   12  C   UNL     1      -9.304  12.534  66.463  1.00  0.00    -0.233 A  
HETATM   13  C   UNL     1     -10.310  11.729  65.946  1.00  0.00    -0.241 A  
HETATM   14  C   UNL     1     -11.623  13.695  65.443  1.00  0.00    -0.334 A  
HETATM   15  C   UNL     1     -11.481  12.302  65.455  1.00  0.00    -0.402 A  
BRANCH  13  16
HETATM   16  N   UNL     1     -10.129  10.316  65.953  1.00  0.00    -0.256 N  
HETATM   17  H   UNL     1      -9.845   9.817  65.110  1.00  0.00     0.000 HD 
BRANCH  16  18
HETATM   18  S   UNL     1     -10.398   9.494  67.404  1.00  0.00    -0.269 S  
HETATM   19  O   UNL     1     -11.250  10.275  68.268  1.00  0.00    -0.276 OA 
HETATM   20  O   UNL     1     -10.759   8.145  67.014  1.00  0.00    -0.321 OA 
HETATM   21  C   UNL     1      -8.757   9.429  68.095  1.00  0.00    -0.124 C  
ENDBRANCH  16  18
ENDBRANCH  13  16
ENDBRANCH   7  10
ENDBRANCH   6   7
ENDBRANCH   4   6
ENDBRANCH   2   4
TORSDOF 6
ENDMDL
MODEL       68
REMARK 921   NORMALIZED FREE ENERGY PREDICTED BY IDOCK:   -4.37 KCAL/MOL
REMARK 922        TOTAL FREE ENERGY PREDICTED BY IDOCK:   -6.55 KCAL/MOL
REMARK 923 INTER-LIGAND FREE ENERGY PREDICTED BY IDOCK:   -6.07 KCAL/MOL
REMARK 924 INTRA-LIGAND FREE ENERGY PREDICTED BY IDOCK:   -0.47 KCAL/MOL
REMARK 927      BINDING AFFINITY PREDICTED BY RF-SCORE:    0.00 PKD
ROOT
HETATM    1  C   UNL     1     -10.796  15.836  70.154  1.00  0.00    -0.360 C  
HETATM    2  C   UNL     1     -11.989  14.883  70.188  1.00  0.00    -0.317 C  
HETATM    3  C   UNL     1     -13.138  15.526  70.970  1.00  0.00    -0.551 C  
ENDROOT
BRANCH   2   4
HETATM    4  N   UNL     1     -12.373  14.558  68.806  1.00  0.00    -0.586 NA 
HETATM    5  H   UNL     1     -12.523  15.404  68.256  1.00  0.00     0.000 HD 
BRANCH   4   6
HETATM    6  C   UNL     1     -11.404  13.665  68.154  1.00  0.00    -0.288 C  
BRANCH   6   7
HETATM    7  C   UNL     1     -11.908  12.212  67.967  1.00  0.00    -0.285 C  
HETATM    8  H   UNL     1     -11.745  10.842  66.584  1.00  0.00     0.000 HD 
HETATM    9  O   UNL     1     -11.436  11.733  66.699  1.00  0.00    -0.399 OA 
BRANCH   7  10
HETATM   10  C   UNL     1     -11.456  11.254  69.067  1.00  0.00    -0.369 A  
HETATM   11  C   UNL     1     -12.255  10.940  70.179  1.00  0.00    -0.423 A  
HETATM   12  C   UNL     1     -11.800  10.076  71.176  1.00  0.00    -0.481 A  
HETATM   13  C   UNL     1     -10.530   9.519  71.085  1.00  0.00    -0.288 A  
HETATM   14  C   UNL     1     -10.190  10.650  68.975  1.00  0.00    -0.231 A  
HETATM   15  C   UNL     1      -9.730   9.785  69.976  1.00  0.00    -0.292 A  
BRANCH  13  16
HETATM   16  N   UNL     1     -10.083   8.659  72.127  1.00  0.00    -0.320 N  
HETATM   17  H   UNL     1      -9.690   9.037  72.990  1.00  0.00     0.000 HD 
BRANCH  16  18
HETATM   18  S   UNL     1     -10.224   6.992  71.890  1.00  0.00    -0.187 S  
HETATM   19  O   UNL     1     -11.355   6.704  71.041  1.00  0.00    -0.280 OA 
HETATM   20  O   UNL     1      -8.891   6.545  71.541  1.00  0.00    -0.139 OA 
HETATM   21  C   UNL     1     -10.564   6.418  73.542  1.00  0.00    -0.276 C  
ENDBRANCH  16  18
ENDBRANCH  13  16
ENDBRANCH   7  10
ENDBRANCH   6   7
ENDBRANCH   4   6
ENDBRANCH   2   4
TORSDOF 6
ENDMDL
MODEL       69
REMARK 921   NORMALIZED FREE ENERGY PREDICTED BY IDOCK:   -4.34 KCAL/MOL
REMARK 922        TOTAL FREE ENERGY PREDICTED BY IDOCK:   -6.51 KCAL/MOL
REMARK 923 INTER-LIGAND FREE ENERGY PREDICTED BY IDOCK:   -6.27 KCAL/MOL
REMARK 924 INTRA-LIGAND FREE ENERGY PREDICTED BY IDOCK:   -0.24 KCAL/MOL
REMARK 927      BINDING AFFINITY PREDICTED BY RF-SCORE:    0.00 PKD
ROOT
HETATM    1  C   UNL     1      -8.141  19.045  68.358  1.00  0.00    -0.381 C  
HETATM    2  C   UNL     1      -9.588  19.497  68.170  1.00  0.00    -0.368 C  
HETATM    3  C   UNL     1      -9.647  20.610  67.121  1.00  0.00    -0.534 C  
ENDROOT
BRANCH   2   4
HETATM    4  N   UNL     1     -10.400  18.331  67.787  1.00  0.00    -0.383 NA 
HETATM    5  H   UNL     1     -11.386  18.483  68.001  1.00  0.00     0.000 HD 
BRANCH   4   6
HETATM    6  C   UNL     1     -10.214  17.960  66.377  1.00  0.00    -0.372 C  
BRANCH   6   7
HETATM    7  C   UNL     1     -11.026  16.717  65.937  1.00  0.00     0.060 C  
HETATM    8  H   UNL     1     -11.302  15.747  64.264  1.00  0.00     0.000 HD 
HETATM    9  O   UNL     1     -10.804  16.509  64.534  1.00  0.00    -0.802 OA 
BRANCH   7  10
HETATM   10  C   UNL     1     -10.667  15.442  66.697  1.00  0.00    -0.309 A  
HETATM   11  C   UNL     1      -9.679  14.545  66.256  1.00  0.00    -0.330 A  
HETATM   12  C   UNL     1      -9.392  13.378  66.966  1.00  0.00    -0.243 A  
HETATM   13  C   UNL     1     -10.098  13.081  68.125  1.00  0.00    -0.237 A  
HETATM   14  C   UNL     1     -11.342  15.141  67.892  1.00  0.00    -0.346 A  
HETATM   15  C   UNL     1     -11.058  13.969  68.605  1.00  0.00    -0.286 A  
BRANCH  13  16
HETATM   16  N   UNL     1      -9.800  11.874  68.818  1.00  0.00    -0.389 N  
HETATM   17  H   UNL     1      -8.930  11.767  69.340  1.00  0.00     0.000 HD 
BRANCH  16  18
HETATM   18  S   UNL     1     -10.933  10.623  68.746  1.00  0.00    -0.267 S  
HETATM   19  O   UNL     1     -11.915  10.898  67.725  1.00  0.00    -0.553 OA 
HETATM   20  O   UNL     1     -10.151   9.403  68.726  1.00  0.00    -0.180 OA 
HETATM   21  C   UNL     1     -11.702  10.737  70.349  1.00  0.00    -0.351 C  
ENDBRANCH  16  18
ENDBRANCH  13  16
ENDBRANCH   7  10
ENDBRANCH   6   7
ENDBRANCH   4   6
ENDBRANCH   2   4
TORSDOF 6
ENDMDL
MODEL       70
REMARK 921   NORMALIZED FREE ENERGY PREDICTED BY IDOCK:   -4.33 KCAL/MOL
REMARK 922        TOTAL FREE ENERGY PREDICTED BY IDOCK:   -6.49 KCAL/MOL
REMARK 923 INTER-LIGAND FREE ENERGY PREDICTED BY IDOCK:   -5.79 KCAL/MOL
REMARK 924 INTRA-LIGAND FREE ENERGY PREDICTED BY IDOCK:   -0.70 KCAL/MOL
REMARK 927      BINDING AFFINITY PREDICTED BY RF-SCORE:    0.00 PKD
ROOT
HETATM    1  C   UNL     1     -11.088  11.252  66.427  1.00  0.00    -0.257 C  
HETATM    2  C   UNL     1     -11.032  10.456  67.729  1.00  0.00    -0.309 C  
HETATM    3  C   UNL     1      -9.674  10.668  68.403  1.00  0.00    -0.172 C  
ENDROOT
BRANCH   2   4
HETATM    4  N   UNL     1     -12.149  10.877  68.589  1.00  0.00    -0.796 NA 
HETATM    5  H   UNL     1     -12.703  10.075  68.893  1.00  0.00     0.000 HD 
BRANCH   4   6
HETATM    6  C   UNL     1     -11.698  11.676  69.737  1.00  0.00    -0.352 C  
BRANCH   6   7
HETATM    7  C   UNL     1     -12.518  12.971  69.968  1.00  0.00    -0.043 C  
HETATM    8  H   UNL     1     -13.171  13.953  71.524  1.00  0.00     0.000 HD 
HETATM    9  O   UNL     1     -12.669  13.160  71.383  1.00  0.00    -0.357 OA 
BRANCH   7  10
HETATM   10  C   UNL     1     -11.888  14.220  69.357  1.00  0.00    -0.372 A  
HETATM   11  C   UNL     1     -11.748  14.403  67.971  1.00  0.00    -0.374 A  
HETATM   12  C   UNL     1     -11.147  15.549  67.449  1.00  0.00    -0.285 A  
HETATM   13  C   UNL     1     -10.663  16.529  68.306  1.00  0.00    -0.345 A  
HETATM   14  C   UNL     1     -11.425  15.241  70.205  1.00  0.00    -0.326 A  
HETATM   15  C   UNL     1     -10.819  16.391  69.683  1.00  0.00    -0.346 A  
BRANCH  13  16
HETATM   16  N   UNL     1     -10.034  17.678  67.747  1.00  0.00    -0.302 N  
HETATM   17  H   UNL     1     -10.540  18.558  67.647  1.00  0.00     0.000 HD 
BRANCH  16  18
HETATM   18  S   UNL     1      -8.424  17.536  67.256  1.00  0.00    -0.218 S  
HETATM   19  O   UNL     1      -7.808  16.396  67.892  1.00  0.00    -0.148 OA 
HETATM   20  O   UNL     1      -8.455  17.664  65.813  1.00  0.00    -0.525 OA 
HETATM   21  C   UNL     1      -7.712  19.033  67.909  1.00  0.00    -0.266 C  
ENDBRANCH  16  18
ENDBRANCH  13  16
ENDBRANCH   7  10
ENDBRANCH   6   7
ENDBRANCH   4   6
ENDBRANCH   2   4
TORSDOF 6
ENDMDL
MODEL       71
REMARK 921   NORMALIZED FREE ENERGY PREDICTED BY IDOCK:   -4.30 KCAL/MOL
REMARK 922        TOTAL FREE ENERGY PREDICTED BY IDOCK:   -6.46 KCAL/MOL
REMARK 923 INTER-LIGAND FREE ENERGY PREDICTED BY IDOCK:   -5.77 KCAL/MOL
REMARK 924 INTRA-LIGAND FREE ENERGY PREDICTED BY IDOCK:   -0.69 KCAL/MOL
REMARK 927      BINDING AFFINITY PREDICTED BY RF-SCORE:    0.00 PKD
ROOT
HETATM    1  C   UNL     1     -10.322  16.091  68.128  1.00  0.00    -0.260 C  
HETATM    2  C   UNL     1      -9.773  15.845  66.724  1.00  0.00    -0.238 C  
HETATM    3  C   UNL     1      -8.862  14.615  66.737  1.00  0.00    -0.269 C  
ENDROOT
BRANCH   2   4
HETATM    4  N   UNL     1     -10.904  15.687  65.796  1.00  0.00    -0.324 NA 
HETATM    5  H   UNL     1     -10.580  15.477  64.852  1.00  0.00     0.000 HD 
BRANCH   4   6
HETATM    6  C   UNL     1     -11.870  14.681  66.261  1.00  0.00    -0.291 C  
BRANCH   6   7
HETATM    7  C   UNL     1     -12.392  13.741  65.145  1.00  0.00    -0.448 C  
HETATM    8  H   UNL     1     -12.861  13.937  63.259  1.00  0.00     0.000 HD 
HETATM    9  O   UNL     1     -12.542  14.512  63.943  1.00  0.00    -0.827 OA 
BRANCH   7  10
HETATM   10  C   UNL     1     -11.483  12.547  64.866  1.00  0.00    -0.367 A  
HETATM   11  C   UNL     1     -11.010  12.233  63.581  1.00  0.00    -0.532 A  
HETATM   12  C   UNL     1     -10.198  11.120  63.361  1.00  0.00    -0.435 A  
HETATM   13  C   UNL     1      -9.853  10.293  64.422  1.00  0.00    -0.305 A  
HETATM   14  C   UNL     1     -11.091  11.718  65.932  1.00  0.00    -0.355 A  
HETATM   15  C   UNL     1     -10.278  10.599  65.712  1.00  0.00    -0.317 A  
BRANCH  13  16
HETATM   16  N   UNL     1      -9.041   9.152  64.165  1.00  0.00    -0.418 N  
HETATM   17  H   UNL     1      -9.361   8.406  63.546  1.00  0.00     0.000 HD 
BRANCH  16  18
HETATM   18  S   UNL     1      -7.530   9.072  64.917  1.00  0.00    -0.108 S  
HETATM   19  O   UNL     1      -6.909  10.375  64.926  1.00  0.00    -0.114 OA 
HETATM   20  O   UNL     1      -7.757   8.341  66.148  1.00  0.00    -0.092 OA 
HETATM   21  C   UNL     1      -6.632   7.998  63.816  1.00  0.00    -0.067 C  
ENDBRANCH  16  18
ENDBRANCH  13  16
ENDBRANCH   7  10
ENDBRANCH   6   7
ENDBRANCH   4   6
ENDBRANCH   2   4
TORSDOF 6
ENDMDL
MODEL       72
REMARK 921   NORMALIZED FREE ENERGY PREDICTED BY IDOCK:   -4.28 KCAL/MOL
REMARK 922        TOTAL FREE ENERGY PREDICTED BY IDOCK:   -6.42 KCAL/MOL
REMARK 923 INTER-LIGAND FREE ENERGY PREDICTED BY IDOCK:   -5.96 KCAL/MOL
REMARK 924 INTRA-LIGAND FREE ENERGY PREDICTED BY IDOCK:   -0.46 KCAL/MOL
REMARK 927      BINDING AFFINITY PREDICTED BY RF-SCORE:    0.00 PKD
ROOT
HETATM    1  C   UNL     1     -10.660  19.817  65.863  1.00  0.00    -0.557 C  
HETATM    2  C   UNL     1      -9.508  19.149  66.612  1.00  0.00    -0.344 C  
HETATM    3  C   UNL     1      -9.823  19.110  68.109  1.00  0.00    -0.444 C  
ENDROOT
BRANCH   2   4
HETATM    4  N   UNL     1      -9.298  17.804  66.054  1.00  0.00    -0.523 NA 
HETATM    5  H   UNL     1      -8.314  17.537  66.097  1.00  0.00     0.000 HD 
BRANCH   4   6
HETATM    6  C   UNL     1     -10.151  16.795  66.698  1.00  0.00    -0.300 C  
BRANCH   6   7
HETATM    7  C   UNL     1     -11.146  16.099  65.734  1.00  0.00     0.014 C  
HETATM    8  H   UNL     1     -11.529  16.184  63.820  1.00  0.00     0.000 HD 
HETATM    9  O   UNL     1     -10.920  16.610  64.411  1.00  0.00    -0.924 OA 
BRANCH   7  10
HETATM   10  C   UNL     1     -11.025  14.577  65.713  1.00  0.00    -0.319 A  
HETATM   11  C   UNL     1     -11.444  13.765  66.780  1.00  0.00    -0.367 A  
HETATM   12  C   UNL     1     -11.299  12.378  66.734  1.00  0.00    -0.391 A  
HETATM   13  C   UNL     1     -10.720  11.778  65.623  1.00  0.00    -0.280 A  
HETATM   14  C   UNL     1     -10.477  13.947  64.582  1.00  0.00    -0.419 A  
HETATM   15  C   UNL     1     -10.328  12.555  64.535  1.00  0.00    -0.362 A  
BRANCH  13  16
HETATM   16  N   UNL     1     -10.564  10.363  65.612  1.00  0.00    -0.099 N  
HETATM   17  H   UNL     1     -11.374   9.744  65.567  1.00  0.00     0.000 HD 
BRANCH  16  18
HETATM   18  S   UNL     1      -8.995   9.741  65.677  1.00  0.00    -0.177 S  
HETATM   19  O   UNL     1      -8.507   9.481  64.344  1.00  0.00    -0.156 OA 
HETATM   20  O   UNL     1      -8.277  10.617  66.581  1.00  0.00    -0.125 OA 
HETATM   21  C   UNL     1      -9.252   8.195  66.524  1.00  0.00    -0.188 C  
ENDBRANCH  16  18
ENDBRANCH  13  16
ENDBRANCH   7  10
ENDBRANCH   6   7
ENDBRANCH   4   6
ENDBRANCH   2   4
TORSDOF 6
ENDMDL
MODEL       73
REMARK 921   NORMALIZED FREE ENERGY PREDICTED BY IDOCK:   -4.27 KCAL/MOL
REMARK 922        TOTAL FREE ENERGY PREDICTED BY IDOCK:   -6.42 KCAL/MOL
REMARK 923 INTER-LIGAND FREE ENERGY PREDICTED BY IDOCK:   -5.93 KCAL/MOL
REMARK 924 INTRA-LIGAND FREE ENERGY PREDICTED BY IDOCK:   -0.49 KCAL/MOL
REMARK 927      BINDING AFFINITY PREDICTED BY RF-SCORE:    0.00 PKD
ROOT
HETATM    1  C   UNL     1      -8.280  18.489  68.553  1.00  0.00    -0.360 C  
HETATM    2  C   UNL     1      -9.694  19.050  68.691  1.00  0.00    -0.410 C  
HETATM    3  C   UNL     1     -10.107  19.730  67.383  1.00  0.00    -0.555 C  
ENDROOT
BRANCH   2   4
HETATM    4  N   UNL     1     -10.604  17.953  69.056  1.00  0.00    -0.361 NA 
HETATM    5  H   UNL     1     -11.546  18.121  68.700  1.00  0.00     0.000 HD 
BRANCH   4   6
HETATM    6  C   UNL     1     -10.099  16.642  68.622  1.00  0.00    -0.270 C  
BRANCH   6   7
HETATM    7  C   UNL     1     -10.953  15.969  67.517  1.00  0.00    -0.261 C  
HETATM    8  H   UNL     1     -10.806  15.739  65.583  1.00  0.00     0.000 HD 
HETATM    9  O   UNL     1     -10.284  16.151  66.260  1.00  0.00    -0.289 OA 
BRANCH   7  10
HETATM   10  C   UNL     1     -11.198  14.480  67.746  1.00  0.00    -0.312 A  
HETATM   11  C   UNL     1     -11.394  13.927  69.022  1.00  0.00    -0.324 A  
HETATM   12  C   UNL     1     -11.594  12.557  69.195  1.00  0.00    -0.375 A  
HETATM   13  C   UNL     1     -11.589  11.712  68.093  1.00  0.00    -0.319 A  
HETATM   14  C   UNL     1     -11.234  13.611  66.640  1.00  0.00    -0.324 A  
HETATM   15  C   UNL     1     -11.432  12.235  66.812  1.00  0.00    -0.421 A  
BRANCH  13  16
HETATM   16  N   UNL     1     -11.774  10.315  68.300  1.00  0.00    -0.451 N  
HETATM   17  H   UNL     1     -12.707   9.903  68.309  1.00  0.00     0.000 HD 
BRANCH  16  18
HETATM   18  S   UNL     1     -10.398   9.363  68.530  1.00  0.00    -0.213 S  
HETATM   19  O   UNL     1      -9.210  10.180  68.464  1.00  0.00    -0.136 OA 
HETATM   20  O   UNL     1     -10.687   8.554  69.697  1.00  0.00    -0.229 OA 
HETATM   21  C   UNL     1     -10.456   8.290  67.109  1.00  0.00    -0.316 C  
ENDBRANCH  16  18
ENDBRANCH  13  16
ENDBRANCH   7  10
ENDBRANCH   6   7
ENDBRANCH   4   6
ENDBRANCH   2   4
TORSDOF 6
ENDMDL
MODEL       74
REMARK 921   NORMALIZED FREE ENERGY PREDICTED BY IDOCK:   -4.26 KCAL/MOL
REMARK 922        TOTAL FREE ENERGY PREDICTED BY IDOCK:   -6.41 KCAL/MOL
REMARK 923 INTER-LIGAND FREE ENERGY PREDICTED BY IDOCK:   -6.05 KCAL/MOL
REMARK 924 INTRA-LIGAND FREE ENERGY PREDICTED BY IDOCK:   -0.35 KCAL/MOL
REMARK 927      BINDING AFFINITY PREDICTED BY RF-SCORE:    0.00 PKD
ROOT
HETATM    1  C   UNL     1      -9.111  19.733  68.105  1.00  0.00    -0.385 C  
HETATM    2  C   UNL     1     -10.467  19.564  67.421  1.00  0.00    -0.471 C  
HETATM    3  C   UNL     1     -10.362  20.003  65.959  1.00  0.00    -0.556 C  
ENDROOT
BRANCH   2   4
HETATM    4  N   UNL     1     -10.890  18.161  67.550  1.00  0.00    -0.335 NA 
HETATM    5  H   UNL     1     -11.561  17.911  66.823  1.00  0.00     0.000 HD 
BRANCH   4   6
HETATM    6  C   UNL     1      -9.750  17.234  67.563  1.00  0.00    -0.264 C  
BRANCH   6   7
HETATM    7  C   UNL     1      -9.470  16.556  66.197  1.00  0.00    -0.315 C  
HETATM    8  H   UNL     1      -8.017  16.588  64.893  1.00  0.00     0.000 HD 
HETATM    9  O   UNL     1      -8.188  17.003  65.729  1.00  0.00    -0.486 OA 
BRANCH   7  10
HETATM   10  C   UNL     1      -9.483  15.030  66.250  1.00  0.00    -0.342 A  
HETATM   11  C   UNL     1     -10.238  14.244  65.363  1.00  0.00    -0.395 A  
HETATM   12  C   UNL     1     -10.242  12.852  65.454  1.00  0.00    -0.301 A  
HETATM   13  C   UNL     1      -9.499  12.220  66.444  1.00  0.00    -0.237 A  
HETATM   14  C   UNL     1      -8.709  14.369  67.219  1.00  0.00    -0.228 A  
HETATM   15  C   UNL     1      -8.713  12.972  67.314  1.00  0.00    -0.209 A  
BRANCH  13  16
HETATM   16  N   UNL     1      -9.538  10.799  66.528  1.00  0.00    -0.179 N  
HETATM   17  H   UNL     1      -8.924  10.220  65.955  1.00  0.00     0.000 HD 
BRANCH  16  18
HETATM   18  S   UNL     1     -10.636  10.102  67.607  1.00  0.00    -0.283 S  
HETATM   19  O   UNL     1     -11.793  10.951  67.756  1.00  0.00    -0.579 OA 
HETATM   20  O   UNL     1     -10.766   8.725  67.179  1.00  0.00    -0.271 OA 
HETATM   21  C   UNL     1      -9.703  10.104  69.125  1.00  0.00    -0.215 C  
ENDBRANCH  16  18
ENDBRANCH  13  16
ENDBRANCH   7  10
ENDBRANCH   6   7
ENDBRANCH   4   6
ENDBRANCH   2   4
TORSDOF 6
ENDMDL
MODEL       75
REMARK 921   NORMALIZED FREE ENERGY PREDICTED BY IDOCK:   -4.26 KCAL/MOL
REMARK 922        TOTAL FREE ENERGY PREDICTED BY IDOCK:   -6.40 KCAL/MOL
REMARK 923 INTER-LIGAND FREE ENERGY PREDICTED BY IDOCK:   -5.90 KCAL/MOL
REMARK 924 INTRA-LIGAND FREE ENERGY PREDICTED BY IDOCK:   -0.50 KCAL/MOL
REMARK 927      BINDING AFFINITY PREDICTED BY RF-SCORE:    0.00 PKD
ROOT
HETATM    1  C   UNL     1      -9.905  10.679  64.063  1.00  0.00    -0.399 C  
HETATM    2  C   UNL     1     -10.277  12.147  63.863  1.00  0.00    -0.400 C  
HETATM    3  C   UNL     1     -11.749  12.254  63.460  1.00  0.00    -0.584 C  
ENDROOT
BRANCH   2   4
HETATM    4  N   UNL     1      -9.988  12.881  65.105  1.00  0.00    -0.473 NA 
HETATM    5  H   UNL     1     -10.670  13.624  65.261  1.00  0.00     0.000 HD 
BRANCH   4   6
HETATM    6  C   UNL     1      -9.899  11.990  66.271  1.00  0.00    -0.231 C  
BRANCH   6   7
HETATM    7  C   UNL     1     -10.922  12.308  67.391  1.00  0.00    -0.253 C  
HETATM    8  H   UNL     1     -12.867  12.433  67.513  1.00  0.00     0.000 HD 
HETATM    9  O   UNL     1     -12.240  12.238  66.828  1.00  0.00    -0.558 OA 
BRANCH   7  10
HETATM   10  C   UNL     1     -10.837  11.368  68.592  1.00  0.00    -0.249 A  
HETATM   11  C   UNL     1     -11.936  11.093  69.422  1.00  0.00    -0.420 A  
HETATM   12  C   UNL     1     -11.816  10.245  70.524  1.00  0.00    -0.419 A  
HETATM   13  C   UNL     1     -10.590   9.666  70.822  1.00  0.00    -0.322 A  
HETATM   14  C   UNL     1      -9.614  10.742  68.890  1.00  0.00    -0.204 A  
HETATM   15  C   UNL     1      -9.491   9.892  69.996  1.00  0.00    -0.246 A  
BRANCH  13  16
HETATM   16  N   UNL     1     -10.490   8.822  71.965  1.00  0.00    -0.346 N  
HETATM   17  H   UNL     1     -10.486   9.211  72.908  1.00  0.00     0.000 HD 
BRANCH  16  18
HETATM   18  S   UNL     1     -10.380   7.156  71.709  1.00  0.00    -0.196 S  
HETATM   19  O   UNL     1     -11.243   6.761  70.622  1.00  0.00    -0.272 OA 
HETATM   20  O   UNL     1      -8.960   6.870  71.681  1.00  0.00    -0.136 OA 
HETATM   21  C   UNL     1     -11.025   6.510  73.239  1.00  0.00    -0.195 C  
ENDBRANCH  16  18
ENDBRANCH  13  16
ENDBRANCH   7  10
ENDBRANCH   6   7
ENDBRANCH   4   6
ENDBRANCH   2   4
TORSDOF 6
ENDMDL
MODEL       76
REMARK 921   NORMALIZED FREE ENERGY PREDICTED BY IDOCK:   -4.24 KCAL/MOL
REMARK 922        TOTAL FREE ENERGY PREDICTED BY IDOCK:   -6.38 KCAL/MOL
REMARK 923 INTER-LIGAND FREE ENERGY PREDICTED BY IDOCK:   -5.61 KCAL/MOL
REMARK 924 INTRA-LIGAND FREE ENERGY PREDICTED BY IDOCK:   -0.77 KCAL/MOL
REMARK 927      BINDING AFFINITY PREDICTED BY RF-SCORE:    0.00 PKD
ROOT
HETATM    1  C   UNL     1      -8.419  10.489  65.282  1.00  0.00    -0.175 C  
HETATM    2  C   UNL     1      -9.870  10.012  65.256  1.00  0.00    -0.318 C  
HETATM    3  C   UNL     1     -10.574  10.441  66.545  1.00  0.00    -0.220 C  
ENDROOT
BRANCH   2   4
HETATM    4  N   UNL     1     -10.525  10.559  64.057  1.00  0.00    -0.384 NA 
HETATM    5  H   UNL     1     -11.541  10.541  64.152  1.00  0.00     0.000 HD 
BRANCH   4   6
HETATM    6  C   UNL     1     -10.047  11.910  63.728  1.00  0.00    -0.398 C  
BRANCH   6   7
HETATM    7  C   UNL     1     -11.155  12.993  63.736  1.00  0.00    -0.312 C  
HETATM    8  H   UNL     1     -13.057  13.044  64.177  1.00  0.00     0.000 HD 
HETATM    9  O   UNL     1     -12.378  12.381  64.172  1.00  0.00    -0.432 OA 
BRANCH   7  10
HETATM   10  C   UNL     1     -10.844  14.190  64.632  1.00  0.00    -0.401 A  
HETATM   11  C   UNL     1     -11.334  15.481  64.375  1.00  0.00    -0.260 A  
HETATM   12  C   UNL     1     -11.011  16.556  65.204  1.00  0.00    -0.201 A  
HETATM   13  C   UNL     1     -10.181  16.360  66.301  1.00  0.00    -0.330 A  
HETATM   14  C   UNL     1     -10.036  14.006  65.768  1.00  0.00    -0.345 A  
HETATM   15  C   UNL     1      -9.709  15.084  66.601  1.00  0.00    -0.273 A  
BRANCH  13  16
HETATM   16  N   UNL     1      -9.850  17.478  67.118  1.00  0.00    -0.287 N  
HETATM   17  H   UNL     1     -10.503  17.830  67.819  1.00  0.00     0.000 HD 
BRANCH  16  18
HETATM   18  S   UNL     1      -8.342  18.204  66.889  1.00  0.00    -0.252 S  
HETATM   19  O   UNL     1      -7.817  17.861  65.590  1.00  0.00    -0.534 OA 
HETATM   20  O   UNL     1      -8.522  19.586  67.285  1.00  0.00    -0.283 OA 
HETATM   21  C   UNL     1      -7.363  17.412  68.149  1.00  0.00    -0.205 C  
ENDBRANCH  16  18
ENDBRANCH  13  16
ENDBRANCH   7  10
ENDBRANCH   6   7
ENDBRANCH   4   6
ENDBRANCH   2   4
TORSDOF 6
ENDMDL
MODEL       77
REMARK 921   NORMALIZED FREE ENERGY PREDICTED BY IDOCK:   -4.24 KCAL/MOL
REMARK 922        TOTAL FREE ENERGY PREDICTED BY IDOCK:   -6.37 KCAL/MOL
REMARK 923 INTER-LIGAND FREE ENERGY PREDICTED BY IDOCK:   -5.99 KCAL/MOL
REMARK 924 INTRA-LIGAND FREE ENERGY PREDICTED BY IDOCK:   -0.38 KCAL/MOL
REMARK 927      BINDING AFFINITY PREDICTED BY RF-SCORE:    0.00 PKD
ROOT
HETATM    1  C   UNL     1     -13.936  15.107  71.360  1.00  0.00    -0.595 C  
HETATM    2  C   UNL     1     -12.453  15.430  71.188  1.00  0.00    -0.402 C  
HETATM    3  C   UNL     1     -11.920  16.095  72.459  1.00  0.00    -0.660 C  
ENDROOT
BRANCH   2   4
HETATM    4  N   UNL     1     -11.732  14.187  70.869  1.00  0.00    -0.508 NA 
HETATM    5  H   UNL     1     -10.980  14.016  71.536  1.00  0.00     0.000 HD 
BRANCH   4   6
HETATM    6  C   UNL     1     -12.633  13.029  70.775  1.00  0.00    -0.241 C  
BRANCH   6   7
HETATM    7  C   UNL     1     -11.915  11.694  70.454  1.00  0.00    -0.358 C  
HETATM    8  H   UNL     1     -12.453   9.824  70.280  1.00  0.00     0.000 HD 
HETATM    9  O   UNL     1     -12.893  10.642  70.477  1.00  0.00    -0.349 OA 
BRANCH   7  10
HETATM   10  C   UNL     1     -11.199  11.685  69.106  1.00  0.00    -0.325 A  
HETATM   11  C   UNL     1      -9.872  11.248  68.951  1.00  0.00    -0.153 A  
HETATM   12  C   UNL     1      -9.242  11.275  67.706  1.00  0.00    -0.156 A  
HETATM   13  C   UNL     1      -9.925  11.750  66.594  1.00  0.00    -0.200 A  
HETATM   14  C   UNL     1     -11.884  12.127  67.960  1.00  0.00    -0.351 A  
HETATM   15  C   UNL     1     -11.253  12.156  66.710  1.00  0.00    -0.375 A  
BRANCH  13  16
HETATM   16  N   UNL     1      -9.251  11.786  65.340  1.00  0.00    -0.417 N  
HETATM   17  H   UNL     1      -8.693  12.595  65.066  1.00  0.00     0.000 HD 
BRANCH  16  18
HETATM   18  S   UNL     1      -9.406  10.447  64.322  1.00  0.00    -0.301 S  
HETATM   19  O   UNL     1      -9.676   9.261  65.098  1.00  0.00    -0.168 OA 
HETATM   20  O   UNL     1     -10.303  10.874  63.267  1.00  0.00    -0.325 OA 
HETATM   21  C   UNL     1      -7.772  10.334  63.620  1.00  0.00    -0.109 C  
ENDBRANCH  16  18
ENDBRANCH  13  16
ENDBRANCH   7  10
ENDBRANCH   6   7
ENDBRANCH   4   6
ENDBRANCH   2   4
TORSDOF 6
ENDMDL
MODEL       78
REMARK 921   NORMALIZED FREE ENERGY PREDICTED BY IDOCK:   -4.23 KCAL/MOL
REMARK 922        TOTAL FREE ENERGY PREDICTED BY IDOCK:   -6.36 KCAL/MOL
REMARK 923 INTER-LIGAND FREE ENERGY PREDICTED BY IDOCK:   -6.36 KCAL/MOL
REMARK 924 INTRA-LIGAND FREE ENERGY PREDICTED BY IDOCK:   -0.01 KCAL/MOL
REMARK 927      BINDING AFFINITY PREDICTED BY RF-SCORE:    0.00 PKD
ROOT
HETATM    1  C   UNL     1      -9.854   5.070  70.428  1.00  0.00    -0.301 C  
HETATM    2  C   UNL     1     -10.978   6.105  70.440  1.00  0.00    -0.337 C  
HETATM    3  C   UNL     1     -11.746   6.013  71.761  1.00  0.00    -0.249 C  
ENDROOT
BRANCH   2   4
HETATM    4  N   UNL     1     -10.393   7.438  70.230  1.00  0.00    -0.208 NA 
HETATM    5  H   UNL     1      -9.923   7.497  69.327  1.00  0.00     0.000 HD 
BRANCH   4   6
HETATM    6  C   UNL     1     -11.386   8.512  70.381  1.00  0.00    -0.182 C  
BRANCH   6   7
HETATM    7  C   UNL     1     -10.936   9.877  69.801  1.00  0.00    -0.268 C  
HETATM    8  H   UNL     1     -10.855  10.681  68.023  1.00  0.00     0.000 HD 
HETATM    9  O   UNL     1     -11.131   9.845  68.379  1.00  0.00    -0.217 OA 
BRANCH   7  10
HETATM   10  C   UNL     1     -11.682  11.074  70.385  1.00  0.00    -0.437 A  
HETATM   11  C   UNL     1     -12.477  10.986  71.540  1.00  0.00    -0.389 A  
HETATM   12  C   UNL     1     -13.162  12.097  72.033  1.00  0.00    -0.496 A  
HETATM   13  C   UNL     1     -13.073  13.316  71.372  1.00  0.00    -0.277 A  
HETATM   14  C   UNL     1     -11.576  12.325  69.753  1.00  0.00    -0.314 A  
HETATM   15  C   UNL     1     -12.265  13.441  70.245  1.00  0.00    -0.405 A  
BRANCH  13  16
HETATM   16  N   UNL     1     -13.800  14.428  71.884  1.00  0.00    -0.421 N  
HETATM   17  H   UNL     1     -14.751  14.625  71.570  1.00  0.00     0.000 HD 
BRANCH  16  18
HETATM   18  S   UNL     1     -13.038  15.409  73.029  1.00  0.00    -0.559 S  
HETATM   19  O   UNL     1     -13.967  16.387  73.543  1.00  0.00    -0.408 OA 
HETATM   20  O   UNL     1     -12.347  14.494  73.914  1.00  0.00    -0.403 OA 
HETATM   21  C   UNL     1     -11.805  16.230  72.040  1.00  0.00    -0.487 C  
ENDBRANCH  16  18
ENDBRANCH  13  16
ENDBRANCH   7  10
ENDBRANCH   6   7
ENDBRANCH   4   6
ENDBRANCH   2   4
TORSDOF 6
ENDMDL
MODEL       79
REMARK 921   NORMALIZED FREE ENERGY PREDICTED BY IDOCK:   -4.21 KCAL/MOL
REMARK 922        TOTAL FREE ENERGY PREDICTED BY IDOCK:   -6.33 KCAL/MOL
REMARK 923 INTER-LIGAND FREE ENERGY PREDICTED BY IDOCK:   -5.59 KCAL/MOL
REMARK 924 INTRA-LIGAND FREE ENERGY PREDICTED BY IDOCK:   -0.74 KCAL/MOL
REMARK 927      BINDING AFFINITY PREDICTED BY RF-SCORE:    0.00 PKD
ROOT
HETATM    1  C   UNL     1     -11.533   6.521  70.167  1.00  0.00    -0.477 C  
HETATM    2  C   UNL     1     -12.183   6.886  71.500  1.00  0.00    -0.371 C  
HETATM    3  C   UNL     1     -11.105   7.314  72.498  1.00  0.00    -0.334 C  
ENDROOT
BRANCH   2   4
HETATM    4  N   UNL     1     -13.175   7.948  71.267  1.00  0.00    -0.529 NA 
HETATM    5  H   UNL     1     -14.115   7.633  71.507  1.00  0.00     0.000 HD 
BRANCH   4   6
HETATM    6  C   UNL     1     -12.836   9.192  71.972  1.00  0.00    -0.408 C  
BRANCH   6   7
HETATM    7  C   UNL     1     -12.983  10.470  71.107  1.00  0.00    -0.411 C  
HETATM    8  H   UNL     1     -13.085  12.389  71.455  1.00  0.00     0.000 HD 
HETATM    9  O   UNL     1     -12.994  11.606  71.984  1.00  0.00    -0.416 OA 
BRANCH   7  10
HETATM   10  C   UNL     1     -11.876  10.646  70.070  1.00  0.00    -0.403 A  
HETATM   11  C   UNL     1     -10.602  10.073  70.211  1.00  0.00    -0.354 A  
HETATM   12  C   UNL     1      -9.608  10.273  69.252  1.00  0.00    -0.239 A  
HETATM   13  C   UNL     1      -9.868  11.062  68.139  1.00  0.00    -0.176 A  
HETATM   14  C   UNL     1     -12.130  11.410  68.917  1.00  0.00    -0.285 A  
HETATM   15  C   UNL     1     -11.133  11.614  67.955  1.00  0.00    -0.306 A  
BRANCH  13  16
HETATM   16  N   UNL     1      -8.829  11.267  67.187  1.00  0.00    -0.150 N  
HETATM   17  H   UNL     1      -8.082  11.940  67.361  1.00  0.00     0.000 HD 
BRANCH  16  18
HETATM   18  S   UNL     1      -8.873  10.362  65.762  1.00  0.00    -0.177 S  
HETATM   19  O   UNL     1      -9.602   9.134  65.975  1.00  0.00    -0.236 OA 
HETATM   20  O   UNL     1      -9.267  11.299  64.729  1.00  0.00    -0.185 OA 
HETATM   21  C   UNL     1      -7.148   9.989  65.515  1.00  0.00    -0.132 C  
ENDBRANCH  16  18
ENDBRANCH  13  16
ENDBRANCH   7  10
ENDBRANCH   6   7
ENDBRANCH   4   6
ENDBRANCH   2   4
TORSDOF 6
ENDMDL
MODEL       80
REMARK 921   NORMALIZED FREE ENERGY PREDICTED BY IDOCK:   -4.20 KCAL/MOL
REMARK 922        TOTAL FREE ENERGY PREDICTED BY IDOCK:   -6.32 KCAL/MOL
REMARK 923 INTER-LIGAND FREE ENERGY PREDICTED BY IDOCK:   -5.86 KCAL/MOL
REMARK 924 INTRA-LIGAND FREE ENERGY PREDICTED BY IDOCK:   -0.47 KCAL/MOL
REMARK 927      BINDING AFFINITY PREDICTED BY RF-SCORE:    0.00 PKD
ROOT
HETATM    1  C   UNL     1      -9.255  10.920  62.975  1.00  0.00    -0.329 C  
HETATM    2  C   UNL     1      -9.164   9.906  64.115  1.00  0.00    -0.262 C  
HETATM    3  C   UNL     1      -7.915  10.187  64.953  1.00  0.00    -0.150 C  
ENDROOT
BRANCH   2   4
HETATM    4  N   UNL     1     -10.397   9.982  64.914  1.00  0.00    -0.183 NA 
HETATM    5  H   UNL     1     -10.761   9.051  65.119  1.00  0.00     0.000 HD 
BRANCH   4   6
HETATM    6  C   UNL     1     -10.216  10.764  66.145  1.00  0.00    -0.250 C  
BRANCH   6   7
HETATM    7  C   UNL     1     -11.317  11.826  66.388  1.00  0.00    -0.297 C  
HETATM    8  H   UNL     1     -12.757  12.076  67.684  1.00  0.00     0.000 HD 
HETATM    9  O   UNL     1     -12.082  11.426  67.535  1.00  0.00    -0.592 OA 
BRANCH   7  10
HETATM   10  C   UNL     1     -10.778  13.237  66.611  1.00  0.00    -0.284 A  
HETATM   11  C   UNL     1      -9.674  13.750  65.909  1.00  0.00    -0.217 A  
HETATM   12  C   UNL     1      -9.195  15.038  66.154  1.00  0.00    -0.294 A  
HETATM   13  C   UNL     1      -9.806  15.833  67.116  1.00  0.00    -0.226 A  
HETATM   14  C   UNL     1     -11.403  14.072  67.553  1.00  0.00    -0.343 A  
HETATM   15  C   UNL     1     -10.923  15.364  67.803  1.00  0.00    -0.311 A  
BRANCH  13  16
HETATM   16  N   UNL     1      -9.283  17.134  67.362  1.00  0.00    -0.231 N  
HETATM   17  H   UNL     1      -8.617  17.300  68.117  1.00  0.00     0.000 HD 
BRANCH  16  18
HETATM   18  S   UNL     1      -9.800  18.394  66.362  1.00  0.00    -0.349 S  
HETATM   19  O   UNL     1      -8.686  19.244  66.017  1.00  0.00    -0.431 OA 
HETATM   20  O   UNL     1     -10.605  17.760  65.338  1.00  0.00    -0.659 OA 
HETATM   21  C   UNL     1     -10.907  19.281  67.440  1.00  0.00    -0.446 C  
ENDBRANCH  16  18
ENDBRANCH  13  16
ENDBRANCH   7  10
ENDBRANCH   6   7
ENDBRANCH   4   6
ENDBRANCH   2   4
TORSDOF 6
ENDMDL
MODEL       81
REMARK 921   NORMALIZED FREE ENERGY PREDICTED BY IDOCK:   -4.20 KCAL/MOL
REMARK 922        TOTAL FREE ENERGY PREDICTED BY IDOCK:   -6.32 KCAL/MOL
REMARK 923 INTER-LIGAND FREE ENERGY PREDICTED BY IDOCK:   -6.00 KCAL/MOL
REMARK 924 INTRA-LIGAND FREE ENERGY PREDICTED BY IDOCK:   -0.32 KCAL/MOL
REMARK 927      BINDING AFFINITY PREDICTED BY RF-SCORE:    0.00 PKD
ROOT
HETATM    1  C   UNL     1     -10.314   6.907  71.650  1.00  0.00    -0.216 C  
HETATM    2  C   UNL     1     -11.599   7.462  71.037  1.00  0.00    -0.288 C  
HETATM    3  C   UNL     1     -11.986   8.762  71.745  1.00  0.00    -0.418 C  
ENDROOT
BRANCH   2   4
HETATM    4  N   UNL     1     -11.387   7.658  69.594  1.00  0.00    -0.451 NA 
HETATM    5  H   UNL     1     -12.275   7.745  69.100  1.00  0.00     0.000 HD 
BRANCH   4   6
HETATM    6  C   UNL     1     -10.507   8.800  69.310  1.00  0.00    -0.219 C  
BRANCH   6   7
HETATM    7  C   UNL     1     -10.154   8.970  67.811  1.00  0.00    -0.208 C  
HETATM    8  H   UNL     1     -10.580   8.020  66.158  1.00  0.00     0.000 HD 
HETATM    9  O   UNL     1     -10.796   7.916  67.077  1.00  0.00    -0.305 OA 
BRANCH   7  10
HETATM   10  C   UNL     1     -10.571  10.317  67.226  1.00  0.00    -0.324 A  
HETATM   11  C   UNL     1     -10.276  10.698  65.905  1.00  0.00    -0.314 A  
HETATM   12  C   UNL     1     -10.655  11.947  65.411  1.00  0.00    -0.315 A  
HETATM   13  C   UNL     1     -11.325  12.843  66.233  1.00  0.00    -0.323 A  
HETATM   14  C   UNL     1     -11.283  11.225  68.029  1.00  0.00    -0.351 A  
HETATM   15  C   UNL     1     -11.662  12.480  67.535  1.00  0.00    -0.439 A  
BRANCH  13  16
HETATM   16  N   UNL     1     -11.680  14.119  65.710  1.00  0.00    -0.348 N  
HETATM   17  H   UNL     1     -12.594  14.278  65.284  1.00  0.00     0.000 HD 
BRANCH  16  18
HETATM   18  S   UNL     1     -10.540  15.361  65.816  1.00  0.00    -0.370 S  
HETATM   19  O   UNL     1      -9.210  14.808  65.907  1.00  0.00    -0.227 OA 
HETATM   20  O   UNL     1     -10.895  16.293  64.764  1.00  0.00    -0.671 OA 
HETATM   21  C   UNL     1     -10.972  16.119  67.369  1.00  0.00    -0.210 C  
ENDBRANCH  16  18
ENDBRANCH  13  16
ENDBRANCH   7  10
ENDBRANCH   6   7
ENDBRANCH   4   6
ENDBRANCH   2   4
TORSDOF 6
ENDMDL
MODEL       82
REMARK 921   NORMALIZED FREE ENERGY PREDICTED BY IDOCK:   -4.19 KCAL/MOL
REMARK 922        TOTAL FREE ENERGY PREDICTED BY IDOCK:   -6.30 KCAL/MOL
REMARK 923 INTER-LIGAND FREE ENERGY PREDICTED BY IDOCK:   -5.93 KCAL/MOL
REMARK 924 INTRA-LIGAND FREE ENERGY PREDICTED BY IDOCK:   -0.37 KCAL/MOL
REMARK 927      BINDING AFFINITY PREDICTED BY RF-SCORE:    0.00 PKD
ROOT
HETATM    1  C   UNL     1     -10.556   8.912  67.412  1.00  0.00    -0.305 C  
HETATM    2  C   UNL     1     -10.433  10.359  66.940  1.00  0.00    -0.240 C  
HETATM    3  C   UNL     1     -10.248  10.391  65.422  1.00  0.00    -0.329 C  
ENDROOT
BRANCH   2   4
HETATM    4  N   UNL     1     -11.631  11.099  67.368  1.00  0.00    -0.537 NA 
HETATM    5  H   UNL     1     -11.695  11.140  68.386  1.00  0.00     0.000 HD 
BRANCH   4   6
HETATM    6  C   UNL     1     -11.696  12.444  66.778  1.00  0.00    -0.362 C  
BRANCH   6   7
HETATM    7  C   UNL     1     -12.024  13.566  67.794  1.00  0.00    -0.334 C  
HETATM    8  H   UNL     1     -11.790  13.824  69.716  1.00  0.00     0.000 HD 
HETATM    9  O   UNL     1     -11.589  13.137  69.093  1.00  0.00    -0.278 OA 
BRANCH   7  10
HETATM   10  C   UNL     1     -11.375  14.909  67.465  1.00  0.00    -0.351 A  
HETATM   11  C   UNL     1     -11.201  15.925  68.420  1.00  0.00    -0.368 A  
HETATM   12  C   UNL     1     -10.623  17.148  68.077  1.00  0.00    -0.374 A  
HETATM   13  C   UNL     1     -10.218  17.381  66.769  1.00  0.00    -0.318 A  
HETATM   14  C   UNL     1     -10.924  15.152  66.156  1.00  0.00    -0.331 A  
HETATM   15  C   UNL     1     -10.346  16.380  65.809  1.00  0.00    -0.388 A  
BRANCH  13  16
HETATM   16  N   UNL     1      -9.651  18.646  66.442  1.00  0.00    -0.330 N  
HETATM   17  H   UNL     1     -10.129  19.290  65.812  1.00  0.00     0.000 HD 
BRANCH  16  18
HETATM   18  S   UNL     1      -8.162  19.046  67.133  1.00  0.00    -0.275 S  
HETATM   19  O   UNL     1      -8.363  19.842  68.320  1.00  0.00    -0.320 OA 
HETATM   20  O   UNL     1      -7.420  17.803  67.180  1.00  0.00    -0.186 OA 
HETATM   21  C   UNL     1      -7.432  20.057  65.861  1.00  0.00    -0.304 C  
ENDBRANCH  16  18
ENDBRANCH  13  16
ENDBRANCH   7  10
ENDBRANCH   6   7
ENDBRANCH   4   6
ENDBRANCH   2   4
TORSDOF 6
ENDMDL
MODEL       83
REMARK 921   NORMALIZED FREE ENERGY PREDICTED BY IDOCK:   -4.18 KCAL/MOL
REMARK 922        TOTAL FREE ENERGY PREDICTED BY IDOCK:   -6.29 KCAL/MOL
REMARK 923 INTER-LIGAND FREE ENERGY PREDICTED BY IDOCK:   -5.97 KCAL/MOL
REMARK 924 INTRA-LIGAND FREE ENERGY PREDICTED BY IDOCK:   -0.32 KCAL/MOL
REMARK 927      BINDING AFFINITY PREDICTED BY RF-SCORE:    0.00 PKD
ROOT
HETATM    1  C   UNL     1     -10.316   6.700  70.615  1.00  0.00    -0.233 C  
HETATM    2  C   UNL     1     -11.066   8.027  70.714  1.00  0.00    -0.259 C  
HETATM    3  C   UNL     1     -10.407   8.912  71.774  1.00  0.00    -0.426 C  
ENDROOT
BRANCH   2   4
HETATM    4  N   UNL     1     -11.075   8.664  69.387  1.00  0.00    -0.436 NA 
HETATM    5  H   UNL     1     -10.805   9.646  69.448  1.00  0.00     0.000 HD 
BRANCH   4   6
HETATM    6  C   UNL     1     -10.238   7.943  68.417  1.00  0.00    -0.202 C  
BRANCH   6   7
HETATM    7  C   UNL     1      -9.032   8.762  67.891  1.00  0.00    -0.140 C  
HETATM    8  H   UNL     1      -7.393   8.361  66.906  1.00  0.00     0.000 HD 
HETATM    9  O   UNL     1      -8.132   7.860  67.229  1.00  0.00    -0.115 OA 
BRANCH   7  10
HETATM   10  C   UNL     1      -9.418   9.883  66.929  1.00  0.00    -0.202 A  
HETATM   11  C   UNL     1      -9.963   9.642  65.657  1.00  0.00    -0.321 A  
HETATM   12  C   UNL     1     -10.284  10.692  64.796  1.00  0.00    -0.401 A  
HETATM   13  C   UNL     1     -10.054  12.005  65.189  1.00  0.00    -0.266 A  
HETATM   14  C   UNL     1      -9.228  11.220  67.321  1.00  0.00    -0.170 A  
HETATM   15  C   UNL     1      -9.547  12.276  66.457  1.00  0.00    -0.242 A  
BRANCH  13  16
HETATM   16  N   UNL     1     -10.370  13.056  64.282  1.00  0.00    -0.525 N  
HETATM   17  H   UNL     1      -9.687  13.385  63.598  1.00  0.00     0.000 HD 
BRANCH  16  18
HETATM   18  S   UNL     1     -11.911  13.741  64.374  1.00  0.00    -0.448 S  
HETATM   19  O   UNL     1     -12.577  13.641  63.097  1.00  0.00    -0.792 OA 
HETATM   20  O   UNL     1     -12.503  13.185  65.574  1.00  0.00    -0.459 OA 
HETATM   21  C   UNL     1     -11.530  15.449  64.708  1.00  0.00    -0.336 C  
ENDBRANCH  16  18
ENDBRANCH  13  16
ENDBRANCH   7  10
ENDBRANCH   6   7
ENDBRANCH   4   6
ENDBRANCH   2   4
TORSDOF 6
ENDMDL
MODEL       84
REMARK 921   NORMALIZED FREE ENERGY PREDICTED BY IDOCK:   -4.16 KCAL/MOL
REMARK 922        TOTAL FREE ENERGY PREDICTED BY IDOCK:   -6.26 KCAL/MOL
REMARK 923 INTER-LIGAND FREE ENERGY PREDICTED BY IDOCK:   -5.70 KCAL/MOL
REMARK 924 INTRA-LIGAND FREE ENERGY PREDICTED BY IDOCK:   -0.56 KCAL/MOL
REMARK 927      BINDING AFFINITY PREDICTED BY RF-SCORE:    0.00 PKD
ROOT
HETATM    1  C   UNL     1     -12.495  11.983  63.388  1.00  0.00    -0.625 C  
HETATM    2  C   UNL     1     -11.435  13.028  63.729  1.00  0.00    -0.429 C  
HETATM    3  C   UNL     1     -11.808  13.730  65.037  1.00  0.00    -0.381 C  
ENDROOT
BRANCH   2   4
HETATM    4  N   UNL     1     -10.125  12.363  63.811  1.00  0.00    -0.550 NA 
HETATM    5  H   UNL     1      -9.600  12.683  64.625  1.00  0.00     0.000 HD 
BRANCH   4   6
HETATM    6  C   UNL     1     -10.242  10.897  63.798  1.00  0.00    -0.343 C  
BRANCH   6   7
HETATM    7  C   UNL     1      -9.223  10.172  64.712  1.00  0.00    -0.242 C  
HETATM    8  H   UNL     1      -7.502  10.622  65.519  1.00  0.00     0.000 HD 
HETATM    9  O   UNL     1      -8.127  11.066  64.959  1.00  0.00     0.050 OA 
BRANCH   7  10
HETATM   10  C   UNL     1      -9.807   9.711  66.046  1.00  0.00    -0.345 A  
HETATM   11  C   UNL     1      -9.722   8.383  66.495  1.00  0.00    -0.330 A  
HETATM   12  C   UNL     1     -10.287   7.993  67.711  1.00  0.00    -0.294 A  
HETATM   13  C   UNL     1     -10.956   8.924  68.494  1.00  0.00     0.117 A  
HETATM   14  C   UNL     1     -10.456  10.645  66.872  1.00  0.00    -0.304 A  
HETATM   15  C   UNL     1     -11.025  10.256  68.091  1.00  0.00    -0.328 A  
BRANCH  13  16
HETATM   16  N   UNL     1     -11.541   8.495  69.719  1.00  0.00    -0.333 N  
HETATM   17  H   UNL     1     -12.212   7.726  69.741  1.00  0.00     0.000 HD 
BRANCH  16  18
HETATM   18  S   UNL     1     -11.090   9.299  71.134  1.00  0.00    -0.373 S  
HETATM   19  O   UNL     1      -9.661   9.503  71.157  1.00  0.00    -0.234 OA 
HETATM   20  O   UNL     1     -12.009  10.414  71.247  1.00  0.00    -0.358 OA 
HETATM   21  C   UNL     1     -11.536   8.111  72.385  1.00  0.00    -0.399 C  
ENDBRANCH  16  18
ENDBRANCH  13  16
ENDBRANCH   7  10
ENDBRANCH   6   7
ENDBRANCH   4   6
ENDBRANCH   2   4
TORSDOF 6
ENDMDL
MODEL       85
REMARK 921   NORMALIZED FREE ENERGY PREDICTED BY IDOCK:   -4.15 KCAL/MOL
REMARK 922        TOTAL FREE ENERGY PREDICTED BY IDOCK:   -6.26 KCAL/MOL
REMARK 923 INTER-LIGAND FREE ENERGY PREDICTED BY IDOCK:   -5.73 KCAL/MOL
REMARK 924 INTRA-LIGAND FREE ENERGY PREDICTED BY IDOCK:   -0.52 KCAL/MOL
REMARK 927      BINDING AFFINITY PREDICTED BY RF-SCORE:    0.00 PKD
ROOT
HETATM    1  C   UNL     1     -12.101  13.567  65.175  1.00  0.00    -0.432 C  
HETATM    2  C   UNL     1     -10.826  14.029  64.473  1.00  0.00    -0.347 C  
HETATM    3  C   UNL     1     -10.110  15.067  65.339  1.00  0.00    -0.396 C  
ENDROOT
BRANCH   2   4
HETATM    4  N   UNL     1      -9.983  12.854  64.204  1.00  0.00    -0.646 NA 
HETATM    5  H   UNL     1      -9.187  12.817  64.842  1.00  0.00     0.000 HD 
BRANCH   4   6
HETATM    6  C   UNL     1     -10.748  11.599  64.237  1.00  0.00    -0.341 C  
BRANCH   6   7
HETATM    7  C   UNL     1      -9.964  10.395  64.817  1.00  0.00    -0.339 C  
HETATM    8  H   UNL     1      -8.107   9.790  64.788  1.00  0.00     0.000 HD 
HETATM    9  O   UNL     1      -8.587  10.528  64.433  1.00  0.00    -0.179 OA 
BRANCH   7  10
HETATM   10  C   UNL     1     -10.052  10.273  66.337  1.00  0.00    -0.296 A  
HETATM   11  C   UNL     1     -11.130  10.782  67.080  1.00  0.00    -0.297 A  
HETATM   12  C   UNL     1     -11.167  10.672  68.471  1.00  0.00    -0.342 A  
HETATM   13  C   UNL     1     -10.118  10.059  69.145  1.00  0.00    -0.208 A  
HETATM   14  C   UNL     1      -9.019   9.624  67.036  1.00  0.00    -0.150 A  
HETATM   15  C   UNL     1      -9.053   9.514  68.432  1.00  0.00    -0.127 A  
BRANCH  13  16
HETATM   16  N   UNL     1     -10.170   9.979  70.566  1.00  0.00    -0.396 N  
HETATM   17  H   UNL     1      -9.588  10.581  71.149  1.00  0.00     0.000 HD 
BRANCH  16  18
HETATM   18  S   UNL     1     -11.229   8.857  71.255  1.00  0.00    -0.327 S  
HETATM   19  O   UNL     1     -12.403   9.526  71.761  1.00  0.00    -0.359 OA 
HETATM   20  O   UNL     1     -11.334   7.788  70.282  1.00  0.00    -0.252 OA 
HETATM   21  C   UNL     1     -10.265   8.242  72.622  1.00  0.00    -0.298 C  
ENDBRANCH  16  18
ENDBRANCH  13  16
ENDBRANCH   7  10
ENDBRANCH   6   7
ENDBRANCH   4   6
ENDBRANCH   2   4
TORSDOF 6
ENDMDL
MODEL       86
REMARK 921   NORMALIZED FREE ENERGY PREDICTED BY IDOCK:   -4.15 KCAL/MOL
REMARK 922        TOTAL FREE ENERGY PREDICTED BY IDOCK:   -6.25 KCAL/MOL
REMARK 923 INTER-LIGAND FREE ENERGY PREDICTED BY IDOCK:   -5.57 KCAL/MOL
REMARK 924 INTRA-LIGAND FREE ENERGY PREDICTED BY IDOCK:   -0.68 KCAL/MOL
REMARK 927      BINDING AFFINITY PREDICTED BY RF-SCORE:    0.00 PKD
ROOT
HETATM    1  C   UNL     1     -11.223   6.212  69.239  1.00  0.00    -0.438 C  
HETATM    2  C   UNL     1     -10.506   5.499  70.384  1.00  0.00    -0.286 C  
HETATM    3  C   UNL     1      -8.993   5.584  70.174  1.00  0.00    -0.154 C  
ENDROOT
BRANCH   2   4
HETATM    4  N   UNL     1     -10.924   6.109  71.656  1.00  0.00    -0.257 NA 
HETATM    5  H   UNL     1     -11.445   5.445  72.229  1.00  0.00     0.000 HD 
BRANCH   4   6
HETATM    6  C   UNL     1      -9.792   6.679  72.399  1.00  0.00    -0.158 C  
BRANCH   6   7
HETATM    7  C   UNL     1      -9.937   8.190  72.713  1.00  0.00    -0.291 C  
HETATM    8  H   UNL     1      -8.755   9.602  73.365  1.00  0.00     0.000 HD 
HETATM    9  O   UNL     1      -8.667   8.677  73.172  1.00  0.00    -0.371 OA 
BRANCH   7  10
HETATM   10  C   UNL     1     -10.396   9.028  71.522  1.00  0.00    -0.412 A  
HETATM   11  C   UNL     1      -9.554   9.344  70.443  1.00  0.00    -0.319 A  
HETATM   12  C   UNL     1     -10.002  10.131  69.381  1.00  0.00    -0.247 A  
HETATM   13  C   UNL     1     -11.300  10.626  69.386  1.00  0.00    -0.284 A  
HETATM   14  C   UNL     1     -11.717   9.508  71.488  1.00  0.00    -0.472 A  
HETATM   15  C   UNL     1     -12.168  10.301  70.425  1.00  0.00    -0.346 A  
BRANCH  13  16
HETATM   16  N   UNL     1     -11.724  11.445  68.301  1.00  0.00    -0.305 N  
HETATM   17  H   UNL     1     -12.140  11.035  67.464  1.00  0.00     0.000 HD 
BRANCH  16  18
HETATM   18  S   UNL     1     -11.516  13.115  68.443  1.00  0.00    -0.340 S  
HETATM   19  O   UNL     1     -12.281  13.800  67.428  1.00  0.00    -0.368 OA 
HETATM   20  O   UNL     1     -11.710  13.403  69.850  1.00  0.00    -0.297 OA 
HETATM   21  C   UNL     1      -9.778  13.296  68.095  1.00  0.00    -0.227 C  
ENDBRANCH  16  18
ENDBRANCH  13  16
ENDBRANCH   7  10
ENDBRANCH   6   7
ENDBRANCH   4   6
ENDBRANCH   2   4
TORSDOF 6
ENDMDL
MODEL       87
REMARK 921   NORMALIZED FREE ENERGY PREDICTED BY IDOCK:   -4.14 KCAL/MOL
REMARK 922        TOTAL FREE ENERGY PREDICTED BY IDOCK:   -6.24 KCAL/MOL
REMARK 923 INTER-LIGAND FREE ENERGY PREDICTED BY IDOCK:   -5.91 KCAL/MOL
REMARK 924 INTRA-LIGAND FREE ENERGY PREDICTED BY IDOCK:   -0.33 KCAL/MOL
REMARK 927      BINDING AFFINITY PREDICTED BY RF-SCORE:    0.00 PKD
ROOT
HETATM    1  C   UNL     1     -10.619   5.909  69.483  1.00  0.00    -0.378 C  
HETATM    2  C   UNL     1     -11.059   6.630  70.755  1.00  0.00    -0.286 C  
HETATM    3  C   UNL     1     -11.154   5.627  71.908  1.00  0.00    -0.278 C  
ENDROOT
BRANCH   2   4
HETATM    4  N   UNL     1     -10.103   7.712  71.039  1.00  0.00    -0.190 NA 
HETATM    5  H   UNL     1      -9.774   8.149  70.178  1.00  0.00     0.000 HD 
BRANCH   4   6
HETATM    6  C   UNL     1     -10.652   8.712  71.966  1.00  0.00    -0.351 C  
BRANCH   6   7
HETATM    7  C   UNL     1     -12.108   9.137  71.649  1.00  0.00    -0.362 C  
HETATM    8  H   UNL     1     -13.736   9.431  72.687  1.00  0.00     0.000 HD 
HETATM    9  O   UNL     1     -12.844   9.171  72.881  1.00  0.00    -0.267 OA 
BRANCH   7  10
HETATM   10  C   UNL     1     -12.219  10.495  70.959  1.00  0.00    -0.505 A  
HETATM   11  C   UNL     1     -11.808  10.711  69.633  1.00  0.00    -0.358 A  
HETATM   12  C   UNL     1     -11.905  11.972  69.042  1.00  0.00    -0.372 A  
HETATM   13  C   UNL     1     -12.406  13.042  69.771  1.00  0.00    -0.078 A  
HETATM   14  C   UNL     1     -12.758  11.584  71.667  1.00  0.00    -0.396 A  
HETATM   15  C   UNL     1     -12.854  12.850  71.076  1.00  0.00    -0.268 A  
BRANCH  13  16
HETATM   16  N   UNL     1     -12.474  14.322  69.150  1.00  0.00    -0.528 N  
HETATM   17  H   UNL     1     -13.287  14.598  68.600  1.00  0.00     0.000 HD 
BRANCH  16  18
HETATM   18  S   UNL     1     -11.164  15.369  69.354  1.00  0.00    -0.324 S  
HETATM   19  O   UNL     1      -9.925  14.629  69.317  1.00  0.00    -0.188 OA 
HETATM   20  O   UNL     1     -11.409  16.467  68.442  1.00  0.00    -0.366 OA 
HETATM   21  C   UNL     1     -11.438  15.976  71.007  1.00  0.00    -0.417 C  
ENDBRANCH  16  18
ENDBRANCH  13  16
ENDBRANCH   7  10
ENDBRANCH   6   7
ENDBRANCH   4   6
ENDBRANCH   2   4
TORSDOF 6
ENDMDL
MODEL       88
REMARK 921   NORMALIZED FREE ENERGY PREDICTED BY IDOCK:   -4.14 KCAL/MOL
REMARK 922        TOTAL FREE ENERGY PREDICTED BY IDOCK:   -6.24 KCAL/MOL
REMARK 923 INTER-LIGAND FREE ENERGY PREDICTED BY IDOCK:   -5.45 KCAL/MOL
REMARK 924 INTRA-LIGAND FREE ENERGY PREDICTED BY IDOCK:   -0.79 KCAL/MOL
REMARK 927      BINDING AFFINITY PREDICTED BY RF-SCORE:    0.00 PKD
ROOT
HETATM    1  C   UNL     1     -10.573  16.533  67.017  1.00  0.00    -0.255 C  
HETATM    2  C   UNL     1      -9.572  15.876  66.067  1.00  0.00    -0.350 C  
HETATM    3  C   UNL     1      -8.813  14.771  66.804  1.00  0.00    -0.281 C  
ENDROOT
BRANCH   2   4
HETATM    4  N   UNL     1     -10.300  15.363  64.896  1.00  0.00    -0.471 NA 
HETATM    5  H   UNL     1      -9.923  14.465  64.592  1.00  0.00     0.000 HD 
BRANCH   4   6
HETATM    6  C   UNL     1     -11.748  15.278  65.132  1.00  0.00    -0.114 C  
BRANCH   6   7
HETATM    7  C   UNL     1     -12.374  13.914  64.746  1.00  0.00    -0.400 C  
HETATM    8  H   UNL     1     -12.722  12.957  63.080  1.00  0.00     0.000 HD 
HETATM    9  O   UNL     1     -12.339  13.793  63.316  1.00  0.00    -0.756 OA 
BRANCH   7  10
HETATM   10  C   UNL     1     -11.670  12.712  65.371  1.00  0.00    -0.428 A  
HETATM   11  C   UNL     1     -11.002  11.739  64.607  1.00  0.00    -0.368 A  
HETATM   12  C   UNL     1     -10.388  10.642  65.211  1.00  0.00    -0.321 A  
HETATM   13  C   UNL     1     -10.440  10.491  66.591  1.00  0.00    -0.228 A  
HETATM   14  C   UNL     1     -11.679  12.559  66.768  1.00  0.00    -0.453 A  
HETATM   15  C   UNL     1     -11.064  11.457  67.376  1.00  0.00    -0.349 A  
BRANCH  13  16
HETATM   16  N   UNL     1      -9.824   9.350  67.179  1.00  0.00    -0.175 N  
HETATM   17  H   UNL     1     -10.297   8.446  67.196  1.00  0.00     0.000 HD 
BRANCH  16  18
HETATM   18  S   UNL     1      -8.284   9.541  67.847  1.00  0.00    -0.114 S  
HETATM   19  O   UNL     1      -7.501   8.345  67.644  1.00  0.00    -0.091 OA 
HETATM   20  O   UNL     1      -7.821  10.829  67.372  1.00  0.00    -0.108 OA 
HETATM   21  C   UNL     1      -8.658   9.713  69.580  1.00  0.00    -0.187 C  
ENDBRANCH  16  18
ENDBRANCH  13  16
ENDBRANCH   7  10
ENDBRANCH   6   7
ENDBRANCH   4   6
ENDBRANCH   2   4
TORSDOF 6
ENDMDL
MODEL       89
REMARK 921   NORMALIZED FREE ENERGY PREDICTED BY IDOCK:   -4.12 KCAL/MOL
REMARK 922        TOTAL FREE ENERGY PREDICTED BY IDOCK:   -6.21 KCAL/MOL
REMARK 923 INTER-LIGAND FREE ENERGY PREDICTED BY IDOCK:   -5.45 KCAL/MOL
REMARK 924 INTRA-LIGAND FREE ENERGY PREDICTED BY IDOCK:   -0.76 KCAL/MOL
REMARK 927      BINDING AFFINITY PREDICTED BY RF-SCORE:    0.00 PKD
ROOT
HETATM    1  C   UNL     1     -10.627   6.709  68.262  1.00  0.00    -0.291 C  
HETATM    2  C   UNL     1     -11.271   5.986  69.444  1.00  0.00    -0.327 C  
HETATM    3  C   UNL     1     -10.181   5.451  70.375  1.00  0.00    -0.332 C  
ENDROOT
BRANCH   2   4
HETATM    4  N   UNL     1     -12.178   6.919  70.131  1.00  0.00    -0.623 NA 
HETATM    5  H   UNL     1     -13.151   6.734  69.887  1.00  0.00     0.000 HD 
BRANCH   4   6
HETATM    6  C   UNL     1     -11.986   6.912  71.588  1.00  0.00    -0.339 C  
BRANCH   6   7
HETATM    7  C   UNL     1     -11.447   8.246  72.162  1.00  0.00    -0.361 C  
HETATM    8  H   UNL     1     -10.027   8.764  73.400  1.00  0.00     0.000 HD 
HETATM    9  O   UNL     1     -10.358   7.947  73.048  1.00  0.00    -0.314 OA 
BRANCH   7  10
HETATM   10  C   UNL     1     -10.972   9.231  71.096  1.00  0.00    -0.409 A  
HETATM   11  C   UNL     1     -11.818  10.189  70.513  1.00  0.00    -0.408 A  
HETATM   12  C   UNL     1     -11.354  11.059  69.525  1.00  0.00    -0.356 A  
HETATM   13  C   UNL     1     -10.036  10.979  69.095  1.00  0.00    -0.121 A  
HETATM   14  C   UNL     1      -9.632   9.192  70.672  1.00  0.00    -0.312 A  
HETATM   15  C   UNL     1      -9.165  10.063  69.680  1.00  0.00    -0.236 A  
BRANCH  13  16
HETATM   16  N   UNL     1      -9.595  11.864  68.071  1.00  0.00    -0.187 N  
HETATM   17  H   UNL     1      -9.293  12.814  68.289  1.00  0.00     0.000 HD 
BRANCH  16  18
HETATM   18  S   UNL     1      -9.588  11.292  66.481  1.00  0.00    -0.197 S  
HETATM   19  O   UNL     1     -10.373  10.084  66.384  1.00  0.00    -0.226 OA 
HETATM   20  O   UNL     1      -9.886  12.448  65.660  1.00  0.00    -0.254 OA 
HETATM   21  C   UNL     1      -7.867  10.898  66.244  1.00  0.00    -0.158 C  
ENDBRANCH  16  18
ENDBRANCH  13  16
ENDBRANCH   7  10
ENDBRANCH   6   7
ENDBRANCH   4   6
ENDBRANCH   2   4
TORSDOF 6
ENDMDL
MODEL       90
REMARK 921   NORMALIZED FREE ENERGY PREDICTED BY IDOCK:   -4.12 KCAL/MOL
REMARK 922        TOTAL FREE ENERGY PREDICTED BY IDOCK:   -6.21 KCAL/MOL
REMARK 923 INTER-LIGAND FREE ENERGY PREDICTED BY IDOCK:   -5.66 KCAL/MOL
REMARK 924 INTRA-LIGAND FREE ENERGY PREDICTED BY IDOCK:   -0.55 KCAL/MOL
REMARK 927      BINDING AFFINITY PREDICTED BY RF-SCORE:    0.00 PKD
ROOT
HETATM    1  C   UNL     1      -8.237  10.381  64.532  1.00  0.00    -0.131 C  
HETATM    2  C   UNL     1      -8.195  10.546  63.014  1.00  0.00    -0.136 C  
HETATM    3  C   UNL     1      -7.648   9.268  62.373  1.00  0.00    -0.109 C  
ENDROOT
BRANCH   2   4
HETATM    4  N   UNL     1      -9.549  10.869  62.537  1.00  0.00    -0.562 NA 
HETATM    5  H   UNL     1      -9.897  10.152  61.900  1.00  0.00     0.000 HD 
BRANCH   4   6
HETATM    6  C   UNL     1     -10.490  11.098  63.642  1.00  0.00    -0.376 C  
BRANCH   6   7
HETATM    7  C   UNL     1     -11.360  12.370  63.481  1.00  0.00    -0.476 C  
HETATM    8  H   UNL     1     -13.267  12.781  63.569  1.00  0.00     0.000 HD 
HETATM    9  O   UNL     1     -12.734  12.001  63.668  1.00  0.00    -0.647 OA 
BRANCH   7  10
HETATM   10  C   UNL     1     -11.003  13.492  64.454  1.00  0.00    -0.399 A  
HETATM   11  C   UNL     1     -10.122  13.311  65.534  1.00  0.00    -0.274 A  
HETATM   12  C   UNL     1      -9.835  14.354  66.416  1.00  0.00    -0.309 A  
HETATM   13  C   UNL     1     -10.435  15.594  66.240  1.00  0.00    -0.306 A  
HETATM   14  C   UNL     1     -11.569  14.766  64.273  1.00  0.00    -0.215 A  
HETATM   15  C   UNL     1     -11.284  15.813  65.159  1.00  0.00    -0.252 A  
BRANCH  13  16
HETATM   16  N   UNL     1     -10.142  16.634  67.168  1.00  0.00    -0.270 N  
HETATM   17  H   UNL     1     -10.858  16.993  67.800  1.00  0.00     0.000 HD 
BRANCH  16  18
HETATM   18  S   UNL     1      -8.570  17.254  67.189  1.00  0.00    -0.212 S  
HETATM   19  O   UNL     1      -7.769  16.545  68.158  1.00  0.00    -0.158 OA 
HETATM   20  O   UNL     1      -8.173  17.328  65.797  1.00  0.00    -0.533 OA 
HETATM   21  C   UNL     1      -8.844  18.920  67.756  1.00  0.00    -0.292 C  
ENDBRANCH  16  18
ENDBRANCH  13  16
ENDBRANCH   7  10
ENDBRANCH   6   7
ENDBRANCH   4   6
ENDBRANCH   2   4
TORSDOF 6
ENDMDL
MODEL       91
REMARK 921   NORMALIZED FREE ENERGY PREDICTED BY IDOCK:   -4.12 KCAL/MOL
REMARK 922        TOTAL FREE ENERGY PREDICTED BY IDOCK:   -6.21 KCAL/MOL
REMARK 923 INTER-LIGAND FREE ENERGY PREDICTED BY IDOCK:   -5.86 KCAL/MOL
REMARK 924 INTRA-LIGAND FREE ENERGY PREDICTED BY IDOCK:   -0.34 KCAL/MOL
REMARK 927      BINDING AFFINITY PREDICTED BY RF-SCORE:    0.00 PKD
ROOT
HETATM    1  C   UNL     1      -9.446   4.467  65.012  1.00  0.00    -0.156 C  
HETATM    2  C   UNL     1     -10.214   4.578  66.328  1.00  0.00    -0.239 C  
HETATM    3  C   UNL     1      -9.239   4.468  67.503  1.00  0.00    -0.156 C  
ENDROOT
BRANCH   2   4
HETATM    4  N   UNL     1     -10.953   5.850  66.338  1.00  0.00    -0.734 NA 
HETATM    5  H   UNL     1     -11.674   5.852  67.060  1.00  0.00     0.000 HD 
BRANCH   4   6
HETATM    6  C   UNL     1     -10.062   7.011  66.474  1.00  0.00    -0.079 C  
BRANCH   6   7
HETATM    7  C   UNL     1     -10.494   8.015  67.573  1.00  0.00    -0.260 C  
HETATM    8  H   UNL     1      -9.826   8.533  69.334  1.00  0.00     0.000 HD 
HETATM    9  O   UNL     1      -9.561   7.918  68.661  1.00  0.00    -0.152 OA 
BRANCH   7  10
HETATM   10  C   UNL     1     -10.561   9.464  67.096  1.00  0.00    -0.294 A  
HETATM   11  C   UNL     1     -11.155  10.488  67.853  1.00  0.00    -0.367 A  
HETATM   12  C   UNL     1     -11.218  11.798  67.375  1.00  0.00    -0.357 A  
HETATM   13  C   UNL     1     -10.697  12.105  66.125  1.00  0.00    -0.272 A  
HETATM   14  C   UNL     1     -10.007   9.804  65.850  1.00  0.00    -0.345 A  
HETATM   15  C   UNL     1     -10.071  11.117  65.367  1.00  0.00    -0.317 A  
BRANCH  13  16
HETATM   16  N   UNL     1     -10.794  13.444  65.653  1.00  0.00    -0.280 N  
HETATM   17  H   UNL     1     -10.161  14.169  65.992  1.00  0.00     0.000 HD 
BRANCH  16  18
HETATM   18  S   UNL     1     -11.991  13.795  64.513  1.00  0.00    -0.443 S  
HETATM   19  O   UNL     1     -11.736  13.076  63.287  1.00  0.00    -0.497 OA 
HETATM   20  O   UNL     1     -13.245  13.648  65.222  1.00  0.00    -0.724 OA 
HETATM   21  C   UNL     1     -11.733  15.537  64.240  1.00  0.00    -0.190 C  
ENDBRANCH  16  18
ENDBRANCH  13  16
ENDBRANCH   7  10
ENDBRANCH   6   7
ENDBRANCH   4   6
ENDBRANCH   2   4
TORSDOF 6
ENDMDL
MODEL       92
REMARK 921   NORMALIZED FREE ENERGY PREDICTED BY IDOCK:   -4.11 KCAL/MOL
REMARK 922        TOTAL FREE ENERGY PREDICTED BY IDOCK:   -6.20 KCAL/MOL
REMARK 923 INTER-LIGAND FREE ENERGY PREDICTED BY IDOCK:   -6.13 KCAL/MOL
REMARK 924 INTRA-LIGAND FREE ENERGY PREDICTED BY IDOCK:   -0.07 KCAL/MOL
REMARK 927      BINDING AFFINITY PREDICTED BY RF-SCORE:    0.00 PKD
ROOT
HETATM    1  C   UNL     1     -10.131  20.299  66.677  1.00  0.00    -0.538 C  
HETATM    2  C   UNL     1      -8.826  19.703  66.151  1.00  0.00    -0.332 C  
HETATM    3  C   UNL     1      -7.655  20.198  67.002  1.00  0.00    -0.336 C  
ENDROOT
BRANCH   2   4
HETATM    4  N   UNL     1      -8.939  18.236  66.162  1.00  0.00    -0.498 NA 
HETATM    5  H   UNL     1      -8.695  17.841  65.254  1.00  0.00     0.000 HD 
BRANCH   4   6
HETATM    6  C   UNL     1      -8.145  17.624  67.238  1.00  0.00    -0.209 C  
BRANCH   6   7
HETATM    7  C   UNL     1      -8.974  16.768  68.228  1.00  0.00    -0.228 C  
HETATM    8  H   UNL     1     -10.470  17.089  69.442  1.00  0.00     0.000 HD 
HETATM    9  O   UNL     1      -9.962  17.614  68.835  1.00  0.00    -0.336 OA 
BRANCH   7  10
HETATM   10  C   UNL     1      -9.667  15.571  67.580  1.00  0.00    -0.212 A  
HETATM   11  C   UNL     1     -11.057  15.374  67.636  1.00  0.00    -0.316 A  
HETATM   12  C   UNL     1     -11.654  14.256  67.050  1.00  0.00    -0.406 A  
HETATM   13  C   UNL     1     -10.868  13.308  66.408  1.00  0.00    -0.288 A  
HETATM   14  C   UNL     1      -8.895  14.619  66.892  1.00  0.00    -0.267 A  
HETATM   15  C   UNL     1      -9.491  13.495  66.306  1.00  0.00    -0.199 A  
BRANCH  13  16
HETATM   16  N   UNL     1     -11.500  12.167  65.838  1.00  0.00    -0.360 N  
HETATM   17  H   UNL     1     -11.514  11.273  66.330  1.00  0.00     0.000 HD 
BRANCH  16  18
HETATM   18  S   UNL     1     -12.225  12.340  64.322  1.00  0.00    -0.414 S  
HETATM   19  O   UNL     1     -11.540  11.527  63.347  1.00  0.00    -0.363 OA 
HETATM   20  O   UNL     1     -13.646  12.187  64.562  1.00  0.00    -0.477 OA 
HETATM   21  C   UNL     1     -11.926  14.061  63.971  1.00  0.00    -0.354 C  
ENDBRANCH  16  18
ENDBRANCH  13  16
ENDBRANCH   7  10
ENDBRANCH   6   7
ENDBRANCH   4   6
ENDBRANCH   2   4
TORSDOF 6
ENDMDL
MODEL       93
REMARK 921   NORMALIZED FREE ENERGY PREDICTED BY IDOCK:   -4.11 KCAL/MOL
REMARK 922        TOTAL FREE ENERGY PREDICTED BY IDOCK:   -6.20 KCAL/MOL
REMARK 923 INTER-LIGAND FREE ENERGY PREDICTED BY IDOCK:   -6.15 KCAL/MOL
REMARK 924 INTRA-LIGAND FREE ENERGY PREDICTED BY IDOCK:   -0.05 KCAL/MOL
REMARK 927      BINDING AFFINITY PREDICTED BY RF-SCORE:    0.00 PKD
ROOT
HETATM    1  C   UNL     1     -11.746  13.005  65.743  1.00  0.00    -0.427 C  
HETATM    2  C   UNL     1     -11.346  11.560  65.451  1.00  0.00    -0.078 C  
HETATM    3  C   UNL     1     -10.805  11.455  64.024  1.00  0.00    -0.450 C  
ENDROOT
BRANCH   2   4
HETATM    4  N   UNL     1     -10.356  11.133  66.452  1.00  0.00    -0.244 NA 
HETATM    5  H   UNL     1      -9.871  11.935  66.857  1.00  0.00     0.000 HD 
BRANCH   4   6
HETATM    6  C   UNL     1     -10.950  10.289  67.499  1.00  0.00    -0.280 C  
BRANCH   6   7
HETATM    7  C   UNL     1     -10.486  10.640  68.935  1.00  0.00    -0.210 C  
HETATM    8  H   UNL     1      -8.863  11.370  69.740  1.00  0.00     0.000 HD 
HETATM    9  O   UNL     1      -9.148  11.155  68.860  1.00  0.00    -0.164 OA 
BRANCH   7  10
HETATM   10  C   UNL     1     -11.378  11.658  69.642  1.00  0.00    -0.308 A  
HETATM   11  C   UNL     1     -11.475  12.999  69.233  1.00  0.00    -0.348 A  
HETATM   12  C   UNL     1     -12.285  13.907  69.917  1.00  0.00    -0.393 A  
HETATM   13  C   UNL     1     -13.003  13.492  71.031  1.00  0.00    -0.202 A  
HETATM   14  C   UNL     1     -12.142  11.251  70.749  1.00  0.00    -0.450 A  
HETATM   15  C   UNL     1     -12.954  12.161  71.438  1.00  0.00    -0.357 A  
BRANCH  13  16
HETATM   16  N   UNL     1     -13.804  14.444  71.723  1.00  0.00    -0.411 N  
HETATM   17  H   UNL     1     -14.785  14.585  71.479  1.00  0.00     0.000 HD 
BRANCH  16  18
HETATM   18  S   UNL     1     -13.079  15.334  72.963  1.00  0.00    -0.541 S  
HETATM   19  O   UNL     1     -13.953  16.402  73.386  1.00  0.00    -0.444 OA 
HETATM   20  O   UNL     1     -12.591  14.346  73.904  1.00  0.00    -0.350 OA 
HETATM   21  C   UNL     1     -11.662  16.026  72.132  1.00  0.00    -0.488 C  
ENDBRANCH  16  18
ENDBRANCH  13  16
ENDBRANCH   7  10
ENDBRANCH   6   7
ENDBRANCH   4   6
ENDBRANCH   2   4
TORSDOF 6
ENDMDL
MODEL       94
REMARK 921   NORMALIZED FREE ENERGY PREDICTED BY IDOCK:   -4.10 KCAL/MOL
REMARK 922        TOTAL FREE ENERGY PREDICTED BY IDOCK:   -6.18 KCAL/MOL
REMARK 923 INTER-LIGAND FREE ENERGY PREDICTED BY IDOCK:   -5.66 KCAL/MOL
REMARK 924 INTRA-LIGAND FREE ENERGY PREDICTED BY IDOCK:   -0.52 KCAL/MOL
REMARK 927      BINDING AFFINITY PREDICTED BY RF-SCORE:    0.00 PKD
ROOT
HETATM    1  C   UNL     1      -6.559  18.619  65.678  1.00  0.00    -0.309 C  
HETATM    2  C   UNL     1      -6.940  20.095  65.573  1.00  0.00    -0.304 C  
HETATM    3  C   UNL     1      -6.203  20.733  64.393  1.00  0.00    -0.356 C  
ENDROOT
BRANCH   2   4
HETATM    4  N   UNL     1      -8.402  20.197  65.434  1.00  0.00    -0.379 NA 
HETATM    5  H   UNL     1      -8.745  19.589  64.690  1.00  0.00     0.000 HD 
BRANCH   4   6
HETATM    6  C   UNL     1      -9.101  19.933  66.700  1.00  0.00    -0.376 C  
BRANCH   6   7
HETATM    7  C   UNL     1     -10.311  18.975  66.566  1.00  0.00    -0.439 C  
HETATM    8  H   UNL     1     -11.739  18.699  65.263  1.00  0.00     0.000 HD 
HETATM    9  O   UNL     1     -10.998  19.286  65.345  1.00  0.00    -0.452 OA 
BRANCH   7  10
HETATM   10  C   UNL     1      -9.932  17.495  66.568  1.00  0.00    -0.323 A  
HETATM   11  C   UNL     1     -10.407  16.587  65.607  1.00  0.00    -0.342 A  
HETATM   12  C   UNL     1     -10.056  15.237  65.652  1.00  0.00    -0.401 A  
HETATM   13  C   UNL     1      -9.232  14.769  66.668  1.00  0.00    -0.275 A  
HETATM   14  C   UNL     1      -9.069  17.008  67.565  1.00  0.00    -0.223 A  
HETATM   15  C   UNL     1      -8.718  15.653  67.614  1.00  0.00    -0.182 A  
BRANCH  13  16
HETATM   16  N   UNL     1      -8.907  13.383  66.703  1.00  0.00    -0.434 N  
HETATM   17  H   UNL     1      -8.115  13.014  66.177  1.00  0.00     0.000 HD 
BRANCH  16  18
HETATM   18  S   UNL     1      -9.878  12.368  67.643  1.00  0.00    -0.202 S  
HETATM   19  O   UNL     1      -9.075  11.689  68.632  1.00  0.00    -0.173 OA 
HETATM   20  O   UNL     1     -11.015  13.180  68.027  1.00  0.00    -0.233 OA 
HETATM   21  C   UNL     1     -10.447  11.189  66.435  1.00  0.00    -0.260 C  
ENDBRANCH  16  18
ENDBRANCH  13  16
ENDBRANCH   7  10
ENDBRANCH   6   7
ENDBRANCH   4   6
ENDBRANCH   2   4
TORSDOF 6
ENDMDL
MODEL       95
REMARK 921   NORMALIZED FREE ENERGY PREDICTED BY IDOCK:   -4.09 KCAL/MOL
REMARK 922        TOTAL FREE ENERGY PREDICTED BY IDOCK:   -6.17 KCAL/MOL
REMARK 923 INTER-LIGAND FREE ENERGY PREDICTED BY IDOCK:   -5.91 KCAL/MOL
REMARK 924 INTRA-LIGAND FREE ENERGY PREDICTED BY IDOCK:   -0.26 KCAL/MOL
REMARK 927      BINDING AFFINITY PREDICTED BY RF-SCORE:    0.00 PKD
ROOT
HETATM    1  C   UNL     1      -9.131   9.068  71.365  1.00  0.00    -0.271 C  
HETATM    2  C   UNL     1     -10.324   9.238  70.426  1.00  0.00    -0.240 C  
HETATM    3  C   UNL     1     -11.574   8.630  71.069  1.00  0.00    -0.325 C  
ENDROOT
BRANCH   2   4
HETATM    4  N   UNL     1     -10.493  10.669  70.131  1.00  0.00    -0.435 NA 
HETATM    5  H   UNL     1     -10.232  11.244  70.933  1.00  0.00     0.000 HD 
BRANCH   4   6
HETATM    6  C   UNL     1      -9.762  11.079  68.923  1.00  0.00    -0.172 C  
BRANCH   6   7
HETATM    7  C   UNL     1     -10.673  11.416  67.716  1.00  0.00    -0.211 C  
HETATM    8  H   UNL     1     -12.579  11.264  67.318  1.00  0.00     0.000 HD 
HETATM    9  O   UNL     1     -12.021  11.058  68.057  1.00  0.00    -0.623 OA 
BRANCH   7  10
HETATM   10  C   UNL     1     -10.633  12.884  67.300  1.00  0.00    -0.243 A  
HETATM   11  C   UNL     1     -11.719  13.757  67.481  1.00  0.00    -0.410 A  
HETATM   12  C   UNL     1     -11.653  15.089  67.070  1.00  0.00    -0.248 A  
HETATM   13  C   UNL     1     -10.502  15.569  66.457  1.00  0.00    -0.300 A  
HETATM   14  C   UNL     1      -9.464  13.401  66.713  1.00  0.00    -0.263 A  
HETATM   15  C   UNL     1      -9.397  14.736  66.297  1.00  0.00    -0.310 A  
BRANCH  13  16
HETATM   16  N   UNL     1     -10.470  16.926  66.027  1.00  0.00    -0.324 N  
HETATM   17  H   UNL     1     -10.986  17.229  65.200  1.00  0.00     0.000 HD 
BRANCH  16  18
HETATM   18  S   UNL     1      -9.552  18.019  66.930  1.00  0.00    -0.307 S  
HETATM   19  O   UNL     1      -9.040  17.378  68.118  1.00  0.00    -0.252 OA 
HETATM   20  O   UNL     1      -8.662  18.647  65.974  1.00  0.00    -0.491 OA 
HETATM   21  C   UNL     1     -10.776  19.227  67.393  1.00  0.00    -0.486 C  
ENDBRANCH  16  18
ENDBRANCH  13  16
ENDBRANCH   7  10
ENDBRANCH   6   7
ENDBRANCH   4   6
ENDBRANCH   2   4
TORSDOF 6
ENDMDL
MODEL       96
REMARK 921   NORMALIZED FREE ENERGY PREDICTED BY IDOCK:   -4.09 KCAL/MOL
REMARK 922        TOTAL FREE ENERGY PREDICTED BY IDOCK:   -6.17 KCAL/MOL
REMARK 923 INTER-LIGAND FREE ENERGY PREDICTED BY IDOCK:   -5.70 KCAL/MOL
REMARK 924 INTRA-LIGAND FREE ENERGY PREDICTED BY IDOCK:   -0.47 KCAL/MOL
REMARK 927      BINDING AFFINITY PREDICTED BY RF-SCORE:    0.00 PKD
ROOT
HETATM    1  C   UNL     1      -7.445   8.865  70.401  1.00  0.00    -0.081 C  
HETATM    2  C   UNL     1      -8.680   9.684  70.031  1.00  0.00    -0.231 C  
HETATM    3  C   UNL     1      -8.574  10.145  68.576  1.00  0.00    -0.118 C  
ENDROOT
BRANCH   2   4
HETATM    4  N   UNL     1      -9.879   8.865  70.267  1.00  0.00    -0.175 NA 
HETATM    5  H   UNL     1      -9.630   7.895  70.462  1.00  0.00     0.000 HD 
BRANCH   4   6
HETATM    6  C   UNL     1     -10.731   9.418  71.330  1.00  0.00    -0.350 C  
BRANCH   6   7
HETATM    7  C   UNL     1     -12.127   9.883  70.844  1.00  0.00    -0.341 C  
HETATM    8  H   UNL     1     -13.882  10.132  71.665  1.00  0.00     0.000 HD 
HETATM    9  O   UNL     1     -13.027   9.848  71.962  1.00  0.00    -0.413 OA 
BRANCH   7  10
HETATM   10  C   UNL     1     -12.136  11.284  70.235  1.00  0.00    -0.459 A  
HETATM   11  C   UNL     1     -11.897  11.523  68.872  1.00  0.00    -0.406 A  
HETATM   12  C   UNL     1     -11.892  12.820  68.355  1.00  0.00    -0.353 A  
HETATM   13  C   UNL     1     -12.113  13.902  69.197  1.00  0.00    -0.338 A  
HETATM   14  C   UNL     1     -12.395  12.391  71.063  1.00  0.00    -0.309 A  
HETATM   15  C   UNL     1     -12.387  13.693  70.546  1.00  0.00    -0.425 A  
BRANCH  13  16
HETATM   16  N   UNL     1     -12.080  15.215  68.647  1.00  0.00    -0.586 N  
HETATM   17  H   UNL     1     -12.941  15.714  68.424  1.00  0.00     0.000 HD 
BRANCH  16  18
HETATM   18  S   UNL     1     -10.569  15.920  68.376  1.00  0.00    -0.279 S  
HETATM   19  O   UNL     1     -10.549  17.268  68.891  1.00  0.00    -0.328 OA 
HETATM   20  O   UNL     1      -9.605  14.933  68.819  1.00  0.00    -0.204 OA 
HETATM   21  C   UNL     1     -10.504  15.968  66.596  1.00  0.00    -0.304 C  
ENDBRANCH  16  18
ENDBRANCH  13  16
ENDBRANCH   7  10
ENDBRANCH   6   7
ENDBRANCH   4   6
ENDBRANCH   2   4
TORSDOF 6
ENDMDL
MODEL       97
REMARK 921   NORMALIZED FREE ENERGY PREDICTED BY IDOCK:   -4.06 KCAL/MOL
REMARK 922        TOTAL FREE ENERGY PREDICTED BY IDOCK:   -6.13 KCAL/MOL
REMARK 923 INTER-LIGAND FREE ENERGY PREDICTED BY IDOCK:   -5.98 KCAL/MOL
REMARK 924 INTRA-LIGAND FREE ENERGY PREDICTED BY IDOCK:   -0.15 KCAL/MOL
REMARK 927      BINDING AFFINITY PREDICTED BY RF-SCORE:    0.00 PKD
ROOT
HETATM    1  C   UNL     1     -12.022  14.244  64.543  1.00  0.00    -0.478 C  
HETATM    2  C   UNL     1     -12.641  12.862  64.743  1.00  0.00    -0.425 C  
HETATM    3  C   UNL     1     -12.448  12.024  63.477  1.00  0.00    -0.654 C  
ENDROOT
BRANCH   2   4
HETATM    4  N   UNL     1     -12.025  12.235  65.922  1.00  0.00    -0.597 NA 
HETATM    5  H   UNL     1     -12.476  11.347  66.146  1.00  0.00     0.000 HD 
BRANCH   4   6
HETATM    6  C   UNL     1     -10.572  12.069  65.770  1.00  0.00    -0.263 C  
BRANCH   6   7
HETATM    7  C   UNL     1     -10.104  10.592  65.735  1.00  0.00    -0.265 C  
HETATM    8  H   UNL     1      -8.497   9.648  65.151  1.00  0.00     0.000 HD 
HETATM    9  O   UNL     1      -8.784  10.553  65.172  1.00  0.00    -0.176 OA 
BRANCH   7  10
HETATM   10  C   UNL     1     -10.088   9.915  67.104  1.00  0.00    -0.270 A  
HETATM   11  C   UNL     1     -10.486   8.581  67.298  1.00  0.00    -0.366 A  
HETATM   12  C   UNL     1     -10.478   8.002  68.568  1.00  0.00    -0.200 A  
HETATM   13  C   UNL     1     -10.083   8.751  69.669  1.00  0.00    -0.204 A  
HETATM   14  C   UNL     1      -9.656  10.643  68.226  1.00  0.00    -0.167 A  
HETATM   15  C   UNL     1      -9.650  10.064  69.501  1.00  0.00    -0.249 A  
BRANCH  13  16
HETATM   16  N   UNL     1     -10.106   8.142  70.955  1.00  0.00    -0.186 N  
HETATM   17  H   UNL     1      -9.248   7.807  71.395  1.00  0.00     0.000 HD 
BRANCH  16  18
HETATM   18  S   UNL     1     -11.599   7.990  71.731  1.00  0.00    -0.305 S  
HETATM   19  O   UNL     1     -12.426   7.033  71.035  1.00  0.00    -0.376 OA 
HETATM   20  O   UNL     1     -11.283   7.827  73.135  1.00  0.00    -0.402 OA 
HETATM   21  C   UNL     1     -12.284   9.622  71.523  1.00  0.00    -0.399 C  
ENDBRANCH  16  18
ENDBRANCH  13  16
ENDBRANCH   7  10
ENDBRANCH   6   7
ENDBRANCH   4   6
ENDBRANCH   2   4
TORSDOF 6
ENDMDL
MODEL       98
REMARK 921   NORMALIZED FREE ENERGY PREDICTED BY IDOCK:   -4.05 KCAL/MOL
REMARK 922        TOTAL FREE ENERGY PREDICTED BY IDOCK:   -6.12 KCAL/MOL
REMARK 923 INTER-LIGAND FREE ENERGY PREDICTED BY IDOCK:   -5.81 KCAL/MOL
REMARK 924 INTRA-LIGAND FREE ENERGY PREDICTED BY IDOCK:   -0.31 KCAL/MOL
REMARK 927      BINDING AFFINITY PREDICTED BY RF-SCORE:    0.00 PKD
ROOT
HETATM    1  C   UNL     1     -10.430   5.454  70.053  1.00  0.00    -0.373 C  
HETATM    2  C   UNL     1     -11.564   6.254  70.690  1.00  0.00    -0.281 C  
HETATM    3  C   UNL     1     -11.261   6.482  72.173  1.00  0.00    -0.308 C  
ENDROOT
BRANCH   2   4
HETATM    4  N   UNL     1     -11.720   7.519  69.956  1.00  0.00    -0.488 NA 
HETATM    5  H   UNL     1     -12.415   8.120  70.400  1.00  0.00     0.000 HD 
BRANCH   4   6
HETATM    6  C   UNL     1     -10.443   8.225  69.782  1.00  0.00    -0.220 C  
BRANCH   6   7
HETATM    7  C   UNL     1     -10.282   8.912  68.402  1.00  0.00    -0.199 C  
HETATM    8  H   UNL     1     -10.888   8.550  66.581  1.00  0.00     0.000 HD 
HETATM    9  O   UNL     1     -10.987   8.129  67.426  1.00  0.00    -0.138 OA 
BRANCH   7  10
HETATM   10  C   UNL     1     -10.797  10.349  68.362  1.00  0.00    -0.289 A  
HETATM   11  C   UNL     1     -10.685  11.167  67.225  1.00  0.00    -0.304 A  
HETATM   12  C   UNL     1     -11.149  12.483  67.232  1.00  0.00    -0.319 A  
HETATM   13  C   UNL     1     -11.723  13.009  68.383  1.00  0.00    -0.351 A  
HETATM   14  C   UNL     1     -11.415  10.889  69.504  1.00  0.00    -0.372 A  
HETATM   15  C   UNL     1     -11.878  12.211  69.514  1.00  0.00    -0.386 A  
BRANCH  13  16
HETATM   16  N   UNL     1     -12.167  14.362  68.369  1.00  0.00    -0.605 N  
HETATM   17  H   UNL     1     -12.987  14.641  67.830  1.00  0.00     0.000 HD 
BRANCH  16  18
HETATM   18  S   UNL     1     -11.292  15.489  69.273  1.00  0.00    -0.352 S  
HETATM   19  O   UNL     1     -12.067  15.924  70.411  1.00  0.00    -0.361 OA 
HETATM   20  O   UNL     1      -9.977  14.904  69.440  1.00  0.00    -0.204 OA 
HETATM   21  C   UNL     1     -11.134  16.837  68.118  1.00  0.00    -0.254 C  
ENDBRANCH  16  18
ENDBRANCH  13  16
ENDBRANCH   7  10
ENDBRANCH   6   7
ENDBRANCH   4   6
ENDBRANCH   2   4
TORSDOF 6
ENDMDL
MODEL       99
REMARK 921   NORMALIZED FREE ENERGY PREDICTED BY IDOCK:   -4.04 KCAL/MOL
REMARK 922        TOTAL FREE ENERGY PREDICTED BY IDOCK:   -6.10 KCAL/MOL
REMARK 923 INTER-LIGAND FREE ENERGY PREDICTED BY IDOCK:   -5.81 KCAL/MOL
REMARK 924 INTRA-LIGAND FREE ENERGY PREDICTED BY IDOCK:   -0.29 KCAL/MOL
REMARK 927      BINDING AFFINITY PREDICTED BY RF-SCORE:    0.00 PKD
ROOT
HETATM    1  C   UNL     1     -12.774   9.677  71.837  1.00  0.00    -0.499 C  
HETATM    2  C   UNL     1     -11.355   9.812  71.289  1.00  0.00    -0.375 C  
HETATM    3  C   UNL     1     -10.599   8.497  71.491  1.00  0.00    -0.333 C  
ENDROOT
BRANCH   2   4
HETATM    4  N   UNL     1     -11.430  10.196  69.871  1.00  0.00    -0.310 NA 
HETATM    5  H   UNL     1     -12.035   9.561  69.349  1.00  0.00     0.000 HD 
BRANCH   4   6
HETATM    6  C   UNL     1     -11.849  11.594  69.693  1.00  0.00    -0.352 C  
BRANCH   6   7
HETATM    7  C   UNL     1     -11.191  12.303  68.483  1.00  0.00    -0.271 C  
HETATM    8  H   UNL     1     -11.642  12.565  66.601  1.00  0.00     0.000 HD 
HETATM    9  O   UNL     1     -12.045  12.131  67.343  1.00  0.00    -0.553 OA 
BRANCH   7  10
HETATM   10  C   UNL     1     -10.938  13.793  68.702  1.00  0.00    -0.287 A  
HETATM   11  C   UNL     1      -9.723  14.294  69.200  1.00  0.00     0.043 A  
HETATM   12  C   UNL     1      -9.535  15.661  69.407  1.00  0.00    -0.279 A  
HETATM   13  C   UNL     1     -10.564  16.552  69.130  1.00  0.00    -0.319 A  
HETATM   14  C   UNL     1     -11.953  14.715  68.393  1.00  0.00    -0.289 A  
HETATM   15  C   UNL     1     -11.767  16.088  68.603  1.00  0.00    -0.273 A  
BRANCH  13  16
HETATM   16  N   UNL     1     -10.353  17.939  69.372  1.00  0.00    -0.321 N  
HETATM   17  H   UNL     1     -10.576  18.357  70.276  1.00  0.00     0.000 HD 
BRANCH  16  18
HETATM   18  S   UNL     1      -9.721  18.872  68.113  1.00  0.00    -0.369 S  
HETATM   19  O   UNL     1      -9.694  18.106  66.890  1.00  0.00    -0.293 OA 
HETATM   20  O   UNL     1     -10.422  20.138  68.190  1.00  0.00    -0.363 OA 
HETATM   21  C   UNL     1      -8.052  19.152  68.671  1.00  0.00    -0.370 C  
ENDBRANCH  16  18
ENDBRANCH  13  16
ENDBRANCH   7  10
ENDBRANCH   6   7
ENDBRANCH   4   6
ENDBRANCH   2   4
TORSDOF 6
ENDMDL
MODEL      100
REMARK 921   NORMALIZED FREE ENERGY PREDICTED BY IDOCK:   -4.03 KCAL/MOL
REMARK 922        TOTAL FREE ENERGY PREDICTED BY IDOCK:   -6.09 KCAL/MOL
REMARK 923 INTER-LIGAND FREE ENERGY PREDICTED BY IDOCK:   -5.71 KCAL/MOL
REMARK 924 INTRA-LIGAND FREE ENERGY PREDICTED BY IDOCK:   -0.38 KCAL/MOL
REMARK 927      BINDING AFFINITY PREDICTED BY RF-SCORE:    0.00 PKD
ROOT
HETATM    1  C   UNL     1     -10.764   5.810  71.269  1.00  0.00    -0.323 C  
HETATM    2  C   UNL     1     -11.619   6.999  71.702  1.00  0.00    -0.285 C  
HETATM    3  C   UNL     1     -10.934   7.731  72.858  1.00  0.00    -0.467 C  
ENDROOT
BRANCH   2   4
HETATM    4  N   UNL     1     -11.831   7.876  70.540  1.00  0.00    -0.477 NA 
HETATM    5  H   UNL     1     -12.318   8.732  70.807  1.00  0.00     0.000 HD 
BRANCH   4   6
HETATM    6  C   UNL     1     -10.579   8.177  69.832  1.00  0.00    -0.239 C  
BRANCH   6   7
HETATM    7  C   UNL     1     -10.139   9.660  69.927  1.00  0.00    -0.246 C  
HETATM    8  H   UNL     1      -8.435  10.614  69.936  1.00  0.00     0.000 HD 
HETATM    9  O   UNL     1      -8.705   9.706  69.878  1.00  0.00    -0.184 OA 
BRANCH   7  10
HETATM   10  C   UNL     1     -10.709  10.546  68.822  1.00  0.00    -0.249 A  
HETATM   11  C   UNL     1     -10.589  10.234  67.457  1.00  0.00    -0.320 A  
HETATM   12  C   UNL     1     -11.104  11.080  66.474  1.00  0.00    -0.174 A  
HETATM   13  C   UNL     1     -11.740  12.260  66.838  1.00  0.00    -0.334 A  
HETATM   14  C   UNL     1     -11.388  11.727  69.170  1.00  0.00    -0.340 A  
HETATM   15  C   UNL     1     -11.904  12.578  68.184  1.00  0.00    -0.371 A  
BRANCH  13  16
HETATM   16  N   UNL     1     -12.237  13.115  65.814  1.00  0.00    -0.448 N  
HETATM   17  H   UNL     1     -13.239  13.234  65.668  1.00  0.00     0.000 HD 
BRANCH  16  18
HETATM   18  S   UNL     1     -11.112  13.925  64.847  1.00  0.00    -0.389 S  
HETATM   19  O   UNL     1     -10.006  14.386  65.651  1.00  0.00    -0.332 OA 
HETATM   20  O   UNL     1     -10.901  13.059  63.705  1.00  0.00    -0.327 OA 
HETATM   21  C   UNL     1     -12.059  15.326  64.286  1.00  0.00    -0.208 C  
ENDBRANCH  16  18
ENDBRANCH  13  16
ENDBRANCH   7  10
ENDBRANCH   6   7
ENDBRANCH   4   6
ENDBRANCH   2   4
TORSDOF 6
ENDMDL
MODEL      101
REMARK 921   NORMALIZED FREE ENERGY PREDICTED BY IDOCK:   -4.02 KCAL/MOL
REMARK 922        TOTAL FREE ENERGY PREDICTED BY IDOCK:   -6.07 KCAL/MOL
REMARK 923 INTER-LIGAND FREE ENERGY PREDICTED BY IDOCK:   -5.59 KCAL/MOL
REMARK 924 INTRA-LIGAND FREE ENERGY PREDICTED BY IDOCK:   -0.49 KCAL/MOL
REMARK 927      BINDING AFFINITY PREDICTED BY RF-SCORE:    0.00 PKD
ROOT
HETATM    1  C   UNL     1      -6.507   9.479  69.560  1.00  0.00    -0.044 C  
HETATM    2  C   UNL     1      -7.802  10.279  69.691  1.00  0.00    -0.160 C  
HETATM    3  C   UNL     1      -7.827  11.391  68.640  1.00  0.00    -0.139 C  
ENDROOT
BRANCH   2   4
HETATM    4  N   UNL     1      -8.941   9.359  69.551  1.00  0.00    -0.152 NA 
HETATM    5  H   UNL     1      -8.639   8.386  69.605  1.00  0.00     0.000 HD 
BRANCH   4   6
HETATM    6  C   UNL     1     -10.007   9.638  70.524  1.00  0.00    -0.254 C  
BRANCH   6   7
HETATM    7  C   UNL     1     -11.407   9.835  69.890  1.00  0.00    -0.192 C  
HETATM    8  H   UNL     1     -13.221  10.105  70.563  1.00  0.00     0.000 HD 
HETATM    9  O   UNL     1     -12.363   9.985  70.951  1.00  0.00    -0.307 OA 
BRANCH   7  10
HETATM   10  C   UNL     1     -11.500  11.038  68.955  1.00  0.00    -0.364 A  
HETATM   11  C   UNL     1     -11.705  12.348  69.418  1.00  0.00    -0.384 A  
HETATM   12  C   UNL     1     -11.806  13.422  68.531  1.00  0.00    -0.401 A  
HETATM   13  C   UNL     1     -11.716  13.201  67.163  1.00  0.00    -0.377 A  
HETATM   14  C   UNL     1     -11.375  10.842  67.568  1.00  0.00    -0.309 A  
HETATM   15  C   UNL     1     -11.478  11.917  66.677  1.00  0.00    -0.382 A  
BRANCH  13  16
HETATM   16  N   UNL     1     -11.845  14.311  66.280  1.00  0.00    -0.395 N  
HETATM   17  H   UNL     1     -12.701  14.865  66.253  1.00  0.00     0.000 HD 
BRANCH  16  18
HETATM   18  S   UNL     1     -10.535  14.679  65.279  1.00  0.00    -0.419 S  
HETATM   19  O   UNL     1     -10.305  13.604  64.345  1.00  0.00    -0.428 OA 
HETATM   20  O   UNL     1     -10.777  16.032  64.821  1.00  0.00    -0.611 OA 
HETATM   21  C   UNL     1      -9.191  14.743  66.448  1.00  0.00    -0.269 C  
ENDBRANCH  16  18
ENDBRANCH  13  16
ENDBRANCH   7  10
ENDBRANCH   6   7
ENDBRANCH   4   6
ENDBRANCH   2   4
TORSDOF 6
ENDMDL
MODEL      102
REMARK 921   NORMALIZED FREE ENERGY PREDICTED BY IDOCK:   -4.01 KCAL/MOL
REMARK 922        TOTAL FREE ENERGY PREDICTED BY IDOCK:   -6.07 KCAL/MOL
REMARK 923 INTER-LIGAND FREE ENERGY PREDICTED BY IDOCK:   -5.83 KCAL/MOL
REMARK 924 INTRA-LIGAND FREE ENERGY PREDICTED BY IDOCK:   -0.24 KCAL/MOL
REMARK 927      BINDING AFFINITY PREDICTED BY RF-SCORE:    0.00 PKD
ROOT
HETATM    1  C   UNL     1     -12.118  15.493  69.969  1.00  0.00    -0.391 C  
HETATM    2  C   UNL     1     -11.725  15.887  68.546  1.00  0.00    -0.292 C  
HETATM    3  C   UNL     1     -10.442  16.720  68.580  1.00  0.00    -0.333 C  
ENDROOT
BRANCH   2   4
HETATM    4  N   UNL     1     -11.571  14.664  67.743  1.00  0.00    -0.346 NA 
HETATM    5  H   UNL     1     -12.296  13.982  67.966  1.00  0.00     0.000 HD 
BRANCH   4   6
HETATM    6  C   UNL     1     -11.534  14.946  66.300  1.00  0.00    -0.269 C  
BRANCH   6   7
HETATM    7  C   UNL     1     -12.258  13.888  65.430  1.00  0.00    -0.444 C  
HETATM    8  H   UNL     1     -13.071  13.858  63.654  1.00  0.00     0.000 HD 
HETATM    9  O   UNL     1     -12.627  14.506  64.188  1.00  0.00    -0.730 OA 
BRANCH   7  10
HETATM   10  C   UNL     1     -11.421  12.644  65.144  1.00  0.00    -0.363 A  
HETATM   11  C   UNL     1     -10.925  12.337  63.866  1.00  0.00    -0.464 A  
HETATM   12  C   UNL     1     -10.181  11.178  63.637  1.00  0.00    -0.444 A  
HETATM   13  C   UNL     1      -9.929  10.299  64.682  1.00  0.00    -0.307 A  
HETATM   14  C   UNL     1     -11.123  11.759  66.195  1.00  0.00    -0.358 A  
HETATM   15  C   UNL     1     -10.378  10.595  65.967  1.00  0.00    -0.290 A  
BRANCH  13  16
HETATM   16  N   UNL     1      -9.186   9.114  64.416  1.00  0.00    -0.416 N  
HETATM   17  H   UNL     1      -9.629   8.299  63.991  1.00  0.00     0.000 HD 
BRANCH  16  18
HETATM   18  S   UNL     1      -7.548   9.100  64.827  1.00  0.00    -0.112 S  
HETATM   19  O   UNL     1      -7.016  10.442  64.795  1.00  0.00    -0.118 OA 
HETATM   20  O   UNL     1      -7.463   8.288  66.023  1.00  0.00    -0.075 OA 
HETATM   21  C   UNL     1      -6.846   8.156  63.489  1.00  0.00    -0.076 C  
ENDBRANCH  16  18
ENDBRANCH  13  16
ENDBRANCH   7  10
ENDBRANCH   6   7
ENDBRANCH   4   6
ENDBRANCH   2   4
TORSDOF 6
ENDMDL
MODEL      103
REMARK 921   NORMALIZED FREE ENERGY PREDICTED BY IDOCK:   -4.01 KCAL/MOL
REMARK 922        TOTAL FREE ENERGY PREDICTED BY IDOCK:   -6.07 KCAL/MOL
REMARK 923 INTER-LIGAND FREE ENERGY PREDICTED BY IDOCK:   -5.48 KCAL/MOL
REMARK 924 INTRA-LIGAND FREE ENERGY PREDICTED BY IDOCK:   -0.59 KCAL/MOL
REMARK 927      BINDING AFFINITY PREDICTED BY RF-SCORE:    0.00 PKD
ROOT
HETATM    1  C   UNL     1      -8.859  20.106  65.982  1.00  0.00    -0.194 C  
HETATM    2  C   UNL     1      -8.901  20.101  67.509  1.00  0.00    -0.342 C  
HETATM    3  C   UNL     1     -10.151  19.357  67.986  1.00  0.00    -0.516 C  
ENDROOT
BRANCH   2   4
HETATM    4  N   UNL     1      -7.663  19.485  68.013  1.00  0.00    -0.291 NA 
HETATM    5  H   UNL     1      -7.840  18.938  68.856  1.00  0.00     0.000 HD 
BRANCH   4   6
HETATM    6  C   UNL     1      -6.986  18.676  66.989  1.00  0.00    -0.199 C  
BRANCH   6   7
HETATM    7  C   UNL     1      -6.877  17.171  67.341  1.00  0.00    -0.153 C  
HETATM    8  H   UNL     1      -6.436  16.137  68.939  1.00  0.00     0.000 HD 
HETATM    9  O   UNL     1      -6.503  17.059  68.723  1.00  0.00    -0.164 OA 
BRANCH   7  10
HETATM   10  C   UNL     1      -8.165  16.385  67.104  1.00  0.00    -0.209 A  
HETATM   11  C   UNL     1      -9.017  16.631  66.014  1.00  0.00    -0.248 A  
HETATM   12  C   UNL     1     -10.197  15.906  65.840  1.00  0.00    -0.373 A  
HETATM   13  C   UNL     1     -10.553  14.930  66.762  1.00  0.00    -0.305 A  
HETATM   14  C   UNL     1      -8.525  15.367  68.004  1.00  0.00    -0.146 A  
HETATM   15  C   UNL     1      -9.710  14.640  67.833  1.00  0.00    -0.216 A  
BRANCH  13  16
HETATM   16  N   UNL     1     -11.773  14.221  66.572  1.00  0.00    -0.379 N  
HETATM   17  H   UNL     1     -12.636  14.531  67.019  1.00  0.00     0.000 HD 
BRANCH  16  18
HETATM   18  S   UNL     1     -11.745  12.851  65.585  1.00  0.00    -0.410 S  
HETATM   19  O   UNL     1     -13.066  12.585  65.066  1.00  0.00    -0.765 OA 
HETATM   20  O   UNL     1     -10.616  13.046  64.698  1.00  0.00    -0.334 OA 
HETATM   21  C   UNL     1     -11.299  11.575  66.745  1.00  0.00    -0.238 C  
ENDBRANCH  16  18
ENDBRANCH  13  16
ENDBRANCH   7  10
ENDBRANCH   6   7
ENDBRANCH   4   6
ENDBRANCH   2   4
TORSDOF 6
ENDMDL
MODEL      104
REMARK 921   NORMALIZED FREE ENERGY PREDICTED BY IDOCK:   -4.01 KCAL/MOL
REMARK 922        TOTAL FREE ENERGY PREDICTED BY IDOCK:   -6.06 KCAL/MOL
REMARK 923 INTER-LIGAND FREE ENERGY PREDICTED BY IDOCK:   -5.71 KCAL/MOL
REMARK 924 INTRA-LIGAND FREE ENERGY PREDICTED BY IDOCK:   -0.35 KCAL/MOL
REMARK 927      BINDING AFFINITY PREDICTED BY RF-SCORE:    0.00 PKD
ROOT
HETATM    1  C   UNL     1     -11.961  15.521  71.374  1.00  0.00    -0.455 C  
HETATM    2  C   UNL     1     -11.626  15.754  69.902  1.00  0.00    -0.351 C  
HETATM    3  C   UNL     1     -10.143  15.466  69.660  1.00  0.00    -0.275 C  
ENDROOT
BRANCH   2   4
HETATM    4  N   UNL     1     -12.498  14.901  69.079  1.00  0.00    -0.583 NA 
HETATM    5  H   UNL     1     -12.944  15.439  68.335  1.00  0.00     0.000 HD 
BRANCH   4   6
HETATM    6  C   UNL     1     -11.786  13.735  68.536  1.00  0.00    -0.356 C  
BRANCH   6   7
HETATM    7  C   UNL     1     -12.148  13.398  67.068  1.00  0.00    -0.339 C  
HETATM    8  H   UNL     1     -12.087  14.345  65.361  1.00  0.00     0.000 HD 
HETATM    9  O   UNL     1     -11.865  14.551  66.260  1.00  0.00    -0.380 OA 
BRANCH   7  10
HETATM   10  C   UNL     1     -11.398  12.193  66.506  1.00  0.00    -0.405 A  
HETATM   11  C   UNL     1     -10.972  11.120  67.307  1.00  0.00    -0.354 A  
HETATM   12  C   UNL     1     -10.269  10.045  66.761  1.00  0.00    -0.295 A  
HETATM   13  C   UNL     1      -9.969  10.029  65.405  1.00  0.00    -0.294 A  
HETATM   14  C   UNL     1     -11.116  12.140  65.130  1.00  0.00    -0.369 A  
HETATM   15  C   UNL     1     -10.408  11.062  64.581  1.00  0.00    -0.410 A  
BRANCH  13  16
HETATM   16  N   UNL     1      -9.231   8.931  64.880  1.00  0.00    -0.436 N  
HETATM   17  H   UNL     1      -9.706   8.111  64.501  1.00  0.00     0.000 HD 
BRANCH  16  18
HETATM   18  S   UNL     1      -7.545   9.028  64.902  1.00  0.00    -0.111 S  
HETATM   19  O   UNL     1      -6.998   8.470  63.689  1.00  0.00    -0.086 OA 
HETATM   20  O   UNL     1      -7.249  10.389  65.302  1.00  0.00    -0.143 OA 
HETATM   21  C   UNL     1      -7.138   7.968  66.275  1.00  0.00    -0.066 C  
ENDBRANCH  16  18
ENDBRANCH  13  16
ENDBRANCH   7  10
ENDBRANCH   6   7
ENDBRANCH   4   6
ENDBRANCH   2   4
TORSDOF 6
ENDMDL
MODEL      105
REMARK 921   NORMALIZED FREE ENERGY PREDICTED BY IDOCK:   -4.00 KCAL/MOL
REMARK 922        TOTAL FREE ENERGY PREDICTED BY IDOCK:   -6.06 KCAL/MOL
REMARK 923 INTER-LIGAND FREE ENERGY PREDICTED BY IDOCK:   -6.22 KCAL/MOL
REMARK 924 INTRA-LIGAND FREE ENERGY PREDICTED BY IDOCK:    0.17 KCAL/MOL
REMARK 927      BINDING AFFINITY PREDICTED BY RF-SCORE:    0.00 PKD
ROOT
HETATM    1  C   UNL     1      -6.303  17.547  69.533  1.00  0.00    -0.230 C  
HETATM    2  C   UNL     1      -6.859  16.531  68.537  1.00  0.00    -0.151 C  
HETATM    3  C   UNL     1      -7.549  15.394  69.294  1.00  0.00    -0.216 C  
ENDROOT
BRANCH   2   4
HETATM    4  N   UNL     1      -7.777  17.223  67.619  1.00  0.00    -0.181 NA 
HETATM    5  H   UNL     1      -8.402  16.563  67.156  1.00  0.00     0.000 HD 
BRANCH   4   6
HETATM    6  C   UNL     1      -8.533  18.292  68.287  1.00  0.00    -0.295 C  
BRANCH   6   7
HETATM    7  C   UNL     1     -10.068  18.189  68.107  1.00  0.00    -0.378 C  
HETATM    8  H   UNL     1     -11.444  19.243  67.205  1.00  0.00     0.000 HD 
HETATM    9  O   UNL     1     -10.503  19.306  67.316  1.00  0.00    -0.402 OA 
BRANCH   7  10
HETATM   10  C   UNL     1     -10.528  16.893  67.442  1.00  0.00    -0.310 A  
HETATM   11  C   UNL     1     -10.349  16.635  66.073  1.00  0.00    -0.352 A  
HETATM   12  C   UNL     1     -10.801  15.447  65.496  1.00  0.00    -0.384 A  
HETATM   13  C   UNL     1     -11.452  14.501  66.277  1.00  0.00    -0.358 A  
HETATM   14  C   UNL     1     -11.155  15.906  68.222  1.00  0.00    -0.345 A  
HETATM   15  C   UNL     1     -11.612  14.715  67.644  1.00  0.00    -0.383 A  
BRANCH  13  16
HETATM   16  N   UNL     1     -11.923  13.308  65.658  1.00  0.00    -0.387 N  
HETATM   17  H   UNL     1     -12.299  12.540  66.213  1.00  0.00     0.000 HD 
BRANCH  16  18
HETATM   18  S   UNL     1     -11.839  13.207  63.974  1.00  0.00    -0.477 S  
HETATM   19  O   UNL     1     -12.505  14.338  63.373  1.00  0.00    -0.761 OA 
HETATM   20  O   UNL     1     -10.451  12.911  63.680  1.00  0.00    -0.324 OA 
HETATM   21  C   UNL     1     -12.780  11.729  63.651  1.00  0.00    -0.290 C  
ENDBRANCH  16  18
ENDBRANCH  13  16
ENDBRANCH   7  10
ENDBRANCH   6   7
ENDBRANCH   4   6
ENDBRANCH   2   4
TORSDOF 6
ENDMDL
MODEL      106
REMARK 921   NORMALIZED FREE ENERGY PREDICTED BY IDOCK:   -3.99 KCAL/MOL
REMARK 922        TOTAL FREE ENERGY PREDICTED BY IDOCK:   -6.04 KCAL/MOL
REMARK 923 INTER-LIGAND FREE ENERGY PREDICTED BY IDOCK:   -5.76 KCAL/MOL
REMARK 924 INTRA-LIGAND FREE ENERGY PREDICTED BY IDOCK:   -0.27 KCAL/MOL
REMARK 927      BINDING AFFINITY PREDICTED BY RF-SCORE:    0.00 PKD
ROOT
HETATM    1  C   UNL     1     -10.274  10.949  63.519  1.00  0.00    -0.379 C  
HETATM    2  C   UNL     1     -10.473  12.458  63.656  1.00  0.00    -0.426 C  
HETATM    3  C   UNL     1     -11.935  12.811  63.376  1.00  0.00    -0.613 C  
ENDROOT
BRANCH   2   4
HETATM    4  N   UNL     1     -10.052  12.869  65.005  1.00  0.00    -0.451 NA 
HETATM    5  H   UNL     1     -10.663  13.596  65.376  1.00  0.00     0.000 HD 
BRANCH   4   6
HETATM    6  C   UNL     1      -9.956  11.731  65.930  1.00  0.00    -0.236 C  
BRANCH   6   7
HETATM    7  C   UNL     1     -10.879  11.845  67.170  1.00  0.00    -0.255 C  
HETATM    8  H   UNL     1     -12.785  12.145  67.472  1.00  0.00     0.000 HD 
HETATM    9  O   UNL     1     -12.220  12.075  66.713  1.00  0.00    -0.545 OA 
BRANCH   7  10
HETATM   10  C   UNL     1     -10.859  10.613  68.071  1.00  0.00    -0.309 A  
HETATM   11  C   UNL     1     -10.319   9.381  67.665  1.00  0.00    -0.303 A  
HETATM   12  C   UNL     1     -10.338   8.269  68.509  1.00  0.00    -0.230 A  
HETATM   13  C   UNL     1     -10.910   8.366  69.771  1.00  0.00    -0.183 A  
HETATM   14  C   UNL     1     -11.399  10.699  69.367  1.00  0.00    -0.348 A  
HETATM   15  C   UNL     1     -11.422   9.584  70.214  1.00  0.00    -0.256 A  
BRANCH  13  16
HETATM   16  N   UNL     1     -10.935   7.211  70.602  1.00  0.00    -0.249 N  
HETATM   17  H   UNL     1     -11.179   6.295  70.223  1.00  0.00     0.000 HD 
BRANCH  16  18
HETATM   18  S   UNL     1     -10.550   7.404  72.235  1.00  0.00    -0.248 S  
HETATM   19  O   UNL     1      -9.302   8.117  72.371  1.00  0.00    -0.189 OA 
HETATM   20  O   UNL     1     -11.764   7.893  72.857  1.00  0.00    -0.350 OA 
HETATM   21  C   UNL     1     -10.325   5.716  72.758  1.00  0.00    -0.193 C  
ENDBRANCH  16  18
ENDBRANCH  13  16
ENDBRANCH   7  10
ENDBRANCH   6   7
ENDBRANCH   4   6
ENDBRANCH   2   4
TORSDOF 6
ENDMDL
MODEL      107
REMARK 921   NORMALIZED FREE ENERGY PREDICTED BY IDOCK:   -3.99 KCAL/MOL
REMARK 922        TOTAL FREE ENERGY PREDICTED BY IDOCK:   -6.04 KCAL/MOL
REMARK 923 INTER-LIGAND FREE ENERGY PREDICTED BY IDOCK:   -5.60 KCAL/MOL
REMARK 924 INTRA-LIGAND FREE ENERGY PREDICTED BY IDOCK:   -0.44 KCAL/MOL
REMARK 927      BINDING AFFINITY PREDICTED BY RF-SCORE:    0.00 PKD
ROOT
HETATM    1  C   UNL     1     -10.226  11.149  63.725  1.00  0.00    -0.434 C  
HETATM    2  C   UNL     1     -11.158  12.071  64.508  1.00  0.00    -0.331 C  
HETATM    3  C   UNL     1     -12.549  12.058  63.871  1.00  0.00    -0.517 C  
ENDROOT
BRANCH   2   4
HETATM    4  N   UNL     1     -11.187  11.632  65.912  1.00  0.00    -0.280 NA 
HETATM    5  H   UNL     1     -11.629  10.717  66.003  1.00  0.00     0.000 HD 
BRANCH   4   6
HETATM    6  C   UNL     1      -9.852  11.640  66.527  1.00  0.00    -0.204 C  
BRANCH   6   7
HETATM    7  C   UNL     1      -9.759  12.476  67.828  1.00  0.00    -0.202 C  
HETATM    8  H   UNL     1      -8.420  12.746  69.225  1.00  0.00     0.000 HD 
HETATM    9  O   UNL     1      -8.477  12.234  68.427  1.00  0.00    -0.170 OA 
BRANCH   7  10
HETATM   10  C   UNL     1      -9.939  13.977  67.614  1.00  0.00    -0.237 A  
HETATM   11  C   UNL     1      -9.323  14.675  66.561  1.00  0.00    -0.313 A  
HETATM   12  C   UNL     1      -9.493  16.052  66.409  1.00  0.00    -0.322 A  
HETATM   13  C   UNL     1     -10.273  16.759  67.315  1.00  0.00    -0.292 A  
HETATM   14  C   UNL     1     -10.754  14.706  68.498  1.00  0.00    -0.248 A  
HETATM   15  C   UNL     1     -10.923  16.088  68.348  1.00  0.00    -0.331 A  
BRANCH  13  16
HETATM   16  N   UNL     1     -10.411  18.166  67.149  1.00  0.00    -0.365 N  
HETATM   17  H   UNL     1     -11.058  18.554  66.462  1.00  0.00     0.000 HD 
BRANCH  16  18
HETATM   18  S   UNL     1      -9.469  19.173  68.125  1.00  0.00    -0.362 S  
HETATM   19  O   UNL     1     -10.315  19.970  68.980  1.00  0.00    -0.382 OA 
HETATM   20  O   UNL     1      -8.441  18.313  68.677  1.00  0.00    -0.317 OA 
HETATM   21  C   UNL     1      -8.691  20.226  66.916  1.00  0.00    -0.295 C  
ENDBRANCH  16  18
ENDBRANCH  13  16
ENDBRANCH   7  10
ENDBRANCH   6   7
ENDBRANCH   4   6
ENDBRANCH   2   4
TORSDOF 6
ENDMDL
MODEL      108
REMARK 921   NORMALIZED FREE ENERGY PREDICTED BY IDOCK:   -3.97 KCAL/MOL
REMARK 922        TOTAL FREE ENERGY PREDICTED BY IDOCK:   -6.01 KCAL/MOL
REMARK 923 INTER-LIGAND FREE ENERGY PREDICTED BY IDOCK:   -5.41 KCAL/MOL
REMARK 924 INTRA-LIGAND FREE ENERGY PREDICTED BY IDOCK:   -0.60 KCAL/MOL
REMARK 927      BINDING AFFINITY PREDICTED BY RF-SCORE:    0.00 PKD
ROOT
HETATM    1  C   UNL     1      -9.578  11.241  68.086  1.00  0.00    -0.186 C  
HETATM    2  C   UNL     1     -11.098  11.122  67.988  1.00  0.00    -0.276 C  
HETATM    3  C   UNL     1     -11.750  11.915  69.124  1.00  0.00    -0.380 C  
ENDROOT
BRANCH   2   4
HETATM    4  N   UNL     1     -11.524  11.600  66.663  1.00  0.00    -0.467 NA 
HETATM    5  H   UNL     1     -12.037  10.877  66.158  1.00  0.00     0.000 HD 
BRANCH   4   6
HETATM    6  C   UNL     1     -12.303  12.844  66.743  1.00  0.00     0.061 C  
BRANCH   6   7
HETATM    7  C   UNL     1     -11.864  13.932  65.730  1.00  0.00    -0.378 C  
HETATM    8  H   UNL     1     -12.770  15.106  64.460  1.00  0.00     0.000 HD 
HETATM    9  O   UNL     1     -13.039  14.440  65.080  1.00  0.00    -0.633 OA 
BRANCH   7  10
HETATM   10  C   UNL     1     -11.097  15.092  66.362  1.00  0.00    -0.329 A  
HETATM   11  C   UNL     1     -11.161  15.390  67.733  1.00  0.00    -0.321 A  
HETATM   12  C   UNL     1     -10.463  16.472  68.272  1.00  0.00    -0.313 A  
HETATM   13  C   UNL     1      -9.697  17.283  67.444  1.00  0.00    -0.258 A  
HETATM   14  C   UNL     1     -10.286  15.903  65.549  1.00  0.00    -0.394 A  
HETATM   15  C   UNL     1      -9.586  16.991  66.087  1.00  0.00    -0.265 A  
BRANCH  13  16
HETATM   16  N   UNL     1      -9.012  18.393  68.016  1.00  0.00    -0.284 N  
HETATM   17  H   UNL     1      -9.490  19.281  68.176  1.00  0.00     0.000 HD 
BRANCH  16  18
HETATM   18  S   UNL     1      -7.385  18.193  68.423  1.00  0.00    -0.278 S  
HETATM   19  O   UNL     1      -7.224  17.039  69.275  1.00  0.00    -0.231 OA 
HETATM   20  O   UNL     1      -6.664  18.309  67.172  1.00  0.00    -0.184 OA 
HETATM   21  C   UNL     1      -7.062  19.670  69.365  1.00  0.00    -0.291 C  
ENDBRANCH  16  18
ENDBRANCH  13  16
ENDBRANCH   7  10
ENDBRANCH   6   7
ENDBRANCH   4   6
ENDBRANCH   2   4
TORSDOF 6
ENDMDL
MODEL      109
REMARK 921   NORMALIZED FREE ENERGY PREDICTED BY IDOCK:   -3.95 KCAL/MOL
REMARK 922        TOTAL FREE ENERGY PREDICTED BY IDOCK:   -5.98 KCAL/MOL
REMARK 923 INTER-LIGAND FREE ENERGY PREDICTED BY IDOCK:   -5.51 KCAL/MOL
REMARK 924 INTRA-LIGAND FREE ENERGY PREDICTED BY IDOCK:   -0.46 KCAL/MOL
REMARK 927      BINDING AFFINITY PREDICTED BY RF-SCORE:    0.00 PKD
ROOT
HETATM    1  C   UNL     1     -10.843  18.328  67.413  1.00  0.00    -0.281 C  
HETATM    2  C   UNL     1      -9.554  19.083  67.096  1.00  0.00    -0.312 C  
HETATM    3  C   UNL     1      -9.782  20.586  67.271  1.00  0.00    -0.600 C  
ENDROOT
BRANCH   2   4
HETATM    4  N   UNL     1      -8.484  18.580  67.972  1.00  0.00    -0.276 NA 
HETATM    5  H   UNL     1      -8.750  17.698  68.410  1.00  0.00     0.000 HD 
BRANCH   4   6
HETATM    6  C   UNL     1      -7.199  18.457  67.269  1.00  0.00    -0.204 C  
BRANCH   6   7
HETATM    7  C   UNL     1      -7.039  17.140  66.468  1.00  0.00    -0.268 C  
HETATM    8  H   UNL     1      -5.542  16.016  65.910  1.00  0.00     0.000 HD 
HETATM    9  O   UNL     1      -5.641  16.823  66.400  1.00  0.00    -0.337 OA 
BRANCH   7  10
HETATM   10  C   UNL     1      -7.795  15.956  67.068  1.00  0.00    -0.267 A  
HETATM   11  C   UNL     1      -7.481  15.409  68.323  1.00  0.00    -0.112 A  
HETATM   12  C   UNL     1      -8.180  14.313  68.830  1.00  0.00    -0.053 A  
HETATM   13  C   UNL     1      -9.199  13.735  68.084  1.00  0.00    -0.199 A  
HETATM   14  C   UNL     1      -8.854  15.379  66.345  1.00  0.00    -0.340 A  
HETATM   15  C   UNL     1      -9.555  14.277  66.851  1.00  0.00    -0.268 A  
BRANCH  13  16
HETATM   16  N   UNL     1      -9.881  12.604  68.615  1.00  0.00    -0.400 N  
HETATM   17  H   UNL     1      -9.367  11.787  68.947  1.00  0.00     0.000 HD 
BRANCH  16  18
HETATM   18  S   UNL     1     -11.568  12.657  68.679  1.00  0.00    -0.335 S  
HETATM   19  O   UNL     1     -12.012  13.995  68.987  1.00  0.00    -0.332 OA 
HETATM   20  O   UNL     1     -12.015  11.975  67.482  1.00  0.00    -0.572 OA 
HETATM   21  C   UNL     1     -11.913  11.588  70.063  1.00  0.00    -0.357 C  
ENDBRANCH  16  18
ENDBRANCH  13  16
ENDBRANCH   7  10
ENDBRANCH   6   7
ENDBRANCH   4   6
ENDBRANCH   2   4
TORSDOF 6
ENDMDL
MODEL      110
REMARK 921   NORMALIZED FREE ENERGY PREDICTED BY IDOCK:   -3.94 KCAL/MOL
REMARK 922        TOTAL FREE ENERGY PREDICTED BY IDOCK:   -5.97 KCAL/MOL
REMARK 923 INTER-LIGAND FREE ENERGY PREDICTED BY IDOCK:   -5.64 KCAL/MOL
REMARK 924 INTRA-LIGAND FREE ENERGY PREDICTED BY IDOCK:   -0.33 KCAL/MOL
REMARK 927      BINDING AFFINITY PREDICTED BY RF-SCORE:    0.00 PKD
ROOT
HETATM    1  C   UNL     1      -8.016   8.939  62.516  1.00  0.00    -0.143 C  
HETATM    2  C   UNL     1      -8.851   9.455  63.687  1.00  0.00    -0.171 C  
HETATM    3  C   UNL     1      -7.969   9.579  64.931  1.00  0.00    -0.121 C  
ENDROOT
BRANCH   2   4
HETATM    4  N   UNL     1      -9.456  10.741  63.305  1.00  0.00    -0.291 NA 
HETATM    5  H   UNL     1      -9.554  10.816  62.292  1.00  0.00     0.000 HD 
BRANCH   4   6
HETATM    6  C   UNL     1     -10.740  10.976  63.981  1.00  0.00    -0.261 C  
BRANCH   6   7
HETATM    7  C   UNL     1     -11.385  12.346  63.655  1.00  0.00    -0.482 C  
HETATM    8  H   UNL     1     -13.141  12.958  63.058  1.00  0.00     0.000 HD 
HETATM    9  O   UNL     1     -12.746  12.118  63.258  1.00  0.00    -0.698 OA 
BRANCH   7  10
HETATM   10  C   UNL     1     -11.360  13.334  64.819  1.00  0.00    -0.350 A  
HETATM   11  C   UNL     1     -12.164  13.186  65.961  1.00  0.00    -0.478 A  
HETATM   12  C   UNL     1     -12.130  14.121  66.997  1.00  0.00    -0.449 A  
HETATM   13  C   UNL     1     -11.298  15.230  66.902  1.00  0.00    -0.209 A  
HETATM   14  C   UNL     1     -10.497  14.443  64.761  1.00  0.00    -0.394 A  
HETATM   15  C   UNL     1     -10.463  15.384  65.798  1.00  0.00    -0.371 A  
BRANCH  13  16
HETATM   16  N   UNL     1     -11.299  16.179  67.963  1.00  0.00    -0.289 N  
HETATM   17  H   UNL     1     -12.035  16.882  68.040  1.00  0.00     0.000 HD 
BRANCH  16  18
HETATM   18  S   UNL     1     -10.043  16.106  69.090  1.00  0.00    -0.268 S  
HETATM   19  O   UNL     1      -9.270  14.903  68.895  1.00  0.00    -0.191 OA 
HETATM   20  O   UNL     1      -9.419  17.413  69.049  1.00  0.00    -0.221 OA 
HETATM   21  C   UNL     1     -10.939  15.989  70.625  1.00  0.00    -0.253 C  
ENDBRANCH  16  18
ENDBRANCH  13  16
ENDBRANCH   7  10
ENDBRANCH   6   7
ENDBRANCH   4   6
ENDBRANCH   2   4
TORSDOF 6
ENDMDL
MODEL      111
REMARK 921   NORMALIZED FREE ENERGY PREDICTED BY IDOCK:   -3.93 KCAL/MOL
REMARK 922        TOTAL FREE ENERGY PREDICTED BY IDOCK:   -5.95 KCAL/MOL
REMARK 923 INTER-LIGAND FREE ENERGY PREDICTED BY IDOCK:   -5.78 KCAL/MOL
REMARK 924 INTRA-LIGAND FREE ENERGY PREDICTED BY IDOCK:   -0.17 KCAL/MOL
REMARK 927      BINDING AFFINITY PREDICTED BY RF-SCORE:    0.00 PKD
ROOT
HETATM    1  C   UNL     1      -7.792  14.706  67.884  1.00  0.00    -0.143 C  
HETATM    2  C   UNL     1      -9.316  14.661  67.786  1.00  0.00    -0.197 C  
HETATM    3  C   UNL     1      -9.727  14.075  66.433  1.00  0.00    -0.309 C  
ENDROOT
BRANCH   2   4
HETATM    4  N   UNL     1      -9.839  13.872  68.913  1.00  0.00    -0.410 NA 
HETATM    5  H   UNL     1     -10.695  14.283  69.284  1.00  0.00     0.000 HD 
BRANCH   4   6
HETATM    6  C   UNL     1     -10.037  12.459  68.560  1.00  0.00    -0.185 C  
BRANCH   6   7
HETATM    7  C   UNL     1     -11.438  11.906  68.924  1.00  0.00    -0.301 C  
HETATM    8  H   UNL     1     -12.922  11.102  67.941  1.00  0.00     0.000 HD 
HETATM    9  O   UNL     1     -12.063  11.440  67.719  1.00  0.00    -0.637 OA 
BRANCH   7  10
HETATM   10  C   UNL     1     -11.410  10.773  69.947  1.00  0.00    -0.385 A  
HETATM   11  C   UNL     1     -12.536  10.398  70.699  1.00  0.00    -0.437 A  
HETATM   12  C   UNL     1     -12.467   9.371  71.641  1.00  0.00    -0.460 A  
HETATM   13  C   UNL     1     -11.266   8.707  71.856  1.00  0.00    -0.343 A  
HETATM   14  C   UNL     1     -10.214  10.063  70.153  1.00  0.00    -0.297 A  
HETATM   15  C   UNL     1     -10.143   9.033  71.100  1.00  0.00    -0.365 A  
BRANCH  13  16
HETATM   16  N   UNL     1     -11.219   7.677  72.839  1.00  0.00    -0.470 N  
HETATM   17  H   UNL     1     -11.725   7.767  73.720  1.00  0.00     0.000 HD 
BRANCH  16  18
HETATM   18  S   UNL     1     -10.299   6.302  72.498  1.00  0.00    -0.198 S  
HETATM   19  O   UNL     1     -10.557   5.852  71.151  1.00  0.00    -0.225 OA 
HETATM   20  O   UNL     1      -8.957   6.625  72.937  1.00  0.00    -0.129 OA 
HETATM   21  C   UNL     1     -10.970   5.121  73.652  1.00  0.00    -0.288 C  
ENDBRANCH  16  18
ENDBRANCH  13  16
ENDBRANCH   7  10
ENDBRANCH   6   7
ENDBRANCH   4   6
ENDBRANCH   2   4
TORSDOF 6
ENDMDL
MODEL      112
REMARK 921   NORMALIZED FREE ENERGY PREDICTED BY IDOCK:   -3.92 KCAL/MOL
REMARK 922        TOTAL FREE ENERGY PREDICTED BY IDOCK:   -5.94 KCAL/MOL
REMARK 923 INTER-LIGAND FREE ENERGY PREDICTED BY IDOCK:   -5.85 KCAL/MOL
REMARK 924 INTRA-LIGAND FREE ENERGY PREDICTED BY IDOCK:   -0.09 KCAL/MOL
REMARK 927      BINDING AFFINITY PREDICTED BY RF-SCORE:    0.00 PKD
ROOT
HETATM    1  C   UNL     1      -8.673  10.330  64.294  1.00  0.00    -0.217 C  
HETATM    2  C   UNL     1      -9.253  11.289  65.332  1.00  0.00    -0.183 C  
HETATM    3  C   UNL     1      -8.272  11.440  66.497  1.00  0.00    -0.152 C  
ENDROOT
BRANCH   2   4
HETATM    4  N   UNL     1      -9.539  12.576  64.679  1.00  0.00    -0.481 NA 
HETATM    5  H   UNL     1      -8.793  12.835  64.033  1.00  0.00     0.000 HD 
BRANCH   4   6
HETATM    6  C   UNL     1     -10.848  12.582  64.008  1.00  0.00    -0.406 C  
BRANCH   6   7
HETATM    7  C   UNL     1     -11.921  13.441  64.723  1.00  0.00    -0.390 C  
HETATM    8  H   UNL     1     -13.456  13.084  65.877  1.00  0.00     0.000 HD 
HETATM    9  O   UNL     1     -12.798  12.559  65.439  1.00  0.00    -0.554 OA 
BRANCH   7  10
HETATM   10  C   UNL     1     -11.345  14.472  65.691  1.00  0.00    -0.336 A  
HETATM   11  C   UNL     1     -11.659  14.489  67.061  1.00  0.00    -0.402 A  
HETATM   12  C   UNL     1     -11.130  15.460  67.912  1.00  0.00    -0.323 A  
HETATM   13  C   UNL     1     -10.285  16.440  67.406  1.00  0.00    -0.281 A  
HETATM   14  C   UNL     1     -10.458  15.450  65.207  1.00  0.00    -0.440 A  
HETATM   15  C   UNL     1      -9.928  16.426  66.060  1.00  0.00    -0.369 A  
BRANCH  13  16
HETATM   16  N   UNL     1      -9.777  17.431  68.293  1.00  0.00    -0.286 N  
HETATM   17  H   UNL     1      -9.329  17.171  69.172  1.00  0.00     0.000 HD 
BRANCH  16  18
HETATM   18  S   UNL     1      -9.940  19.051  67.843  1.00  0.00    -0.381 S  
HETATM   19  O   UNL     1      -8.719  19.524  67.235  1.00  0.00    -0.285 OA 
HETATM   20  O   UNL     1     -11.205  19.124  67.141  1.00  0.00    -0.271 OA 
HETATM   21  C   UNL     1     -10.158  19.846  69.422  1.00  0.00    -0.096 C  
ENDBRANCH  16  18
ENDBRANCH  13  16
ENDBRANCH   7  10
ENDBRANCH   6   7
ENDBRANCH   4   6
ENDBRANCH   2   4
TORSDOF 6
ENDMDL
MODEL      113
REMARK 921   NORMALIZED FREE ENERGY PREDICTED BY IDOCK:   -3.88 KCAL/MOL
REMARK 922        TOTAL FREE ENERGY PREDICTED BY IDOCK:   -5.89 KCAL/MOL
REMARK 923 INTER-LIGAND FREE ENERGY PREDICTED BY IDOCK:   -5.40 KCAL/MOL
REMARK 924 INTRA-LIGAND FREE ENERGY PREDICTED BY IDOCK:   -0.50 KCAL/MOL
REMARK 927      BINDING AFFINITY PREDICTED BY RF-SCORE:    0.00 PKD
ROOT
HETATM    1  C   UNL     1     -11.807  15.189  72.129  1.00  0.00    -0.501 C  
HETATM    2  C   UNL     1     -13.188  15.093  71.484  1.00  0.00    -0.429 C  
HETATM    3  C   UNL     1     -14.190  15.922  72.291  1.00  0.00    -0.235 C  
ENDROOT
BRANCH   2   4
HETATM    4  N   UNL     1     -13.090  15.546  70.088  1.00  0.00    -0.682 NA 
HETATM    5  H   UNL     1     -13.221  16.556  70.018  1.00  0.00     0.000 HD 
BRANCH   4   6
HETATM    6  C   UNL     1     -11.832  15.129  69.453  1.00  0.00    -0.330 C  
BRANCH   6   7
HETATM    7  C   UNL     1     -12.014  14.124  68.287  1.00  0.00    -0.332 C  
HETATM    8  H   UNL     1     -11.324  13.953  66.468  1.00  0.00     0.000 HD 
HETATM    9  O   UNL     1     -11.213  14.569  67.182  1.00  0.00    -0.310 OA 
BRANCH   7  10
HETATM   10  C   UNL     1     -11.630  12.689  68.642  1.00  0.00    -0.356 A  
HETATM   11  C   UNL     1     -12.208  11.989  69.714  1.00  0.00    -0.226 A  
HETATM   12  C   UNL     1     -11.817  10.685  70.022  1.00  0.00    -0.403 A  
HETATM   13  C   UNL     1     -10.831  10.061  69.268  1.00  0.00    -0.230 A  
HETATM   14  C   UNL     1     -10.661  12.026  67.869  1.00  0.00    -0.243 A  
HETATM   15  C   UNL     1     -10.266  10.718  68.177  1.00  0.00    -0.194 A  
BRANCH  13  16
HETATM   16  N   UNL     1     -10.436   8.739  69.617  1.00  0.00    -0.217 N  
HETATM   17  H   UNL     1     -10.923   7.926  69.239  1.00  0.00     0.000 HD 
BRANCH  16  18
HETATM   18  S   UNL     1      -9.133   8.558  70.678  1.00  0.00    -0.172 S  
HETATM   19  O   UNL     1      -7.890   8.790  69.982  1.00  0.00    -0.085 OA 
HETATM   20  O   UNL     1      -9.491   9.328  71.852  1.00  0.00    -0.291 OA 
HETATM   21  C   UNL     1      -9.254   6.835  71.111  1.00  0.00    -0.159 C  
ENDBRANCH  16  18
ENDBRANCH  13  16
ENDBRANCH   7  10
ENDBRANCH   6   7
ENDBRANCH   4   6
ENDBRANCH   2   4
TORSDOF 6
ENDMDL
MODEL      114
REMARK 921   NORMALIZED FREE ENERGY PREDICTED BY IDOCK:   -3.87 KCAL/MOL
REMARK 922        TOTAL FREE ENERGY PREDICTED BY IDOCK:   -5.88 KCAL/MOL
REMARK 923 INTER-LIGAND FREE ENERGY PREDICTED BY IDOCK:   -5.51 KCAL/MOL
REMARK 924 INTRA-LIGAND FREE ENERGY PREDICTED BY IDOCK:   -0.36 KCAL/MOL
REMARK 927      BINDING AFFINITY PREDICTED BY RF-SCORE:    0.00 PKD
ROOT
HETATM    1  C   UNL     1     -11.188  15.856  70.857  1.00  0.00    -0.389 C  
HETATM    2  C   UNL     1     -12.214  14.825  70.390  1.00  0.00    -0.336 C  
HETATM    3  C   UNL     1     -13.490  14.955  71.225  1.00  0.00    -0.500 C  
ENDROOT
BRANCH   2   4
HETATM    4  N   UNL     1     -12.467  15.026  68.955  1.00  0.00    -0.549 NA 
HETATM    5  H   UNL     1     -12.906  15.931  68.781  1.00  0.00     0.000 HD 
BRANCH   4   6
HETATM    6  C   UNL     1     -11.251  14.862  68.145  1.00  0.00    -0.299 C  
BRANCH   6   7
HETATM    7  C   UNL     1     -11.508  14.311  66.720  1.00  0.00    -0.367 C  
HETATM    8  H   UNL     1     -10.926  14.776  64.915  1.00  0.00     0.000 HD 
HETATM    9  O   UNL     1     -10.769  15.113  65.788  1.00  0.00    -0.318 OA 
BRANCH   7  10
HETATM   10  C   UNL     1     -11.117  12.845  66.544  1.00  0.00    -0.318 A  
HETATM   11  C   UNL     1     -10.562  12.343  65.355  1.00  0.00    -0.316 A  
HETATM   12  C   UNL     1     -10.236  10.993  65.222  1.00  0.00    -0.344 A  
HETATM   13  C   UNL     1     -10.471  10.117  66.275  1.00  0.00    -0.122 A  
HETATM   14  C   UNL     1     -11.311  11.949  67.609  1.00  0.00    -0.372 A  
HETATM   15  C   UNL     1     -10.987  10.593  67.478  1.00  0.00    -0.371 A  
BRANCH  13  16
HETATM   16  N   UNL     1     -10.149   8.740  66.104  1.00  0.00    -0.424 N  
HETATM   17  H   UNL     1     -10.872   8.053  65.890  1.00  0.00     0.000 HD 
BRANCH  16  18
HETATM   18  S   UNL     1      -8.531   8.281  66.268  1.00  0.00    -0.136 S  
HETATM   19  O   UNL     1      -7.782   9.325  66.926  1.00  0.00    -0.094 OA 
HETATM   20  O   UNL     1      -8.571   6.935  66.802  1.00  0.00    -0.114 OA 
HETATM   21  C   UNL     1      -8.013   8.166  64.567  1.00  0.00    -0.142 C  
ENDBRANCH  16  18
ENDBRANCH  13  16
ENDBRANCH   7  10
ENDBRANCH   6   7
ENDBRANCH   4   6
ENDBRANCH   2   4
TORSDOF 6
ENDMDL
MODEL      115
REMARK 921   NORMALIZED FREE ENERGY PREDICTED BY IDOCK:   -3.87 KCAL/MOL
REMARK 922        TOTAL FREE ENERGY PREDICTED BY IDOCK:   -5.87 KCAL/MOL
REMARK 923 INTER-LIGAND FREE ENERGY PREDICTED BY IDOCK:   -5.55 KCAL/MOL
REMARK 924 INTRA-LIGAND FREE ENERGY PREDICTED BY IDOCK:   -0.32 KCAL/MOL
REMARK 927      BINDING AFFINITY PREDICTED BY RF-SCORE:    0.00 PKD
ROOT
HETATM    1  C   UNL     1     -10.654  19.511  66.679  1.00  0.00    -0.583 C  
HETATM    2  C   UNL     1     -10.069  18.112  66.857  1.00  0.00    -0.357 C  
HETATM    3  C   UNL     1      -8.548  18.166  66.687  1.00  0.00    -0.284 C  
ENDROOT
BRANCH   2   4
HETATM    4  N   UNL     1     -10.460  17.601  68.180  1.00  0.00    -0.382 NA 
HETATM    5  H   UNL     1     -11.000  18.295  68.698  1.00  0.00     0.000 HD 
BRANCH   4   6
HETATM    6  C   UNL     1     -11.182  16.324  68.093  1.00  0.00    -0.298 C  
BRANCH   6   7
HETATM    7  C   UNL     1     -11.330  15.586  69.448  1.00  0.00    -0.316 C  
HETATM    8  H   UNL     1     -12.630  15.587  70.906  1.00  0.00     0.000 HD 
HETATM    9  O   UNL     1     -12.539  16.038  70.075  1.00  0.00    -0.226 OA 
BRANCH   7  10
HETATM   10  C   UNL     1     -11.365  14.065  69.324  1.00  0.00    -0.318 A  
HETATM   11  C   UNL     1     -10.890  13.382  68.192  1.00  0.00    -0.273 A  
HETATM   12  C   UNL     1     -10.958  11.991  68.105  1.00  0.00    -0.273 A  
HETATM   13  C   UNL     1     -11.516  11.258  69.145  1.00  0.00    -0.297 A  
HETATM   14  C   UNL     1     -11.891  13.301  70.381  1.00  0.00    -0.270 A  
HETATM   15  C   UNL     1     -11.963  11.905  70.294  1.00  0.00    -0.416 A  
BRANCH  13  16
HETATM   16  N   UNL     1     -11.593   9.841  69.020  1.00  0.00    -0.455 N  
HETATM   17  H   UNL     1     -12.491   9.371  68.905  1.00  0.00     0.000 HD 
BRANCH  16  18
HETATM   18  S   UNL     1     -10.150   8.965  69.070  1.00  0.00    -0.201 S  
HETATM   19  O   UNL     1      -9.652   8.749  67.732  1.00  0.00    -0.143 OA 
HETATM   20  O   UNL     1      -9.340   9.623  70.074  1.00  0.00    -0.213 OA 
HETATM   21  C   UNL     1     -10.691   7.412  69.755  1.00  0.00    -0.241 C  
ENDBRANCH  16  18
ENDBRANCH  13  16
ENDBRANCH   7  10
ENDBRANCH   6   7
ENDBRANCH   4   6
ENDBRANCH   2   4
TORSDOF 6
ENDMDL
MODEL      116
REMARK 921   NORMALIZED FREE ENERGY PREDICTED BY IDOCK:   -3.87 KCAL/MOL
REMARK 922        TOTAL FREE ENERGY PREDICTED BY IDOCK:   -5.87 KCAL/MOL
REMARK 923 INTER-LIGAND FREE ENERGY PREDICTED BY IDOCK:   -5.77 KCAL/MOL
REMARK 924 INTRA-LIGAND FREE ENERGY PREDICTED BY IDOCK:   -0.10 KCAL/MOL
REMARK 927      BINDING AFFINITY PREDICTED BY RF-SCORE:    0.00 PKD
ROOT
HETATM    1  C   UNL     1     -10.559  16.140  67.115  1.00  0.00    -0.294 C  
HETATM    2  C   UNL     1      -9.596  16.098  65.929  1.00  0.00    -0.324 C  
HETATM    3  C   UNL     1      -8.171  16.374  66.415  1.00  0.00    -0.366 C  
ENDROOT
BRANCH   2   4
HETATM    4  N   UNL     1      -9.714  14.788  65.271  1.00  0.00    -0.472 NA 
HETATM    5  H   UNL     1      -9.029  14.128  65.639  1.00  0.00     0.000 HD 
BRANCH   4   6
HETATM    6  C   UNL     1     -11.076  14.242  65.356  1.00  0.00    -0.327 C  
BRANCH   6   7
HETATM    7  C   UNL     1     -11.225  12.818  64.761  1.00  0.00    -0.305 C  
HETATM    8  H   UNL     1     -10.351  11.796  63.345  1.00  0.00     0.000 HD 
HETATM    9  O   UNL     1     -10.260  12.668  63.709  1.00  0.00    -0.404 OA 
BRANCH   7  10
HETATM   10  C   UNL     1     -11.036  11.698  65.782  1.00  0.00    -0.329 A  
HETATM   11  C   UNL     1     -11.613  11.729  67.063  1.00  0.00    -0.321 A  
HETATM   12  C   UNL     1     -11.400  10.697  67.977  1.00  0.00    -0.350 A  
HETATM   13  C   UNL     1     -10.595   9.619  67.631  1.00  0.00    -0.275 A  
HETATM   14  C   UNL     1     -10.255  10.581  65.439  1.00  0.00    -0.340 A  
HETATM   15  C   UNL     1     -10.038   9.544  66.356  1.00  0.00    -0.328 A  
BRANCH  13  16
HETATM   16  N   UNL     1     -10.377   8.591  68.591  1.00  0.00    -0.205 N  
HETATM   17  H   UNL     1     -10.259   8.811  69.580  1.00  0.00     0.000 HD 
BRANCH  16  18
HETATM   18  S   UNL     1     -10.320   6.995  68.040  1.00  0.00    -0.207 S  
HETATM   19  O   UNL     1     -11.157   6.841  66.874  1.00  0.00    -0.397 OA 
HETATM   20  O   UNL     1      -8.912   6.656  68.003  1.00  0.00    -0.119 OA 
HETATM   21  C   UNL     1     -11.046   6.112  69.407  1.00  0.00    -0.409 C  
ENDBRANCH  16  18
ENDBRANCH  13  16
ENDBRANCH   7  10
ENDBRANCH   6   7
ENDBRANCH   4   6
ENDBRANCH   2   4
TORSDOF 6
ENDMDL
MODEL      117
REMARK 921   NORMALIZED FREE ENERGY PREDICTED BY IDOCK:   -3.83 KCAL/MOL
REMARK 922        TOTAL FREE ENERGY PREDICTED BY IDOCK:   -5.82 KCAL/MOL
REMARK 923 INTER-LIGAND FREE ENERGY PREDICTED BY IDOCK:   -5.55 KCAL/MOL
REMARK 924 INTRA-LIGAND FREE ENERGY PREDICTED BY IDOCK:   -0.27 KCAL/MOL
REMARK 927      BINDING AFFINITY PREDICTED BY RF-SCORE:    0.00 PKD
ROOT
HETATM    1  C   UNL     1     -11.377  15.447  68.743  1.00  0.00    -0.328 C  
HETATM    2  C   UNL     1     -10.920  15.476  67.286  1.00  0.00    -0.303 C  
HETATM    3  C   UNL     1     -10.300  16.839  66.969  1.00  0.00    -0.300 C  
ENDROOT
BRANCH   2   4
HETATM    4  N   UNL     1      -9.972  14.372  67.066  1.00  0.00    -0.253 NA 
HETATM    5  H   UNL     1      -9.706  13.933  67.948  1.00  0.00     0.000 HD 
BRANCH   4   6
HETATM    6  C   UNL     1     -10.486  13.378  66.113  1.00  0.00    -0.295 C  
BRANCH   6   7
HETATM    7  C   UNL     1     -11.714  12.585  66.626  1.00  0.00    -0.387 C  
HETATM    8  H   UNL     1     -12.932  11.254  65.876  1.00  0.00     0.000 HD 
HETATM    9  O   UNL     1     -12.180  11.741  65.562  1.00  0.00    -0.280 OA 
BRANCH   7  10
HETATM   10  C   UNL     1     -11.428  11.729  67.858  1.00  0.00    -0.387 A  
HETATM   11  C   UNL     1     -12.059  11.940  69.095  1.00  0.00    -0.261 A  
HETATM   12  C   UNL     1     -11.757  11.152  70.206  1.00  0.00    -0.431 A  
HETATM   13  C   UNL     1     -10.807  10.143  70.102  1.00  0.00    -0.311 A  
HETATM   14  C   UNL     1     -10.498  10.679  67.765  1.00  0.00    -0.258 A  
HETATM   15  C   UNL     1     -10.191   9.888  68.879  1.00  0.00    -0.209 A  
BRANCH  13  16
HETATM   16  N   UNL     1     -10.502   9.368  71.257  1.00  0.00    -0.331 N  
HETATM   17  H   UNL     1      -9.743   9.635  71.885  1.00  0.00     0.000 HD 
BRANCH  16  18
HETATM   18  S   UNL     1     -11.436   7.993  71.554  1.00  0.00    -0.275 S  
HETATM   19  O   UNL     1     -11.562   7.208  70.349  1.00  0.00    -0.295 OA 
HETATM   20  O   UNL     1     -10.893   7.420  72.769  1.00  0.00    -0.268 OA 
HETATM   21  C   UNL     1     -13.016   8.708  71.960  1.00  0.00    -0.378 C  
ENDBRANCH  16  18
ENDBRANCH  13  16
ENDBRANCH   7  10
ENDBRANCH   6   7
ENDBRANCH   4   6
ENDBRANCH   2   4
TORSDOF 6
ENDMDL
MODEL      118
REMARK 921   NORMALIZED FREE ENERGY PREDICTED BY IDOCK:   -3.81 KCAL/MOL
REMARK 922        TOTAL FREE ENERGY PREDICTED BY IDOCK:   -5.79 KCAL/MOL
REMARK 923 INTER-LIGAND FREE ENERGY PREDICTED BY IDOCK:   -5.22 KCAL/MOL
REMARK 924 INTRA-LIGAND FREE ENERGY PREDICTED BY IDOCK:   -0.57 KCAL/MOL
REMARK 927      BINDING AFFINITY PREDICTED BY RF-SCORE:    0.00 PKD
ROOT
HETATM    1  C   UNL     1     -11.373   6.303  69.834  1.00  0.00    -0.504 C  
HETATM    2  C   UNL     1     -10.830   7.027  71.064  1.00  0.00    -0.238 C  
HETATM    3  C   UNL     1     -11.534   6.507  72.319  1.00  0.00    -0.326 C  
ENDROOT
BRANCH   2   4
HETATM    4  N   UNL     1      -9.373   6.830  71.124  1.00  0.00    -0.159 NA 
HETATM    5  H   UNL     1      -9.131   5.843  71.030  1.00  0.00     0.000 HD 
BRANCH   4   6
HETATM    6  C   UNL     1      -8.658   7.648  70.134  1.00  0.00    -0.140 C  
BRANCH   6   7
HETATM    7  C   UNL     1      -9.007   9.157  70.190  1.00  0.00    -0.198 C  
HETATM    8  H   UNL     1      -8.092  10.783  70.766  1.00  0.00     0.000 HD 
HETATM    9  O   UNL     1      -7.878   9.859  70.731  1.00  0.00    -0.275 OA 
BRANCH   7  10
HETATM   10  C   UNL     1      -9.371   9.758  68.834  1.00  0.00    -0.158 A  
HETATM   11  C   UNL     1     -10.172   9.088  67.894  1.00  0.00    -0.272 A  
HETATM   12  C   UNL     1     -10.466   9.661  66.656  1.00  0.00    -0.233 A  
HETATM   13  C   UNL     1      -9.953  10.910  66.330  1.00  0.00    -0.221 A  
HETATM   14  C   UNL     1      -8.893  11.037  68.499  1.00  0.00    -0.159 A  
HETATM   15  C   UNL     1      -9.185  11.612  67.256  1.00  0.00    -0.170 A  
BRANCH  13  16
HETATM   16  N   UNL     1     -10.251  11.460  65.051  1.00  0.00    -0.265 N  
HETATM   17  H   UNL     1      -9.770  11.135  64.213  1.00  0.00     0.000 HD 
BRANCH  16  18
HETATM   18  S   UNL     1     -11.427  12.670  64.967  1.00  0.00    -0.344 S  
HETATM   19  O   UNL     1     -12.250  12.648  66.153  1.00  0.00    -0.568 OA 
HETATM   20  O   UNL     1     -10.712  13.867  64.572  1.00  0.00    -0.412 OA 
HETATM   21  C   UNL     1     -12.395  12.140  63.568  1.00  0.00    -0.574 C  
ENDBRANCH  16  18
ENDBRANCH  13  16
ENDBRANCH   7  10
ENDBRANCH   6   7
ENDBRANCH   4   6
ENDBRANCH   2   4
TORSDOF 6
ENDMDL
MODEL      119
REMARK 921   NORMALIZED FREE ENERGY PREDICTED BY IDOCK:   -3.79 KCAL/MOL
REMARK 922        TOTAL FREE ENERGY PREDICTED BY IDOCK:   -5.76 KCAL/MOL
REMARK 923 INTER-LIGAND FREE ENERGY PREDICTED BY IDOCK:   -5.11 KCAL/MOL
REMARK 924 INTRA-LIGAND FREE ENERGY PREDICTED BY IDOCK:   -0.66 KCAL/MOL
REMARK 927      BINDING AFFINITY PREDICTED BY RF-SCORE:    0.00 PKD
ROOT
HETATM    1  C   UNL     1     -11.125   6.489  67.477  1.00  0.00    -0.396 C  
HETATM    2  C   UNL     1     -10.167   6.674  68.653  1.00  0.00    -0.171 C  
HETATM    3  C   UNL     1     -10.295   5.488  69.611  1.00  0.00    -0.359 C  
ENDROOT
BRANCH   2   4
HETATM    4  N   UNL     1      -8.800   6.820  68.129  1.00  0.00    -0.121 NA 
HETATM    5  H   UNL     1      -8.733   6.476  67.171  1.00  0.00     0.000 HD 
BRANCH   4   6
HETATM    6  C   UNL     1      -8.308   8.202  68.232  1.00  0.00    -0.126 C  
BRANCH   6   7
HETATM    7  C   UNL     1      -9.138   9.100  69.183  1.00  0.00    -0.144 C  
HETATM    8  H   UNL     1      -8.813  10.022  70.874  1.00  0.00     0.000 HD 
HETATM    9  O   UNL     1      -8.304   9.472  70.291  1.00  0.00    -0.168 OA 
BRANCH   7  10
HETATM   10  C   UNL     1      -9.687  10.362  68.521  1.00  0.00    -0.174 A  
HETATM   11  C   UNL     1      -8.966  11.567  68.464  1.00  0.00    -0.146 A  
HETATM   12  C   UNL     1      -9.508  12.707  67.869  1.00  0.00    -0.204 A  
HETATM   13  C   UNL     1     -10.787  12.665  67.330  1.00  0.00    -0.248 A  
HETATM   14  C   UNL     1     -10.964  10.331  67.936  1.00  0.00    -0.350 A  
HETATM   15  C   UNL     1     -11.511  11.475  67.340  1.00  0.00    -0.349 A  
BRANCH  13  16
HETATM   16  N   UNL     1     -11.324  13.849  66.748  1.00  0.00    -0.322 N  
HETATM   17  H   UNL     1     -11.625  14.631  67.330  1.00  0.00     0.000 HD 
BRANCH  16  18
HETATM   18  S   UNL     1     -11.447  13.916  65.065  1.00  0.00    -0.357 S  
HETATM   19  O   UNL     1     -10.404  13.123  64.458  1.00  0.00    -0.381 OA 
HETATM   20  O   UNL     1     -12.844  13.665  64.776  1.00  0.00    -0.680 OA 
HETATM   21  C   UNL     1     -11.136  15.641  64.746  1.00  0.00    -0.412 C  
ENDBRANCH  16  18
ENDBRANCH  13  16
ENDBRANCH   7  10
ENDBRANCH   6   7
ENDBRANCH   4   6
ENDBRANCH   2   4
TORSDOF 6
ENDMDL
MODEL      120
REMARK 921   NORMALIZED FREE ENERGY PREDICTED BY IDOCK:   -3.79 KCAL/MOL
REMARK 922        TOTAL FREE ENERGY PREDICTED BY IDOCK:   -5.76 KCAL/MOL
REMARK 923 INTER-LIGAND FREE ENERGY PREDICTED BY IDOCK:   -5.46 KCAL/MOL
REMARK 924 INTRA-LIGAND FREE ENERGY PREDICTED BY IDOCK:   -0.30 KCAL/MOL
REMARK 927      BINDING AFFINITY PREDICTED BY RF-SCORE:    0.00 PKD
ROOT
HETATM    1  C   UNL     1     -11.243  15.388  71.002  1.00  0.00    -0.408 C  
HETATM    2  C   UNL     1     -11.678  15.797  69.596  1.00  0.00    -0.355 C  
HETATM    3  C   UNL     1     -10.469  16.320  68.816  1.00  0.00    -0.282 C  
ENDROOT
BRANCH   2   4
HETATM    4  N   UNL     1     -12.303  14.639  68.938  1.00  0.00    -0.585 NA 
HETATM    5  H   UNL     1     -12.812  14.921  68.101  1.00  0.00     0.000 HD 
BRANCH   4   6
HETATM    6  C   UNL     1     -11.331  13.578  68.637  1.00  0.00    -0.288 C  
BRANCH   6   7
HETATM    7  C   UNL     1     -11.974  12.231  68.220  1.00  0.00    -0.200 C  
HETATM    8  H   UNL     1     -12.198  11.247  66.548  1.00  0.00     0.000 HD 
HETATM    9  O   UNL     1     -11.804  12.072  66.804  1.00  0.00    -0.581 OA 
BRANCH   7  10
HETATM   10  C   UNL     1     -11.387  11.017  68.937  1.00  0.00    -0.346 A  
HETATM   11  C   UNL     1     -11.700  10.694  70.268  1.00  0.00    -0.433 A  
HETATM   12  C   UNL     1     -11.127   9.588  70.898  1.00  0.00    -0.406 A  
HETATM   13  C   UNL     1     -10.222   8.791  70.210  1.00  0.00    -0.196 A  
HETATM   14  C   UNL     1     -10.497  10.175  68.247  1.00  0.00    -0.244 A  
HETATM   15  C   UNL     1      -9.920   9.066  68.878  1.00  0.00    -0.197 A  
BRANCH  13  16
HETATM   16  N   UNL     1      -9.636   7.681  70.884  1.00  0.00    -0.165 N  
HETATM   17  H   UNL     1     -10.012   6.740  70.773  1.00  0.00     0.000 HD 
BRANCH  16  18
HETATM   18  S   UNL     1      -8.298   7.975  71.873  1.00  0.00    -0.144 S  
HETATM   19  O   UNL     1      -7.434   6.819  71.897  1.00  0.00    -0.091 OA 
HETATM   20  O   UNL     1      -7.802   9.274  71.465  1.00  0.00    -0.336 OA 
HETATM   21  C   UNL     1      -9.063   8.173  73.469  1.00  0.00    -0.207 C  
ENDBRANCH  16  18
ENDBRANCH  13  16
ENDBRANCH   7  10
ENDBRANCH   6   7
ENDBRANCH   4   6
ENDBRANCH   2   4
TORSDOF 6
ENDMDL
MODEL      121
REMARK 921   NORMALIZED FREE ENERGY PREDICTED BY IDOCK:   -3.77 KCAL/MOL
REMARK 922        TOTAL FREE ENERGY PREDICTED BY IDOCK:   -5.74 KCAL/MOL
REMARK 923 INTER-LIGAND FREE ENERGY PREDICTED BY IDOCK:   -5.36 KCAL/MOL
REMARK 924 INTRA-LIGAND FREE ENERGY PREDICTED BY IDOCK:   -0.38 KCAL/MOL
REMARK 927      BINDING AFFINITY PREDICTED BY RF-SCORE:    0.00 PKD
ROOT
HETATM    1  C   UNL     1     -10.370   6.343  67.236  1.00  0.00    -0.274 C  
HETATM    2  C   UNL     1     -10.841   5.950  68.634  1.00  0.00    -0.261 C  
HETATM    3  C   UNL     1      -9.651   5.449  69.455  1.00  0.00    -0.205 C  
ENDROOT
BRANCH   2   4
HETATM    4  N   UNL     1     -11.495   7.112  69.257  1.00  0.00    -0.490 NA 
HETATM    5  H   UNL     1     -11.605   6.978  70.262  1.00  0.00     0.000 HD 
BRANCH   4   6
HETATM    6  C   UNL     1     -10.792   8.370  68.964  1.00  0.00     0.009 C  
BRANCH   6   7
HETATM    7  C   UNL     1     -11.189   9.547  69.889  1.00  0.00    -0.178 C  
HETATM    8  H   UNL     1     -10.379  10.462  71.413  1.00  0.00     0.000 HD 
HETATM    9  O   UNL     1     -10.136   9.741  70.846  1.00  0.00    -0.243 OA 
BRANCH   7  10
HETATM   10  C   UNL     1     -11.444  10.858  69.149  1.00  0.00    -0.373 A  
HETATM   11  C   UNL     1     -11.388  10.965  67.749  1.00  0.00    -0.366 A  
HETATM   12  C   UNL     1     -11.606  12.185  67.107  1.00  0.00    -0.405 A  
HETATM   13  C   UNL     1     -11.872  13.324  67.857  1.00  0.00    -0.349 A  
HETATM   14  C   UNL     1     -11.752  12.015  69.886  1.00  0.00    -0.374 A  
HETATM   15  C   UNL     1     -11.968  13.241  69.244  1.00  0.00    -0.354 A  
BRANCH  13  16
HETATM   16  N   UNL     1     -12.068  14.560  67.177  1.00  0.00    -0.536 N  
HETATM   17  H   UNL     1     -12.979  14.811  66.793  1.00  0.00     0.000 HD 
BRANCH  16  18
HETATM   18  S   UNL     1     -10.743  15.598  67.028  1.00  0.00    -0.294 S  
HETATM   19  O   UNL     1      -9.521  14.890  67.327  1.00  0.00    -0.205 OA 
HETATM   20  O   UNL     1     -10.929  16.270  65.758  1.00  0.00    -0.202 OA 
HETATM   21  C   UNL     1     -11.066  16.787  68.314  1.00  0.00    -0.259 C  
ENDBRANCH  16  18
ENDBRANCH  13  16
ENDBRANCH   7  10
ENDBRANCH   6   7
ENDBRANCH   4   6
ENDBRANCH   2   4
TORSDOF 6
ENDMDL
MODEL      122
REMARK 921   NORMALIZED FREE ENERGY PREDICTED BY IDOCK:   -3.75 KCAL/MOL
REMARK 922        TOTAL FREE ENERGY PREDICTED BY IDOCK:   -5.72 KCAL/MOL
REMARK 923 INTER-LIGAND FREE ENERGY PREDICTED BY IDOCK:   -5.33 KCAL/MOL
REMARK 924 INTRA-LIGAND FREE ENERGY PREDICTED BY IDOCK:   -0.39 KCAL/MOL
REMARK 927      BINDING AFFINITY PREDICTED BY RF-SCORE:    0.00 PKD
ROOT
HETATM    1  C   UNL     1     -11.563  15.487  71.691  1.00  0.00    -0.502 C  
HETATM    2  C   UNL     1     -12.719  14.638  71.165  1.00  0.00    -0.339 C  
HETATM    3  C   UNL     1     -13.985  14.936  71.973  1.00  0.00    -0.591 C  
ENDROOT
BRANCH   2   4
HETATM    4  N   UNL     1     -12.898  14.917  69.732  1.00  0.00    -0.593 NA 
HETATM    5  H   UNL     1     -13.473  15.748  69.587  1.00  0.00     0.000 HD 
BRANCH   4   6
HETATM    6  C   UNL     1     -11.615  15.029  69.022  1.00  0.00    -0.319 C  
BRANCH   6   7
HETATM    7  C   UNL     1     -11.645  14.484  67.572  1.00  0.00    -0.381 C  
HETATM    8  H   UNL     1     -11.155  15.170  65.810  1.00  0.00     0.000 HD 
HETATM    9  O   UNL     1     -11.137  15.504  66.698  1.00  0.00    -0.293 OA 
BRANCH   7  10
HETATM   10  C   UNL     1     -10.836  13.204  67.375  1.00  0.00    -0.269 A  
HETATM   11  C   UNL     1     -10.042  12.642  68.389  1.00  0.00    -0.222 A  
HETATM   12  C   UNL     1      -9.298  11.482  68.166  1.00  0.00    -0.185 A  
HETATM   13  C   UNL     1      -9.326  10.870  66.920  1.00  0.00    -0.168 A  
HETATM   14  C   UNL     1     -10.878  12.548  66.133  1.00  0.00    -0.304 A  
HETATM   15  C   UNL     1     -10.131  11.385  65.906  1.00  0.00    -0.286 A  
BRANCH  13  16
HETATM   16  N   UNL     1      -8.540   9.700  66.714  1.00  0.00    -0.133 N  
HETATM   17  H   UNL     1      -7.571   9.765  66.402  1.00  0.00     0.000 HD 
BRANCH  16  18
HETATM   18  S   UNL     1      -9.265   8.202  67.002  1.00  0.00    -0.162 S  
HETATM   19  O   UNL     1     -10.664   8.377  67.311  1.00  0.00    -0.285 OA 
HETATM   20  O   UNL     1      -8.839   7.357  65.905  1.00  0.00    -0.164 OA 
HETATM   21  C   UNL     1      -8.402   7.657  68.463  1.00  0.00    -0.129 C  
ENDBRANCH  16  18
ENDBRANCH  13  16
ENDBRANCH   7  10
ENDBRANCH   6   7
ENDBRANCH   4   6
ENDBRANCH   2   4
TORSDOF 6
ENDMDL
MODEL      123
REMARK 921   NORMALIZED FREE ENERGY PREDICTED BY IDOCK:   -3.75 KCAL/MOL
REMARK 922        TOTAL FREE ENERGY PREDICTED BY IDOCK:   -5.71 KCAL/MOL
REMARK 923 INTER-LIGAND FREE ENERGY PREDICTED BY IDOCK:   -5.26 KCAL/MOL
REMARK 924 INTRA-LIGAND FREE ENERGY PREDICTED BY IDOCK:   -0.45 KCAL/MOL
REMARK 927      BINDING AFFINITY PREDICTED BY RF-SCORE:    0.00 PKD
ROOT
HETATM    1  C   UNL     1     -12.580  13.864  65.566  1.00  0.00    -0.560 C  
HETATM    2  C   UNL     1     -11.371  14.195  64.692  1.00  0.00    -0.371 C  
HETATM    3  C   UNL     1     -11.271  15.711  64.508  1.00  0.00    -0.337 C  
ENDROOT
BRANCH   2   4
HETATM    4  N   UNL     1     -10.166  13.632  65.321  1.00  0.00    -0.421 NA 
HETATM    5  H   UNL     1      -9.491  13.328  64.618  1.00  0.00     0.000 HD 
BRANCH   4   6
HETATM    6  C   UNL     1      -9.551  14.561  66.279  1.00  0.00    -0.304 C  
BRANCH   6   7
HETATM    7  C   UNL     1      -9.636  14.096  67.755  1.00  0.00    -0.219 C  
HETATM    8  H   UNL     1     -10.653  14.633  69.334  1.00  0.00     0.000 HD 
HETATM    9  O   UNL     1     -10.601  14.918  68.430  1.00  0.00    -0.235 OA 
BRANCH   7  10
HETATM   10  C   UNL     1     -10.023  12.628  67.920  1.00  0.00    -0.228 A  
HETATM   11  C   UNL     1     -11.312  12.218  68.299  1.00  0.00    -0.339 A  
HETATM   12  C   UNL     1     -11.623  10.867  68.461  1.00  0.00    -0.360 A  
HETATM   13  C   UNL     1     -10.646   9.902  68.257  1.00  0.00    -0.229 A  
HETATM   14  C   UNL     1      -9.059  11.633  67.683  1.00  0.00    -0.174 A  
HETATM   15  C   UNL     1      -9.369  10.276  67.847  1.00  0.00    -0.147 A  
BRANCH  13  16
HETATM   16  N   UNL     1     -10.985   8.532  68.450  1.00  0.00    -0.439 N  
HETATM   17  H   UNL     1     -11.397   7.981  67.697  1.00  0.00     0.000 HD 
BRANCH  16  18
HETATM   18  S   UNL     1     -10.685   7.851  69.967  1.00  0.00    -0.234 S  
HETATM   19  O   UNL     1     -10.442   8.889  70.940  1.00  0.00    -0.205 OA 
HETATM   20  O   UNL     1     -11.737   6.874  70.159  1.00  0.00    -0.312 OA 
HETATM   21  C   UNL     1      -9.173   6.957  69.670  1.00  0.00    -0.146 C  
ENDBRANCH  16  18
ENDBRANCH  13  16
ENDBRANCH   7  10
ENDBRANCH   6   7
ENDBRANCH   4   6
ENDBRANCH   2   4
TORSDOF 6
ENDMDL
MODEL      124
REMARK 921   NORMALIZED FREE ENERGY PREDICTED BY IDOCK:   -3.74 KCAL/MOL
REMARK 922        TOTAL FREE ENERGY PREDICTED BY IDOCK:   -5.69 KCAL/MOL
REMARK 923 INTER-LIGAND FREE ENERGY PREDICTED BY IDOCK:   -5.08 KCAL/MOL
REMARK 924 INTRA-LIGAND FREE ENERGY PREDICTED BY IDOCK:   -0.61 KCAL/MOL
REMARK 927      BINDING AFFINITY PREDICTED BY RF-SCORE:    0.00 PKD
ROOT
HETATM    1  C   UNL     1     -12.313  12.445  64.907  1.00  0.00    -0.475 C  
HETATM    2  C   UNL     1     -11.856  13.821  65.388  1.00  0.00    -0.358 C  
HETATM    3  C   UNL     1     -12.214  14.877  64.339  1.00  0.00    -0.399 C  
ENDROOT
BRANCH   2   4
HETATM    4  N   UNL     1     -12.482  14.098  66.690  1.00  0.00    -0.548 NA 
HETATM    5  H   UNL     1     -12.760  13.235  67.157  1.00  0.00     0.000 HD 
BRANCH   4   6
HETATM    6  C   UNL     1     -11.623  14.917  67.558  1.00  0.00    -0.339 C  
BRANCH   6   7
HETATM    7  C   UNL     1     -11.216  14.223  68.882  1.00  0.00    -0.264 C  
HETATM    8  H   UNL     1     -12.109  13.784  70.563  1.00  0.00     0.000 HD 
HETATM    9  O   UNL     1     -12.358  14.209  69.751  1.00  0.00    -0.336 OA 
BRANCH   7  10
HETATM   10  C   UNL     1     -10.705  12.796  68.701  1.00  0.00    -0.273 A  
HETATM   11  C   UNL     1      -9.513  12.495  68.020  1.00  0.00    -0.209 A  
HETATM   12  C   UNL     1      -9.087  11.176  67.856  1.00  0.00    -0.150 A  
HETATM   13  C   UNL     1      -9.854  10.132  68.359  1.00  0.00    -0.151 A  
HETATM   14  C   UNL     1     -11.446  11.727  69.235  1.00  0.00    -0.369 A  
HETATM   15  C   UNL     1     -11.021  10.402  69.068  1.00  0.00    -0.282 A  
BRANCH  13  16
HETATM   16  N   UNL     1      -9.407   8.795  68.157  1.00  0.00    -0.140 N  
HETATM   17  H   UNL     1      -8.901   8.294  68.887  1.00  0.00     0.000 HD 
BRANCH  16  18
HETATM   18  S   UNL     1      -9.743   8.067  66.670  1.00  0.00    -0.239 S  
HETATM   19  O   UNL     1     -10.273   9.042  65.747  1.00  0.00    -0.071 OA 
HETATM   20  O   UNL     1      -8.558   7.297  66.349  1.00  0.00    -0.125 OA 
HETATM   21  C   UNL     1     -11.026   6.913  67.112  1.00  0.00    -0.357 C  
ENDBRANCH  16  18
ENDBRANCH  13  16
ENDBRANCH   7  10
ENDBRANCH   6   7
ENDBRANCH   4   6
ENDBRANCH   2   4
TORSDOF 6
ENDMDL
MODEL      125
REMARK 921   NORMALIZED FREE ENERGY PREDICTED BY IDOCK:   -3.74 KCAL/MOL
REMARK 922        TOTAL FREE ENERGY PREDICTED BY IDOCK:   -5.69 KCAL/MOL
REMARK 923 INTER-LIGAND FREE ENERGY PREDICTED BY IDOCK:   -5.67 KCAL/MOL
REMARK 924 INTRA-LIGAND FREE ENERGY PREDICTED BY IDOCK:   -0.02 KCAL/MOL
REMARK 927      BINDING AFFINITY PREDICTED BY RF-SCORE:    0.00 PKD
ROOT
HETATM    1  C   UNL     1     -10.520   7.957  72.282  1.00  0.00    -0.322 C  
HETATM    2  C   UNL     1     -11.896   8.050  71.626  1.00  0.00    -0.289 C  
HETATM    3  C   UNL     1     -12.759   9.064  72.381  1.00  0.00    -0.433 C  
ENDROOT
BRANCH   2   4
HETATM    4  N   UNL     1     -11.722   8.415  70.211  1.00  0.00    -0.465 NA 
HETATM    5  H   UNL     1     -12.598   8.324  69.696  1.00  0.00     0.000 HD 
BRANCH   4   6
HETATM    6  C   UNL     1     -11.148   9.759  70.049  1.00  0.00    -0.267 C  
BRANCH   6   7
HETATM    7  C   UNL     1     -10.397   9.970  68.710  1.00  0.00    -0.198 C  
HETATM    8  H   UNL     1     -10.355   9.074  66.975  1.00  0.00     0.000 HD 
HETATM    9  O   UNL     1     -10.815   8.945  67.796  1.00  0.00    -0.181 OA 
BRANCH   7  10
HETATM   10  C   UNL     1     -10.636  11.338  68.076  1.00  0.00    -0.230 A  
HETATM   11  C   UNL     1     -11.385  12.348  68.703  1.00  0.00    -0.332 A  
HETATM   12  C   UNL     1     -11.601  13.580  68.083  1.00  0.00    -0.368 A  
HETATM   13  C   UNL     1     -11.080  13.819  66.818  1.00  0.00    -0.308 A  
HETATM   14  C   UNL     1     -10.087  11.615  66.811  1.00  0.00    -0.242 A  
HETATM   15  C   UNL     1     -10.305  12.850  66.186  1.00  0.00    -0.286 A  
BRANCH  13  16
HETATM   16  N   UNL     1     -11.334  15.076  66.199  1.00  0.00    -0.314 N  
HETATM   17  H   UNL     1     -12.078  15.183  65.509  1.00  0.00     0.000 HD 
BRANCH  16  18
HETATM   18  S   UNL     1     -10.364  16.386  66.645  1.00  0.00    -0.279 S  
HETATM   19  O   UNL     1     -10.157  17.259  65.515  1.00  0.00    -0.581 OA 
HETATM   20  O   UNL     1     -10.939  16.880  67.880  1.00  0.00    -0.342 OA 
HETATM   21  C   UNL     1      -8.830  15.578  67.056  1.00  0.00    -0.230 C  
ENDBRANCH  16  18
ENDBRANCH  13  16
ENDBRANCH   7  10
ENDBRANCH   6   7
ENDBRANCH   4   6
ENDBRANCH   2   4
TORSDOF 6
ENDMDL
MODEL      126
REMARK 921   NORMALIZED FREE ENERGY PREDICTED BY IDOCK:   -3.72 KCAL/MOL
REMARK 922        TOTAL FREE ENERGY PREDICTED BY IDOCK:   -5.67 KCAL/MOL
REMARK 923 INTER-LIGAND FREE ENERGY PREDICTED BY IDOCK:   -5.32 KCAL/MOL
REMARK 924 INTRA-LIGAND FREE ENERGY PREDICTED BY IDOCK:   -0.35 KCAL/MOL
REMARK 927      BINDING AFFINITY PREDICTED BY RF-SCORE:    0.00 PKD
ROOT
HETATM    1  C   UNL     1     -10.647   8.503  72.056  1.00  0.00    -0.408 C  
HETATM    2  C   UNL     1     -11.711   8.291  70.981  1.00  0.00    -0.270 C  
HETATM    3  C   UNL     1     -12.721   7.245  71.457  1.00  0.00    -0.422 C  
ENDROOT
BRANCH   2   4
HETATM    4  N   UNL     1     -12.349   9.584  70.686  1.00  0.00    -0.483 NA 
HETATM    5  H   UNL     1     -12.862   9.934  71.496  1.00  0.00     0.000 HD 
BRANCH   4   6
HETATM    6  C   UNL     1     -11.387  10.581  70.196  1.00  0.00    -0.323 C  
BRANCH   6   7
HETATM    7  C   UNL     1     -11.805  11.264  68.869  1.00  0.00    -0.345 C  
HETATM    8  H   UNL     1     -11.813  13.091  68.179  1.00  0.00     0.000 HD 
HETATM    9  O   UNL     1     -11.557  12.673  68.991  1.00  0.00    -0.276 OA 
BRANCH   7  10
HETATM   10  C   UNL     1     -11.072  10.730  67.640  1.00  0.00    -0.384 A  
HETATM   11  C   UNL     1     -10.714  11.544  66.553  1.00  0.00    -0.318 A  
HETATM   12  C   UNL     1     -10.063  11.016  65.437  1.00  0.00    -0.326 A  
HETATM   13  C   UNL     1      -9.768   9.660  65.384  1.00  0.00    -0.295 A  
HETATM   14  C   UNL     1     -10.730   9.367  67.582  1.00  0.00    -0.295 A  
HETATM   15  C   UNL     1     -10.079   8.835  66.462  1.00  0.00    -0.349 A  
BRANCH  13  16
HETATM   16  N   UNL     1      -9.123   9.145  64.224  1.00  0.00    -0.427 N  
HETATM   17  H   UNL     1      -9.587   9.155  63.315  1.00  0.00     0.000 HD 
BRANCH  16  18
HETATM   18  S   UNL     1      -7.565   8.515  64.400  1.00  0.00    -0.124 S  
HETATM   19  O   UNL     1      -6.709   9.481  65.046  1.00  0.00    -0.082 OA 
HETATM   20  O   UNL     1      -7.752   7.190  64.954  1.00  0.00    -0.102 OA 
HETATM   21  C   UNL     1      -7.058   8.319  62.704  1.00  0.00    -0.091 C  
ENDBRANCH  16  18
ENDBRANCH  13  16
ENDBRANCH   7  10
ENDBRANCH   6   7
ENDBRANCH   4   6
ENDBRANCH   2   4
TORSDOF 6
ENDMDL
MODEL      127
REMARK 921   NORMALIZED FREE ENERGY PREDICTED BY IDOCK:   -3.70 KCAL/MOL
REMARK 922        TOTAL FREE ENERGY PREDICTED BY IDOCK:   -5.65 KCAL/MOL
REMARK 923 INTER-LIGAND FREE ENERGY PREDICTED BY IDOCK:   -5.01 KCAL/MOL
REMARK 924 INTRA-LIGAND FREE ENERGY PREDICTED BY IDOCK:   -0.64 KCAL/MOL
REMARK 927      BINDING AFFINITY PREDICTED BY RF-SCORE:    0.00 PKD
ROOT
HETATM    1  C   UNL     1     -10.967   9.303  70.907  1.00  0.00    -0.368 C  
HETATM    2  C   UNL     1     -10.377   7.951  71.303  1.00  0.00    -0.191 C  
HETATM    3  C   UNL     1     -11.146   6.829  70.601  1.00  0.00    -0.338 C  
ENDROOT
BRANCH   2   4
HETATM    4  N   UNL     1      -8.946   7.941  70.959  1.00  0.00    -0.140 NA 
HETATM    5  H   UNL     1      -8.728   7.182  70.314  1.00  0.00     0.000 HD 
BRANCH   4   6
HETATM    6  C   UNL     1      -8.491   9.235  70.431  1.00  0.00    -0.206 C  
BRANCH   6   7
HETATM    7  C   UNL     1      -7.748   9.139  69.074  1.00  0.00    -0.078 C  
HETATM    8  H   UNL     1      -7.033   7.694  67.971  1.00  0.00     0.000 HD 
HETATM    9  O   UNL     1      -7.488   7.754  68.803  1.00  0.00    -0.091 OA 
BRANCH   7  10
HETATM   10  C   UNL     1      -8.518   9.745  67.903  1.00  0.00    -0.125 A  
HETATM   11  C   UNL     1      -8.194  10.993  67.343  1.00  0.00    -0.122 A  
HETATM   12  C   UNL     1      -8.934  11.525  66.286  1.00  0.00    -0.199 A  
HETATM   13  C   UNL     1     -10.020  10.824  65.778  1.00  0.00    -0.251 A  
HETATM   14  C   UNL     1      -9.598   9.036  67.349  1.00  0.00    -0.195 A  
HETATM   15  C   UNL     1     -10.343   9.570  66.290  1.00  0.00    -0.226 A  
BRANCH  13  16
HETATM   16  N   UNL     1     -10.770  11.402  64.715  1.00  0.00    -0.306 N  
HETATM   17  H   UNL     1     -10.593  11.142  63.744  1.00  0.00     0.000 HD 
BRANCH  16  18
HETATM   18  S   UNL     1     -11.963  12.531  65.112  1.00  0.00    -0.430 S  
HETATM   19  O   UNL     1     -13.090  12.397  64.221  1.00  0.00    -0.756 OA 
HETATM   20  O   UNL     1     -12.124  12.423  66.547  1.00  0.00    -0.599 OA 
HETATM   21  C   UNL     1     -11.129  14.070  64.781  1.00  0.00    -0.387 C  
ENDBRANCH  16  18
ENDBRANCH  13  16
ENDBRANCH   7  10
ENDBRANCH   6   7
ENDBRANCH   4   6
ENDBRANCH   2   4
TORSDOF 6
ENDMDL
MODEL      128
REMARK 921   NORMALIZED FREE ENERGY PREDICTED BY IDOCK:   -3.69 KCAL/MOL
REMARK 922        TOTAL FREE ENERGY PREDICTED BY IDOCK:   -5.64 KCAL/MOL
REMARK 923 INTER-LIGAND FREE ENERGY PREDICTED BY IDOCK:   -5.23 KCAL/MOL
REMARK 924 INTRA-LIGAND FREE ENERGY PREDICTED BY IDOCK:   -0.41 KCAL/MOL
REMARK 927      BINDING AFFINITY PREDICTED BY RF-SCORE:    0.00 PKD
ROOT
HETATM    1  C   UNL     1      -6.351  10.232  66.271  1.00  0.00    -0.090 C  
HETATM    2  C   UNL     1      -7.512  10.057  65.295  1.00  0.00    -0.137 C  
HETATM    3  C   UNL     1      -7.093   9.117  64.161  1.00  0.00    -0.095 C  
ENDROOT
BRANCH   2   4
HETATM    4  N   UNL     1      -8.679   9.549  66.033  1.00  0.00    -0.142 NA 
HETATM    5  H   UNL     1      -8.658   9.851  67.008  1.00  0.00     0.000 HD 
BRANCH   4   6
HETATM    6  C   UNL     1      -9.949   9.916  65.391  1.00  0.00    -0.279 C  
BRANCH   6   7
HETATM    7  C   UNL     1      -9.990  11.369  64.854  1.00  0.00    -0.265 C  
HETATM    8  H   UNL     1     -10.806  12.273  63.327  1.00  0.00     0.000 HD 
HETATM    9  O   UNL     1     -10.781  11.383  63.656  1.00  0.00    -0.367 OA 
BRANCH   7  10
HETATM   10  C   UNL     1     -10.561  12.379  65.846  1.00  0.00    -0.289 A  
HETATM   11  C   UNL     1      -9.777  13.013  66.825  1.00  0.00    -0.248 A  
HETATM   12  C   UNL     1     -10.339  13.916  67.729  1.00  0.00    -0.240 A  
HETATM   13  C   UNL     1     -11.699  14.192  67.678  1.00  0.00    -0.387 A  
HETATM   14  C   UNL     1     -11.928  12.702  65.788  1.00  0.00    -0.503 A  
HETATM   15  C   UNL     1     -12.494  13.606  66.697  1.00  0.00    -0.291 A  
BRANCH  13  16
HETATM   16  N   UNL     1     -12.249  15.100  68.627  1.00  0.00    -0.597 N  
HETATM   17  H   UNL     1     -12.499  16.053  68.361  1.00  0.00     0.000 HD 
BRANCH  16  18
HETATM   18  S   UNL     1     -12.477  14.549  70.208  1.00  0.00    -0.331 S  
HETATM   19  O   UNL     1     -13.744  15.013  70.719  1.00  0.00    -0.302 OA 
HETATM   20  O   UNL     1     -12.155  13.137  70.167  1.00  0.00    -0.338 OA 
HETATM   21  C   UNL     1     -11.155  15.373  71.073  1.00  0.00    -0.331 C  
ENDBRANCH  16  18
ENDBRANCH  13  16
ENDBRANCH   7  10
ENDBRANCH   6   7
ENDBRANCH   4   6
ENDBRANCH   2   4
TORSDOF 6
ENDMDL
MODEL      129
REMARK 921   NORMALIZED FREE ENERGY PREDICTED BY IDOCK:   -3.69 KCAL/MOL
REMARK 922        TOTAL FREE ENERGY PREDICTED BY IDOCK:   -5.63 KCAL/MOL
REMARK 923 INTER-LIGAND FREE ENERGY PREDICTED BY IDOCK:   -5.38 KCAL/MOL
REMARK 924 INTRA-LIGAND FREE ENERGY PREDICTED BY IDOCK:   -0.25 KCAL/MOL
REMARK 927      BINDING AFFINITY PREDICTED BY RF-SCORE:    0.00 PKD
ROOT
HETATM    1  C   UNL     1     -10.000  20.408  66.919  1.00  0.00    -0.549 C  
HETATM    2  C   UNL     1      -8.673  19.745  66.552  1.00  0.00    -0.360 C  
HETATM    3  C   UNL     1      -7.780  19.661  67.792  1.00  0.00    -0.319 C  
ENDROOT
BRANCH   2   4
HETATM    4  N   UNL     1      -8.950  18.419  65.978  1.00  0.00    -0.494 NA 
HETATM    5  H   UNL     1      -8.477  18.299  65.083  1.00  0.00     0.000 HD 
BRANCH   4   6
HETATM    6  C   UNL     1      -8.616  17.329  66.906  1.00  0.00    -0.240 C  
BRANCH   6   7
HETATM    7  C   UNL     1      -9.849  16.596  67.492  1.00  0.00    -0.253 C  
HETATM    8  H   UNL     1     -11.766  16.953  67.602  1.00  0.00     0.000 HD 
HETATM    9  O   UNL     1     -11.010  17.402  67.243  1.00  0.00    -0.190 OA 
BRANCH   7  10
HETATM   10  C   UNL     1     -10.072  15.200  66.914  1.00  0.00    -0.256 A  
HETATM   11  C   UNL     1     -10.182  14.956  65.535  1.00  0.00    -0.401 A  
HETATM   12  C   UNL     1     -10.407  13.669  65.044  1.00  0.00    -0.393 A  
HETATM   13  C   UNL     1     -10.537  12.604  65.926  1.00  0.00    -0.273 A  
HETATM   14  C   UNL     1     -10.169  14.102  67.787  1.00  0.00    -0.242 A  
HETATM   15  C   UNL     1     -10.397  12.810  67.296  1.00  0.00    -0.235 A  
BRANCH  13  16
HETATM   16  N   UNL     1     -10.788  11.305  65.398  1.00  0.00    -0.231 N  
HETATM   17  H   UNL     1     -11.736  11.002  65.174  1.00  0.00     0.000 HD 
BRANCH  16  18
HETATM   18  S   UNL     1      -9.465  10.282  65.156  1.00  0.00    -0.278 S  
HETATM   19  O   UNL     1      -8.247  10.941  65.561  1.00  0.00    -0.143 OA 
HETATM   20  O   UNL     1      -9.858   9.012  65.731  1.00  0.00    -0.262 OA 
HETATM   21  C   UNL     1      -9.473  10.093  63.385  1.00  0.00    -0.261 C  
ENDBRANCH  16  18
ENDBRANCH  13  16
ENDBRANCH   7  10
ENDBRANCH   6   7
ENDBRANCH   4   6
ENDBRANCH   2   4
TORSDOF 6
ENDMDL
MODEL      130
REMARK 921   NORMALIZED FREE ENERGY PREDICTED BY IDOCK:   -3.67 KCAL/MOL
REMARK 922        TOTAL FREE ENERGY PREDICTED BY IDOCK:   -5.61 KCAL/MOL
REMARK 923 INTER-LIGAND FREE ENERGY PREDICTED BY IDOCK:   -6.22 KCAL/MOL
REMARK 924 INTRA-LIGAND FREE ENERGY PREDICTED BY IDOCK:    0.62 KCAL/MOL
REMARK 927      BINDING AFFINITY PREDICTED BY RF-SCORE:    0.00 PKD
ROOT
HETATM    1  C   UNL     1     -11.834  16.301  71.602  1.00  0.00    -0.482 C  
HETATM    2  C   UNL     1     -11.424  15.918  70.181  1.00  0.00    -0.361 C  
HETATM    3  C   UNL     1      -9.982  15.407  70.183  1.00  0.00    -0.082 C  
ENDROOT
BRANCH   2   4
HETATM    4  N   UNL     1     -12.369  14.911  69.673  1.00  0.00    -0.527 NA 
HETATM    5  H   UNL     1     -11.892  14.035  69.457  1.00  0.00     0.000 HD 
BRANCH   4   6
HETATM    6  C   UNL     1     -13.496  14.690  70.590  1.00  0.00    -0.040 C  
BRANCH   6   7
HETATM    7  C   UNL     1     -13.172  13.747  71.776  1.00  0.00    -0.386 C  
HETATM    8  H   UNL     1     -14.134  13.093  73.345  1.00  0.00     0.000 HD 
HETATM    9  O   UNL     1     -14.332  13.671  72.618  1.00  0.00    -0.703 OA 
BRANCH   7  10
HETATM   10  C   UNL     1     -12.764  12.338  71.352  1.00  0.00    -0.351 A  
HETATM   11  C   UNL     1     -11.795  12.090  70.365  1.00  0.00    -0.302 A  
HETATM   12  C   UNL     1     -11.463  10.788  69.988  1.00  0.00    -0.412 A  
HETATM   13  C   UNL     1     -12.104   9.709  70.585  1.00  0.00    -0.194 A  
HETATM   14  C   UNL     1     -13.373  11.231  71.969  1.00  0.00    -0.386 A  
HETATM   15  C   UNL     1     -13.043   9.923  71.591  1.00  0.00    -0.538 A  
BRANCH  13  16
HETATM   16  N   UNL     1     -11.761   8.392  70.165  1.00  0.00    -0.454 N  
HETATM   17  H   UNL     1     -12.072   8.029  69.264  1.00  0.00     0.000 HD 
BRANCH  16  18
HETATM   18  S   UNL     1     -10.824   7.450  71.209  1.00  0.00    -0.241 S  
HETATM   19  O   UNL     1      -9.905   6.634  70.451  1.00  0.00    -0.175 OA 
HETATM   20  O   UNL     1     -10.351   8.367  72.225  1.00  0.00    -0.287 OA 
HETATM   21  C   UNL     1     -12.056   6.407  71.962  1.00  0.00    -0.303 C  
ENDBRANCH  16  18
ENDBRANCH  13  16
ENDBRANCH   7  10
ENDBRANCH   6   7
ENDBRANCH   4   6
ENDBRANCH   2   4
TORSDOF 6
ENDMDL
MODEL      131
REMARK 921   NORMALIZED FREE ENERGY PREDICTED BY IDOCK:   -3.67 KCAL/MOL
REMARK 922        TOTAL FREE ENERGY PREDICTED BY IDOCK:   -5.60 KCAL/MOL
REMARK 923 INTER-LIGAND FREE ENERGY PREDICTED BY IDOCK:   -4.99 KCAL/MOL
REMARK 924 INTRA-LIGAND FREE ENERGY PREDICTED BY IDOCK:   -0.62 KCAL/MOL
REMARK 927      BINDING AFFINITY PREDICTED BY RF-SCORE:    0.00 PKD
ROOT
HETATM    1  C   UNL     1      -8.837   8.163  67.127  1.00  0.00    -0.138 C  
HETATM    2  C   UNL     1      -8.251   8.161  68.538  1.00  0.00    -0.125 C  
HETATM    3  C   UNL     1      -7.745   9.562  68.886  1.00  0.00    -0.076 C  
ENDROOT
BRANCH   2   4
HETATM    4  N   UNL     1      -9.284   7.696  69.477  1.00  0.00    -0.150 NA 
HETATM    5  H   UNL     1      -9.049   7.946  70.438  1.00  0.00     0.000 HD 
BRANCH   4   6
HETATM    6  C   UNL     1     -10.625   8.180  69.116  1.00  0.00    -0.166 C  
BRANCH   6   7
HETATM    7  C   UNL     1     -11.264   9.118  70.170  1.00  0.00    -0.187 C  
HETATM    8  H   UNL     1     -10.807   9.711  71.974  1.00  0.00     0.000 HD 
HETATM    9  O   UNL     1     -10.416   9.136  71.328  1.00  0.00    -0.274 OA 
BRANCH   7  10
HETATM   10  C   UNL     1     -11.475  10.548  69.678  1.00  0.00    -0.349 A  
HETATM   11  C   UNL     1     -11.961  11.574  70.506  1.00  0.00    -0.439 A  
HETATM   12  C   UNL     1     -12.161  12.866  70.016  1.00  0.00    -0.357 A  
HETATM   13  C   UNL     1     -11.889  13.152  68.684  1.00  0.00    -0.328 A  
HETATM   14  C   UNL     1     -11.171  10.868  68.344  1.00  0.00    -0.347 A  
HETATM   15  C   UNL     1     -11.373  12.163  67.849  1.00  0.00    -0.361 A  
BRANCH  13  16
HETATM   16  N   UNL     1     -12.123  14.472  68.206  1.00  0.00    -0.571 N  
HETATM   17  H   UNL     1     -13.068  14.853  68.152  1.00  0.00     0.000 HD 
BRANCH  16  18
HETATM   18  S   UNL     1     -10.786  15.388  67.730  1.00  0.00    -0.297 S  
HETATM   19  O   UNL     1     -10.382  15.022  66.394  1.00  0.00    -0.271 OA 
HETATM   20  O   UNL     1     -11.126  16.757  68.063  1.00  0.00    -0.336 OA 
HETATM   21  C   UNL     1      -9.546  14.849  68.890  1.00  0.00    -0.215 C  
ENDBRANCH  16  18
ENDBRANCH  13  16
ENDBRANCH   7  10
ENDBRANCH   6   7
ENDBRANCH   4   6
ENDBRANCH   2   4
TORSDOF 6
ENDMDL
MODEL      132
REMARK 921   NORMALIZED FREE ENERGY PREDICTED BY IDOCK:   -3.66 KCAL/MOL
REMARK 922        TOTAL FREE ENERGY PREDICTED BY IDOCK:   -5.59 KCAL/MOL
REMARK 923 INTER-LIGAND FREE ENERGY PREDICTED BY IDOCK:   -5.51 KCAL/MOL
REMARK 924 INTRA-LIGAND FREE ENERGY PREDICTED BY IDOCK:   -0.08 KCAL/MOL
REMARK 927      BINDING AFFINITY PREDICTED BY RF-SCORE:    0.00 PKD
ROOT
HETATM    1  C   UNL     1      -8.750   9.672  62.565  1.00  0.00    -0.232 C  
HETATM    2  C   UNL     1      -9.627  10.074  63.750  1.00  0.00    -0.126 C  
HETATM    3  C   UNL     1      -8.741  10.486  64.928  1.00  0.00    -0.192 C  
ENDROOT
BRANCH   2   4
HETATM    4  N   UNL     1     -10.526  11.158  63.326  1.00  0.00    -0.666 NA 
HETATM    5  H   UNL     1     -11.235  10.816  62.676  1.00  0.00     0.000 HD 
BRANCH   4   6
HETATM    6  C   UNL     1     -11.142  11.850  64.467  1.00  0.00    -0.325 C  
BRANCH   6   7
HETATM    7  C   UNL     1     -11.296  13.380  64.271  1.00  0.00    -0.389 C  
HETATM    8  H   UNL     1     -12.785  14.609  63.980  1.00  0.00     0.000 HD 
HETATM    9  O   UNL     1     -12.691  13.672  64.100  1.00  0.00    -0.657 OA 
BRANCH   7  10
HETATM   10  C   UNL     1     -10.746  14.210  65.429  1.00  0.00    -0.350 A  
HETATM   11  C   UNL     1     -10.308  13.638  66.635  1.00  0.00    -0.275 A  
HETATM   12  C   UNL     1      -9.831  14.431  67.681  1.00  0.00    -0.224 A  
HETATM   13  C   UNL     1      -9.795  15.812  67.542  1.00  0.00    -0.229 A  
HETATM   14  C   UNL     1     -10.666  15.607  65.296  1.00  0.00    -0.444 A  
HETATM   15  C   UNL     1     -10.189  16.405  66.344  1.00  0.00    -0.325 A  
BRANCH  13  16
HETATM   16  N   UNL     1      -9.324  16.598  68.632  1.00  0.00    -0.239 N  
HETATM   17  H   UNL     1      -9.943  16.854  69.402  1.00  0.00     0.000 HD 
BRANCH  16  18
HETATM   18  S   UNL     1      -7.709  17.093  68.609  1.00  0.00    -0.262 S  
HETATM   19  O   UNL     1      -7.627  18.511  68.352  1.00  0.00    -0.273 OA 
HETATM   20  O   UNL     1      -7.117  16.511  69.796  1.00  0.00    -0.082 OA 
HETATM   21  C   UNL     1      -7.076  16.201  67.203  1.00  0.00    -0.218 C  
ENDBRANCH  16  18
ENDBRANCH  13  16
ENDBRANCH   7  10
ENDBRANCH   6   7
ENDBRANCH   4   6
ENDBRANCH   2   4
TORSDOF 6
ENDMDL
MODEL      133
REMARK 921   NORMALIZED FREE ENERGY PREDICTED BY IDOCK:   -3.63 KCAL/MOL
REMARK 922        TOTAL FREE ENERGY PREDICTED BY IDOCK:   -5.55 KCAL/MOL
REMARK 923 INTER-LIGAND FREE ENERGY PREDICTED BY IDOCK:   -4.90 KCAL/MOL
REMARK 924 INTRA-LIGAND FREE ENERGY PREDICTED BY IDOCK:   -0.65 KCAL/MOL
REMARK 927      BINDING AFFINITY PREDICTED BY RF-SCORE:    0.00 PKD
ROOT
HETATM    1  C   UNL     1     -11.867  12.290  68.496  1.00  0.00    -0.359 C  
HETATM    2  C   UNL     1     -11.418  11.852  67.104  1.00  0.00    -0.319 C  
HETATM    3  C   UNL     1     -11.820  12.914  66.077  1.00  0.00    -0.485 C  
ENDROOT
BRANCH   2   4
HETATM    4  N   UNL     1      -9.965  11.624  67.126  1.00  0.00    -0.198 NA 
HETATM    5  H   UNL     1      -9.507  12.088  66.340  1.00  0.00     0.000 HD 
BRANCH   4   6
HETATM    6  C   UNL     1      -9.358  12.023  68.404  1.00  0.00    -0.175 C  
BRANCH   6   7
HETATM    7  C   UNL     1      -8.003  12.760  68.258  1.00  0.00    -0.151 C  
HETATM    8  H   UNL     1      -6.485  12.668  67.032  1.00  0.00     0.000 HD 
HETATM    9  O   UNL     1      -7.315  12.216  67.121  1.00  0.00    -0.148 OA 
BRANCH   7  10
HETATM   10  C   UNL     1      -8.136  14.272  68.089  1.00  0.00    -0.144 A  
HETATM   11  C   UNL     1      -7.909  15.179  69.138  1.00  0.00    -0.199 A  
HETATM   12  C   UNL     1      -8.061  16.553  68.952  1.00  0.00    -0.240 A  
HETATM   13  C   UNL     1      -8.456  17.046  67.714  1.00  0.00    -0.198 A  
HETATM   14  C   UNL     1      -8.499  14.794  66.835  1.00  0.00    -0.230 A  
HETATM   15  C   UNL     1      -8.654  16.173  66.647  1.00  0.00    -0.311 A  
BRANCH  13  16
HETATM   16  N   UNL     1      -8.625  18.451  67.558  1.00  0.00    -0.256 N  
HETATM   17  H   UNL     1      -7.821  19.069  67.446  1.00  0.00     0.000 HD 
BRANCH  16  18
HETATM   18  S   UNL     1     -10.200  19.062  67.566  1.00  0.00    -0.421 S  
HETATM   19  O   UNL     1     -11.134  18.025  67.932  1.00  0.00    -0.191 OA 
HETATM   20  O   UNL     1     -10.123  20.301  68.313  1.00  0.00    -0.381 OA 
HETATM   21  C   UNL     1     -10.433  19.486  65.851  1.00  0.00    -0.491 C  
ENDBRANCH  16  18
ENDBRANCH  13  16
ENDBRANCH   7  10
ENDBRANCH   6   7
ENDBRANCH   4   6
ENDBRANCH   2   4
TORSDOF 6
ENDMDL
MODEL      134
REMARK 921   NORMALIZED FREE ENERGY PREDICTED BY IDOCK:   -3.63 KCAL/MOL
REMARK 922        TOTAL FREE ENERGY PREDICTED BY IDOCK:   -5.55 KCAL/MOL
REMARK 923 INTER-LIGAND FREE ENERGY PREDICTED BY IDOCK:   -5.42 KCAL/MOL
REMARK 924 INTRA-LIGAND FREE ENERGY PREDICTED BY IDOCK:   -0.13 KCAL/MOL
REMARK 927      BINDING AFFINITY PREDICTED BY RF-SCORE:    0.00 PKD
ROOT
HETATM    1  C   UNL     1     -13.797  13.616  72.395  1.00  0.00    -0.691 C  
HETATM    2  C   UNL     1     -12.785  13.999  71.318  1.00  0.00    -0.365 C  
HETATM    3  C   UNL     1     -11.787  15.010  71.887  1.00  0.00    -0.455 C  
ENDROOT
BRANCH   2   4
HETATM    4  N   UNL     1     -12.123  12.778  70.835  1.00  0.00    -0.446 NA 
HETATM    5  H   UNL     1     -11.249  12.610  71.333  1.00  0.00     0.000 HD 
BRANCH   4   6
HETATM    6  C   UNL     1     -13.004  11.603  70.900  1.00  0.00    -0.056 C  
BRANCH   6   7
HETATM    7  C   UNL     1     -12.413  10.411  71.695  1.00  0.00    -0.370 C  
HETATM    8  H   UNL     1     -13.137   8.959  72.782  1.00  0.00     0.000 HD 
HETATM    9  O   UNL     1     -13.499   9.689  72.295  1.00  0.00    -0.441 OA 
BRANCH   7  10
HETATM   10  C   UNL     1     -11.580   9.453  70.846  1.00  0.00    -0.380 A  
HETATM   11  C   UNL     1     -11.688   8.056  70.946  1.00  0.00    -0.265 A  
HETATM   12  C   UNL     1     -10.895   7.211  70.169  1.00  0.00    -0.279 A  
HETATM   13  C   UNL     1      -9.970   7.750  69.284  1.00  0.00    -0.182 A  
HETATM   14  C   UNL     1     -10.664   9.977  69.916  1.00  0.00    -0.328 A  
HETATM   15  C   UNL     1      -9.866   9.131  69.137  1.00  0.00    -0.171 A  
BRANCH  13  16
HETATM   16  N   UNL     1      -9.159   6.864  68.519  1.00  0.00    -0.128 N  
HETATM   17  H   UNL     1      -8.152   6.805  68.675  1.00  0.00     0.000 HD 
BRANCH  16  18
HETATM   18  S   UNL     1      -9.916   5.915  67.344  1.00  0.00    -0.167 S  
HETATM   19  O   UNL     1     -10.007   4.546  67.793  1.00  0.00    -0.142 OA 
HETATM   20  O   UNL     1     -11.099   6.659  66.960  1.00  0.00    -0.403 OA 
HETATM   21  C   UNL     1      -8.759   6.018  65.993  1.00  0.00    -0.152 C  
ENDBRANCH  16  18
ENDBRANCH  13  16
ENDBRANCH   7  10
ENDBRANCH   6   7
ENDBRANCH   4   6
ENDBRANCH   2   4
TORSDOF 6
ENDMDL
MODEL      135
REMARK 921   NORMALIZED FREE ENERGY PREDICTED BY IDOCK:   -3.62 KCAL/MOL
REMARK 922        TOTAL FREE ENERGY PREDICTED BY IDOCK:   -5.54 KCAL/MOL
REMARK 923 INTER-LIGAND FREE ENERGY PREDICTED BY IDOCK:   -5.15 KCAL/MOL
REMARK 924 INTRA-LIGAND FREE ENERGY PREDICTED BY IDOCK:   -0.39 KCAL/MOL
REMARK 927      BINDING AFFINITY PREDICTED BY RF-SCORE:    0.00 PKD
ROOT
HETATM    1  C   UNL     1     -13.766  13.381  72.233  1.00  0.00    -0.705 C  
HETATM    2  C   UNL     1     -12.842  13.629  71.042  1.00  0.00    -0.287 C  
HETATM    3  C   UNL     1     -11.964  14.851  71.319  1.00  0.00    -0.393 C  
ENDROOT
BRANCH   2   4
HETATM    4  N   UNL     1     -12.045  12.416  70.803  1.00  0.00    -0.471 NA 
HETATM    5  H   UNL     1     -11.266  12.351  71.459  1.00  0.00     0.000 HD 
BRANCH   4   6
HETATM    6  C   UNL     1     -12.864  11.195  70.831  1.00  0.00    -0.282 C  
BRANCH   6   7
HETATM    7  C   UNL     1     -12.300  10.075  71.741  1.00  0.00    -0.345 C  
HETATM    8  H   UNL     1     -12.982   9.006  73.227  1.00  0.00     0.000 HD 
HETATM    9  O   UNL     1     -13.327   9.692  72.669  1.00  0.00    -0.311 OA 
BRANCH   7  10
HETATM   10  C   UNL     1     -11.824   8.840  70.980  1.00  0.00    -0.315 A  
HETATM   11  C   UNL     1     -11.006   8.916  69.841  1.00  0.00    -0.190 A  
HETATM   12  C   UNL     1     -10.607   7.766  69.158  1.00  0.00    -0.193 A  
HETATM   13  C   UNL     1     -11.031   6.518  69.596  1.00  0.00    -0.336 A  
HETATM   14  C   UNL     1     -12.211   7.565  71.428  1.00  0.00    -0.363 A  
HETATM   15  C   UNL     1     -11.814   6.409  70.743  1.00  0.00    -0.319 A  
BRANCH  13  16
HETATM   16  N   UNL     1     -10.628   5.363  68.868  1.00  0.00    -0.174 N  
HETATM   17  H   UNL     1     -11.239   4.942  68.167  1.00  0.00     0.000 HD 
BRANCH  16  18
HETATM   18  S   UNL     1      -9.105   4.712  69.200  1.00  0.00    -0.127 S  
HETATM   19  O   UNL     1      -8.576   5.281  70.417  1.00  0.00    -0.111 OA 
HETATM   20  O   UNL     1      -9.263   3.280  69.048  1.00  0.00    -0.133 OA 
HETATM   21  C   UNL     1      -8.150   5.294  67.813  1.00  0.00    -0.099 C  
ENDBRANCH  16  18
ENDBRANCH  13  16
ENDBRANCH   7  10
ENDBRANCH   6   7
ENDBRANCH   4   6
ENDBRANCH   2   4
TORSDOF 6
ENDMDL
MODEL      136
REMARK 921   NORMALIZED FREE ENERGY PREDICTED BY IDOCK:   -3.62 KCAL/MOL
REMARK 922        TOTAL FREE ENERGY PREDICTED BY IDOCK:   -5.54 KCAL/MOL
REMARK 923 INTER-LIGAND FREE ENERGY PREDICTED BY IDOCK:   -5.14 KCAL/MOL
REMARK 924 INTRA-LIGAND FREE ENERGY PREDICTED BY IDOCK:   -0.40 KCAL/MOL
REMARK 927      BINDING AFFINITY PREDICTED BY RF-SCORE:    0.00 PKD
ROOT
HETATM    1  C   UNL     1      -6.231   9.001  69.840  1.00  0.00    -0.034 C  
HETATM    2  C   UNL     1      -7.442   9.858  70.203  1.00  0.00    -0.170 C  
HETATM    3  C   UNL     1      -7.337  11.217  69.507  1.00  0.00    -0.023 C  
ENDROOT
BRANCH   2   4
HETATM    4  N   UNL     1      -8.665   9.134  69.824  1.00  0.00    -0.140 NA 
HETATM    5  H   UNL     1      -8.470   8.148  69.650  1.00  0.00     0.000 HD 
BRANCH   4   6
HETATM    6  C   UNL     1      -9.739   9.296  70.814  1.00  0.00    -0.282 C  
BRANCH   6   7
HETATM    7  C   UNL     1     -11.136   9.554  70.195  1.00  0.00    -0.255 C  
HETATM    8  H   UNL     1     -12.876  10.137  70.865  1.00  0.00     0.000 HD 
HETATM    9  O   UNL     1     -12.020   9.979  71.244  1.00  0.00    -0.347 OA 
BRANCH   7  10
HETATM   10  C   UNL     1     -11.137  10.600  69.082  1.00  0.00    -0.309 A  
HETATM   11  C   UNL     1     -10.752  10.308  67.763  1.00  0.00    -0.324 A  
HETATM   12  C   UNL     1     -10.745  11.295  66.776  1.00  0.00    -0.323 A  
HETATM   13  C   UNL     1     -11.111  12.596  67.095  1.00  0.00    -0.280 A  
HETATM   14  C   UNL     1     -11.540  11.915  69.374  1.00  0.00    -0.388 A  
HETATM   15  C   UNL     1     -11.531  12.907  68.386  1.00  0.00    -0.347 A  
BRANCH  13  16
HETATM   16  N   UNL     1     -11.074  13.588  66.074  1.00  0.00    -0.292 N  
HETATM   17  H   UNL     1     -10.495  14.423  66.172  1.00  0.00     0.000 HD 
BRANCH  16  18
HETATM   18  S   UNL     1     -12.017  13.338  64.695  1.00  0.00    -0.419 S  
HETATM   19  O   UNL     1     -11.286  12.557  63.727  1.00  0.00    -0.395 OA 
HETATM   20  O   UNL     1     -13.306  12.902  65.192  1.00  0.00    -0.605 OA 
HETATM   21  C   UNL     1     -12.215  15.000  64.084  1.00  0.00    -0.211 C  
ENDBRANCH  16  18
ENDBRANCH  13  16
ENDBRANCH   7  10
ENDBRANCH   6   7
ENDBRANCH   4   6
ENDBRANCH   2   4
TORSDOF 6
ENDMDL
MODEL      137
REMARK 921   NORMALIZED FREE ENERGY PREDICTED BY IDOCK:   -3.59 KCAL/MOL
REMARK 922        TOTAL FREE ENERGY PREDICTED BY IDOCK:   -5.50 KCAL/MOL
REMARK 923 INTER-LIGAND FREE ENERGY PREDICTED BY IDOCK:   -4.96 KCAL/MOL
REMARK 924 INTRA-LIGAND FREE ENERGY PREDICTED BY IDOCK:   -0.53 KCAL/MOL
REMARK 927      BINDING AFFINITY PREDICTED BY RF-SCORE:    0.00 PKD
ROOT
HETATM    1  C   UNL     1     -10.588  18.681  67.626  1.00  0.00    -0.458 C  
HETATM    2  C   UNL     1     -10.214  17.232  67.932  1.00  0.00    -0.332 C  
HETATM    3  C   UNL     1      -8.691  17.085  67.942  1.00  0.00    -0.216 C  
ENDROOT
BRANCH   2   4
HETATM    4  N   UNL     1     -10.816  16.850  69.219  1.00  0.00    -0.325 NA 
HETATM    5  H   UNL     1     -11.262  17.650  69.669  1.00  0.00     0.000 HD 
BRANCH   4   6
HETATM    6  C   UNL     1     -11.753  15.726  69.085  1.00  0.00    -0.388 C  
BRANCH   6   7
HETATM    7  C   UNL     1     -11.175  14.362  69.538  1.00  0.00    -0.254 C  
HETATM    8  H   UNL     1     -11.701  12.971  70.805  1.00  0.00     0.000 HD 
HETATM    9  O   UNL     1     -12.056  13.807  70.527  1.00  0.00    -0.330 OA 
BRANCH   7  10
HETATM   10  C   UNL     1     -10.997  13.357  68.402  1.00  0.00    -0.291 A  
HETATM   11  C   UNL     1     -10.886  13.741  67.055  1.00  0.00    -0.288 A  
HETATM   12  C   UNL     1     -10.747  12.793  66.041  1.00  0.00    -0.295 A  
HETATM   13  C   UNL     1     -10.727  11.440  66.355  1.00  0.00    -0.275 A  
HETATM   14  C   UNL     1     -10.937  11.984  68.702  1.00  0.00    -0.281 A  
HETATM   15  C   UNL     1     -10.799  11.031  67.685  1.00  0.00    -0.306 A  
BRANCH  13  16
HETATM   16  N   UNL     1     -10.605  10.493  65.299  1.00  0.00    -0.156 N  
HETATM   17  H   UNL     1     -11.423  10.006  64.932  1.00  0.00     0.000 HD 
BRANCH  16  18
HETATM   18  S   UNL     1      -9.063  10.203  64.673  1.00  0.00    -0.250 S  
HETATM   19  O   UNL     1      -8.068  10.887  65.464  1.00  0.00    -0.129 OA 
HETATM   20  O   UNL     1      -9.001   8.770  64.466  1.00  0.00    -0.066 OA 
HETATM   21  C   UNL     1      -9.171  10.970  63.069  1.00  0.00    -0.326 C  
ENDBRANCH  16  18
ENDBRANCH  13  16
ENDBRANCH   7  10
ENDBRANCH   6   7
ENDBRANCH   4   6
ENDBRANCH   2   4
TORSDOF 6
ENDMDL
MODEL      138
REMARK 921   NORMALIZED FREE ENERGY PREDICTED BY IDOCK:   -3.56 KCAL/MOL
REMARK 922        TOTAL FREE ENERGY PREDICTED BY IDOCK:   -5.46 KCAL/MOL
REMARK 923 INTER-LIGAND FREE ENERGY PREDICTED BY IDOCK:   -4.91 KCAL/MOL
REMARK 924 INTRA-LIGAND FREE ENERGY PREDICTED BY IDOCK:   -0.55 KCAL/MOL
REMARK 927      BINDING AFFINITY PREDICTED BY RF-SCORE:    0.00 PKD
ROOT
HETATM    1  C   UNL     1     -11.834  12.372  65.883  1.00  0.00    -0.467 C  
HETATM    2  C   UNL     1     -11.490  12.205  64.404  1.00  0.00    -0.350 C  
HETATM    3  C   UNL     1     -11.945  13.442  63.627  1.00  0.00    -0.504 C  
ENDROOT
BRANCH   2   4
HETATM    4  N   UNL     1     -10.042  11.974  64.279  1.00  0.00    -0.359 NA 
HETATM    5  H   UNL     1      -9.524  12.486  64.994  1.00  0.00     0.000 HD 
BRANCH   4   6
HETATM    6  C   UNL     1      -9.702  10.544  64.300  1.00  0.00    -0.330 C  
BRANCH   6   7
HETATM    7  C   UNL     1      -8.793  10.126  65.483  1.00  0.00    -0.169 C  
HETATM    8  H   UNL     1      -7.789  11.061  66.873  1.00  0.00     0.000 HD 
HETATM    9  O   UNL     1      -8.346  11.317  66.148  1.00  0.00    -0.167 OA 
BRANCH   7  10
HETATM   10  C   UNL     1      -9.478   9.211  66.496  1.00  0.00    -0.266 A  
HETATM   11  C   UNL     1     -10.034   9.685  67.696  1.00  0.00    -0.218 A  
HETATM   12  C   UNL     1     -10.633   8.817  68.609  1.00  0.00    -0.174 A  
HETATM   13  C   UNL     1     -10.677   7.454  68.343  1.00  0.00    -0.096 A  
HETATM   14  C   UNL     1      -9.567   7.834  66.229  1.00  0.00    -0.179 A  
HETATM   15  C   UNL     1     -10.166   6.960  67.145  1.00  0.00    -0.308 A  
BRANCH  13  16
HETATM   16  N   UNL     1     -11.275   6.588  69.302  1.00  0.00    -0.501 N  
HETATM   17  H   UNL     1     -12.271   6.371  69.266  1.00  0.00     0.000 HD 
BRANCH  16  18
HETATM   18  S   UNL     1     -10.282   5.931  70.500  1.00  0.00    -0.226 S  
HETATM   19  O   UNL     1      -9.118   6.762  70.692  1.00  0.00    -0.154 OA 
HETATM   20  O   UNL     1     -11.171   5.619  71.601  1.00  0.00    -0.231 OA 
HETATM   21  C   UNL     1      -9.789   4.388  69.758  1.00  0.00    -0.214 C  
ENDBRANCH  16  18
ENDBRANCH  13  16
ENDBRANCH   7  10
ENDBRANCH   6   7
ENDBRANCH   4   6
ENDBRANCH   2   4
TORSDOF 6
ENDMDL
MODEL      139
REMARK 921   NORMALIZED FREE ENERGY PREDICTED BY IDOCK:   -3.51 KCAL/MOL
REMARK 922        TOTAL FREE ENERGY PREDICTED BY IDOCK:   -5.39 KCAL/MOL
REMARK 923 INTER-LIGAND FREE ENERGY PREDICTED BY IDOCK:   -5.50 KCAL/MOL
REMARK 924 INTRA-LIGAND FREE ENERGY PREDICTED BY IDOCK:    0.10 KCAL/MOL
REMARK 927      BINDING AFFINITY PREDICTED BY RF-SCORE:    0.00 PKD
ROOT
HETATM    1  C   UNL     1     -11.808  15.182  64.597  1.00  0.00    -0.333 C  
HETATM    2  C   UNL     1     -12.468  13.933  65.179  1.00  0.00    -0.453 C  
HETATM    3  C   UNL     1     -11.680  12.691  64.755  1.00  0.00    -0.402 C  
ENDROOT
BRANCH   2   4
HETATM    4  N   UNL     1     -12.537  14.073  66.641  1.00  0.00    -0.502 NA 
HETATM    5  H   UNL     1     -12.895  13.222  67.076  1.00  0.00     0.000 HD 
BRANCH   4   6
HETATM    6  C   UNL     1     -11.247  14.466  67.226  1.00  0.00    -0.323 C  
BRANCH   6   7
HETATM    7  C   UNL     1     -11.107  14.134  68.733  1.00  0.00    -0.262 C  
HETATM    8  H   UNL     1     -12.116  14.545  70.354  1.00  0.00     0.000 HD 
HETATM    9  O   UNL     1     -12.201  14.748  69.431  1.00  0.00    -0.283 OA 
BRANCH   7  10
HETATM   10  C   UNL     1     -11.093  12.637  69.038  1.00  0.00    -0.291 A  
HETATM   11  C   UNL     1     -12.108  12.000  69.773  1.00  0.00    -0.317 A  
HETATM   12  C   UNL     1     -12.050  10.634  70.051  1.00  0.00    -0.393 A  
HETATM   13  C   UNL     1     -10.970   9.882  69.609  1.00  0.00    -0.252 A  
HETATM   14  C   UNL     1     -10.028  11.850  68.568  1.00  0.00    -0.196 A  
HETATM   15  C   UNL     1      -9.967  10.479  68.849  1.00  0.00    -0.213 A  
BRANCH  13  16
HETATM   16  N   UNL     1     -10.926   8.494  69.925  1.00  0.00    -0.365 N  
HETATM   17  H   UNL     1     -11.182   8.158  70.854  1.00  0.00     0.000 HD 
BRANCH  16  18
HETATM   18  S   UNL     1     -10.437   7.423  68.714  1.00  0.00    -0.175 S  
HETATM   19  O   UNL     1     -11.063   6.136  68.905  1.00  0.00    -0.349 OA 
HETATM   20  O   UNL     1     -10.592   8.156  67.474  1.00  0.00    -0.253 OA 
HETATM   21  C   UNL     1      -8.691   7.282  69.037  1.00  0.00    -0.132 C  
ENDBRANCH  16  18
ENDBRANCH  13  16
ENDBRANCH   7  10
ENDBRANCH   6   7
ENDBRANCH   4   6
ENDBRANCH   2   4
TORSDOF 6
ENDMDL
MODEL      140
REMARK 921   NORMALIZED FREE ENERGY PREDICTED BY IDOCK:   -3.51 KCAL/MOL
REMARK 922        TOTAL FREE ENERGY PREDICTED BY IDOCK:   -5.39 KCAL/MOL
REMARK 923 INTER-LIGAND FREE ENERGY PREDICTED BY IDOCK:   -5.14 KCAL/MOL
REMARK 924 INTRA-LIGAND FREE ENERGY PREDICTED BY IDOCK:   -0.25 KCAL/MOL
REMARK 927      BINDING AFFINITY PREDICTED BY RF-SCORE:    0.00 PKD
ROOT
HETATM    1  C   UNL     1     -12.208  13.240  70.061  1.00  0.00    -0.345 C  
HETATM    2  C   UNL     1     -11.929  11.812  70.529  1.00  0.00    -0.289 C  
HETATM    3  C   UNL     1     -12.978  11.397  71.563  1.00  0.00    -0.505 C  
ENDROOT
BRANCH   2   4
HETATM    4  N   UNL     1     -11.924  10.924  69.356  1.00  0.00    -0.396 NA 
HETATM    5  H   UNL     1     -12.275  11.405  68.528  1.00  0.00     0.000 HD 
BRANCH   4   6
HETATM    6  C   UNL     1     -10.600  10.335  69.108  1.00  0.00    -0.230 C  
BRANCH   6   7
HETATM    7  C   UNL     1     -10.109  10.477  67.646  1.00  0.00    -0.179 C  
HETATM    8  H   UNL     1     -10.851  10.098  65.879  1.00  0.00     0.000 HD 
HETATM    9  O   UNL     1     -11.151  10.012  66.775  1.00  0.00    -0.037 OA 
BRANCH   7  10
HETATM   10  C   UNL     1      -9.727  11.903  67.256  1.00  0.00    -0.191 A  
HETATM   11  C   UNL     1     -10.428  12.642  66.289  1.00  0.00    -0.270 A  
HETATM   12  C   UNL     1     -10.037  13.936  65.943  1.00  0.00    -0.331 A  
HETATM   13  C   UNL     1      -8.928  14.511  66.552  1.00  0.00    -0.180 A  
HETATM   14  C   UNL     1      -8.631  12.517  67.887  1.00  0.00    -0.179 A  
HETATM   15  C   UNL     1      -8.235  13.815  67.539  1.00  0.00    -0.194 A  
BRANCH  13  16
HETATM   16  N   UNL     1      -8.538  15.824  66.164  1.00  0.00    -0.362 N  
HETATM   17  H   UNL     1      -7.699  15.981  65.605  1.00  0.00     0.000 HD 
BRANCH  16  18
HETATM   18  S   UNL     1      -9.510  17.115  66.658  1.00  0.00    -0.276 S  
HETATM   19  O   UNL     1      -8.705  18.124  67.304  1.00  0.00    -0.239 OA 
HETATM   20  O   UNL     1     -10.333  17.432  65.509  1.00  0.00    -0.621 OA 
HETATM   21  C   UNL     1     -10.561  16.335  67.868  1.00  0.00    -0.318 C  
ENDBRANCH  16  18
ENDBRANCH  13  16
ENDBRANCH   7  10
ENDBRANCH   6   7
ENDBRANCH   4   6
ENDBRANCH   2   4
TORSDOF 6
ENDMDL
MODEL      141
REMARK 921   NORMALIZED FREE ENERGY PREDICTED BY IDOCK:   -3.50 KCAL/MOL
REMARK 922        TOTAL FREE ENERGY PREDICTED BY IDOCK:   -5.37 KCAL/MOL
REMARK 923 INTER-LIGAND FREE ENERGY PREDICTED BY IDOCK:   -4.59 KCAL/MOL
REMARK 924 INTRA-LIGAND FREE ENERGY PREDICTED BY IDOCK:   -0.79 KCAL/MOL
REMARK 927      BINDING AFFINITY PREDICTED BY RF-SCORE:    0.00 PKD
ROOT
HETATM    1  C   UNL     1      -6.774  10.473  68.174  1.00  0.00    -0.064 C  
HETATM    2  C   UNL     1      -7.229   9.024  68.336  1.00  0.00    -0.077 C  
HETATM    3  C   UNL     1      -7.997   8.870  69.651  1.00  0.00    -0.092 C  
ENDROOT
BRANCH   2   4
HETATM    4  N   UNL     1      -8.047   8.654  67.170  1.00  0.00    -0.100 NA 
HETATM    5  H   UNL     1      -8.801   8.019  67.435  1.00  0.00     0.000 HD 
BRANCH   4   6
HETATM    6  C   UNL     1      -8.569   9.830  66.458  1.00  0.00    -0.127 C  
BRANCH   6   7
HETATM    7  C   UNL     1     -10.115   9.903  66.406  1.00  0.00    -0.240 C  
HETATM    8  H   UNL     1     -11.588   8.702  66.858  1.00  0.00     0.000 HD 
HETATM    9  O   UNL     1     -10.641   8.658  66.890  1.00  0.00    -0.287 OA 
BRANCH   7  10
HETATM   10  C   UNL     1     -10.708  11.050  67.222  1.00  0.00    -0.312 A  
HETATM   11  C   UNL     1     -10.804  11.017  68.624  1.00  0.00    -0.256 A  
HETATM   12  C   UNL     1     -11.371  12.075  69.335  1.00  0.00    -0.317 A  
HETATM   13  C   UNL     1     -11.865  13.181  68.655  1.00  0.00    -0.328 A  
HETATM   14  C   UNL     1     -11.180  12.195  66.557  1.00  0.00    -0.378 A  
HETATM   15  C   UNL     1     -11.752  13.257  67.269  1.00  0.00    -0.424 A  
BRANCH  13  16
HETATM   16  N   UNL     1     -12.459  14.236  69.405  1.00  0.00    -0.520 N  
HETATM   17  H   UNL     1     -13.435  14.190  69.697  1.00  0.00     0.000 HD 
BRANCH  16  18
HETATM   18  S   UNL     1     -11.495  15.568  69.794  1.00  0.00    -0.362 S  
HETATM   19  O   UNL     1     -10.124  15.154  69.972  1.00  0.00    -0.199 OA 
HETATM   20  O   UNL     1     -11.851  16.589  68.830  1.00  0.00    -0.113 OA 
HETATM   21  C   UNL     1     -12.172  16.059  71.367  1.00  0.00    -0.388 C  
ENDBRANCH  16  18
ENDBRANCH  13  16
ENDBRANCH   7  10
ENDBRANCH   6   7
ENDBRANCH   4   6
ENDBRANCH   2   4
TORSDOF 6
ENDMDL
MODEL      142
REMARK 921   NORMALIZED FREE ENERGY PREDICTED BY IDOCK:   -3.49 KCAL/MOL
REMARK 922        TOTAL FREE ENERGY PREDICTED BY IDOCK:   -5.36 KCAL/MOL
REMARK 923 INTER-LIGAND FREE ENERGY PREDICTED BY IDOCK:   -5.23 KCAL/MOL
REMARK 924 INTRA-LIGAND FREE ENERGY PREDICTED BY IDOCK:   -0.12 KCAL/MOL
REMARK 927      BINDING AFFINITY PREDICTED BY RF-SCORE:    0.00 PKD
ROOT
HETATM    1  C   UNL     1     -10.639  16.689  65.391  1.00  0.00    -0.254 C  
HETATM    2  C   UNL     1     -10.475  15.198  65.679  1.00  0.00    -0.359 C  
HETATM    3  C   UNL     1      -9.131  14.953  66.369  1.00  0.00    -0.293 C  
ENDROOT
BRANCH   2   4
HETATM    4  N   UNL     1     -11.609  14.748  66.500  1.00  0.00    -0.337 NA 
HETATM    5  H   UNL     1     -12.347  14.346  65.921  1.00  0.00     0.000 HD 
BRANCH   4   6
HETATM    6  C   UNL     1     -11.197  13.813  67.558  1.00  0.00    -0.294 C  
BRANCH   6   7
HETATM    7  C   UNL     1     -11.951  12.460  67.537  1.00  0.00    -0.183 C  
HETATM    8  H   UNL     1     -12.389  11.124  66.180  1.00  0.00     0.000 HD 
HETATM    9  O   UNL     1     -11.926  11.953  66.194  1.00  0.00    -0.537 OA 
BRANCH   7  10
HETATM   10  C   UNL     1     -11.368  11.412  68.481  1.00  0.00    -0.333 A  
HETATM   11  C   UNL     1     -10.293  10.580  68.125  1.00  0.00    -0.201 A  
HETATM   12  C   UNL     1      -9.800   9.617  69.007  1.00  0.00    -0.183 A  
HETATM   13  C   UNL     1     -10.382   9.461  70.259  1.00  0.00    -0.245 A  
HETATM   14  C   UNL     1     -11.917  11.262  69.766  1.00  0.00    -0.431 A  
HETATM   15  C   UNL     1     -11.425  10.295  70.652  1.00  0.00    -0.435 A  
BRANCH  13  16
HETATM   16  N   UNL     1      -9.873   8.457  71.130  1.00  0.00    -0.181 N  
HETATM   17  H   UNL     1      -8.953   8.552  71.563  1.00  0.00     0.000 HD 
BRANCH  16  18
HETATM   18  S   UNL     1     -10.839   7.103  71.424  1.00  0.00    -0.233 S  
HETATM   19  O   UNL     1     -10.026   6.001  71.878  1.00  0.00    -0.168 OA 
HETATM   20  O   UNL     1     -11.948   7.594  72.217  1.00  0.00    -0.304 OA 
HETATM   21  C   UNL     1     -11.465   6.743  69.795  1.00  0.00    -0.263 C  
ENDBRANCH  16  18
ENDBRANCH  13  16
ENDBRANCH   7  10
ENDBRANCH   6   7
ENDBRANCH   4   6
ENDBRANCH   2   4
TORSDOF 6
ENDMDL
MODEL      143
REMARK 921   NORMALIZED FREE ENERGY PREDICTED BY IDOCK:   -3.48 KCAL/MOL
REMARK 922        TOTAL FREE ENERGY PREDICTED BY IDOCK:   -5.35 KCAL/MOL
REMARK 923 INTER-LIGAND FREE ENERGY PREDICTED BY IDOCK:   -4.49 KCAL/MOL
REMARK 924 INTRA-LIGAND FREE ENERGY PREDICTED BY IDOCK:   -0.86 KCAL/MOL
REMARK 927      BINDING AFFINITY PREDICTED BY RF-SCORE:    0.00 PKD
ROOT
HETATM    1  C   UNL     1     -12.626   7.032  71.224  1.00  0.00    -0.418 C  
HETATM    2  C   UNL     1     -11.494   6.819  72.227  1.00  0.00    -0.276 C  
HETATM    3  C   UNL     1     -10.480   5.826  71.654  1.00  0.00    -0.286 C  
ENDROOT
BRANCH   2   4
HETATM    4  N   UNL     1     -10.882   8.122  72.531  1.00  0.00    -0.340 NA 
HETATM    5  H   UNL     1      -9.904   8.016  72.803  1.00  0.00     0.000 HD 
BRANCH   4   6
HETATM    6  C   UNL     1     -11.024   9.077  71.423  1.00  0.00    -0.324 C  
BRANCH   6   7
HETATM    7  C   UNL     1      -9.697   9.397  70.689  1.00  0.00    -0.273 C  
HETATM    8  H   UNL     1      -7.797   9.319  71.138  1.00  0.00     0.000 HD 
HETATM    9  O   UNL     1      -8.610   9.123  71.587  1.00  0.00    -0.342 OA 
BRANCH   7  10
HETATM   10  C   UNL     1      -9.496   8.605  69.399  1.00  0.00    -0.161 A  
HETATM   11  C   UNL     1      -8.366   7.803  69.166  1.00  0.00    -0.134 A  
HETATM   12  C   UNL     1      -8.206   7.110  67.966  1.00  0.00    -0.120 A  
HETATM   13  C   UNL     1      -9.169   7.215  66.971  1.00  0.00    -0.144 A  
HETATM   14  C   UNL     1     -10.477   8.668  68.394  1.00  0.00    -0.220 A  
HETATM   15  C   UNL     1     -10.317   7.974  67.188  1.00  0.00    -0.395 A  
BRANCH  13  16
HETATM   16  N   UNL     1      -8.970   6.514  65.748  1.00  0.00    -0.324 N  
HETATM   17  H   UNL     1      -8.646   6.999  64.910  1.00  0.00     0.000 HD 
BRANCH  16  18
HETATM   18  S   UNL     1      -9.287   4.855  65.728  1.00  0.00    -0.164 S  
HETATM   19  O   UNL     1      -8.309   4.152  66.523  1.00  0.00    -0.104 OA 
HETATM   20  O   UNL     1     -10.704   4.736  66.004  1.00  0.00    -0.319 OA 
HETATM   21  C   UNL     1      -9.043   4.459  64.008  1.00  0.00    -0.143 C  
ENDBRANCH  16  18
ENDBRANCH  13  16
ENDBRANCH   7  10
ENDBRANCH   6   7
ENDBRANCH   4   6
ENDBRANCH   2   4
TORSDOF 6
ENDMDL
MODEL      144
REMARK 921   NORMALIZED FREE ENERGY PREDICTED BY IDOCK:   -3.47 KCAL/MOL
REMARK 922        TOTAL FREE ENERGY PREDICTED BY IDOCK:   -5.33 KCAL/MOL
REMARK 923 INTER-LIGAND FREE ENERGY PREDICTED BY IDOCK:   -5.24 KCAL/MOL
REMARK 924 INTRA-LIGAND FREE ENERGY PREDICTED BY IDOCK:   -0.09 KCAL/MOL
REMARK 927      BINDING AFFINITY PREDICTED BY RF-SCORE:    0.00 PKD
ROOT
HETATM    1  C   UNL     1      -8.993   7.697  69.133  1.00  0.00    -0.135 C  
HETATM    2  C   UNL     1      -8.850   7.475  70.638  1.00  0.00    -0.146 C  
HETATM    3  C   UNL     1      -8.433   8.784  71.312  1.00  0.00    -0.238 C  
ENDROOT
BRANCH   2   4
HETATM    4  N   UNL     1     -10.125   6.963  71.163  1.00  0.00    -0.192 NA 
HETATM    5  H   UNL     1     -10.193   7.106  72.171  1.00  0.00     0.000 HD 
BRANCH   4   6
HETATM    6  C   UNL     1     -11.286   7.536  70.466  1.00  0.00    -0.269 C  
BRANCH   6   7
HETATM    7  C   UNL     1     -12.179   8.435  71.358  1.00  0.00    -0.302 C  
HETATM    8  H   UNL     1     -12.276   8.859  73.262  1.00  0.00     0.000 HD 
HETATM    9  O   UNL     1     -11.729   8.309  72.716  1.00  0.00    -0.397 OA 
BRANCH   7  10
HETATM   10  C   UNL     1     -12.168   9.909  70.959  1.00  0.00    -0.446 A  
HETATM   11  C   UNL     1     -12.808  10.907  71.713  1.00  0.00    -0.509 A  
HETATM   12  C   UNL     1     -12.795  12.241  71.306  1.00  0.00    -0.337 A  
HETATM   13  C   UNL     1     -12.149  12.601  70.129  1.00  0.00    -0.294 A  
HETATM   14  C   UNL     1     -11.489  10.300  69.792  1.00  0.00    -0.320 A  
HETATM   15  C   UNL     1     -11.476  11.638  69.380  1.00  0.00    -0.372 A  
BRANCH  13  16
HETATM   16  N   UNL     1     -12.170  13.966  69.726  1.00  0.00    -0.341 N  
HETATM   17  H   UNL     1     -13.036  14.505  69.738  1.00  0.00     0.000 HD 
BRANCH  16  18
HETATM   18  S   UNL     1     -10.715  14.664  69.227  1.00  0.00    -0.220 S  
HETATM   19  O   UNL     1     -10.044  15.272  70.351  1.00  0.00    -0.151 OA 
HETATM   20  O   UNL     1     -10.064  13.650  68.423  1.00  0.00    -0.234 OA 
HETATM   21  C   UNL     1     -11.284  15.939  68.121  1.00  0.00    -0.339 C  
ENDBRANCH  16  18
ENDBRANCH  13  16
ENDBRANCH   7  10
ENDBRANCH   6   7
ENDBRANCH   4   6
ENDBRANCH   2   4
TORSDOF 6
ENDMDL
MODEL      145
REMARK 921   NORMALIZED FREE ENERGY PREDICTED BY IDOCK:   -3.47 KCAL/MOL
REMARK 922        TOTAL FREE ENERGY PREDICTED BY IDOCK:   -5.33 KCAL/MOL
REMARK 923 INTER-LIGAND FREE ENERGY PREDICTED BY IDOCK:   -4.87 KCAL/MOL
REMARK 924 INTRA-LIGAND FREE ENERGY PREDICTED BY IDOCK:   -0.46 KCAL/MOL
REMARK 927      BINDING AFFINITY PREDICTED BY RF-SCORE:    0.00 PKD
ROOT
HETATM    1  C   UNL     1     -12.783   6.846  71.052  1.00  0.00    -0.269 C  
HETATM    2  C   UNL     1     -11.820   6.381  72.143  1.00  0.00    -0.314 C  
HETATM    3  C   UNL     1     -10.656   5.615  71.510  1.00  0.00    -0.306 C  
ENDROOT
BRANCH   2   4
HETATM    4  N   UNL     1     -11.363   7.556  72.901  1.00  0.00    -0.525 NA 
HETATM    5  H   UNL     1     -10.401   7.438  73.221  1.00  0.00     0.000 HD 
BRANCH   4   6
HETATM    6  C   UNL     1     -11.520   8.805  72.142  1.00  0.00    -0.351 C  
BRANCH   6   7
HETATM    7  C   UNL     1     -10.203   9.340  71.524  1.00  0.00    -0.268 C  
HETATM    8  H   UNL     1      -8.303   8.926  71.709  1.00  0.00     0.000 HD 
HETATM    9  O   UNL     1      -9.110   8.598  72.087  1.00  0.00    -0.242 OA 
BRANCH   7  10
HETATM   10  C   UNL     1     -10.148   9.239  70.002  1.00  0.00    -0.240 A  
HETATM   11  C   UNL     1     -11.032   9.935  69.160  1.00  0.00    -0.233 A  
HETATM   12  C   UNL     1     -10.966   9.802  67.772  1.00  0.00    -0.242 A  
HETATM   13  C   UNL     1     -10.019   8.960  67.202  1.00  0.00    -0.226 A  
HETATM   14  C   UNL     1      -9.174   8.422  69.402  1.00  0.00    -0.154 A  
HETATM   15  C   UNL     1      -9.107   8.286  68.009  1.00  0.00    -0.139 A  
BRANCH  13  16
HETATM   16  N   UNL     1      -9.988   8.827  65.784  1.00  0.00    -0.411 N  
HETATM   17  H   UNL     1     -10.264   7.955  65.332  1.00  0.00     0.000 HD 
BRANCH  16  18
HETATM   18  S   UNL     1      -9.481  10.158  64.877  1.00  0.00    -0.311 S  
HETATM   19  O   UNL     1      -8.890   9.718  63.636  1.00  0.00    -0.206 OA 
HETATM   20  O   UNL     1     -10.602  11.076  64.890  1.00  0.00    -0.302 OA 
HETATM   21  C   UNL     1      -8.213  10.848  65.921  1.00  0.00    -0.133 C  
ENDBRANCH  16  18
ENDBRANCH  13  16
ENDBRANCH   7  10
ENDBRANCH   6   7
ENDBRANCH   4   6
ENDBRANCH   2   4
TORSDOF 6
ENDMDL
MODEL      146
REMARK 921   NORMALIZED FREE ENERGY PREDICTED BY IDOCK:   -3.46 KCAL/MOL
REMARK 922        TOTAL FREE ENERGY PREDICTED BY IDOCK:   -5.31 KCAL/MOL
REMARK 923 INTER-LIGAND FREE ENERGY PREDICTED BY IDOCK:   -4.98 KCAL/MOL
REMARK 924 INTRA-LIGAND FREE ENERGY PREDICTED BY IDOCK:   -0.33 KCAL/MOL
REMARK 927      BINDING AFFINITY PREDICTED BY RF-SCORE:    0.00 PKD
ROOT
HETATM    1  C   UNL     1     -10.598  19.424  66.897  1.00  0.00    -0.581 C  
HETATM    2  C   UNL     1      -9.879  18.103  67.167  1.00  0.00    -0.317 C  
HETATM    3  C   UNL     1      -9.796  17.863  68.677  1.00  0.00    -0.375 C  
ENDROOT
BRANCH   2   4
HETATM    4  N   UNL     1     -10.598  17.024  66.473  1.00  0.00    -0.229 NA 
HETATM    5  H   UNL     1     -10.238  16.890  65.528  1.00  0.00     0.000 HD 
BRANCH   4   6
HETATM    6  C   UNL     1     -10.580  15.765  67.231  1.00  0.00    -0.313 C  
BRANCH   6   7
HETATM    7  C   UNL     1     -11.138  14.548  66.451  1.00  0.00    -0.331 C  
HETATM    8  H   UNL     1     -11.047  13.908  64.608  1.00  0.00     0.000 HD 
HETATM    9  O   UNL     1     -10.706  14.653  65.086  1.00  0.00    -0.358 OA 
BRANCH   7  10
HETATM   10  C   UNL     1     -10.701  13.198  67.015  1.00  0.00    -0.270 A  
HETATM   11  C   UNL     1      -9.371  12.748  66.968  1.00  0.00    -0.229 A  
HETATM   12  C   UNL     1      -9.011  11.498  67.474  1.00  0.00    -0.159 A  
HETATM   13  C   UNL     1      -9.980  10.670  68.026  1.00  0.00    -0.160 A  
HETATM   14  C   UNL     1     -11.658  12.359  67.611  1.00  0.00    -0.421 A  
HETATM   15  C   UNL     1     -11.300  11.103  68.118  1.00  0.00    -0.377 A  
BRANCH  13  16
HETATM   16  N   UNL     1      -9.589   9.391  68.515  1.00  0.00    -0.145 N  
HETATM   17  H   UNL     1      -9.326   9.258  69.492  1.00  0.00     0.000 HD 
BRANCH  16  18
HETATM   18  S   UNL     1      -9.574   8.100  67.426  1.00  0.00    -0.172 S  
HETATM   19  O   UNL     1     -10.155   8.504  66.168  1.00  0.00    -0.221 OA 
HETATM   20  O   UNL     1      -8.230   7.562  67.493  1.00  0.00    -0.112 OA 
HETATM   21  C   UNL     1     -10.657   6.935  68.229  1.00  0.00    -0.215 C  
ENDBRANCH  16  18
ENDBRANCH  13  16
ENDBRANCH   7  10
ENDBRANCH   6   7
ENDBRANCH   4   6
ENDBRANCH   2   4
TORSDOF 6
ENDMDL
MODEL      147
REMARK 921   NORMALIZED FREE ENERGY PREDICTED BY IDOCK:   -3.45 KCAL/MOL
REMARK 922        TOTAL FREE ENERGY PREDICTED BY IDOCK:   -5.31 KCAL/MOL
REMARK 923 INTER-LIGAND FREE ENERGY PREDICTED BY IDOCK:   -5.12 KCAL/MOL
REMARK 924 INTRA-LIGAND FREE ENERGY PREDICTED BY IDOCK:   -0.18 KCAL/MOL
REMARK 927      BINDING AFFINITY PREDICTED BY RF-SCORE:    0.00 PKD
ROOT
HETATM    1  C   UNL     1      -6.303   7.619  66.374  1.00  0.00    -0.046 C  
HETATM    2  C   UNL     1      -7.784   7.765  66.028  1.00  0.00    -0.093 C  
HETATM    3  C   UNL     1      -8.102   6.947  64.774  1.00  0.00    -0.095 C  
ENDROOT
BRANCH   2   4
HETATM    4  N   UNL     1      -8.584   7.338  67.186  1.00  0.00    -0.120 NA 
HETATM    5  H   UNL     1      -8.126   6.579  67.691  1.00  0.00     0.000 HD 
BRANCH   4   6
HETATM    6  C   UNL     1      -8.904   8.456  68.085  1.00  0.00    -0.142 C  
BRANCH   6   7
HETATM    7  C   UNL     1     -10.378   8.928  68.009  1.00  0.00    -0.219 C  
HETATM    8  H   UNL     1     -11.798   9.291  69.301  1.00  0.00     0.000 HD 
HETATM    9  O   UNL     1     -10.895   9.002  69.347  1.00  0.00    -0.217 OA 
BRANCH   7  10
HETATM   10  C   UNL     1     -10.560  10.281  67.324  1.00  0.00    -0.324 A  
HETATM   11  C   UNL     1     -10.020  10.573  66.060  1.00  0.00    -0.295 A  
HETATM   12  C   UNL     1     -10.189  11.828  65.474  1.00  0.00    -0.291 A  
HETATM   13  C   UNL     1     -10.892  12.819  66.148  1.00  0.00    -0.279 A  
HETATM   14  C   UNL     1     -11.300  11.286  67.972  1.00  0.00    -0.372 A  
HETATM   15  C   UNL     1     -11.468  12.547  67.386  1.00  0.00    -0.404 A  
BRANCH  13  16
HETATM   16  N   UNL     1     -11.031  14.097  65.536  1.00  0.00    -0.300 N  
HETATM   17  H   UNL     1     -10.320  14.819  65.658  1.00  0.00     0.000 HD 
BRANCH  16  18
HETATM   18  S   UNL     1     -12.409  14.380  64.602  1.00  0.00    -0.352 S  
HETATM   19  O   UNL     1     -13.596  14.046  65.352  1.00  0.00    -0.593 OA 
HETATM   20  O   UNL     1     -12.223  15.703  64.042  1.00  0.00    -0.618 OA 
HETATM   21  C   UNL     1     -12.199  13.206  63.278  1.00  0.00    -0.360 C  
ENDBRANCH  16  18
ENDBRANCH  13  16
ENDBRANCH   7  10
ENDBRANCH   6   7
ENDBRANCH   4   6
ENDBRANCH   2   4
TORSDOF 6
ENDMDL
MODEL      148
REMARK 921   NORMALIZED FREE ENERGY PREDICTED BY IDOCK:   -3.45 KCAL/MOL
REMARK 922        TOTAL FREE ENERGY PREDICTED BY IDOCK:   -5.30 KCAL/MOL
REMARK 923 INTER-LIGAND FREE ENERGY PREDICTED BY IDOCK:   -5.13 KCAL/MOL
REMARK 924 INTRA-LIGAND FREE ENERGY PREDICTED BY IDOCK:   -0.17 KCAL/MOL
REMARK 927      BINDING AFFINITY PREDICTED BY RF-SCORE:    0.00 PKD
ROOT
HETATM    1  C   UNL     1      -8.626   6.398  65.556  1.00  0.00    -0.115 C  
HETATM    2  C   UNL     1      -8.376   7.905  65.557  1.00  0.00    -0.147 C  
HETATM    3  C   UNL     1      -7.621   8.302  64.286  1.00  0.00    -0.122 C  
ENDROOT
BRANCH   2   4
HETATM    4  N   UNL     1      -9.669   8.598  65.672  1.00  0.00    -0.438 NA 
HETATM    5  H   UNL     1     -10.441   7.933  65.713  1.00  0.00     0.000 HD 
BRANCH   4   6
HETATM    6  C   UNL     1      -9.705   9.525  66.813  1.00  0.00    -0.197 C  
BRANCH   6   7
HETATM    7  C   UNL     1      -9.314  10.982  66.458  1.00  0.00    -0.180 C  
HETATM    8  H   UNL     1      -9.251  12.054  64.827  1.00  0.00     0.000 HD 
HETATM    9  O   UNL     1      -9.490  11.162  65.045  1.00  0.00    -0.220 OA 
BRANCH   7  10
HETATM   10  C   UNL     1     -10.125  12.039  67.205  1.00  0.00    -0.217 A  
HETATM   11  C   UNL     1     -11.525  12.123  67.124  1.00  0.00    -0.413 A  
HETATM   12  C   UNL     1     -12.231  13.116  67.803  1.00  0.00    -0.124 A  
HETATM   13  C   UNL     1     -11.547  14.053  68.568  1.00  0.00    -0.322 A  
HETATM   14  C   UNL     1      -9.455  12.973  68.014  1.00  0.00    -0.217 A  
HETATM   15  C   UNL     1     -10.162  13.973  68.695  1.00  0.00    -0.233 A  
BRANCH  13  16
HETATM   16  N   UNL     1     -12.290  15.068  69.233  1.00  0.00    -0.578 N  
HETATM   17  H   UNL     1     -12.764  15.803  68.708  1.00  0.00     0.000 HD 
BRANCH  16  18
HETATM   18  S   UNL     1     -12.362  15.018  70.920  1.00  0.00    -0.369 S  
HETATM   19  O   UNL     1     -11.070  15.333  71.483  1.00  0.00    -0.357 OA 
HETATM   20  O   UNL     1     -13.540  15.783  71.273  1.00  0.00    -0.561 OA 
HETATM   21  C   UNL     1     -12.731  13.300  71.217  1.00  0.00    -0.323 C  
ENDBRANCH  16  18
ENDBRANCH  13  16
ENDBRANCH   7  10
ENDBRANCH   6   7
ENDBRANCH   4   6
ENDBRANCH   2   4
TORSDOF 6
ENDMDL
MODEL      149
REMARK 921   NORMALIZED FREE ENERGY PREDICTED BY IDOCK:   -3.45 KCAL/MOL
REMARK 922        TOTAL FREE ENERGY PREDICTED BY IDOCK:   -5.30 KCAL/MOL
REMARK 923 INTER-LIGAND FREE ENERGY PREDICTED BY IDOCK:   -5.00 KCAL/MOL
REMARK 924 INTRA-LIGAND FREE ENERGY PREDICTED BY IDOCK:   -0.30 KCAL/MOL
REMARK 927      BINDING AFFINITY PREDICTED BY RF-SCORE:    0.00 PKD
ROOT
HETATM    1  C   UNL     1      -6.563  10.680  69.117  1.00  0.00    -0.061 C  
HETATM    2  C   UNL     1      -7.351  11.783  68.414  1.00  0.00    -0.094 C  
HETATM    3  C   UNL     1      -6.437  12.524  67.435  1.00  0.00    -0.153 C  
ENDROOT
BRANCH   2   4
HETATM    4  N   UNL     1      -8.512  11.180  67.740  1.00  0.00    -0.121 NA 
HETATM    5  H   UNL     1      -8.480  10.161  67.793  1.00  0.00     0.000 HD 
BRANCH   4   6
HETATM    6  C   UNL     1      -9.787  11.699  68.254  1.00  0.00    -0.199 C  
BRANCH   6   7
HETATM    7  C   UNL     1     -10.714  12.294  67.163  1.00  0.00    -0.233 C  
HETATM    8  H   UNL     1     -12.639  12.342  66.840  1.00  0.00     0.000 HD 
HETATM    9  O   UNL     1     -12.072  11.978  67.508  1.00  0.00    -0.555 OA 
BRANCH   7  10
HETATM   10  C   UNL     1     -10.577  13.805  66.992  1.00  0.00    -0.278 A  
HETATM   11  C   UNL     1      -9.849  14.389  65.941  1.00  0.00    -0.336 A  
HETATM   12  C   UNL     1      -9.727  15.774  65.828  1.00  0.00    -0.372 A  
HETATM   13  C   UNL     1     -10.322  16.601  66.772  1.00  0.00    -0.295 A  
HETATM   14  C   UNL     1     -11.202  14.661  67.914  1.00  0.00    -0.318 A  
HETATM   15  C   UNL     1     -11.079  16.052  67.804  1.00  0.00    -0.273 A  
BRANCH  13  16
HETATM   16  N   UNL     1     -10.164  18.011  66.644  1.00  0.00    -0.356 N  
HETATM   17  H   UNL     1     -10.940  18.604  66.350  1.00  0.00     0.000 HD 
BRANCH  16  18
HETATM   18  S   UNL     1      -8.648  18.670  66.996  1.00  0.00    -0.283 S  
HETATM   19  O   UNL     1      -7.805  18.630  65.826  1.00  0.00    -0.493 OA 
HETATM   20  O   UNL     1      -8.926  19.917  67.679  1.00  0.00    -0.320 OA 
HETATM   21  C   UNL     1      -8.027  17.523  68.211  1.00  0.00    -0.259 C  
ENDBRANCH  16  18
ENDBRANCH  13  16
ENDBRANCH   7  10
ENDBRANCH   6   7
ENDBRANCH   4   6
ENDBRANCH   2   4
TORSDOF 6
ENDMDL
MODEL      150
REMARK 921   NORMALIZED FREE ENERGY PREDICTED BY IDOCK:   -3.43 KCAL/MOL
REMARK 922        TOTAL FREE ENERGY PREDICTED BY IDOCK:   -5.28 KCAL/MOL
REMARK 923 INTER-LIGAND FREE ENERGY PREDICTED BY IDOCK:   -4.95 KCAL/MOL
REMARK 924 INTRA-LIGAND FREE ENERGY PREDICTED BY IDOCK:   -0.34 KCAL/MOL
REMARK 927      BINDING AFFINITY PREDICTED BY RF-SCORE:    0.00 PKD
ROOT
HETATM    1  C   UNL     1     -13.880  14.809  71.844  1.00  0.00    -0.541 C  
HETATM    2  C   UNL     1     -12.615  15.525  71.374  1.00  0.00    -0.431 C  
HETATM    3  C   UNL     1     -11.962  16.244  72.557  1.00  0.00    -0.648 C  
ENDROOT
BRANCH   2   4
HETATM    4  N   UNL     1     -11.714  14.537  70.760  1.00  0.00    -0.416 NA 
HETATM    5  H   UNL     1     -11.617  13.710  71.350  1.00  0.00     0.000 HD 
BRANCH   4   6
HETATM    6  C   UNL     1     -12.131  14.172  69.399  1.00  0.00    -0.328 C  
BRANCH   6   7
HETATM    7  C   UNL     1     -11.011  14.309  68.336  1.00  0.00    -0.253 C  
HETATM    8  H   UNL     1      -9.273  15.194  68.242  1.00  0.00     0.000 HD 
HETATM    9  O   UNL     1      -9.958  15.110  68.893  1.00  0.00    -0.210 OA 
BRANCH   7  10
HETATM   10  C   UNL     1     -10.435  12.974  67.868  1.00  0.00    -0.234 A  
HETATM   11  C   UNL     1     -11.241  11.902  67.449  1.00  0.00    -0.366 A  
HETATM   12  C   UNL     1     -10.679  10.689  67.049  1.00  0.00    -0.317 A  
HETATM   13  C   UNL     1      -9.300  10.522  67.072  1.00  0.00    -0.155 A  
HETATM   14  C   UNL     1      -9.041  12.797  67.848  1.00  0.00    -0.204 A  
HETATM   15  C   UNL     1      -8.475  11.579  67.449  1.00  0.00    -0.147 A  
BRANCH  13  16
HETATM   16  N   UNL     1      -8.755   9.267  66.679  1.00  0.00    -0.126 N  
HETATM   17  H   UNL     1      -8.660   8.502  67.348  1.00  0.00     0.000 HD 
BRANCH  16  18
HETATM   18  S   UNL     1      -8.273   9.084  65.071  1.00  0.00    -0.162 S  
HETATM   19  O   UNL     1      -9.257   9.663  64.187  1.00  0.00    -0.248 OA 
HETATM   20  O   UNL     1      -6.890   9.514  65.038  1.00  0.00    -0.089 OA 
HETATM   21  C   UNL     1      -8.285   7.312  64.887  1.00  0.00    -0.073 C  
ENDBRANCH  16  18
ENDBRANCH  13  16
ENDBRANCH   7  10
ENDBRANCH   6   7
ENDBRANCH   4   6
ENDBRANCH   2   4
TORSDOF 6
ENDMDL
MODEL      151
REMARK 921   NORMALIZED FREE ENERGY PREDICTED BY IDOCK:   -3.42 KCAL/MOL
REMARK 922        TOTAL FREE ENERGY PREDICTED BY IDOCK:   -5.27 KCAL/MOL
REMARK 923 INTER-LIGAND FREE ENERGY PREDICTED BY IDOCK:   -4.89 KCAL/MOL
REMARK 924 INTRA-LIGAND FREE ENERGY PREDICTED BY IDOCK:   -0.38 KCAL/MOL
REMARK 927      BINDING AFFINITY PREDICTED BY RF-SCORE:    0.00 PKD
ROOT
HETATM    1  C   UNL     1      -8.159  19.576  67.951  1.00  0.00    -0.340 C  
HETATM    2  C   UNL     1      -8.365  19.884  66.469  1.00  0.00    -0.336 C  
HETATM    3  C   UNL     1      -7.008  20.104  65.797  1.00  0.00    -0.310 C  
ENDROOT
BRANCH   2   4
HETATM    4  N   UNL     1      -9.114  18.776  65.856  1.00  0.00    -0.408 NA 
HETATM    5  H   UNL     1      -8.483  18.097  65.429  1.00  0.00     0.000 HD 
BRANCH   4   6
HETATM    6  C   UNL     1     -10.027  18.126  66.808  1.00  0.00    -0.351 C  
BRANCH   6   7
HETATM    7  C   UNL     1     -10.985  17.094  66.161  1.00  0.00     0.193 C  
HETATM    8  H   UNL     1     -11.505  16.619  64.340  1.00  0.00     0.000 HD 
HETATM    9  O   UNL     1     -10.918  17.251  64.736  1.00  0.00    -0.950 OA 
BRANCH   7  10
HETATM   10  C   UNL     1     -10.668  15.644  66.523  1.00  0.00    -0.293 A  
HETATM   11  C   UNL     1     -10.491  15.212  67.848  1.00  0.00    -0.245 A  
HETATM   12  C   UNL     1     -10.182  13.882  68.140  1.00  0.00    -0.249 A  
HETATM   13  C   UNL     1     -10.032  12.964  67.109  1.00  0.00    -0.240 A  
HETATM   14  C   UNL     1     -10.549  14.690  65.498  1.00  0.00    -0.369 A  
HETATM   15  C   UNL     1     -10.236  13.356  65.788  1.00  0.00    -0.300 A  
BRANCH  13  16
HETATM   16  N   UNL     1      -9.694  11.619  67.434  1.00  0.00    -0.176 N  
HETATM   17  H   UNL     1     -10.376  10.994  67.863  1.00  0.00     0.000 HD 
BRANCH  16  18
HETATM   18  S   UNL     1      -8.127  11.093  67.086  1.00  0.00    -0.144 S  
HETATM   19  O   UNL     1      -8.138  10.223  65.934  1.00  0.00    -0.131 OA 
HETATM   20  O   UNL     1      -7.309  12.289  67.115  1.00  0.00    -0.148 OA 
HETATM   21  C   UNL     1      -7.732  10.141  68.540  1.00  0.00    -0.090 C  
ENDBRANCH  16  18
ENDBRANCH  13  16
ENDBRANCH   7  10
ENDBRANCH   6   7
ENDBRANCH   4   6
ENDBRANCH   2   4
TORSDOF 6
ENDMDL
MODEL      152
REMARK 921   NORMALIZED FREE ENERGY PREDICTED BY IDOCK:   -3.42 KCAL/MOL
REMARK 922        TOTAL FREE ENERGY PREDICTED BY IDOCK:   -5.27 KCAL/MOL
REMARK 923 INTER-LIGAND FREE ENERGY PREDICTED BY IDOCK:   -4.88 KCAL/MOL
REMARK 924 INTRA-LIGAND FREE ENERGY PREDICTED BY IDOCK:   -0.39 KCAL/MOL
REMARK 927      BINDING AFFINITY PREDICTED BY RF-SCORE:    0.00 PKD
ROOT
HETATM    1  C   UNL     1     -12.159  14.430  64.446  1.00  0.00    -0.491 C  
HETATM    2  C   UNL     1     -12.607  12.990  64.689  1.00  0.00    -0.362 C  
HETATM    3  C   UNL     1     -12.093  12.094  63.560  1.00  0.00    -0.649 C  
ENDROOT
BRANCH   2   4
HETATM    4  N   UNL     1     -12.116  12.558  66.007  1.00  0.00    -0.612 NA 
HETATM    5  H   UNL     1     -12.825  12.021  66.507  1.00  0.00     0.000 HD 
BRANCH   4   6
HETATM    6  C   UNL     1     -10.852  11.813  65.914  1.00  0.00    -0.291 C  
BRANCH   6   7
HETATM    7  C   UNL     1      -9.936  11.963  67.155  1.00  0.00    -0.194 C  
HETATM    8  H   UNL     1      -9.754  13.253  68.611  1.00  0.00     0.000 HD 
HETATM    9  O   UNL     1     -10.315  13.161  67.850  1.00  0.00    -0.221 OA 
BRANCH   7  10
HETATM   10  C   UNL     1     -10.001  10.780  68.119  1.00  0.00    -0.176 A  
HETATM   11  C   UNL     1     -11.121   9.937  68.216  1.00  0.00    -0.207 A  
HETATM   12  C   UNL     1     -11.152   8.878  69.124  1.00  0.00     0.111 A  
HETATM   13  C   UNL     1     -10.067   8.650  69.960  1.00  0.00    -0.189 A  
HETATM   14  C   UNL     1      -8.899  10.509  68.948  1.00  0.00    -0.166 A  
HETATM   15  C   UNL     1      -8.930   9.447  69.862  1.00  0.00    -0.215 A  
BRANCH  13  16
HETATM   16  N   UNL     1     -10.135   7.575  70.892  1.00  0.00    -0.192 N  
HETATM   17  H   UNL     1     -10.049   6.606  70.586  1.00  0.00     0.000 HD 
BRANCH  16  18
HETATM   18  S   UNL     1     -10.364   7.957  72.522  1.00  0.00    -0.313 S  
HETATM   19  O   UNL     1      -9.097   8.263  73.143  1.00  0.00    -0.259 OA 
HETATM   20  O   UNL     1     -11.457   8.908  72.540  1.00  0.00    -0.234 OA 
HETATM   21  C   UNL     1     -10.983   6.419  73.172  1.00  0.00    -0.220 C  
ENDBRANCH  16  18
ENDBRANCH  13  16
ENDBRANCH   7  10
ENDBRANCH   6   7
ENDBRANCH   4   6
ENDBRANCH   2   4
TORSDOF 6
ENDMDL
MODEL      153
REMARK 921   NORMALIZED FREE ENERGY PREDICTED BY IDOCK:   -3.42 KCAL/MOL
REMARK 922        TOTAL FREE ENERGY PREDICTED BY IDOCK:   -5.26 KCAL/MOL
REMARK 923 INTER-LIGAND FREE ENERGY PREDICTED BY IDOCK:   -4.72 KCAL/MOL
REMARK 924 INTRA-LIGAND FREE ENERGY PREDICTED BY IDOCK:   -0.54 KCAL/MOL
REMARK 927      BINDING AFFINITY PREDICTED BY RF-SCORE:    0.00 PKD
ROOT
HETATM    1  C   UNL     1     -11.932  13.076  67.528  1.00  0.00    -0.360 C  
HETATM    2  C   UNL     1     -11.160  13.754  68.658  1.00  0.00    -0.267 C  
HETATM    3  C   UNL     1     -11.969  13.670  69.955  1.00  0.00    -0.415 C  
ENDROOT
BRANCH   2   4
HETATM    4  N   UNL     1      -9.843  13.111  68.784  1.00  0.00    -0.420 NA 
HETATM    5  H   UNL     1      -9.813  12.487  69.591  1.00  0.00     0.000 HD 
BRANCH   4   6
HETATM    6  C   UNL     1      -9.447  12.408  67.556  1.00  0.00    -0.187 C  
BRANCH   6   7
HETATM    7  C   UNL     1      -8.685  11.081  67.803  1.00  0.00    -0.130 C  
HETATM    8  H   UNL     1      -6.832  10.580  68.164  1.00  0.00     0.000 HD 
HETATM    9  O   UNL     1      -7.299  11.392  68.013  1.00  0.00    -0.083 OA 
BRANCH   7  10
HETATM   10  C   UNL     1      -9.207  10.281  68.994  1.00  0.00    -0.188 A  
HETATM   11  C   UNL     1     -10.570   9.995  69.181  1.00  0.00    -0.240 A  
HETATM   12  C   UNL     1     -11.013   9.278  70.294  1.00  0.00    -0.286 A  
HETATM   13  C   UNL     1     -10.100   8.845  71.247  1.00  0.00    -0.295 A  
HETATM   14  C   UNL     1      -8.296   9.801  69.952  1.00  0.00    -0.198 A  
HETATM   15  C   UNL     1      -8.739   9.084  71.071  1.00  0.00    -0.280 A  
BRANCH  13  16
HETATM   16  N   UNL     1     -10.582   8.135  72.383  1.00  0.00    -0.298 N  
HETATM   17  H   UNL     1     -10.616   8.575  73.303  1.00  0.00     0.000 HD 
BRANCH  16  18
HETATM   18  S   UNL     1     -11.097   6.542  72.159  1.00  0.00    -0.274 S  
HETATM   19  O   UNL     1     -12.534   6.496  72.037  1.00  0.00    -0.327 OA 
HETATM   20  O   UNL     1     -10.238   6.008  71.121  1.00  0.00    -0.195 OA 
HETATM   21  C   UNL     1     -10.611   5.784  73.696  1.00  0.00    -0.276 C  
ENDBRANCH  16  18
ENDBRANCH  13  16
ENDBRANCH   7  10
ENDBRANCH   6   7
ENDBRANCH   4   6
ENDBRANCH   2   4
TORSDOF 6
ENDMDL
MODEL      154
REMARK 921   NORMALIZED FREE ENERGY PREDICTED BY IDOCK:   -3.41 KCAL/MOL
REMARK 922        TOTAL FREE ENERGY PREDICTED BY IDOCK:   -5.26 KCAL/MOL
REMARK 923 INTER-LIGAND FREE ENERGY PREDICTED BY IDOCK:   -4.62 KCAL/MOL
REMARK 924 INTRA-LIGAND FREE ENERGY PREDICTED BY IDOCK:   -0.64 KCAL/MOL
REMARK 927      BINDING AFFINITY PREDICTED BY RF-SCORE:    0.00 PKD
ROOT
HETATM    1  C   UNL     1     -10.818  18.613  67.342  1.00  0.00    -0.381 C  
HETATM    2  C   UNL     1      -9.401  19.176  67.249  1.00  0.00    -0.301 C  
HETATM    3  C   UNL     1      -9.450  20.705  67.304  1.00  0.00    -0.520 C  
ENDROOT
BRANCH   2   4
HETATM    4  N   UNL     1      -8.595  18.608  68.342  1.00  0.00    -0.329 NA 
HETATM    5  H   UNL     1      -9.094  17.853  68.813  1.00  0.00     0.000 HD 
BRANCH   4   6
HETATM    6  C   UNL     1      -7.270  18.165  67.885  1.00  0.00    -0.223 C  
BRANCH   6   7
HETATM    7  C   UNL     1      -7.308  17.199  66.674  1.00  0.00    -0.250 C  
HETATM    8  H   UNL     1      -5.981  16.373  65.502  1.00  0.00     0.000 HD 
HETATM    9  O   UNL     1      -5.958  16.964  66.244  1.00  0.00    -0.290 OA 
BRANCH   7  10
HETATM   10  C   UNL     1      -7.982  15.861  66.970  1.00  0.00    -0.270 A  
HETATM   11  C   UNL     1      -7.503  14.966  67.940  1.00  0.00    -0.153 A  
HETATM   12  C   UNL     1      -8.133  13.742  68.169  1.00  0.00    -0.155 A  
HETATM   13  C   UNL     1      -9.248  13.386  67.421  1.00  0.00    -0.213 A  
HETATM   14  C   UNL     1      -9.134  15.498  66.251  1.00  0.00    -0.369 A  
HETATM   15  C   UNL     1      -9.766  14.269  66.477  1.00  0.00    -0.304 A  
BRANCH  13  16
HETATM   16  N   UNL     1      -9.858  12.122  67.660  1.00  0.00    -0.191 N  
HETATM   17  H   UNL     1     -10.738  12.050  68.172  1.00  0.00     0.000 HD 
BRANCH  16  18
HETATM   18  S   UNL     1      -9.077  10.744  67.070  1.00  0.00    -0.145 S  
HETATM   19  O   UNL     1      -8.568  10.993  65.742  1.00  0.00    -0.180 OA 
HETATM   20  O   UNL     1      -8.202  10.315  68.141  1.00  0.00    -0.111 OA 
HETATM   21  C   UNL     1     -10.421   9.578  66.977  1.00  0.00    -0.232 C  
ENDBRANCH  16  18
ENDBRANCH  13  16
ENDBRANCH   7  10
ENDBRANCH   6   7
ENDBRANCH   4   6
ENDBRANCH   2   4
TORSDOF 6
ENDMDL
MODEL      155
REMARK 921   NORMALIZED FREE ENERGY PREDICTED BY IDOCK:   -3.39 KCAL/MOL
REMARK 922        TOTAL FREE ENERGY PREDICTED BY IDOCK:   -5.22 KCAL/MOL
REMARK 923 INTER-LIGAND FREE ENERGY PREDICTED BY IDOCK:   -5.17 KCAL/MOL
REMARK 924 INTRA-LIGAND FREE ENERGY PREDICTED BY IDOCK:   -0.06 KCAL/MOL
REMARK 927      BINDING AFFINITY PREDICTED BY RF-SCORE:    0.00 PKD
ROOT
HETATM    1  C   UNL     1      -7.634   6.449  64.551  1.00  0.00    -0.100 C  
HETATM    2  C   UNL     1      -7.682   7.957  64.315  1.00  0.00    -0.128 C  
HETATM    3  C   UNL     1      -7.366   8.258  62.848  1.00  0.00    -0.101 C  
ENDROOT
BRANCH   2   4
HETATM    4  N   UNL     1      -9.010   8.455  64.709  1.00  0.00    -0.396 NA 
HETATM    5  H   UNL     1      -9.536   7.741  65.213  1.00  0.00     0.000 HD 
BRANCH   4   6
HETATM    6  C   UNL     1      -8.930   9.702  65.484  1.00  0.00    -0.183 C  
BRANCH   6   7
HETATM    7  C   UNL     1      -9.367  10.964  64.698  1.00  0.00    -0.223 C  
HETATM    8  H   UNL     1     -10.439  11.317  63.104  1.00  0.00     0.000 HD 
HETATM    9  O   UNL     1     -10.171  10.544  63.586  1.00  0.00    -0.257 OA 
BRANCH   7  10
HETATM   10  C   UNL     1     -10.151  11.973  65.534  1.00  0.00    -0.281 A  
HETATM   11  C   UNL     1     -10.844  11.618  66.704  1.00  0.00    -0.327 A  
HETATM   12  C   UNL     1     -11.568  12.563  67.431  1.00  0.00    -0.434 A  
HETATM   13  C   UNL     1     -11.622  13.881  66.994  1.00  0.00    -0.369 A  
HETATM   14  C   UNL     1     -10.189  13.319  65.130  1.00  0.00    -0.301 A  
HETATM   15  C   UNL     1     -10.917  14.269  65.857  1.00  0.00    -0.304 A  
BRANCH  13  16
HETATM   16  N   UNL     1     -12.387  14.819  67.743  1.00  0.00    -0.518 N  
HETATM   17  H   UNL     1     -13.392  14.918  67.595  1.00  0.00     0.000 HD 
BRANCH  16  18
HETATM   18  S   UNL     1     -11.577  15.765  68.885  1.00  0.00    -0.382 S  
HETATM   19  O   UNL     1     -11.125  16.996  68.280  1.00  0.00    -0.337 OA 
HETATM   20  O   UNL     1     -12.437  15.773  70.050  1.00  0.00    -0.337 OA 
HETATM   21  C   UNL     1     -10.168  14.745  69.268  1.00  0.00    -0.185 C  
ENDBRANCH  16  18
ENDBRANCH  13  16
ENDBRANCH   7  10
ENDBRANCH   6   7
ENDBRANCH   4   6
ENDBRANCH   2   4
TORSDOF 6
ENDMDL
MODEL      156
REMARK 921   NORMALIZED FREE ENERGY PREDICTED BY IDOCK:   -3.38 KCAL/MOL
REMARK 922        TOTAL FREE ENERGY PREDICTED BY IDOCK:   -5.21 KCAL/MOL
REMARK 923 INTER-LIGAND FREE ENERGY PREDICTED BY IDOCK:   -4.97 KCAL/MOL
REMARK 924 INTRA-LIGAND FREE ENERGY PREDICTED BY IDOCK:   -0.24 KCAL/MOL
REMARK 927      BINDING AFFINITY PREDICTED BY RF-SCORE:    0.00 PKD
ROOT
HETATM    1  C   UNL     1     -10.599   3.345  63.490  1.00  0.00    -0.260 C  
HETATM    2  C   UNL     1     -10.067   3.539  64.908  1.00  0.00    -0.047 C  
HETATM    3  C   UNL     1      -8.566   3.834  64.858  1.00  0.00    -0.113 C  
ENDROOT
BRANCH   2   4
HETATM    4  N   UNL     1     -10.824   4.624  65.552  1.00  0.00    -0.794 NA 
HETATM    5  H   UNL     1     -11.609   4.256  66.090  1.00  0.00     0.000 HD 
BRANCH   4   6
HETATM    6  C   UNL     1      -9.968   5.483  66.383  1.00  0.00    -0.172 C  
BRANCH   6   7
HETATM    7  C   UNL     1     -10.705   6.152  67.571  1.00  0.00    -0.313 C  
HETATM    8  H   UNL     1     -10.669   5.976  69.516  1.00  0.00     0.000 HD 
HETATM    9  O   UNL     1     -10.217   5.567  68.788  1.00  0.00    -0.175 OA 
BRANCH   7  10
HETATM   10  C   UNL     1     -10.529   7.667  67.635  1.00  0.00    -0.313 A  
HETATM   11  C   UNL     1     -10.758   8.412  68.804  1.00  0.00    -0.086 A  
HETATM   12  C   UNL     1     -10.608   9.799  68.820  1.00  0.00    -0.244 A  
HETATM   13  C   UNL     1     -10.237  10.469  67.661  1.00  0.00    -0.197 A  
HETATM   14  C   UNL     1     -10.118   8.361  66.483  1.00  0.00    -0.317 A  
HETATM   15  C   UNL     1      -9.969   9.753  66.496  1.00  0.00    -0.304 A  
BRANCH  13  16
HETATM   16  N   UNL     1     -10.112  11.886  67.700  1.00  0.00    -0.189 N  
HETATM   17  H   UNL     1      -9.617  12.351  68.461  1.00  0.00     0.000 HD 
BRANCH  16  18
HETATM   18  S   UNL     1     -10.810  12.775  66.443  1.00  0.00    -0.277 S  
HETATM   19  O   UNL     1      -9.962  12.736  65.276  1.00  0.00    -0.262 OA 
HETATM   20  O   UNL     1     -12.188  12.332  66.385  1.00  0.00    -0.613 OA 
HETATM   21  C   UNL     1     -10.807  14.423  67.120  1.00  0.00    -0.292 C  
ENDBRANCH  16  18
ENDBRANCH  13  16
ENDBRANCH   7  10
ENDBRANCH   6   7
ENDBRANCH   4   6
ENDBRANCH   2   4
TORSDOF 6
ENDMDL
MODEL      157
REMARK 921   NORMALIZED FREE ENERGY PREDICTED BY IDOCK:   -3.37 KCAL/MOL
REMARK 922        TOTAL FREE ENERGY PREDICTED BY IDOCK:   -5.20 KCAL/MOL
REMARK 923 INTER-LIGAND FREE ENERGY PREDICTED BY IDOCK:   -4.63 KCAL/MOL
REMARK 924 INTRA-LIGAND FREE ENERGY PREDICTED BY IDOCK:   -0.57 KCAL/MOL
REMARK 927      BINDING AFFINITY PREDICTED BY RF-SCORE:    0.00 PKD
ROOT
HETATM    1  C   UNL     1     -10.360  11.910  63.720  1.00  0.00    -0.451 C  
HETATM    2  C   UNL     1      -9.724  10.560  63.394  1.00  0.00    -0.316 C  
HETATM    3  C   UNL     1      -8.324  10.778  62.814  1.00  0.00    -0.169 C  
ENDROOT
BRANCH   2   4
HETATM    4  N   UNL     1      -9.695   9.743  64.618  1.00  0.00    -0.427 NA 
HETATM    5  H   UNL     1      -9.450   8.775  64.409  1.00  0.00     0.000 HD 
BRANCH   4   6
HETATM    6  C   UNL     1      -8.806  10.307  65.644  1.00  0.00    -0.168 C  
BRANCH   6   7
HETATM    7  C   UNL     1      -9.449  10.411  67.050  1.00  0.00    -0.163 C  
HETATM    8  H   UNL     1      -8.922   9.925  68.867  1.00  0.00     0.000 HD 
HETATM    9  O   UNL     1      -8.529   9.861  68.005  1.00  0.00    -0.117 OA 
BRANCH   7  10
HETATM   10  C   UNL     1      -9.809  11.837  67.462  1.00  0.00    -0.195 A  
HETATM   11  C   UNL     1     -11.109  12.357  67.349  1.00  0.00    -0.320 A  
HETATM   12  C   UNL     1     -11.397  13.672  67.715  1.00  0.00    -0.336 A  
HETATM   13  C   UNL     1     -10.385  14.496  68.191  1.00  0.00    -0.232 A  
HETATM   14  C   UNL     1      -8.808  12.676  67.981  1.00  0.00    -0.195 A  
HETATM   15  C   UNL     1      -9.094  13.998  68.347  1.00  0.00    -0.191 A  
BRANCH  13  16
HETATM   16  N   UNL     1     -10.703  15.840  68.537  1.00  0.00    -0.261 N  
HETATM   17  H   UNL     1     -11.173  16.061  69.415  1.00  0.00     0.000 HD 
BRANCH  16  18
HETATM   18  S   UNL     1     -10.276  17.058  67.446  1.00  0.00    -0.322 S  
HETATM   19  O   UNL     1     -10.251  16.534  66.102  1.00  0.00    -0.316 OA 
HETATM   20  O   UNL     1     -11.111  18.189  67.796  1.00  0.00    -0.210 OA 
HETATM   21  C   UNL     1      -8.614  17.441  67.962  1.00  0.00    -0.240 C  
ENDBRANCH  16  18
ENDBRANCH  13  16
ENDBRANCH   7  10
ENDBRANCH   6   7
ENDBRANCH   4   6
ENDBRANCH   2   4
TORSDOF 6
ENDMDL
MODEL      158
REMARK 921   NORMALIZED FREE ENERGY PREDICTED BY IDOCK:   -3.37 KCAL/MOL
REMARK 922        TOTAL FREE ENERGY PREDICTED BY IDOCK:   -5.20 KCAL/MOL
REMARK 923 INTER-LIGAND FREE ENERGY PREDICTED BY IDOCK:   -4.83 KCAL/MOL
REMARK 924 INTRA-LIGAND FREE ENERGY PREDICTED BY IDOCK:   -0.36 KCAL/MOL
REMARK 927      BINDING AFFINITY PREDICTED BY RF-SCORE:    0.00 PKD
ROOT
HETATM    1  C   UNL     1     -10.831  16.995  65.074  1.00  0.00    -0.017 C  
HETATM    2  C   UNL     1     -10.587  15.498  65.249  1.00  0.00    -0.424 C  
HETATM    3  C   UNL     1      -9.205  15.271  65.867  1.00  0.00    -0.236 C  
ENDROOT
BRANCH   2   4
HETATM    4  N   UNL     1     -11.664  14.937  66.080  1.00  0.00    -0.241 NA 
HETATM    5  H   UNL     1     -12.431  14.590  65.504  1.00  0.00     0.000 HD 
BRANCH   4   6
HETATM    6  C   UNL     1     -11.176  13.898  66.998  1.00  0.00    -0.313 C  
BRANCH   6   7
HETATM    7  C   UNL     1     -12.086  12.646  67.078  1.00  0.00    -0.132 C  
HETATM    8  H   UNL     1     -12.622  11.227  65.848  1.00  0.00     0.000 HD 
HETATM    9  O   UNL     1     -12.065  11.993  65.799  1.00  0.00    -0.536 OA 
BRANCH   7  10
HETATM   10  C   UNL     1     -11.675  11.649  68.159  1.00  0.00    -0.365 A  
HETATM   11  C   UNL     1     -11.797  11.921  69.532  1.00  0.00    -0.395 A  
HETATM   12  C   UNL     1     -11.390  10.994  70.492  1.00  0.00    -0.116 A  
HETATM   13  C   UNL     1     -10.842   9.781  70.096  1.00  0.00    -0.291 A  
HETATM   14  C   UNL     1     -11.152  10.401  67.779  1.00  0.00    -0.365 A  
HETATM   15  C   UNL     1     -10.741   9.470  68.742  1.00  0.00    -0.218 A  
BRANCH  13  16
HETATM   16  N   UNL     1     -10.415   8.863  71.096  1.00  0.00    -0.242 N  
HETATM   17  H   UNL     1     -11.080   8.244  71.561  1.00  0.00     0.000 HD 
BRANCH  16  18
HETATM   18  S   UNL     1      -8.773   8.831  71.490  1.00  0.00    -0.171 S  
HETATM   19  O   UNL     1      -8.062   9.839  70.741  1.00  0.00    -0.271 OA 
HETATM   20  O   UNL     1      -8.730   8.803  72.938  1.00  0.00    -0.379 OA 
HETATM   21  C   UNL     1      -8.291   7.217  70.911  1.00  0.00    -0.121 C  
ENDBRANCH  16  18
ENDBRANCH  13  16
ENDBRANCH   7  10
ENDBRANCH   6   7
ENDBRANCH   4   6
ENDBRANCH   2   4
TORSDOF 6
ENDMDL
MODEL      159
REMARK 921   NORMALIZED FREE ENERGY PREDICTED BY IDOCK:   -3.37 KCAL/MOL
REMARK 922        TOTAL FREE ENERGY PREDICTED BY IDOCK:   -5.19 KCAL/MOL
REMARK 923 INTER-LIGAND FREE ENERGY PREDICTED BY IDOCK:   -4.83 KCAL/MOL
REMARK 924 INTRA-LIGAND FREE ENERGY PREDICTED BY IDOCK:   -0.36 KCAL/MOL
REMARK 927      BINDING AFFINITY PREDICTED BY RF-SCORE:    0.00 PKD
ROOT
HETATM    1  C   UNL     1      -7.832   5.129  72.455  1.00  0.00    -0.101 C  
HETATM    2  C   UNL     1      -8.955   4.927  71.440  1.00  0.00    -0.134 C  
HETATM    3  C   UNL     1     -10.167   4.299  72.133  1.00  0.00    -0.234 C  
ENDROOT
BRANCH   2   4
HETATM    4  N   UNL     1      -9.278   6.225  70.827  1.00  0.00    -0.154 NA 
HETATM    5  H   UNL     1      -9.227   6.174  69.809  1.00  0.00     0.000 HD 
BRANCH   4   6
HETATM    6  C   UNL     1     -10.582   6.741  71.268  1.00  0.00    -0.219 C  
BRANCH   6   7
HETATM    7  C   UNL     1     -10.545   8.207  71.768  1.00  0.00    -0.250 C  
HETATM    8  H   UNL     1      -9.202   9.379  72.565  1.00  0.00     0.000 HD 
HETATM    9  O   UNL     1      -9.224   8.481  72.259  1.00  0.00    -0.242 OA 
BRANCH   7  10
HETATM   10  C   UNL     1     -10.908   9.235  70.698  1.00  0.00    -0.339 A  
HETATM   11  C   UNL     1     -10.474   9.133  69.366  1.00  0.00    -0.226 A  
HETATM   12  C   UNL     1     -10.808  10.103  68.420  1.00  0.00    -0.284 A  
HETATM   13  C   UNL     1     -11.573  11.201  68.793  1.00  0.00    -0.322 A  
HETATM   14  C   UNL     1     -11.713  10.334  71.046  1.00  0.00    -0.461 A  
HETATM   15  C   UNL     1     -12.047  11.310  70.098  1.00  0.00    -0.448 A  
BRANCH  13  16
HETATM   16  N   UNL     1     -11.880  12.187  67.813  1.00  0.00    -0.317 N  
HETATM   17  H   UNL     1     -12.725  12.119  67.245  1.00  0.00     0.000 HD 
BRANCH  16  18
HETATM   18  S   UNL     1     -10.801  13.472  67.621  1.00  0.00    -0.264 S  
HETATM   19  O   UNL     1     -10.573  14.124  68.888  1.00  0.00    -0.244 OA 
HETATM   20  O   UNL     1      -9.702  12.932  66.847  1.00  0.00    -0.227 OA 
HETATM   21  C   UNL     1     -11.721  14.562  66.554  1.00  0.00    -0.368 C  
ENDBRANCH  16  18
ENDBRANCH  13  16
ENDBRANCH   7  10
ENDBRANCH   6   7
ENDBRANCH   4   6
ENDBRANCH   2   4
TORSDOF 6
ENDMDL
MODEL      160
REMARK 921   NORMALIZED FREE ENERGY PREDICTED BY IDOCK:   -3.36 KCAL/MOL
REMARK 922        TOTAL FREE ENERGY PREDICTED BY IDOCK:   -5.18 KCAL/MOL
REMARK 923 INTER-LIGAND FREE ENERGY PREDICTED BY IDOCK:   -4.97 KCAL/MOL
REMARK 924 INTRA-LIGAND FREE ENERGY PREDICTED BY IDOCK:   -0.21 KCAL/MOL
REMARK 927      BINDING AFFINITY PREDICTED BY RF-SCORE:    0.00 PKD
ROOT
HETATM    1  C   UNL     1      -6.150  19.472  66.992  1.00  0.00    -0.185 C  
HETATM    2  C   UNL     1      -7.151  18.530  67.658  1.00  0.00    -0.210 C  
HETATM    3  C   UNL     1      -7.501  19.054  69.052  1.00  0.00    -0.332 C  
ENDROOT
BRANCH   2   4
HETATM    4  N   UNL     1      -8.338  18.416  66.795  1.00  0.00    -0.251 NA 
HETATM    5  H   UNL     1      -8.276  17.597  66.189  1.00  0.00     0.000 HD 
BRANCH   4   6
HETATM    6  C   UNL     1      -9.589  18.412  67.566  1.00  0.00    -0.284 C  
BRANCH   6   7
HETATM    7  C   UNL     1     -10.681  17.471  66.996  1.00  0.00    -0.157 C  
HETATM    8  H   UNL     1     -11.243  16.899  65.215  1.00  0.00     0.000 HD 
HETATM    9  O   UNL     1     -10.574  17.476  65.564  1.00  0.00    -0.612 OA 
BRANCH   7  10
HETATM   10  C   UNL     1     -10.585  16.034  67.503  1.00  0.00    -0.313 A  
HETATM   11  C   UNL     1     -11.674  15.354  68.075  1.00  0.00    -0.235 A  
HETATM   12  C   UNL     1     -11.544  14.048  68.547  1.00  0.00    -0.357 A  
HETATM   13  C   UNL     1     -10.317  13.401  68.467  1.00  0.00    -0.236 A  
HETATM   14  C   UNL     1      -9.363  15.348  67.398  1.00  0.00    -0.205 A  
HETATM   15  C   UNL     1      -9.230  14.037  67.874  1.00  0.00    -0.195 A  
BRANCH  13  16
HETATM   16  N   UNL     1     -10.208  12.076  68.977  1.00  0.00    -0.420 N  
HETATM   17  H   UNL     1      -9.986  11.906  69.958  1.00  0.00     0.000 HD 
BRANCH  16  18
HETATM   18  S   UNL     1     -10.456  10.794  67.904  1.00  0.00    -0.215 S  
HETATM   19  O   UNL     1     -11.865  10.633  67.640  1.00  0.00    -0.411 OA 
HETATM   20  O   UNL     1      -9.511  11.012  66.828  1.00  0.00    -0.177 OA 
HETATM   21  C   UNL     1      -9.871   9.406  68.856  1.00  0.00    -0.171 C  
ENDBRANCH  16  18
ENDBRANCH  13  16
ENDBRANCH   7  10
ENDBRANCH   6   7
ENDBRANCH   4   6
ENDBRANCH   2   4
TORSDOF 6
ENDMDL
MODEL      161
REMARK 921   NORMALIZED FREE ENERGY PREDICTED BY IDOCK:   -3.34 KCAL/MOL
REMARK 922        TOTAL FREE ENERGY PREDICTED BY IDOCK:   -5.16 KCAL/MOL
REMARK 923 INTER-LIGAND FREE ENERGY PREDICTED BY IDOCK:   -4.78 KCAL/MOL
REMARK 924 INTRA-LIGAND FREE ENERGY PREDICTED BY IDOCK:   -0.38 KCAL/MOL
REMARK 927      BINDING AFFINITY PREDICTED BY RF-SCORE:    0.00 PKD
ROOT
HETATM    1  C   UNL     1     -13.906   8.880  72.239  1.00  0.00    -0.536 C  
HETATM    2  C   UNL     1     -12.781   9.514  71.423  1.00  0.00    -0.358 C  
HETATM    3  C   UNL     1     -12.870  11.038  71.523  1.00  0.00    -0.555 C  
ENDROOT
BRANCH   2   4
HETATM    4  N   UNL     1     -11.493   9.000  71.916  1.00  0.00    -0.367 NA 
HETATM    5  H   UNL     1     -11.587   8.609  72.854  1.00  0.00     0.000 HD 
BRANCH   4   6
HETATM    6  C   UNL     1     -10.891   8.027  70.993  1.00  0.00    -0.235 C  
BRANCH   6   7
HETATM    7  C   UNL     1      -9.602   8.530  70.296  1.00  0.00    -0.167 C  
HETATM    8  H   UNL     1      -7.809   7.817  69.989  1.00  0.00     0.000 HD 
HETATM    9  O   UNL     1      -8.599   7.509  70.416  1.00  0.00    -0.139 OA 
BRANCH   7  10
HETATM   10  C   UNL     1      -9.791   8.879  68.822  1.00  0.00    -0.182 A  
HETATM   11  C   UNL     1     -10.340  10.099  68.392  1.00  0.00    -0.210 A  
HETATM   12  C   UNL     1     -10.518  10.374  67.035  1.00  0.00    -0.309 A  
HETATM   13  C   UNL     1     -10.160   9.428  66.083  1.00  0.00    -0.254 A  
HETATM   14  C   UNL     1      -9.401   7.951  67.840  1.00  0.00    -0.150 A  
HETATM   15  C   UNL     1      -9.580   8.225  66.478  1.00  0.00    -0.312 A  
BRANCH  13  16
HETATM   16  N   UNL     1     -10.372   9.727  64.708  1.00  0.00    -0.101 N  
HETATM   17  H   UNL     1     -11.292   9.612  64.280  1.00  0.00     0.000 HD 
BRANCH  16  18
HETATM   18  S   UNL     1      -9.054  10.277  63.806  1.00  0.00    -0.277 S  
HETATM   19  O   UNL     1      -9.456  11.368  62.952  1.00  0.00    -0.368 OA 
HETATM   20  O   UNL     1      -7.977  10.430  64.763  1.00  0.00    -0.152 OA 
HETATM   21  C   UNL     1      -8.679   8.851  62.805  1.00  0.00    -0.111 C  
ENDBRANCH  16  18
ENDBRANCH  13  16
ENDBRANCH   7  10
ENDBRANCH   6   7
ENDBRANCH   4   6
ENDBRANCH   2   4
TORSDOF 6
ENDMDL
MODEL      162
REMARK 921   NORMALIZED FREE ENERGY PREDICTED BY IDOCK:   -3.34 KCAL/MOL
REMARK 922        TOTAL FREE ENERGY PREDICTED BY IDOCK:   -5.16 KCAL/MOL
REMARK 923 INTER-LIGAND FREE ENERGY PREDICTED BY IDOCK:   -4.73 KCAL/MOL
REMARK 924 INTRA-LIGAND FREE ENERGY PREDICTED BY IDOCK:   -0.43 KCAL/MOL
REMARK 927      BINDING AFFINITY PREDICTED BY RF-SCORE:    0.00 PKD
ROOT
HETATM    1  C   UNL     1      -7.295  10.046  69.079  1.00  0.00    -0.083 C  
HETATM    2  C   UNL     1      -7.346   9.124  70.296  1.00  0.00    -0.090 C  
HETATM    3  C   UNL     1      -6.188   9.454  71.240  1.00  0.00    -0.066 C  
ENDROOT
BRANCH   2   4
HETATM    4  N   UNL     1      -8.655   9.277  70.949  1.00  0.00    -0.251 NA 
HETATM    5  H   UNL     1      -8.868  10.260  71.122  1.00  0.00     0.000 HD 
BRANCH   4   6
HETATM    6  C   UNL     1      -9.735   8.625  70.194  1.00  0.00    -0.172 C  
BRANCH   6   7
HETATM    7  C   UNL     1     -11.134   8.758  70.847  1.00  0.00    -0.268 C  
HETATM    8  H   UNL     1     -11.885   8.438  72.621  1.00  0.00     0.000 HD 
HETATM    9  O   UNL     1     -11.028   8.356  72.221  1.00  0.00    -0.316 OA 
BRANCH   7  10
HETATM   10  C   UNL     1     -11.717  10.168  70.779  1.00  0.00    -0.446 A  
HETATM   11  C   UNL     1     -11.444  11.055  69.723  1.00  0.00    -0.387 A  
HETATM   12  C   UNL     1     -11.977  12.344  69.705  1.00  0.00    -0.359 A  
HETATM   13  C   UNL     1     -12.785  12.774  70.750  1.00  0.00    -0.136 A  
HETATM   14  C   UNL     1     -12.567  10.611  71.807  1.00  0.00    -0.411 A  
HETATM   15  C   UNL     1     -13.101  11.906  71.792  1.00  0.00    -0.465 A  
BRANCH  13  16
HETATM   16  N   UNL     1     -13.298  14.102  70.717  1.00  0.00    -0.288 N  
HETATM   17  H   UNL     1     -14.139  14.329  70.186  1.00  0.00     0.000 HD 
BRANCH  16  18
HETATM   18  S   UNL     1     -12.469  15.291  71.585  1.00  0.00    -0.404 S  
HETATM   19  O   UNL     1     -11.305  14.722  72.221  1.00  0.00    -0.105 OA 
HETATM   20  O   UNL     1     -12.354  16.413  70.676  1.00  0.00     0.082 OA 
HETATM   21  C   UNL     1     -13.665  15.732  72.829  1.00  0.00    -0.560 C  
ENDBRANCH  16  18
ENDBRANCH  13  16
ENDBRANCH   7  10
ENDBRANCH   6   7
ENDBRANCH   4   6
ENDBRANCH   2   4
TORSDOF 6
ENDMDL
MODEL      163
REMARK 921   NORMALIZED FREE ENERGY PREDICTED BY IDOCK:   -3.34 KCAL/MOL
REMARK 922        TOTAL FREE ENERGY PREDICTED BY IDOCK:   -5.16 KCAL/MOL
REMARK 923 INTER-LIGAND FREE ENERGY PREDICTED BY IDOCK:   -5.07 KCAL/MOL
REMARK 924 INTRA-LIGAND FREE ENERGY PREDICTED BY IDOCK:   -0.09 KCAL/MOL
REMARK 927      BINDING AFFINITY PREDICTED BY RF-SCORE:    0.00 PKD
ROOT
HETATM    1  C   UNL     1      -8.247   4.519  72.992  1.00  0.00    -0.099 C  
HETATM    2  C   UNL     1      -9.374   4.468  71.962  1.00  0.00    -0.139 C  
HETATM    3  C   UNL     1      -9.818   3.018  71.757  1.00  0.00    -0.230 C  
ENDROOT
BRANCH   2   4
HETATM    4  N   UNL     1     -10.476   5.326  72.425  1.00  0.00    -0.208 NA 
HETATM    5  H   UNL     1     -11.367   4.830  72.395  1.00  0.00     0.000 HD 
BRANCH   4   6
HETATM    6  C   UNL     1     -10.224   5.885  73.761  1.00  0.00    -0.241 C  
BRANCH   6   7
HETATM    7  C   UNL     1     -10.113   7.430  73.791  1.00  0.00    -0.278 C  
HETATM    8  H   UNL     1      -8.703   8.723  74.180  1.00  0.00     0.000 HD 
HETATM    9  O   UNL     1      -8.771   7.777  74.162  1.00  0.00    -0.250 OA 
BRANCH   7  10
HETATM   10  C   UNL     1     -10.457   8.100  72.462  1.00  0.00    -0.409 A  
HETATM   11  C   UNL     1      -9.494   8.375  71.477  1.00  0.00    -0.267 A  
HETATM   12  C   UNL     1      -9.842   9.009  70.283  1.00  0.00    -0.227 A  
HETATM   13  C   UNL     1     -11.158   9.391  70.058  1.00  0.00    -0.221 A  
HETATM   14  C   UNL     1     -11.790   8.461  72.199  1.00  0.00    -0.441 A  
HETATM   15  C   UNL     1     -12.140   9.099  71.002  1.00  0.00    -0.324 A  
BRANCH  13  16
HETATM   16  N   UNL     1     -11.481  10.055  68.841  1.00  0.00    -0.491 N  
HETATM   17  H   UNL     1     -11.836   9.538  68.037  1.00  0.00     0.000 HD 
BRANCH  16  18
HETATM   18  S   UNL     1     -11.256  11.728  68.772  1.00  0.00    -0.276 S  
HETATM   19  O   UNL     1      -9.848  12.043  68.809  1.00  0.00    -0.158 OA 
HETATM   20  O   UNL     1     -12.098  12.179  67.682  1.00  0.00    -0.522 OA 
HETATM   21  C   UNL     1     -12.020  12.260  70.292  1.00  0.00    -0.290 C  
ENDBRANCH  16  18
ENDBRANCH  13  16
ENDBRANCH   7  10
ENDBRANCH   6   7
ENDBRANCH   4   6
ENDBRANCH   2   4
TORSDOF 6
ENDMDL
MODEL      164
REMARK 921   NORMALIZED FREE ENERGY PREDICTED BY IDOCK:   -3.33 KCAL/MOL
REMARK 922        TOTAL FREE ENERGY PREDICTED BY IDOCK:   -5.15 KCAL/MOL
REMARK 923 INTER-LIGAND FREE ENERGY PREDICTED BY IDOCK:   -4.85 KCAL/MOL
REMARK 924 INTRA-LIGAND FREE ENERGY PREDICTED BY IDOCK:   -0.30 KCAL/MOL
REMARK 927      BINDING AFFINITY PREDICTED BY RF-SCORE:    0.00 PKD
ROOT
HETATM    1  C   UNL     1      -9.429   3.904  69.604  1.00  0.00    -0.263 C  
HETATM    2  C   UNL     1     -10.200   5.103  69.054  1.00  0.00    -0.171 C  
HETATM    3  C   UNL     1     -10.832   5.881  70.211  1.00  0.00    -0.391 C  
ENDROOT
BRANCH   2   4
HETATM    4  N   UNL     1      -9.280   5.934  68.264  1.00  0.00    -0.117 NA 
HETATM    5  H   UNL     1      -9.037   5.481  67.383  1.00  0.00     0.000 HD 
BRANCH   4   6
HETATM    6  C   UNL     1      -9.807   7.288  68.036  1.00  0.00    -0.145 C  
BRANCH   6   7
HETATM    7  C   UNL     1      -9.037   8.094  66.960  1.00  0.00    -0.143 C  
HETATM    8  H   UNL     1      -8.364   7.738  65.161  1.00  0.00     0.000 HD 
HETATM    9  O   UNL     1      -8.836   7.245  65.820  1.00  0.00    -0.144 OA 
BRANCH   7  10
HETATM   10  C   UNL     1      -9.747   9.371  66.517  1.00  0.00    -0.299 A  
HETATM   11  C   UNL     1     -10.627  10.082  67.352  1.00  0.00    -0.330 A  
HETATM   12  C   UNL     1     -11.276  11.234  66.905  1.00  0.00    -0.300 A  
HETATM   13  C   UNL     1     -11.065  11.689  65.610  1.00  0.00    -0.249 A  
HETATM   14  C   UNL     1      -9.520   9.871  65.223  1.00  0.00    -0.331 A  
HETATM   15  C   UNL     1     -10.172  11.026  64.772  1.00  0.00    -0.381 A  
BRANCH  13  16
HETATM   16  N   UNL     1     -11.757  12.855  65.173  1.00  0.00    -0.331 N  
HETATM   17  H   UNL     1     -12.640  12.784  64.667  1.00  0.00     0.000 HD 
BRANCH  16  18
HETATM   18  S   UNL     1     -11.068  14.358  65.520  1.00  0.00    -0.342 S  
HETATM   19  O   UNL     1      -9.655  14.211  65.772  1.00  0.00    -0.242 OA 
HETATM   20  O   UNL     1     -11.558  15.247  64.486  1.00  0.00    -0.395 OA 
HETATM   21  C   UNL     1     -11.896  14.795  67.036  1.00  0.00    -0.271 C  
ENDBRANCH  16  18
ENDBRANCH  13  16
ENDBRANCH   7  10
ENDBRANCH   6   7
ENDBRANCH   4   6
ENDBRANCH   2   4
TORSDOF 6
ENDMDL
MODEL      165
REMARK 921   NORMALIZED FREE ENERGY PREDICTED BY IDOCK:   -3.33 KCAL/MOL
REMARK 922        TOTAL FREE ENERGY PREDICTED BY IDOCK:   -5.14 KCAL/MOL
REMARK 923 INTER-LIGAND FREE ENERGY PREDICTED BY IDOCK:   -4.95 KCAL/MOL
REMARK 924 INTRA-LIGAND FREE ENERGY PREDICTED BY IDOCK:   -0.20 KCAL/MOL
REMARK 927      BINDING AFFINITY PREDICTED BY RF-SCORE:    0.00 PKD
ROOT
HETATM    1  C   UNL     1     -14.356   8.338  71.824  1.00  0.00    -0.574 C  
HETATM    2  C   UNL     1     -13.014   8.971  71.462  1.00  0.00    -0.337 C  
HETATM    3  C   UNL     1     -13.082  10.483  71.689  1.00  0.00    -0.551 C  
ENDROOT
BRANCH   2   4
HETATM    4  N   UNL     1     -11.959   8.337  72.268  1.00  0.00    -0.364 NA 
HETATM    5  H   UNL     1     -12.056   8.576  73.255  1.00  0.00     0.000 HD 
BRANCH   4   6
HETATM    6  C   UNL     1     -11.911   6.880  72.076  1.00  0.00    -0.306 C  
BRANCH   6   7
HETATM    7  C   UNL     1     -10.514   6.340  71.678  1.00  0.00    -0.217 C  
HETATM    8  H   UNL     1      -9.562   4.646  71.878  1.00  0.00     0.000 HD 
HETATM    9  O   UNL     1     -10.418   4.978  72.121  1.00  0.00    -0.210 OA 
BRANCH   7  10
HETATM   10  C   UNL     1     -10.230   6.403  70.179  1.00  0.00    -0.229 A  
HETATM   11  C   UNL     1     -11.200   6.105  69.207  1.00  0.00    -0.438 A  
HETATM   12  C   UNL     1     -10.898   6.153  67.846  1.00  0.00    -0.406 A  
HETATM   13  C   UNL     1      -9.615   6.489  67.432  1.00  0.00    -0.125 A  
HETATM   14  C   UNL     1      -8.949   6.777  69.738  1.00  0.00    -0.144 A  
HETATM   15  C   UNL     1      -8.643   6.824  68.371  1.00  0.00    -0.125 A  
BRANCH  13  16
HETATM   16  N   UNL     1      -9.329   6.508  66.037  1.00  0.00    -0.355 N  
HETATM   17  H   UNL     1      -9.333   7.382  65.511  1.00  0.00     0.000 HD 
BRANCH  16  18
HETATM   18  S   UNL     1      -8.982   5.038  65.282  1.00  0.00    -0.131 S  
HETATM   19  O   UNL     1     -10.147   4.186  65.293  1.00  0.00    -0.207 OA 
HETATM   20  O   UNL     1      -8.326   5.394  64.040  1.00  0.00    -0.135 OA 
HETATM   21  C   UNL     1      -7.742   4.356  66.365  1.00  0.00    -0.094 C  
ENDBRANCH  16  18
ENDBRANCH  13  16
ENDBRANCH   7  10
ENDBRANCH   6   7
ENDBRANCH   4   6
ENDBRANCH   2   4
TORSDOF 6
ENDMDL
MODEL      166
REMARK 921   NORMALIZED FREE ENERGY PREDICTED BY IDOCK:   -3.32 KCAL/MOL
REMARK 922        TOTAL FREE ENERGY PREDICTED BY IDOCK:   -5.13 KCAL/MOL
REMARK 923 INTER-LIGAND FREE ENERGY PREDICTED BY IDOCK:   -5.10 KCAL/MOL
REMARK 924 INTRA-LIGAND FREE ENERGY PREDICTED BY IDOCK:   -0.03 KCAL/MOL
REMARK 927      BINDING AFFINITY PREDICTED BY RF-SCORE:    0.00 PKD
ROOT
HETATM    1  C   UNL     1      -7.724   7.910  64.181  1.00  0.00    -0.132 C  
HETATM    2  C   UNL     1      -8.620   8.394  65.319  1.00  0.00    -0.150 C  
HETATM    3  C   UNL     1      -8.054   7.917  66.658  1.00  0.00    -0.107 C  
ENDROOT
BRANCH   2   4
HETATM    4  N   UNL     1      -8.720   9.861  65.250  1.00  0.00    -0.150 NA 
HETATM    5  H   UNL     1      -8.116  10.237  64.519  1.00  0.00     0.000 HD 
BRANCH   4   6
HETATM    6  C   UNL     1     -10.106  10.318  65.080  1.00  0.00    -0.285 C  
BRANCH   6   7
HETATM    7  C   UNL     1     -10.242  11.655  64.308  1.00  0.00    -0.311 C  
HETATM    8  H   UNL     1     -11.500  12.399  63.012  1.00  0.00     0.000 HD 
HETATM    9  O   UNL     1     -11.416  11.580  63.486  1.00  0.00    -0.404 OA 
BRANCH   7  10
HETATM   10  C   UNL     1     -10.337  12.883  65.210  1.00  0.00    -0.315 A  
HETATM   11  C   UNL     1      -9.810  12.915  66.512  1.00  0.00    -0.254 A  
HETATM   12  C   UNL     1      -9.934  14.049  67.316  1.00  0.00    -0.242 A  
HETATM   13  C   UNL     1     -10.599  15.170  66.835  1.00  0.00    -0.297 A  
HETATM   14  C   UNL     1     -10.973  14.041  64.730  1.00  0.00    -0.410 A  
HETATM   15  C   UNL     1     -11.101  15.180  65.536  1.00  0.00    -0.347 A  
BRANCH  13  16
HETATM   16  N   UNL     1     -10.730  16.305  67.684  1.00  0.00    -0.318 N  
HETATM   17  H   UNL     1     -11.389  16.307  68.463  1.00  0.00     0.000 HD 
BRANCH  16  18
HETATM   18  S   UNL     1      -9.758  17.649  67.361  1.00  0.00    -0.292 S  
HETATM   19  O   UNL     1      -9.763  17.938  65.947  1.00  0.00    -0.530 OA 
HETATM   20  O   UNL     1     -10.156  18.647  68.333  1.00  0.00    -0.356 OA 
HETATM   21  C   UNL     1      -8.147  17.054  67.836  1.00  0.00    -0.195 C  
ENDBRANCH  16  18
ENDBRANCH  13  16
ENDBRANCH   7  10
ENDBRANCH   6   7
ENDBRANCH   4   6
ENDBRANCH   2   4
TORSDOF 6
ENDMDL
MODEL      167
REMARK 921   NORMALIZED FREE ENERGY PREDICTED BY IDOCK:   -3.31 KCAL/MOL
REMARK 922        TOTAL FREE ENERGY PREDICTED BY IDOCK:   -5.11 KCAL/MOL
REMARK 923 INTER-LIGAND FREE ENERGY PREDICTED BY IDOCK:   -4.46 KCAL/MOL
REMARK 924 INTRA-LIGAND FREE ENERGY PREDICTED BY IDOCK:   -0.65 KCAL/MOL
REMARK 927      BINDING AFFINITY PREDICTED BY RF-SCORE:    0.00 PKD
ROOT
HETATM    1  C   UNL     1      -8.107   5.823  72.610  1.00  0.00    -0.105 C  
HETATM    2  C   UNL     1      -8.778   6.799  73.574  1.00  0.00    -0.127 C  
HETATM    3  C   UNL     1      -8.436   8.235  73.172  1.00  0.00    -0.265 C  
ENDROOT
BRANCH   2   4
HETATM    4  N   UNL     1     -10.228   6.550  73.565  1.00  0.00    -0.236 NA 
HETATM    5  H   UNL     1     -10.604   6.528  74.513  1.00  0.00     0.000 HD 
BRANCH   4   6
HETATM    6  C   UNL     1     -10.954   7.517  72.729  1.00  0.00    -0.359 C  
BRANCH   6   7
HETATM    7  C   UNL     1     -11.840   6.868  71.635  1.00  0.00    -0.324 C  
HETATM    8  H   UNL     1     -13.722   6.964  71.122  1.00  0.00     0.000 HD 
HETATM    9  O   UNL     1     -13.179   7.361  71.791  1.00  0.00    -0.348 OA 
BRANCH   7  10
HETATM   10  C   UNL     1     -11.365   7.144  70.210  1.00  0.00    -0.305 A  
HETATM   11  C   UNL     1     -11.244   6.135  69.239  1.00  0.00    -0.438 A  
HETATM   12  C   UNL     1     -10.786   6.421  67.952  1.00  0.00    -0.404 A  
HETATM   13  C   UNL     1     -10.430   7.721  67.616  1.00  0.00    -0.239 A  
HETATM   14  C   UNL     1     -11.035   8.458  69.838  1.00  0.00    -0.166 A  
HETATM   15  C   UNL     1     -10.573   8.747  68.547  1.00  0.00    -0.171 A  
BRANCH  13  16
HETATM   16  N   UNL     1      -9.945   7.980  66.303  1.00  0.00    -0.476 N  
HETATM   17  H   UNL     1     -10.509   8.496  65.626  1.00  0.00     0.000 HD 
BRANCH  16  18
HETATM   18  S   UNL     1      -8.408   7.407  65.901  1.00  0.00    -0.144 S  
HETATM   19  O   UNL     1      -7.551   7.424  67.063  1.00  0.00    -0.101 OA 
HETATM   20  O   UNL     1      -8.641   6.185  65.159  1.00  0.00    -0.132 OA 
HETATM   21  C   UNL     1      -7.853   8.639  64.741  1.00  0.00    -0.123 C  
ENDBRANCH  16  18
ENDBRANCH  13  16
ENDBRANCH   7  10
ENDBRANCH   6   7
ENDBRANCH   4   6
ENDBRANCH   2   4
TORSDOF 6
ENDMDL
MODEL      168
REMARK 921   NORMALIZED FREE ENERGY PREDICTED BY IDOCK:   -3.30 KCAL/MOL
REMARK 922        TOTAL FREE ENERGY PREDICTED BY IDOCK:   -5.10 KCAL/MOL
REMARK 923 INTER-LIGAND FREE ENERGY PREDICTED BY IDOCK:   -5.49 KCAL/MOL
REMARK 924 INTRA-LIGAND FREE ENERGY PREDICTED BY IDOCK:    0.39 KCAL/MOL
REMARK 927      BINDING AFFINITY PREDICTED BY RF-SCORE:    0.00 PKD
ROOT
HETATM    1  C   UNL     1     -11.757  14.414  64.704  1.00  0.00    -0.438 C  
HETATM    2  C   UNL     1     -12.602  13.155  64.888  1.00  0.00    -0.407 C  
HETATM    3  C   UNL     1     -12.532  12.300  63.620  1.00  0.00    -0.647 C  
ENDROOT
BRANCH   2   4
HETATM    4  N   UNL     1     -12.119  12.430  66.073  1.00  0.00    -0.638 NA 
HETATM    5  H   UNL     1     -12.665  11.584  66.235  1.00  0.00     0.000 HD 
BRANCH   4   6
HETATM    6  C   UNL     1     -10.683  12.128  65.994  1.00  0.00    -0.273 C  
BRANCH   6   7
HETATM    7  C   UNL     1     -10.355  10.793  65.279  1.00  0.00    -0.258 C  
HETATM    8  H   UNL     1      -9.044  10.200  63.958  1.00  0.00     0.000 HD 
HETATM    9  O   UNL     1      -9.245  11.018  64.396  1.00  0.00    -0.204 OA 
BRANCH   7  10
HETATM   10  C   UNL     1     -10.017   9.648  66.230  1.00  0.00    -0.335 A  
HETATM   11  C   UNL     1      -9.133   8.610  65.889  1.00  0.00    -0.259 A  
HETATM   12  C   UNL     1      -8.864   7.567  66.777  1.00  0.00    -0.153 A  
HETATM   13  C   UNL     1      -9.484   7.538  68.020  1.00  0.00    -0.142 A  
HETATM   14  C   UNL     1     -10.604   9.619  67.507  1.00  0.00    -0.339 A  
HETATM   15  C   UNL     1     -10.337   8.572  68.399  1.00  0.00    -0.241 A  
BRANCH  13  16
HETATM   16  N   UNL     1      -9.208   6.451  68.897  1.00  0.00    -0.128 N  
HETATM   17  H   UNL     1      -8.398   5.849  68.751  1.00  0.00     0.000 HD 
BRANCH  16  18
HETATM   18  S   UNL     1     -10.265   6.192  70.189  1.00  0.00    -0.214 S  
HETATM   19  O   UNL     1      -9.925   7.057  71.292  1.00  0.00    -0.189 OA 
HETATM   20  O   UNL     1     -11.591   6.208  69.604  1.00  0.00    -0.407 OA 
HETATM   21  C   UNL     1      -9.896   4.505  70.627  1.00  0.00    -0.222 C  
ENDBRANCH  16  18
ENDBRANCH  13  16
ENDBRANCH   7  10
ENDBRANCH   6   7
ENDBRANCH   4   6
ENDBRANCH   2   4
TORSDOF 6
ENDMDL
MODEL      169
REMARK 921   NORMALIZED FREE ENERGY PREDICTED BY IDOCK:   -3.30 KCAL/MOL
REMARK 922        TOTAL FREE ENERGY PREDICTED BY IDOCK:   -5.10 KCAL/MOL
REMARK 923 INTER-LIGAND FREE ENERGY PREDICTED BY IDOCK:   -4.82 KCAL/MOL
REMARK 924 INTRA-LIGAND FREE ENERGY PREDICTED BY IDOCK:   -0.28 KCAL/MOL
REMARK 927      BINDING AFFINITY PREDICTED BY RF-SCORE:    0.00 PKD
ROOT
HETATM    1  C   UNL     1      -8.113   6.433  69.204  1.00  0.00    -0.111 C  
HETATM    2  C   UNL     1      -8.063   7.928  69.513  1.00  0.00    -0.121 C  
HETATM    3  C   UNL     1      -7.721   8.705  68.239  1.00  0.00    -0.101 C  
ENDROOT
BRANCH   2   4
HETATM    4  N   UNL     1      -9.357   8.337  70.081  1.00  0.00    -0.158 NA 
HETATM    5  H   UNL     1      -9.471   7.983  71.031  1.00  0.00     0.000 HD 
BRANCH   4   6
HETATM    6  C   UNL     1      -9.554   9.792  70.030  1.00  0.00    -0.241 C  
BRANCH   6   7
HETATM    7  C   UNL     1     -10.930  10.226  69.463  1.00  0.00    -0.258 C  
HETATM    8  H   UNL     1     -12.599  10.907  70.214  1.00  0.00     0.000 HD 
HETATM    9  O   UNL     1     -11.756  10.642  70.561  1.00  0.00    -0.308 OA 
BRANCH   7  10
HETATM   10  C   UNL     1     -10.849  11.354  68.438  1.00  0.00    -0.248 A  
HETATM   11  C   UNL     1     -11.984  12.026  67.953  1.00  0.00    -0.204 A  
HETATM   12  C   UNL     1     -11.874  13.039  67.000  1.00  0.00    -0.437 A  
HETATM   13  C   UNL     1     -10.625  13.391  66.504  1.00  0.00    -0.287 A  
HETATM   14  C   UNL     1      -9.592  11.752  67.951  1.00  0.00    -0.187 A  
HETATM   15  C   UNL     1      -9.479  12.767  66.992  1.00  0.00    -0.233 A  
BRANCH  13  16
HETATM   16  N   UNL     1     -10.544  14.413  65.516  1.00  0.00    -0.326 N  
HETATM   17  H   UNL     1     -10.849  14.243  64.557  1.00  0.00     0.000 HD 
BRANCH  16  18
HETATM   18  S   UNL     1      -9.925  15.914  65.982  1.00  0.00    -0.360 S  
HETATM   19  O   UNL     1      -8.515  15.803  66.271  1.00  0.00    -0.298 OA 
HETATM   20  O   UNL     1     -10.417  16.851  64.992  1.00  0.00    -0.675 OA 
HETATM   21  C   UNL     1     -10.815  16.220  67.495  1.00  0.00    -0.268 C  
ENDBRANCH  16  18
ENDBRANCH  13  16
ENDBRANCH   7  10
ENDBRANCH   6   7
ENDBRANCH   4   6
ENDBRANCH   2   4
TORSDOF 6
ENDMDL
MODEL      170
REMARK 921   NORMALIZED FREE ENERGY PREDICTED BY IDOCK:   -3.29 KCAL/MOL
REMARK 922        TOTAL FREE ENERGY PREDICTED BY IDOCK:   -5.09 KCAL/MOL
REMARK 923 INTER-LIGAND FREE ENERGY PREDICTED BY IDOCK:   -5.12 KCAL/MOL
REMARK 924 INTRA-LIGAND FREE ENERGY PREDICTED BY IDOCK:    0.04 KCAL/MOL
REMARK 927      BINDING AFFINITY PREDICTED BY RF-SCORE:    0.00 PKD
ROOT
HETATM    1  C   UNL     1     -14.382   8.339  71.814  1.00  0.00    -0.574 C  
HETATM    2  C   UNL     1     -13.035   8.996  71.515  1.00  0.00    -0.337 C  
HETATM    3  C   UNL     1     -13.100  10.484  71.865  1.00  0.00    -0.567 C  
ENDROOT
BRANCH   2   4
HETATM    4  N   UNL     1     -11.989   8.293  72.273  1.00  0.00    -0.364 NA 
HETATM    5  H   UNL     1     -12.111   8.423  73.278  1.00  0.00     0.000 HD 
BRANCH   4   6
HETATM    6  C   UNL     1     -11.913   6.866  71.928  1.00  0.00    -0.327 C  
BRANCH   6   7
HETATM    7  C   UNL     1     -10.515   6.406  71.442  1.00  0.00    -0.218 C  
HETATM    8  H   UNL     1      -9.537   4.716  71.398  1.00  0.00     0.000 HD 
HETATM    9  O   UNL     1     -10.393   4.998  71.696  1.00  0.00    -0.204 OA 
BRANCH   7  10
HETATM   10  C   UNL     1     -10.256   6.675  69.961  1.00  0.00    -0.215 A  
HETATM   11  C   UNL     1     -11.174   6.336  68.953  1.00  0.00    -0.387 A  
HETATM   12  C   UNL     1     -10.893   6.578  67.608  1.00  0.00    -0.419 A  
HETATM   13  C   UNL     1      -9.682   7.152  67.245  1.00  0.00    -0.155 A  
HETATM   14  C   UNL     1      -9.051   7.289  69.575  1.00  0.00    -0.143 A  
HETATM   15  C   UNL     1      -8.767   7.530  68.225  1.00  0.00    -0.123 A  
BRANCH  13  16
HETATM   16  N   UNL     1      -9.412   7.367  65.864  1.00  0.00    -0.403 N  
HETATM   17  H   UNL     1      -9.652   6.663  65.165  1.00  0.00     0.000 HD 
BRANCH  16  18
HETATM   18  S   UNL     1      -8.682   8.824  65.419  1.00  0.00    -0.168 S  
HETATM   19  O   UNL     1      -7.520   9.069  66.240  1.00  0.00    -0.090 OA 
HETATM   20  O   UNL     1      -8.583   8.773  63.974  1.00  0.00    -0.156 OA 
HETATM   21  C   UNL     1      -9.951  10.006  65.826  1.00  0.00    -0.276 C  
ENDBRANCH  16  18
ENDBRANCH  13  16
ENDBRANCH   7  10
ENDBRANCH   6   7
ENDBRANCH   4   6
ENDBRANCH   2   4
TORSDOF 6
ENDMDL
MODEL      171
REMARK 921   NORMALIZED FREE ENERGY PREDICTED BY IDOCK:   -3.28 KCAL/MOL
REMARK 922        TOTAL FREE ENERGY PREDICTED BY IDOCK:   -5.08 KCAL/MOL
REMARK 923 INTER-LIGAND FREE ENERGY PREDICTED BY IDOCK:   -4.70 KCAL/MOL
REMARK 924 INTRA-LIGAND FREE ENERGY PREDICTED BY IDOCK:   -0.38 KCAL/MOL
REMARK 927      BINDING AFFINITY PREDICTED BY RF-SCORE:    0.00 PKD
ROOT
HETATM    1  C   UNL     1     -12.230  14.657  64.373  1.00  0.00    -0.473 C  
HETATM    2  C   UNL     1     -11.543  13.304  64.552  1.00  0.00    -0.369 C  
HETATM    3  C   UNL     1     -11.881  12.396  63.367  1.00  0.00    -0.571 C  
ENDROOT
BRANCH   2   4
HETATM    4  N   UNL     1     -10.095  13.523  64.686  1.00  0.00    -0.630 NA 
HETATM    5  H   UNL     1      -9.898  14.366  65.227  1.00  0.00     0.000 HD 
BRANCH   4   6
HETATM    6  C   UNL     1      -9.404  12.356  65.253  1.00  0.00     0.237 C  
BRANCH   6   7
HETATM    7  C   UNL     1      -9.054  12.495  66.756  1.00  0.00    -0.214 C  
HETATM    8  H   UNL     1      -9.326  13.851  68.135  1.00  0.00     0.000 HD 
HETATM    9  O   UNL     1      -9.540  13.766  67.214  1.00  0.00    -0.224 OA 
BRANCH   7  10
HETATM   10  C   UNL     1      -9.637  11.388  67.632  1.00  0.00    -0.176 A  
HETATM   11  C   UNL     1      -8.941  10.830  68.718  1.00  0.00    -0.171 A  
HETATM   12  C   UNL     1      -9.497   9.804  69.483  1.00  0.00    -0.226 A  
HETATM   13  C   UNL     1     -10.757   9.310  69.169  1.00  0.00    -0.183 A  
HETATM   14  C   UNL     1     -10.925  10.898  67.354  1.00  0.00    -0.353 A  
HETATM   15  C   UNL     1     -11.484   9.867  68.120  1.00  0.00     0.153 A  
BRANCH  13  16
HETATM   16  N   UNL     1     -11.291   8.248  69.953  1.00  0.00    -0.454 N  
HETATM   17  H   UNL     1     -11.012   7.280  69.789  1.00  0.00     0.000 HD 
BRANCH  16  18
HETATM   18  S   UNL     1     -12.400   8.642  71.165  1.00  0.00    -0.152 S  
HETATM   19  O   UNL     1     -12.785  10.029  71.054  1.00  0.00    -0.331 OA 
HETATM   20  O   UNL     1     -13.389   7.584  71.133  1.00  0.00    -0.273 OA 
HETATM   21  C   UNL     1     -11.424   8.417  72.638  1.00  0.00    -0.289 C  
ENDBRANCH  16  18
ENDBRANCH  13  16
ENDBRANCH   7  10
ENDBRANCH   6   7
ENDBRANCH   4   6
ENDBRANCH   2   4
TORSDOF 6
ENDMDL
MODEL      172
REMARK 921   NORMALIZED FREE ENERGY PREDICTED BY IDOCK:   -3.25 KCAL/MOL
REMARK 922        TOTAL FREE ENERGY PREDICTED BY IDOCK:   -5.04 KCAL/MOL
REMARK 923 INTER-LIGAND FREE ENERGY PREDICTED BY IDOCK:   -4.73 KCAL/MOL
REMARK 924 INTRA-LIGAND FREE ENERGY PREDICTED BY IDOCK:   -0.31 KCAL/MOL
REMARK 927      BINDING AFFINITY PREDICTED BY RF-SCORE:    0.00 PKD
ROOT
HETATM    1  C   UNL     1     -10.660   9.381  71.209  1.00  0.00    -0.400 C  
HETATM    2  C   UNL     1     -11.850  10.051  70.524  1.00  0.00    -0.303 C  
HETATM    3  C   UNL     1     -12.968  10.280  71.545  1.00  0.00    -0.556 C  
ENDROOT
BRANCH   2   4
HETATM    4  N   UNL     1     -11.395  11.307  69.909  1.00  0.00    -0.415 NA 
HETATM    5  H   UNL     1     -11.051  11.959  70.614  1.00  0.00     0.000 HD 
BRANCH   4   6
HETATM    6  C   UNL     1     -10.392  11.083  68.859  1.00  0.00    -0.205 C  
BRANCH   6   7
HETATM    7  C   UNL     1     -10.971  10.504  67.543  1.00  0.00    -0.303 C  
HETATM    8  H   UNL     1     -11.165  11.134  65.705  1.00  0.00     0.000 HD 
HETATM    9  O   UNL     1     -10.810  11.488  66.511  1.00  0.00    -0.266 OA 
BRANCH   7  10
HETATM   10  C   UNL     1     -10.316   9.198  67.100  1.00  0.00    -0.337 A  
HETATM   11  C   UNL     1      -9.423   9.123  66.018  1.00  0.00    -0.321 A  
HETATM   12  C   UNL     1      -8.860   7.907  65.628  1.00  0.00    -0.121 A  
HETATM   13  C   UNL     1      -9.189   6.741  66.307  1.00  0.00    -0.127 A  
HETATM   14  C   UNL     1     -10.607   8.012  67.797  1.00  0.00    -0.239 A  
HETATM   15  C   UNL     1     -10.044   6.790  67.406  1.00  0.00    -0.225 A  
BRANCH  13  16
HETATM   16  N   UNL     1      -8.617   5.511  65.875  1.00  0.00    -0.136 N  
HETATM   17  H   UNL     1      -7.676   5.478  65.480  1.00  0.00     0.000 HD 
BRANCH  16  18
HETATM   18  S   UNL     1      -9.544   4.109  66.035  1.00  0.00    -0.202 S  
HETATM   19  O   UNL     1      -9.554   3.674  67.411  1.00  0.00    -0.208 OA 
HETATM   20  O   UNL     1     -10.777   4.386  65.327  1.00  0.00    -0.262 OA 
HETATM   21  C   UNL     1      -8.616   2.945  65.055  1.00  0.00    -0.102 C  
ENDBRANCH  16  18
ENDBRANCH  13  16
ENDBRANCH   7  10
ENDBRANCH   6   7
ENDBRANCH   4   6
ENDBRANCH   2   4
TORSDOF 6
ENDMDL
MODEL      173
REMARK 921   NORMALIZED FREE ENERGY PREDICTED BY IDOCK:   -3.25 KCAL/MOL
REMARK 922        TOTAL FREE ENERGY PREDICTED BY IDOCK:   -5.04 KCAL/MOL
REMARK 923 INTER-LIGAND FREE ENERGY PREDICTED BY IDOCK:   -4.58 KCAL/MOL
REMARK 924 INTRA-LIGAND FREE ENERGY PREDICTED BY IDOCK:   -0.46 KCAL/MOL
REMARK 927      BINDING AFFINITY PREDICTED BY RF-SCORE:    0.00 PKD
ROOT
HETATM    1  C   UNL     1     -10.878   5.990  69.265  1.00  0.00    -0.428 C  
HETATM    2  C   UNL     1     -11.297   7.150  70.166  1.00  0.00    -0.241 C  
HETATM    3  C   UNL     1     -11.920   6.603  71.452  1.00  0.00    -0.405 C  
ENDROOT
BRANCH   2   4
HETATM    4  N   UNL     1     -10.119   7.989  70.434  1.00  0.00    -0.193 NA 
HETATM    5  H   UNL     1      -9.441   7.926  69.675  1.00  0.00     0.000 HD 
BRANCH   4   6
HETATM    6  C   UNL     1     -10.481   9.388  70.708  1.00  0.00    -0.304 C  
BRANCH   6   7
HETATM    7  C   UNL     1     -11.391  10.028  69.629  1.00  0.00    -0.202 C  
HETATM    8  H   UNL     1     -13.133  10.912  69.616  1.00  0.00     0.000 HD 
HETATM    9  O   UNL     1     -12.575  10.520  70.276  1.00  0.00    -0.310 OA 
BRANCH   7  10
HETATM   10  C   UNL     1     -10.729  11.168  68.858  1.00  0.00    -0.246 A  
HETATM   11  C   UNL     1      -9.610  10.978  68.031  1.00  0.00    -0.175 A  
HETATM   12  C   UNL     1      -9.018  12.048  67.358  1.00  0.00    -0.176 A  
HETATM   13  C   UNL     1      -9.529  13.330  67.510  1.00  0.00    -0.220 A  
HETATM   14  C   UNL     1     -11.253  12.468  68.968  1.00  0.00    -0.321 A  
HETATM   15  C   UNL     1     -10.659  13.543  68.296  1.00  0.00    -0.259 A  
BRANCH  13  16
HETATM   16  N   UNL     1      -8.892  14.406  66.829  1.00  0.00    -0.363 N  
HETATM   17  H   UNL     1      -9.044  14.562  65.832  1.00  0.00     0.000 HD 
BRANCH  16  18
HETATM   18  S   UNL     1      -7.877  15.417  67.725  1.00  0.00    -0.156 S  
HETATM   19  O   UNL     1      -7.507  14.777  68.965  1.00  0.00    -0.126 OA 
HETATM   20  O   UNL     1      -6.871  15.873  66.786  1.00  0.00    -0.243 OA 
HETATM   21  C   UNL     1      -8.950  16.797  68.070  1.00  0.00    -0.217 C  
ENDBRANCH  16  18
ENDBRANCH  13  16
ENDBRANCH   7  10
ENDBRANCH   6   7
ENDBRANCH   4   6
ENDBRANCH   2   4
TORSDOF 6
ENDMDL
MODEL      174
REMARK 921   NORMALIZED FREE ENERGY PREDICTED BY IDOCK:   -3.22 KCAL/MOL
REMARK 922        TOTAL FREE ENERGY PREDICTED BY IDOCK:   -4.99 KCAL/MOL
REMARK 923 INTER-LIGAND FREE ENERGY PREDICTED BY IDOCK:   -4.60 KCAL/MOL
REMARK 924 INTRA-LIGAND FREE ENERGY PREDICTED BY IDOCK:   -0.39 KCAL/MOL
REMARK 927      BINDING AFFINITY PREDICTED BY RF-SCORE:    0.00 PKD
ROOT
HETATM    1  C   UNL     1     -12.186  14.408  64.517  1.00  0.00    -0.483 C  
HETATM    2  C   UNL     1     -12.764  13.052  64.916  1.00  0.00    -0.390 C  
HETATM    3  C   UNL     1     -12.603  12.064  63.759  1.00  0.00    -0.567 C  
ENDROOT
BRANCH   2   4
HETATM    4  N   UNL     1     -12.086  12.590  66.138  1.00  0.00    -0.615 NA 
HETATM    5  H   UNL     1     -12.667  11.929  66.655  1.00  0.00     0.000 HD 
BRANCH   4   6
HETATM    6  C   UNL     1     -10.759  12.024  65.858  1.00  0.00    -0.275 C  
BRANCH   6   7
HETATM    7  C   UNL     1      -9.938  11.679  67.126  1.00  0.00    -0.199 C  
HETATM    8  H   UNL     1     -10.103  12.038  69.039  1.00  0.00     0.000 HD 
HETATM    9  O   UNL     1     -10.606  12.249  68.262  1.00  0.00    -0.211 OA 
BRANCH   7  10
HETATM   10  C   UNL     1      -9.749  10.181  67.353  1.00  0.00    -0.192 A  
HETATM   11  C   UNL     1     -10.637   9.217  66.849  1.00  0.00    -0.237 A  
HETATM   12  C   UNL     1     -10.444   7.856  67.094  1.00  0.00    -0.414 A  
HETATM   13  C   UNL     1      -9.363   7.437  67.860  1.00  0.00    -0.134 A  
HETATM   14  C   UNL     1      -8.641   9.732  68.093  1.00  0.00    -0.118 A  
HETATM   15  C   UNL     1      -8.447   8.368  68.343  1.00  0.00    -0.135 A  
BRANCH  13  16
HETATM   16  N   UNL     1      -9.203   6.045  68.113  1.00  0.00    -0.117 N  
HETATM   17  H   UNL     1      -9.266   5.671  69.060  1.00  0.00     0.000 HD 
BRANCH  16  18
HETATM   18  S   UNL     1      -8.904   5.032  66.794  1.00  0.00    -0.107 S  
HETATM   19  O   UNL     1     -10.145   4.507  66.279  1.00  0.00    -0.225 OA 
HETATM   20  O   UNL     1      -7.992   5.773  65.946  1.00  0.00    -0.102 OA 
HETATM   21  C   UNL     1      -7.976   3.714  67.553  1.00  0.00    -0.082 C  
ENDBRANCH  16  18
ENDBRANCH  13  16
ENDBRANCH   7  10
ENDBRANCH   6   7
ENDBRANCH   4   6
ENDBRANCH   2   4
TORSDOF 6
ENDMDL
MODEL      175
REMARK 921   NORMALIZED FREE ENERGY PREDICTED BY IDOCK:   -3.21 KCAL/MOL
REMARK 922        TOTAL FREE ENERGY PREDICTED BY IDOCK:   -4.99 KCAL/MOL
REMARK 923 INTER-LIGAND FREE ENERGY PREDICTED BY IDOCK:   -4.79 KCAL/MOL
REMARK 924 INTRA-LIGAND FREE ENERGY PREDICTED BY IDOCK:   -0.20 KCAL/MOL
REMARK 927      BINDING AFFINITY PREDICTED BY RF-SCORE:    0.00 PKD
ROOT
HETATM    1  C   UNL     1     -13.787  13.620  72.385  1.00  0.00    -0.691 C  
HETATM    2  C   UNL     1     -12.783  14.081  71.330  1.00  0.00    -0.365 C  
HETATM    3  C   UNL     1     -11.840  15.122  71.937  1.00  0.00    -0.477 C  
ENDROOT
BRANCH   2   4
HETATM    4  N   UNL     1     -12.058  12.905  70.823  1.00  0.00    -0.492 NA 
HETATM    5  H   UNL     1     -11.180  12.769  71.325  1.00  0.00     0.000 HD 
BRANCH   4   6
HETATM    6  C   UNL     1     -12.880  11.687  70.852  1.00  0.00    -0.173 C  
BRANCH   6   7
HETATM    7  C   UNL     1     -12.225  10.499  71.601  1.00  0.00    -0.195 C  
HETATM    8  H   UNL     1     -12.870   8.963  72.620  1.00  0.00     0.000 HD 
HETATM    9  O   UNL     1     -13.271   9.691  72.162  1.00  0.00    -0.419 OA 
BRANCH   7  10
HETATM   10  C   UNL     1     -11.335   9.627  70.718  1.00  0.00    -0.409 A  
HETATM   11  C   UNL     1     -11.153   9.868  69.346  1.00  0.00    -0.237 A  
HETATM   12  C   UNL     1     -10.348   9.037  68.566  1.00  0.00    -0.233 A  
HETATM   13  C   UNL     1      -9.718   7.941  69.144  1.00  0.00    -0.162 A  
HETATM   14  C   UNL     1     -10.658   8.535  71.290  1.00  0.00    -0.296 A  
HETATM   15  C   UNL     1      -9.852   7.699  70.509  1.00  0.00    -0.183 A  
BRANCH  13  16
HETATM   16  N   UNL     1      -8.920   7.097  68.320  1.00  0.00    -0.126 N  
HETATM   17  H   UNL     1      -9.204   6.139  68.117  1.00  0.00     0.000 HD 
BRANCH  16  18
HETATM   18  S   UNL     1      -7.488   7.735  67.690  1.00  0.00    -0.106 S  
HETATM   19  O   UNL     1      -7.081   8.891  68.452  1.00  0.00    -0.074 OA 
HETATM   20  O   UNL     1      -6.607   6.596  67.524  1.00  0.00    -0.052 OA 
HETATM   21  C   UNL     1      -8.004   8.251  66.065  1.00  0.00    -0.098 C  
ENDBRANCH  16  18
ENDBRANCH  13  16
ENDBRANCH   7  10
ENDBRANCH   6   7
ENDBRANCH   4   6
ENDBRANCH   2   4
TORSDOF 6
ENDMDL
MODEL      176
REMARK 921   NORMALIZED FREE ENERGY PREDICTED BY IDOCK:   -3.20 KCAL/MOL
REMARK 922        TOTAL FREE ENERGY PREDICTED BY IDOCK:   -4.97 KCAL/MOL
REMARK 923 INTER-LIGAND FREE ENERGY PREDICTED BY IDOCK:   -4.46 KCAL/MOL
REMARK 924 INTRA-LIGAND FREE ENERGY PREDICTED BY IDOCK:   -0.51 KCAL/MOL
REMARK 927      BINDING AFFINITY PREDICTED BY RF-SCORE:    0.00 PKD
ROOT
HETATM    1  C   UNL     1     -11.741   6.685  70.608  1.00  0.00    -0.452 C  
HETATM    2  C   UNL     1     -12.300   7.178  71.942  1.00  0.00    -0.317 C  
HETATM    3  C   UNL     1     -11.147   7.467  72.906  1.00  0.00    -0.397 C  
ENDROOT
BRANCH   2   4
HETATM    4  N   UNL     1     -13.127   8.370  71.695  1.00  0.00    -0.335 NA 
HETATM    5  H   UNL     1     -13.961   8.367  72.283  1.00  0.00     0.000 HD 
BRANCH   4   6
HETATM    6  C   UNL     1     -12.368   9.618  71.855  1.00  0.00    -0.357 C  
BRANCH   6   7
HETATM    7  C   UNL     1     -12.276  10.473  70.566  1.00  0.00    -0.344 C  
HETATM    8  H   UNL     1     -12.222  12.382  70.156  1.00  0.00     0.000 HD 
HETATM    9  O   UNL     1     -12.278  11.858  70.945  1.00  0.00    -0.357 OA 
BRANCH   7  10
HETATM   10  C   UNL     1     -11.039  10.185  69.720  1.00  0.00    -0.328 A  
HETATM   11  C   UNL     1      -9.823   9.749  70.272  1.00  0.00    -0.296 A  
HETATM   12  C   UNL     1      -8.706   9.516  69.469  1.00  0.00    -0.178 A  
HETATM   13  C   UNL     1      -8.781   9.726  68.098  1.00  0.00    -0.119 A  
HETATM   14  C   UNL     1     -11.105  10.356  68.326  1.00  0.00    -0.338 A  
HETATM   15  C   UNL     1      -9.984  10.124  67.518  1.00  0.00    -0.231 A  
BRANCH  13  16
HETATM   16  N   UNL     1      -7.620   9.502  67.306  1.00  0.00    -0.091 N  
HETATM   17  H   UNL     1      -7.034  10.278  66.999  1.00  0.00     0.000 HD 
BRANCH  16  18
HETATM   18  S   UNL     1      -7.245   7.908  66.889  1.00  0.00    -0.091 S  
HETATM   19  O   UNL     1      -6.531   7.877  65.635  1.00  0.00    -0.042 OA 
HETATM   20  O   UNL     1      -6.679   7.326  68.089  1.00  0.00    -0.054 OA 
HETATM   21  C   UNL     1      -8.864   7.200  66.664  1.00  0.00    -0.132 C  
ENDBRANCH  16  18
ENDBRANCH  13  16
ENDBRANCH   7  10
ENDBRANCH   6   7
ENDBRANCH   4   6
ENDBRANCH   2   4
TORSDOF 6
ENDMDL
MODEL      177
REMARK 921   NORMALIZED FREE ENERGY PREDICTED BY IDOCK:   -3.18 KCAL/MOL
REMARK 922        TOTAL FREE ENERGY PREDICTED BY IDOCK:   -4.94 KCAL/MOL
REMARK 923 INTER-LIGAND FREE ENERGY PREDICTED BY IDOCK:   -4.51 KCAL/MOL
REMARK 924 INTRA-LIGAND FREE ENERGY PREDICTED BY IDOCK:   -0.44 KCAL/MOL
REMARK 927      BINDING AFFINITY PREDICTED BY RF-SCORE:    0.00 PKD
ROOT
HETATM    1  C   UNL     1      -6.144  17.682  69.476  1.00  0.00    -0.250 C  
HETATM    2  C   UNL     1      -6.191  16.347  68.736  1.00  0.00    -0.132 C  
HETATM    3  C   UNL     1      -6.918  15.309  69.594  1.00  0.00    -0.188 C  
ENDROOT
BRANCH   2   4
HETATM    4  N   UNL     1      -6.849  16.551  67.436  1.00  0.00    -0.143 NA 
HETATM    5  H   UNL     1      -7.490  15.786  67.223  1.00  0.00     0.000 HD 
BRANCH   4   6
HETATM    6  C   UNL     1      -7.530  17.851  67.354  1.00  0.00    -0.201 C  
BRANCH   6   7
HETATM    7  C   UNL     1      -9.070  17.771  67.511  1.00  0.00    -0.244 C  
HETATM    8  H   UNL     1     -10.603  18.718  66.757  1.00  0.00     0.000 HD 
HETATM    9  O   UNL     1      -9.660  18.767  66.662  1.00  0.00    -0.310 OA 
BRANCH   7  10
HETATM   10  C   UNL     1      -9.656  16.404  67.165  1.00  0.00    -0.239 A  
HETATM   11  C   UNL     1     -10.157  15.522  68.138  1.00  0.00    -0.218 A  
HETATM   12  C   UNL     1     -10.666  14.271  67.787  1.00  0.00    -0.253 A  
HETATM   13  C   UNL     1     -10.673  13.874  66.456  1.00  0.00    -0.277 A  
HETATM   14  C   UNL     1      -9.707  15.998  65.820  1.00  0.00    -0.340 A  
HETATM   15  C   UNL     1     -10.216  14.741  65.466  1.00  0.00    -0.400 A  
BRANCH  13  16
HETATM   16  N   UNL     1     -11.178  12.584  66.129  1.00  0.00    -0.305 N  
HETATM   17  H   UNL     1     -12.163  12.447  65.901  1.00  0.00     0.000 HD 
BRANCH  16  18
HETATM   18  S   UNL     1     -10.095  11.288  66.131  1.00  0.00    -0.245 S  
HETATM   19  O   UNL     1     -10.350  10.425  65.003  1.00  0.00    -0.306 OA 
HETATM   20  O   UNL     1      -8.791  11.884  66.340  1.00  0.00    -0.197 OA 
HETATM   21  C   UNL     1     -10.543  10.442  67.634  1.00  0.00    -0.257 C  
ENDBRANCH  16  18
ENDBRANCH  13  16
ENDBRANCH   7  10
ENDBRANCH   6   7
ENDBRANCH   4   6
ENDBRANCH   2   4
TORSDOF 6
ENDMDL
MODEL      178
REMARK 921   NORMALIZED FREE ENERGY PREDICTED BY IDOCK:   -3.18 KCAL/MOL
REMARK 922        TOTAL FREE ENERGY PREDICTED BY IDOCK:   -4.94 KCAL/MOL
REMARK 923 INTER-LIGAND FREE ENERGY PREDICTED BY IDOCK:   -4.42 KCAL/MOL
REMARK 924 INTRA-LIGAND FREE ENERGY PREDICTED BY IDOCK:   -0.52 KCAL/MOL
REMARK 927      BINDING AFFINITY PREDICTED BY RF-SCORE:    0.00 PKD
ROOT
HETATM    1  C   UNL     1     -10.821   5.915  67.302  1.00  0.00    -0.351 C  
HETATM    2  C   UNL     1      -9.926   6.256  68.493  1.00  0.00    -0.144 C  
HETATM    3  C   UNL     1     -10.183   5.263  69.629  1.00  0.00    -0.348 C  
ENDROOT
BRANCH   2   4
HETATM    4  N   UNL     1      -8.524   6.240  68.050  1.00  0.00    -0.117 NA 
HETATM    5  H   UNL     1      -8.364   5.508  67.357  1.00  0.00     0.000 HD 
BRANCH   4   6
HETATM    6  C   UNL     1      -8.083   7.550  67.549  1.00  0.00    -0.113 C  
BRANCH   6   7
HETATM    7  C   UNL     1      -8.618   8.753  68.365  1.00  0.00    -0.134 C  
HETATM    8  H   UNL     1      -7.935   9.876  69.810  1.00  0.00     0.000 HD 
HETATM    9  O   UNL     1      -7.607   9.139  69.309  1.00  0.00    -0.076 OA 
BRANCH   7  10
HETATM   10  C   UNL     1      -8.997   9.961  67.512  1.00  0.00    -0.141 A  
HETATM   11  C   UNL     1     -10.217  10.052  66.820  1.00  0.00    -0.295 A  
HETATM   12  C   UNL     1     -10.520  11.163  66.032  1.00  0.00    -0.312 A  
HETATM   13  C   UNL     1      -9.603  12.199  65.911  1.00  0.00    -0.214 A  
HETATM   14  C   UNL     1      -8.099  11.037  67.406  1.00  0.00    -0.122 A  
HETATM   15  C   UNL     1      -8.401  12.152  66.613  1.00  0.00    -0.051 A  
BRANCH  13  16
HETATM   16  N   UNL     1      -9.929  13.310  65.083  1.00  0.00    -0.518 N  
HETATM   17  H   UNL     1      -9.618  13.352  64.112  1.00  0.00     0.000 HD 
BRANCH  16  18
HETATM   18  S   UNL     1     -10.850  14.555  65.759  1.00  0.00    -0.330 S  
HETATM   19  O   UNL     1     -10.838  14.456  67.199  1.00  0.00    -0.284 OA 
HETATM   20  O   UNL     1     -10.410  15.760  65.086  1.00  0.00    -0.425 OA 
HETATM   21  C   UNL     1     -12.481  14.170  65.154  1.00  0.00    -0.439 C  
ENDBRANCH  16  18
ENDBRANCH  13  16
ENDBRANCH   7  10
ENDBRANCH   6   7
ENDBRANCH   4   6
ENDBRANCH   2   4
TORSDOF 6
ENDMDL
MODEL      179
REMARK 921   NORMALIZED FREE ENERGY PREDICTED BY IDOCK:   -3.18 KCAL/MOL
REMARK 922        TOTAL FREE ENERGY PREDICTED BY IDOCK:   -4.94 KCAL/MOL
REMARK 923 INTER-LIGAND FREE ENERGY PREDICTED BY IDOCK:   -4.53 KCAL/MOL
REMARK 924 INTRA-LIGAND FREE ENERGY PREDICTED BY IDOCK:   -0.40 KCAL/MOL
REMARK 927      BINDING AFFINITY PREDICTED BY RF-SCORE:    0.00 PKD
ROOT
HETATM    1  C   UNL     1     -10.738   5.764  67.450  1.00  0.00    -0.332 C  
HETATM    2  C   UNL     1      -9.241   5.696  67.746  1.00  0.00    -0.106 C  
HETATM    3  C   UNL     1      -8.959   4.541  68.710  1.00  0.00    -0.149 C  
ENDROOT
BRANCH   2   4
HETATM    4  N   UNL     1      -8.514   5.547  66.475  1.00  0.00    -0.112 NA 
HETATM    5  H   UNL     1      -8.997   4.903  65.848  1.00  0.00     0.000 HD 
BRANCH   4   6
HETATM    6  C   UNL     1      -8.266   6.839  65.820  1.00  0.00    -0.135 C  
BRANCH   6   7
HETATM    7  C   UNL     1      -7.986   8.004  66.803  1.00  0.00    -0.103 C  
HETATM    8  H   UNL     1      -6.415   9.035  67.337  1.00  0.00     0.000 HD 
HETATM    9  O   UNL     1      -6.587   8.321  66.735  1.00  0.00    -0.055 OA 
BRANCH   7  10
HETATM   10  C   UNL     1      -8.802   9.263  66.519  1.00  0.00    -0.154 A  
HETATM   11  C   UNL     1      -8.323  10.317  65.722  1.00  0.00    -0.152 A  
HETATM   12  C   UNL     1      -9.089  11.462  65.502  1.00  0.00    -0.149 A  
HETATM   13  C   UNL     1     -10.344  11.580  66.085  1.00  0.00    -0.245 A  
HETATM   14  C   UNL     1     -10.090   9.386  67.069  1.00  0.00    -0.304 A  
HETATM   15  C   UNL     1     -10.859  10.536  66.851  1.00  0.00    -0.252 A  
BRANCH  13  16
HETATM   16  N   UNL     1     -11.095  12.769  65.862  1.00  0.00    -0.280 N  
HETATM   17  H   UNL     1     -11.125  13.512  66.560  1.00  0.00     0.000 HD 
BRANCH  16  18
HETATM   18  S   UNL     1     -11.934  12.910  64.402  1.00  0.00    -0.426 S  
HETATM   19  O   UNL     1     -11.172  12.315  63.330  1.00  0.00    -0.438 OA 
HETATM   20  O   UNL     1     -13.283  12.471  64.696  1.00  0.00    -0.848 OA 
HETATM   21  C   UNL     1     -11.983  14.677  64.181  1.00  0.00    -0.292 C  
ENDBRANCH  16  18
ENDBRANCH  13  16
ENDBRANCH   7  10
ENDBRANCH   6   7
ENDBRANCH   4   6
ENDBRANCH   2   4
TORSDOF 6
ENDMDL
MODEL      180
REMARK 921   NORMALIZED FREE ENERGY PREDICTED BY IDOCK:   -3.16 KCAL/MOL
REMARK 922        TOTAL FREE ENERGY PREDICTED BY IDOCK:   -4.92 KCAL/MOL
REMARK 923 INTER-LIGAND FREE ENERGY PREDICTED BY IDOCK:   -5.16 KCAL/MOL
REMARK 924 INTRA-LIGAND FREE ENERGY PREDICTED BY IDOCK:    0.24 KCAL/MOL
REMARK 927      BINDING AFFINITY PREDICTED BY RF-SCORE:    0.00 PKD
ROOT
HETATM    1  C   UNL     1     -12.557   6.560  71.627  1.00  0.00    -0.220 C  
HETATM    2  C   UNL     1     -11.298   6.714  70.775  1.00  0.00    -0.336 C  
HETATM    3  C   UNL     1     -10.890   5.352  70.210  1.00  0.00    -0.214 C  
ENDROOT
BRANCH   2   4
HETATM    4  N   UNL     1     -11.563   7.698  69.714  1.00  0.00    -0.432 NA 
HETATM    5  H   UNL     1     -12.271   8.373  70.006  1.00  0.00     0.000 HD 
BRANCH   4   6
HETATM    6  C   UNL     1     -10.339   8.375  69.263  1.00  0.00    -0.214 C  
BRANCH   6   7
HETATM    7  C   UNL     1     -10.162   9.806  69.829  1.00  0.00    -0.242 C  
HETATM    8  H   UNL     1      -8.880  10.696  71.004  1.00  0.00     0.000 HD 
HETATM    9  O   UNL     1      -8.989   9.819  70.657  1.00  0.00    -0.140 OA 
BRANCH   7  10
HETATM   10  C   UNL     1     -10.031  10.884  68.755  1.00  0.00    -0.203 A  
HETATM   11  C   UNL     1     -11.133  11.393  68.048  1.00  0.00    -0.317 A  
HETATM   12  C   UNL     1     -10.973  12.363  67.058  1.00  0.00    -0.303 A  
HETATM   13  C   UNL     1      -9.703  12.835  66.749  1.00  0.00    -0.243 A  
HETATM   14  C   UNL     1      -8.759  11.402  68.453  1.00  0.00    -0.157 A  
HETATM   15  C   UNL     1      -8.596  12.375  67.458  1.00  0.00    -0.177 A  
BRANCH  13  16
HETATM   16  N   UNL     1      -9.567  13.809  65.720  1.00  0.00    -0.505 N  
HETATM   17  H   UNL     1      -9.009  13.619  64.886  1.00  0.00     0.000 HD 
BRANCH  16  18
HETATM   18  S   UNL     1     -10.357  15.288  65.922  1.00  0.00    -0.356 S  
HETATM   19  O   UNL     1     -10.838  15.772  64.650  1.00  0.00    -0.488 OA 
HETATM   20  O   UNL     1     -11.259  15.086  67.038  1.00  0.00    -0.331 OA 
HETATM   21  C   UNL     1      -9.031  16.334  66.489  1.00  0.00    -0.278 C  
ENDBRANCH  16  18
ENDBRANCH  13  16
ENDBRANCH   7  10
ENDBRANCH   6   7
ENDBRANCH   4   6
ENDBRANCH   2   4
TORSDOF 6
ENDMDL
MODEL      181
REMARK 921   NORMALIZED FREE ENERGY PREDICTED BY IDOCK:   -3.15 KCAL/MOL
REMARK 922        TOTAL FREE ENERGY PREDICTED BY IDOCK:   -4.90 KCAL/MOL
REMARK 923 INTER-LIGAND FREE ENERGY PREDICTED BY IDOCK:   -5.10 KCAL/MOL
REMARK 924 INTRA-LIGAND FREE ENERGY PREDICTED BY IDOCK:    0.20 KCAL/MOL
REMARK 927      BINDING AFFINITY PREDICTED BY RF-SCORE:    0.00 PKD
ROOT
HETATM    1  C   UNL     1     -13.123  13.858  71.281  1.00  0.00    -0.385 C  
HETATM    2  C   UNL     1     -12.226  15.006  70.824  1.00  0.00    -0.329 C  
HETATM    3  C   UNL     1     -12.151  16.069  71.923  1.00  0.00    -0.590 C  
ENDROOT
BRANCH   2   4
HETATM    4  N   UNL     1     -10.901  14.464  70.486  1.00  0.00    -0.352 NA 
HETATM    5  H   UNL     1     -10.730  13.581  70.967  1.00  0.00     0.000 HD 
BRANCH   4   6
HETATM    6  C   UNL     1     -10.709  14.325  69.036  1.00  0.00    -0.245 C  
BRANCH   6   7
HETATM    7  C   UNL     1     -11.744  13.401  68.346  1.00  0.00    -0.355 C  
HETATM    8  H   UNL     1     -12.793  13.461  66.699  1.00  0.00     0.000 HD 
HETATM    9  O   UNL     1     -12.158  14.027  67.122  1.00  0.00    -0.423 OA 
BRANCH   7  10
HETATM   10  C   UNL     1     -11.219  12.000  68.042  1.00  0.00    -0.316 A  
HETATM   11  C   UNL     1     -11.126  11.487  66.737  1.00  0.00    -0.361 A  
HETATM   12  C   UNL     1     -10.661  10.193  66.500  1.00  0.00    -0.179 A  
HETATM   13  C   UNL     1     -10.290   9.383  67.566  1.00  0.00    -0.255 A  
HETATM   14  C   UNL     1     -10.803  11.177  69.104  1.00  0.00    -0.284 A  
HETATM   15  C   UNL     1     -10.338   9.877  68.867  1.00  0.00    -0.221 A  
BRANCH  13  16
HETATM   16  N   UNL     1      -9.840   8.060  67.296  1.00  0.00    -0.178 N  
HETATM   17  H   UNL     1      -9.583   7.774  66.351  1.00  0.00     0.000 HD 
BRANCH  16  18
HETATM   18  S   UNL     1      -9.744   6.979  68.590  1.00  0.00    -0.140 S  
HETATM   19  O   UNL     1      -8.521   7.191  69.326  1.00  0.00    -0.131 OA 
HETATM   20  O   UNL     1     -11.036   7.054  69.243  1.00  0.00    -0.228 OA 
HETATM   21  C   UNL     1      -9.662   5.411  67.749  1.00  0.00    -0.135 C  
ENDBRANCH  16  18
ENDBRANCH  13  16
ENDBRANCH   7  10
ENDBRANCH   6   7
ENDBRANCH   4   6
ENDBRANCH   2   4
TORSDOF 6
ENDMDL
MODEL      182
REMARK 921   NORMALIZED FREE ENERGY PREDICTED BY IDOCK:   -3.14 KCAL/MOL
REMARK 922        TOTAL FREE ENERGY PREDICTED BY IDOCK:   -4.89 KCAL/MOL
REMARK 923 INTER-LIGAND FREE ENERGY PREDICTED BY IDOCK:   -4.73 KCAL/MOL
REMARK 924 INTRA-LIGAND FREE ENERGY PREDICTED BY IDOCK:   -0.16 KCAL/MOL
REMARK 927      BINDING AFFINITY PREDICTED BY RF-SCORE:    0.00 PKD
ROOT
HETATM    1  C   UNL     1      -6.371   7.699  66.299  1.00  0.00    -0.045 C  
HETATM    2  C   UNL     1      -7.717   8.239  65.820  1.00  0.00    -0.091 C  
HETATM    3  C   UNL     1      -8.033   7.673  64.433  1.00  0.00    -0.123 C  
ENDROOT
BRANCH   2   4
HETATM    4  N   UNL     1      -8.747   7.887  66.810  1.00  0.00    -0.129 NA 
HETATM    5  H   UNL     1      -8.543   6.989  67.250  1.00  0.00     0.000 HD 
BRANCH   4   6
HETATM    6  C   UNL     1      -8.936   8.941  67.816  1.00  0.00    -0.135 C  
BRANCH   6   7
HETATM    7  C   UNL     1     -10.391   9.466  67.918  1.00  0.00    -0.225 C  
HETATM    8  H   UNL     1     -11.623   9.899  69.371  1.00  0.00     0.000 HD 
HETATM    9  O   UNL     1     -10.731   9.578  69.308  1.00  0.00    -0.225 OA 
BRANCH   7  10
HETATM   10  C   UNL     1     -10.612  10.814  67.236  1.00  0.00    -0.304 A  
HETATM   11  C   UNL     1     -11.684  11.664  67.557  1.00  0.00    -0.288 A  
HETATM   12  C   UNL     1     -11.866  12.880  66.897  1.00  0.00    -0.444 A  
HETATM   13  C   UNL     1     -10.985  13.262  65.894  1.00  0.00    -0.274 A  
HETATM   14  C   UNL     1      -9.711  11.238  66.243  1.00  0.00    -0.246 A  
HETATM   15  C   UNL     1      -9.894  12.457  65.578  1.00  0.00    -0.215 A  
BRANCH  13  16
HETATM   16  N   UNL     1     -11.208  14.498  65.222  1.00  0.00    -0.336 N  
HETATM   17  H   UNL     1     -11.863  14.563  64.443  1.00  0.00     0.000 HD 
BRANCH  16  18
HETATM   18  S   UNL     1     -10.352  15.853  65.757  1.00  0.00    -0.396 S  
HETATM   19  O   UNL     1      -8.943  15.551  65.837  1.00  0.00    -0.303 OA 
HETATM   20  O   UNL     1     -10.839  16.952  64.949  1.00  0.00    -0.715 OA 
HETATM   21  C   UNL     1     -11.003  16.068  67.401  1.00  0.00    -0.237 C  
ENDBRANCH  16  18
ENDBRANCH  13  16
ENDBRANCH   7  10
ENDBRANCH   6   7
ENDBRANCH   4   6
ENDBRANCH   2   4
TORSDOF 6
ENDMDL
MODEL      183
REMARK 921   NORMALIZED FREE ENERGY PREDICTED BY IDOCK:   -3.09 KCAL/MOL
REMARK 922        TOTAL FREE ENERGY PREDICTED BY IDOCK:   -4.82 KCAL/MOL
REMARK 923 INTER-LIGAND FREE ENERGY PREDICTED BY IDOCK:   -4.43 KCAL/MOL
REMARK 924 INTRA-LIGAND FREE ENERGY PREDICTED BY IDOCK:   -0.39 KCAL/MOL
REMARK 927      BINDING AFFINITY PREDICTED BY RF-SCORE:    0.00 PKD
ROOT
HETATM    1  C   UNL     1     -10.999   5.267  72.997  1.00  0.00    -0.354 C  
HETATM    2  C   UNL     1     -10.439   5.729  71.653  1.00  0.00    -0.231 C  
HETATM    3  C   UNL     1     -10.121   4.511  70.782  1.00  0.00    -0.233 C  
ENDROOT
BRANCH   2   4
HETATM    4  N   UNL     1     -11.418   6.624  71.017  1.00  0.00    -0.311 NA 
HETATM    5  H   UNL     1     -11.755   7.329  71.673  1.00  0.00     0.000 HD 
BRANCH   4   6
HETATM    6  C   UNL     1     -10.892   7.247  69.793  1.00  0.00    -0.235 C  
BRANCH   6   7
HETATM    7  C   UNL     1      -9.636   8.126  70.021  1.00  0.00    -0.171 C  
HETATM    8  H   UNL     1      -7.736   7.988  69.590  1.00  0.00     0.000 HD 
HETATM    9  O   UNL     1      -8.506   7.450  69.451  1.00  0.00    -0.131 OA 
BRANCH   7  10
HETATM   10  C   UNL     1      -9.742   9.525  69.416  1.00  0.00    -0.190 A  
HETATM   11  C   UNL     1      -8.826  10.018  68.472  1.00  0.00    -0.120 A  
HETATM   12  C   UNL     1      -8.942  11.310  67.957  1.00  0.00    -0.156 A  
HETATM   13  C   UNL     1      -9.972  12.137  68.387  1.00  0.00    -0.206 A  
HETATM   14  C   UNL     1     -10.799  10.365  69.809  1.00  0.00    -0.342 A  
HETATM   15  C   UNL     1     -10.916  11.663  69.295  1.00  0.00    -0.246 A  
BRANCH  13  16
HETATM   16  N   UNL     1     -10.054  13.457  67.861  1.00  0.00    -0.232 N  
HETATM   17  H   UNL     1      -9.308  14.135  68.021  1.00  0.00     0.000 HD 
BRANCH  16  18
HETATM   18  S   UNL     1     -11.426  13.866  66.964  1.00  0.00    -0.366 S  
HETATM   19  O   UNL     1     -11.895  12.721  66.222  1.00  0.00    -0.390 OA 
HETATM   20  O   UNL     1     -12.292  14.565  67.892  1.00  0.00    -0.188 OA 
HETATM   21  C   UNL     1     -10.772  15.076  65.831  1.00  0.00    -0.331 C  
ENDBRANCH  16  18
ENDBRANCH  13  16
ENDBRANCH   7  10
ENDBRANCH   6   7
ENDBRANCH   4   6
ENDBRANCH   2   4
TORSDOF 6
ENDMDL
MODEL      184
REMARK 921   NORMALIZED FREE ENERGY PREDICTED BY IDOCK:   -3.09 KCAL/MOL
REMARK 922        TOTAL FREE ENERGY PREDICTED BY IDOCK:   -4.82 KCAL/MOL
REMARK 923 INTER-LIGAND FREE ENERGY PREDICTED BY IDOCK:   -4.67 KCAL/MOL
REMARK 924 INTRA-LIGAND FREE ENERGY PREDICTED BY IDOCK:   -0.15 KCAL/MOL
REMARK 927      BINDING AFFINITY PREDICTED BY RF-SCORE:    0.00 PKD
ROOT
HETATM    1  C   UNL     1     -10.589   6.405  71.442  1.00  0.00    -0.274 C  
HETATM    2  C   UNL     1     -10.634   7.028  72.836  1.00  0.00    -0.272 C  
HETATM    3  C   UNL     1      -9.317   7.753  73.118  1.00  0.00    -0.315 C  
ENDROOT
BRANCH   2   4
HETATM    4  N   UNL     1     -11.792   7.932  72.912  1.00  0.00    -0.616 NA 
HETATM    5  H   UNL     1     -11.527   8.839  73.295  1.00  0.00     0.000 HD 
BRANCH   4   6
HETATM    6  C   UNL     1     -12.470   8.080  71.616  1.00  0.00    -0.320 C  
BRANCH   6   7
HETATM    7  C   UNL     1     -12.609   9.548  71.139  1.00  0.00    -0.301 C  
HETATM    8  H   UNL     1     -12.636  11.301  72.000  1.00  0.00     0.000 HD 
HETATM    9  O   UNL     1     -12.551  10.402  72.291  1.00  0.00    -0.175 OA 
BRANCH   7  10
HETATM   10  C   UNL     1     -11.537   9.978  70.139  1.00  0.00    -0.320 A  
HETATM   11  C   UNL     1     -11.826  10.740  68.995  1.00  0.00    -0.325 A  
HETATM   12  C   UNL     1     -10.824  11.097  68.092  1.00  0.00    -0.266 A  
HETATM   13  C   UNL     1      -9.515  10.687  68.312  1.00  0.00    -0.159 A  
HETATM   14  C   UNL     1     -10.200   9.606  70.362  1.00  0.00    -0.348 A  
HETATM   15  C   UNL     1      -9.193   9.961  69.456  1.00  0.00    -0.238 A  
BRANCH  13  16
HETATM   16  N   UNL     1      -8.516  11.047  67.363  1.00  0.00    -0.131 N  
HETATM   17  H   UNL     1      -8.056  11.957  67.401  1.00  0.00     0.000 HD 
BRANCH  16  18
HETATM   18  S   UNL     1      -8.117   9.918  66.170  1.00  0.00    -0.122 S  
HETATM   19  O   UNL     1      -8.031  10.565  64.883  1.00  0.00    -0.143 OA 
HETATM   20  O   UNL     1      -6.999   9.173  66.712  1.00  0.00    -0.079 OA 
HETATM   21  C   UNL     1      -9.538   8.844  66.197  1.00  0.00    -0.265 C  
ENDBRANCH  16  18
ENDBRANCH  13  16
ENDBRANCH   7  10
ENDBRANCH   6   7
ENDBRANCH   4   6
ENDBRANCH   2   4
TORSDOF 6
ENDMDL
MODEL      185
REMARK 921   NORMALIZED FREE ENERGY PREDICTED BY IDOCK:   -3.08 KCAL/MOL
REMARK 922        TOTAL FREE ENERGY PREDICTED BY IDOCK:   -4.81 KCAL/MOL
REMARK 923 INTER-LIGAND FREE ENERGY PREDICTED BY IDOCK:   -4.57 KCAL/MOL
REMARK 924 INTRA-LIGAND FREE ENERGY PREDICTED BY IDOCK:   -0.24 KCAL/MOL
REMARK 927      BINDING AFFINITY PREDICTED BY RF-SCORE:    0.00 PKD
ROOT
HETATM    1  C   UNL     1      -7.779  16.553  68.485  1.00  0.00    -0.204 C  
HETATM    2  C   UNL     1      -8.970  16.577  67.528  1.00  0.00    -0.196 C  
HETATM    3  C   UNL     1      -9.082  17.960  66.882  1.00  0.00    -0.266 C  
ENDROOT
BRANCH   2   4
HETATM    4  N   UNL     1      -8.796  15.511  66.530  1.00  0.00    -0.291 NA 
HETATM    5  H   UNL     1      -8.038  14.880  66.792  1.00  0.00     0.000 HD 
BRANCH   4   6
HETATM    6  C   UNL     1     -10.041  14.770  66.282  1.00  0.00    -0.285 C  
BRANCH   6   7
HETATM    7  C   UNL     1     -10.697  14.189  67.560  1.00  0.00    -0.269 C  
HETATM    8  H   UNL     1     -12.423  14.377  68.454  1.00  0.00     0.000 HD 
HETATM    9  O   UNL     1     -12.021  14.733  67.671  1.00  0.00    -0.345 OA 
BRANCH   7  10
HETATM   10  C   UNL     1     -10.777  12.664  67.576  1.00  0.00    -0.247 A  
HETATM   11  C   UNL     1     -11.440  11.947  68.586  1.00  0.00    -0.350 A  
HETATM   12  C   UNL     1     -11.473  10.552  68.580  1.00  0.00    -0.284 A  
HETATM   13  C   UNL     1     -10.834   9.848  67.567  1.00  0.00    -0.243 A  
HETATM   14  C   UNL     1     -10.168  11.933  66.541  1.00  0.00    -0.232 A  
HETATM   15  C   UNL     1     -10.199  10.532  66.534  1.00  0.00    -0.288 A  
BRANCH  13  16
HETATM   16  N   UNL     1     -10.865   8.425  67.598  1.00  0.00    -0.503 N  
HETATM   17  H   UNL     1     -11.702   7.910  67.321  1.00  0.00     0.000 HD 
BRANCH  16  18
HETATM   18  S   UNL     1      -9.473   7.614  68.106  1.00  0.00    -0.146 S  
HETATM   19  O   UNL     1      -9.284   6.414  67.327  1.00  0.00    -0.119 OA 
HETATM   20  O   UNL     1      -8.445   8.633  68.175  1.00  0.00    -0.128 OA 
HETATM   21  C   UNL     1      -9.900   7.171  69.778  1.00  0.00    -0.173 C  
ENDBRANCH  16  18
ENDBRANCH  13  16
ENDBRANCH   7  10
ENDBRANCH   6   7
ENDBRANCH   4   6
ENDBRANCH   2   4
TORSDOF 6
ENDMDL
MODEL      186
REMARK 921   NORMALIZED FREE ENERGY PREDICTED BY IDOCK:   -3.08 KCAL/MOL
REMARK 922        TOTAL FREE ENERGY PREDICTED BY IDOCK:   -4.80 KCAL/MOL
REMARK 923 INTER-LIGAND FREE ENERGY PREDICTED BY IDOCK:   -4.22 KCAL/MOL
REMARK 924 INTRA-LIGAND FREE ENERGY PREDICTED BY IDOCK:   -0.58 KCAL/MOL
REMARK 927      BINDING AFFINITY PREDICTED BY RF-SCORE:    0.00 PKD
ROOT
HETATM    1  C   UNL     1     -10.218  11.780  64.886  1.00  0.00    -0.315 C  
HETATM    2  C   UNL     1      -9.477  10.648  64.178  1.00  0.00    -0.281 C  
HETATM    3  C   UNL     1      -9.621  10.808  62.663  1.00  0.00    -0.296 C  
ENDROOT
BRANCH   2   4
HETATM    4  N   UNL     1      -8.069  10.665  64.606  1.00  0.00    -0.350 NA 
HETATM    5  H   UNL     1      -7.863  11.494  65.164  1.00  0.00     0.000 HD 
BRANCH   4   6
HETATM    6  C   UNL     1      -7.688   9.438  65.319  1.00  0.00    -0.108 C  
BRANCH   6   7
HETATM    7  C   UNL     1      -7.410   9.644  66.830  1.00  0.00    -0.091 C  
HETATM    8  H   UNL     1      -7.132  11.180  68.003  1.00  0.00     0.000 HD 
HETATM    9  O   UNL     1      -7.303  11.054  67.078  1.00  0.00    -0.109 OA 
BRANCH   7  10
HETATM   10  C   UNL     1      -8.482   9.053  67.743  1.00  0.00    -0.117 A  
HETATM   11  C   UNL     1      -8.286   7.876  68.486  1.00  0.00    -0.127 A  
HETATM   12  C   UNL     1      -9.297   7.354  69.294  1.00  0.00    -0.154 A  
HETATM   13  C   UNL     1     -10.528   7.993  69.364  1.00  0.00    -0.220 A  
HETATM   14  C   UNL     1      -9.723   9.704  67.858  1.00  0.00    -0.169 A  
HETATM   15  C   UNL     1     -10.739   9.180  68.666  1.00  0.00    -0.156 A  
BRANCH  13  16
HETATM   16  N   UNL     1     -11.548   7.426  70.179  1.00  0.00    -0.493 N  
HETATM   17  H   UNL     1     -12.174   6.707  69.814  1.00  0.00     0.000 HD 
BRANCH  16  18
HETATM   18  S   UNL     1     -11.690   7.981  71.768  1.00  0.00    -0.310 S  
HETATM   19  O   UNL     1     -10.818   9.112  71.979  1.00  0.00    -0.352 OA 
HETATM   20  O   UNL     1     -13.115   8.077  72.011  1.00  0.00    -0.313 OA 
HETATM   21  C   UNL     1     -11.082   6.586  72.695  1.00  0.00    -0.257 C  
ENDBRANCH  16  18
ENDBRANCH  13  16
ENDBRANCH   7  10
ENDBRANCH   6   7
ENDBRANCH   4   6
ENDBRANCH   2   4
TORSDOF 6
ENDMDL
MODEL      187
REMARK 921   NORMALIZED FREE ENERGY PREDICTED BY IDOCK:   -3.05 KCAL/MOL
REMARK 922        TOTAL FREE ENERGY PREDICTED BY IDOCK:   -4.77 KCAL/MOL
REMARK 923 INTER-LIGAND FREE ENERGY PREDICTED BY IDOCK:   -4.09 KCAL/MOL
REMARK 924 INTRA-LIGAND FREE ENERGY PREDICTED BY IDOCK:   -0.68 KCAL/MOL
REMARK 927      BINDING AFFINITY PREDICTED BY RF-SCORE:    0.00 PKD
ROOT
HETATM    1  C   UNL     1     -10.896  11.245  64.411  1.00  0.00    -0.373 C  
HETATM    2  C   UNL     1     -11.378  12.557  63.797  1.00  0.00    -0.466 C  
HETATM    3  C   UNL     1     -12.757  12.912  64.359  1.00  0.00    -0.322 C  
ENDROOT
BRANCH   2   4
HETATM    4  N   UNL     1     -10.381  13.603  64.073  1.00  0.00    -0.644 NA 
HETATM    5  H   UNL     1     -10.015  14.001  63.208  1.00  0.00     0.000 HD 
BRANCH   4   6
HETATM    6  C   UNL     1     -10.905  14.653  64.959  1.00  0.00    -0.417 C  
BRANCH   6   7
HETATM    7  C   UNL     1      -9.931  15.070  66.090  1.00  0.00    -0.291 C  
HETATM    8  H   UNL     1      -9.885  16.473  67.448  1.00  0.00     0.000 HD 
HETATM    9  O   UNL     1     -10.481  16.217  66.755  1.00  0.00    -0.296 OA 
BRANCH   7  10
HETATM   10  C   UNL     1      -9.669  13.971  67.118  1.00  0.00    -0.242 A  
HETATM   11  C   UNL     1      -8.377  13.624  67.547  1.00  0.00    -0.191 A  
HETATM   12  C   UNL     1      -8.173  12.599  68.473  1.00  0.00    -0.074 A  
HETATM   13  C   UNL     1      -9.259  11.895  68.977  1.00  0.00     0.293 A  
HETATM   14  C   UNL     1     -10.756  13.271  67.669  1.00  0.00    -0.250 A  
HETATM   15  C   UNL     1     -10.554  12.240  68.596  1.00  0.00    -0.249 A  
BRANCH  13  16
HETATM   16  N   UNL     1      -9.021  10.839  69.902  1.00  0.00    -0.136 N  
HETATM   17  H   UNL     1      -9.513  10.802  70.796  1.00  0.00     0.000 HD 
BRANCH  16  18
HETATM   18  S   UNL     1      -7.899   9.652  69.474  1.00  0.00    -0.133 S  
HETATM   19  O   UNL     1      -8.150   9.191  68.130  1.00  0.00    -0.103 OA 
HETATM   20  O   UNL     1      -6.610  10.194  69.853  1.00  0.00    -0.070 OA 
HETATM   21  C   UNL     1      -8.290   8.350  70.626  1.00  0.00    -0.125 C  
ENDBRANCH  16  18
ENDBRANCH  13  16
ENDBRANCH   7  10
ENDBRANCH   6   7
ENDBRANCH   4   6
ENDBRANCH   2   4
TORSDOF 6
ENDMDL
MODEL      188
REMARK 921   NORMALIZED FREE ENERGY PREDICTED BY IDOCK:   -3.05 KCAL/MOL
REMARK 922        TOTAL FREE ENERGY PREDICTED BY IDOCK:   -4.76 KCAL/MOL
REMARK 923 INTER-LIGAND FREE ENERGY PREDICTED BY IDOCK:   -4.33 KCAL/MOL
REMARK 924 INTRA-LIGAND FREE ENERGY PREDICTED BY IDOCK:   -0.43 KCAL/MOL
REMARK 927      BINDING AFFINITY PREDICTED BY RF-SCORE:    0.00 PKD
ROOT
HETATM    1  C   UNL     1     -10.724   9.419  71.265  1.00  0.00    -0.421 C  
HETATM    2  C   UNL     1     -12.027  10.065  70.800  1.00  0.00    -0.335 C  
HETATM    3  C   UNL     1     -13.099   9.896  71.879  1.00  0.00    -0.559 C  
ENDROOT
BRANCH   2   4
HETATM    4  N   UNL     1     -11.768  11.481  70.492  1.00  0.00    -0.485 NA 
HETATM    5  H   UNL     1     -11.490  11.995  71.328  1.00  0.00     0.000 HD 
BRANCH   4   6
HETATM    6  C   UNL     1     -10.782  11.646  69.414  1.00  0.00    -0.029 C  
BRANCH   6   7
HETATM    7  C   UNL     1     -11.335  11.342  67.999  1.00  0.00    -0.303 C  
HETATM    8  H   UNL     1     -11.837  12.403  66.437  1.00  0.00     0.000 HD 
HETATM    9  O   UNL     1     -11.498  12.588  67.305  1.00  0.00    -0.310 OA 
BRANCH   7  10
HETATM   10  C   UNL     1     -10.443  10.419  67.171  1.00  0.00    -0.311 A  
HETATM   11  C   UNL     1      -9.990   9.175  67.642  1.00  0.00    -0.245 A  
HETATM   12  C   UNL     1      -9.159   8.367  66.866  1.00  0.00    -0.179 A  
HETATM   13  C   UNL     1      -8.755   8.794  65.607  1.00  0.00    -0.184 A  
HETATM   14  C   UNL     1     -10.053  10.815  65.880  1.00  0.00    -0.314 A  
HETATM   15  C   UNL     1      -9.217  10.006  65.100  1.00  0.00    -0.273 A  
BRANCH  13  16
HETATM   16  N   UNL     1      -7.889   7.959  64.846  1.00  0.00    -0.119 N  
HETATM   17  H   UNL     1      -8.069   6.959  64.753  1.00  0.00     0.000 HD 
BRANCH  16  18
HETATM   18  S   UNL     1      -6.553   8.677  64.102  1.00  0.00    -0.071 S  
HETATM   19  O   UNL     1      -6.965   9.379  62.910  1.00  0.00    -0.096 OA 
HETATM   20  O   UNL     1      -5.846   9.359  65.167  1.00  0.00    -0.057 OA 
HETATM   21  C   UNL     1      -5.585   7.254  63.643  1.00  0.00    -0.037 C  
ENDBRANCH  16  18
ENDBRANCH  13  16
ENDBRANCH   7  10
ENDBRANCH   6   7
ENDBRANCH   4   6
ENDBRANCH   2   4
TORSDOF 6
ENDMDL
MODEL      189
REMARK 921   NORMALIZED FREE ENERGY PREDICTED BY IDOCK:   -3.04 KCAL/MOL
REMARK 922        TOTAL FREE ENERGY PREDICTED BY IDOCK:   -4.75 KCAL/MOL
REMARK 923 INTER-LIGAND FREE ENERGY PREDICTED BY IDOCK:   -4.45 KCAL/MOL
REMARK 924 INTRA-LIGAND FREE ENERGY PREDICTED BY IDOCK:   -0.29 KCAL/MOL
REMARK 927      BINDING AFFINITY PREDICTED BY RF-SCORE:    0.00 PKD
ROOT
HETATM    1  C   UNL     1      -7.057   5.580  70.725  1.00  0.00    -0.069 C  
HETATM    2  C   UNL     1      -7.347   6.911  71.417  1.00  0.00    -0.081 C  
HETATM    3  C   UNL     1      -6.829   8.063  70.552  1.00  0.00    -0.037 C  
ENDROOT
BRANCH   2   4
HETATM    4  N   UNL     1      -8.794   7.010  71.663  1.00  0.00    -0.131 NA 
HETATM    5  H   UNL     1      -9.018   6.791  72.634  1.00  0.00     0.000 HD 
BRANCH   4   6
HETATM    6  C   UNL     1      -9.337   8.319  71.275  1.00  0.00    -0.173 C  
BRANCH   6   7
HETATM    7  C   UNL     1     -10.556   8.241  70.321  1.00  0.00    -0.227 C  
HETATM    8  H   UNL     1     -12.416   7.667  70.475  1.00  0.00     0.000 HD 
HETATM    9  O   UNL     1     -11.669   7.715  71.058  1.00  0.00    -0.284 OA 
BRANCH   7  10
HETATM   10  C   UNL     1     -10.948   9.583  69.707  1.00  0.00    -0.245 A  
HETATM   11  C   UNL     1     -11.492  10.636  70.462  1.00  0.00    -0.407 A  
HETATM   12  C   UNL     1     -11.859  11.842  69.862  1.00  0.00    -0.423 A  
HETATM   13  C   UNL     1     -11.699  12.012  68.493  1.00  0.00    -0.332 A  
HETATM   14  C   UNL     1     -10.759   9.790  68.329  1.00  0.00    -0.277 A  
HETATM   15  C   UNL     1     -11.129  10.999  67.725  1.00  0.00    -0.356 A  
BRANCH  13  16
HETATM   16  N   UNL     1     -12.101  13.244  67.904  1.00  0.00    -0.297 N  
HETATM   17  H   UNL     1     -13.076  13.415  67.656  1.00  0.00     0.000 HD 
BRANCH  16  18
HETATM   18  S   UNL     1     -10.914  14.414  67.629  1.00  0.00    -0.296 S  
HETATM   19  O   UNL     1     -11.484  15.735  67.733  1.00  0.00    -0.290 OA 
HETATM   20  O   UNL     1      -9.791  14.014  68.453  1.00  0.00    -0.224 OA 
HETATM   21  C   UNL     1     -10.473  14.092  65.933  1.00  0.00    -0.306 C  
ENDBRANCH  16  18
ENDBRANCH  13  16
ENDBRANCH   7  10
ENDBRANCH   6   7
ENDBRANCH   4   6
ENDBRANCH   2   4
TORSDOF 6
ENDMDL
MODEL      190
REMARK 921   NORMALIZED FREE ENERGY PREDICTED BY IDOCK:   -3.03 KCAL/MOL
REMARK 922        TOTAL FREE ENERGY PREDICTED BY IDOCK:   -4.74 KCAL/MOL
REMARK 923 INTER-LIGAND FREE ENERGY PREDICTED BY IDOCK:   -4.34 KCAL/MOL
REMARK 924 INTRA-LIGAND FREE ENERGY PREDICTED BY IDOCK:   -0.40 KCAL/MOL
REMARK 927      BINDING AFFINITY PREDICTED BY RF-SCORE:    0.00 PKD
ROOT
HETATM    1  C   UNL     1     -12.198  13.371  65.768  1.00  0.00    -0.507 C  
HETATM    2  C   UNL     1     -11.781  12.127  64.984  1.00  0.00    -0.314 C  
HETATM    3  C   UNL     1     -12.578  12.051  63.680  1.00  0.00    -0.605 C  
ENDROOT
BRANCH   2   4
HETATM    4  N   UNL     1     -10.331  12.184  64.744  1.00  0.00    -0.279 NA 
HETATM    5  H   UNL     1      -9.830  12.481  65.582  1.00  0.00     0.000 HD 
BRANCH   4   6
HETATM    6  C   UNL     1      -9.800  10.912  64.232  1.00  0.00    -0.310 C  
BRANCH   6   7
HETATM    7  C   UNL     1      -8.694  10.285  65.118  1.00  0.00    -0.175 C  
HETATM    8  H   UNL     1      -7.791  10.771  66.780  1.00  0.00     0.000 HD 
HETATM    9  O   UNL     1      -8.469  11.155  66.237  1.00  0.00    -0.166 OA 
BRANCH   7  10
HETATM   10  C   UNL     1      -9.029   8.885  65.627  1.00  0.00    -0.249 A  
HETATM   11  C   UNL     1     -10.044   8.640  66.568  1.00  0.00    -0.339 A  
HETATM   12  C   UNL     1     -10.308   7.349  67.027  1.00  0.00    -0.384 A  
HETATM   13  C   UNL     1      -9.552   6.280  66.562  1.00  0.00    -0.146 A  
HETATM   14  C   UNL     1      -8.302   7.785  65.142  1.00  0.00    -0.113 A  
HETATM   15  C   UNL     1      -8.563   6.488  65.604  1.00  0.00    -0.132 A  
BRANCH  13  16
HETATM   16  N   UNL     1      -9.829   4.976  67.064  1.00  0.00    -0.168 N  
HETATM   17  H   UNL     1     -10.593   4.417  66.685  1.00  0.00     0.000 HD 
BRANCH  16  18
HETATM   18  S   UNL     1      -8.850   4.385  68.307  1.00  0.00    -0.111 S  
HETATM   19  O   UNL     1      -7.945   5.415  68.760  1.00  0.00    -0.086 OA 
HETATM   20  O   UNL     1      -9.758   3.728  69.225  1.00  0.00    -0.176 OA 
HETATM   21  C   UNL     1      -7.925   3.114  67.469  1.00  0.00    -0.076 C  
ENDBRANCH  16  18
ENDBRANCH  13  16
ENDBRANCH   7  10
ENDBRANCH   6   7
ENDBRANCH   4   6
ENDBRANCH   2   4
TORSDOF 6
ENDMDL
MODEL      191
REMARK 921   NORMALIZED FREE ENERGY PREDICTED BY IDOCK:   -3.02 KCAL/MOL
REMARK 922        TOTAL FREE ENERGY PREDICTED BY IDOCK:   -4.73 KCAL/MOL
REMARK 923 INTER-LIGAND FREE ENERGY PREDICTED BY IDOCK:   -4.36 KCAL/MOL
REMARK 924 INTRA-LIGAND FREE ENERGY PREDICTED BY IDOCK:   -0.37 KCAL/MOL
REMARK 927      BINDING AFFINITY PREDICTED BY RF-SCORE:    0.00 PKD
ROOT
HETATM    1  C   UNL     1     -10.050  11.074  63.561  1.00  0.00    -0.428 C  
HETATM    2  C   UNL     1      -9.562  10.067  64.601  1.00  0.00    -0.297 C  
HETATM    3  C   UNL     1      -8.033   9.995  64.568  1.00  0.00    -0.148 C  
ENDROOT
BRANCH   2   4
HETATM    4  N   UNL     1     -10.069  10.470  65.922  1.00  0.00    -0.253 NA 
HETATM    5  H   UNL     1      -9.970   9.714  66.601  1.00  0.00     0.000 HD 
BRANCH   4   6
HETATM    6  C   UNL     1      -9.439  11.706  66.409  1.00  0.00    -0.217 C  
BRANCH   6   7
HETATM    7  C   UNL     1     -10.444  12.830  66.766  1.00  0.00    -0.241 C  
HETATM    8  H   UNL     1     -11.936  13.027  68.011  1.00  0.00     0.000 HD 
HETATM    9  O   UNL     1     -11.320  12.339  67.792  1.00  0.00    -0.260 OA 
BRANCH   7  10
HETATM   10  C   UNL     1      -9.784  14.121  67.244  1.00  0.00    -0.236 A  
HETATM   11  C   UNL     1      -8.409  14.373  67.098  1.00  0.00    -0.214 A  
HETATM   12  C   UNL     1      -7.836  15.556  67.567  1.00  0.00    -0.191 A  
HETATM   13  C   UNL     1      -8.628  16.505  68.202  1.00  0.00    -0.193 A  
HETATM   14  C   UNL     1     -10.572  15.111  67.856  1.00  0.00    -0.257 A  
HETATM   15  C   UNL     1      -9.999  16.298  68.330  1.00  0.00    -0.236 A  
BRANCH  13  16
HETATM   16  N   UNL     1      -8.013  17.693  68.690  1.00  0.00    -0.284 N  
HETATM   17  H   UNL     1      -7.767  17.792  69.675  1.00  0.00     0.000 HD 
BRANCH  16  18
HETATM   18  S   UNL     1      -7.705  18.933  67.585  1.00  0.00    -0.240 S  
HETATM   19  O   UNL     1      -8.448  18.711  66.368  1.00  0.00    -0.287 OA 
HETATM   20  O   UNL     1      -7.853  20.160  68.341  1.00  0.00    -0.218 OA 
HETATM   21  C   UNL     1      -5.967  18.710  67.264  1.00  0.00    -0.165 C  
ENDBRANCH  16  18
ENDBRANCH  13  16
ENDBRANCH   7  10
ENDBRANCH   6   7
ENDBRANCH   4   6
ENDBRANCH   2   4
TORSDOF 6
ENDMDL
MODEL      192
REMARK 921   NORMALIZED FREE ENERGY PREDICTED BY IDOCK:   -3.01 KCAL/MOL
REMARK 922        TOTAL FREE ENERGY PREDICTED BY IDOCK:   -4.71 KCAL/MOL
REMARK 923 INTER-LIGAND FREE ENERGY PREDICTED BY IDOCK:   -4.51 KCAL/MOL
REMARK 924 INTRA-LIGAND FREE ENERGY PREDICTED BY IDOCK:   -0.20 KCAL/MOL
REMARK 927      BINDING AFFINITY PREDICTED BY RF-SCORE:    0.00 PKD
ROOT
HETATM    1  C   UNL     1     -11.215   6.164  68.974  1.00  0.00    -0.375 C  
HETATM    2  C   UNL     1      -9.904   6.218  69.757  1.00  0.00    -0.165 C  
HETATM    3  C   UNL     1      -9.250   4.834  69.759  1.00  0.00    -0.180 C  
ENDROOT
BRANCH   2   4
HETATM    4  N   UNL     1      -9.035   7.240  69.154  1.00  0.00    -0.135 NA 
HETATM    5  H   UNL     1      -9.335   7.467  68.206  1.00  0.00     0.000 HD 
BRANCH   4   6
HETATM    6  C   UNL     1      -8.940   8.450  69.984  1.00  0.00    -0.138 C  
BRANCH   6   7
HETATM    7  C   UNL     1     -10.229   8.776  70.779  1.00  0.00    -0.211 C  
HETATM    8  H   UNL     1     -10.693   8.990  72.664  1.00  0.00     0.000 HD 
HETATM    9  O   UNL     1      -9.903   8.790  72.177  1.00  0.00    -0.314 OA 
BRANCH   7  10
HETATM   10  C   UNL     1     -10.870  10.109  70.398  1.00  0.00    -0.365 A  
HETATM   11  C   UNL     1     -12.094  10.546  70.933  1.00  0.00    -0.487 A  
HETATM   12  C   UNL     1     -12.660  11.761  70.546  1.00  0.00    -0.234 A  
HETATM   13  C   UNL     1     -12.018  12.557  69.606  1.00  0.00    -0.272 A  
HETATM   14  C   UNL     1     -10.219  10.947  69.477  1.00  0.00    -0.097 A  
HETATM   15  C   UNL     1     -10.787  12.166  69.084  1.00  0.00    -0.165 A  
BRANCH  13  16
HETATM   16  N   UNL     1     -12.629  13.781  69.212  1.00  0.00    -0.233 N  
HETATM   17  H   UNL     1     -13.311  13.809  68.454  1.00  0.00     0.000 HD 
BRANCH  16  18
HETATM   18  S   UNL     1     -12.189  15.185  70.041  1.00  0.00    -0.327 S  
HETATM   19  O   UNL     1     -13.362  15.966  70.354  1.00  0.00    -0.240 OA 
HETATM   20  O   UNL     1     -11.282  14.744  71.081  1.00  0.00    -0.208 OA 
HETATM   21  C   UNL     1     -11.220  16.042  68.816  1.00  0.00    -0.360 C  
ENDBRANCH  16  18
ENDBRANCH  13  16
ENDBRANCH   7  10
ENDBRANCH   6   7
ENDBRANCH   4   6
ENDBRANCH   2   4
TORSDOF 6
ENDMDL
MODEL      193
REMARK 921   NORMALIZED FREE ENERGY PREDICTED BY IDOCK:   -3.00 KCAL/MOL
REMARK 922        TOTAL FREE ENERGY PREDICTED BY IDOCK:   -4.70 KCAL/MOL
REMARK 923 INTER-LIGAND FREE ENERGY PREDICTED BY IDOCK:   -4.00 KCAL/MOL
REMARK 924 INTRA-LIGAND FREE ENERGY PREDICTED BY IDOCK:   -0.70 KCAL/MOL
REMARK 927      BINDING AFFINITY PREDICTED BY RF-SCORE:    0.00 PKD
ROOT
HETATM    1  C   UNL     1     -11.793  11.772  69.105  1.00  0.00    -0.389 C  
HETATM    2  C   UNL     1     -11.762  12.781  67.959  1.00  0.00    -0.356 C  
HETATM    3  C   UNL     1     -10.430  13.535  67.974  1.00  0.00    -0.245 C  
ENDROOT
BRANCH   2   4
HETATM    4  N   UNL     1     -11.979  12.065  66.692  1.00  0.00    -0.603 NA 
HETATM    5  H   UNL     1     -12.804  12.417  66.207  1.00  0.00     0.000 HD 
BRANCH   4   6
HETATM    6  C   UNL     1     -10.795  12.100  65.822  1.00  0.00    -0.281 C  
BRANCH   6   7
HETATM    7  C   UNL     1     -10.224  10.703  65.474  1.00  0.00    -0.262 C  
HETATM    8  H   UNL     1      -8.695  10.030  64.460  1.00  0.00     0.000 HD 
HETATM    9  O   UNL     1      -9.046  10.886  64.674  1.00  0.00    -0.200 OA 
BRANCH   7  10
HETATM   10  C   UNL     1      -9.875   9.855  66.695  1.00  0.00    -0.265 A  
HETATM   11  C   UNL     1      -8.803  10.158  67.551  1.00  0.00    -0.126 A  
HETATM   12  C   UNL     1      -8.501   9.347  68.647  1.00  0.00    -0.119 A  
HETATM   13  C   UNL     1      -9.260   8.212  68.899  1.00  0.00    -0.147 A  
HETATM   14  C   UNL     1     -10.653   8.722  66.990  1.00  0.00    -0.283 A  
HETATM   15  C   UNL     1     -10.350   7.906  68.088  1.00  0.00    -0.249 A  
BRANCH  13  16
HETATM   16  N   UNL     1      -8.916   7.391  70.010  1.00  0.00    -0.145 N  
HETATM   17  H   UNL     1      -9.398   7.486  70.905  1.00  0.00     0.000 HD 
BRANCH  16  18
HETATM   18  S   UNL     1      -7.683   6.254  69.801  1.00  0.00    -0.107 S  
HETATM   19  O   UNL     1      -6.401   6.915  69.747  1.00  0.00    -0.036 OA 
HETATM   20  O   UNL     1      -7.953   5.219  70.778  1.00  0.00    -0.093 OA 
HETATM   21  C   UNL     1      -8.073   5.588  68.195  1.00  0.00    -0.096 C  
ENDBRANCH  16  18
ENDBRANCH  13  16
ENDBRANCH   7  10
ENDBRANCH   6   7
ENDBRANCH   4   6
ENDBRANCH   2   4
TORSDOF 6
ENDMDL
MODEL      194
REMARK 921   NORMALIZED FREE ENERGY PREDICTED BY IDOCK:   -3.00 KCAL/MOL
REMARK 922        TOTAL FREE ENERGY PREDICTED BY IDOCK:   -4.69 KCAL/MOL
REMARK 923 INTER-LIGAND FREE ENERGY PREDICTED BY IDOCK:   -4.28 KCAL/MOL
REMARK 924 INTRA-LIGAND FREE ENERGY PREDICTED BY IDOCK:   -0.41 KCAL/MOL
REMARK 927      BINDING AFFINITY PREDICTED BY RF-SCORE:    0.00 PKD
ROOT
HETATM    1  C   UNL     1     -10.498  19.730  67.629  1.00  0.00    -0.564 C  
HETATM    2  C   UNL     1     -10.471  18.382  66.912  1.00  0.00    -0.389 C  
HETATM    3  C   UNL     1      -9.067  18.122  66.360  1.00  0.00    -0.255 C  
ENDROOT
BRANCH   2   4
HETATM    4  N   UNL     1     -10.898  17.337  67.855  1.00  0.00    -0.344 NA 
HETATM    5  H   UNL     1     -11.904  17.175  67.795  1.00  0.00     0.000 HD 
BRANCH   4   6
HETATM    6  C   UNL     1     -10.148  16.085  67.678  1.00  0.00    -0.245 C  
BRANCH   6   7
HETATM    7  C   UNL     1     -10.973  14.937  67.044  1.00  0.00    -0.327 C  
HETATM    8  H   UNL     1     -11.756  14.580  65.291  1.00  0.00     0.000 HD 
HETATM    9  O   UNL     1     -11.251  15.284  65.679  1.00  0.00    -0.323 OA 
BRANCH   7  10
HETATM   10  C   UNL     1     -10.277  13.578  67.087  1.00  0.00    -0.247 A  
HETATM   11  C   UNL     1      -9.305  13.250  68.047  1.00  0.00    -0.218 A  
HETATM   12  C   UNL     1      -8.674  12.005  68.042  1.00  0.00    -0.175 A  
HETATM   13  C   UNL     1      -8.997  11.069  67.068  1.00  0.00    -0.148 A  
HETATM   14  C   UNL     1     -10.615  12.602  66.133  1.00  0.00    -0.280 A  
HETATM   15  C   UNL     1      -9.982  11.353  66.125  1.00  0.00    -0.265 A  
BRANCH  13  16
HETATM   16  N   UNL     1      -8.322   9.815  67.073  1.00  0.00    -0.117 N  
HETATM   17  H   UNL     1      -8.517   9.116  67.789  1.00  0.00     0.000 HD 
BRANCH  16  18
HETATM   18  S   UNL     1      -7.189   9.523  65.854  1.00  0.00    -0.099 S  
HETATM   19  O   UNL     1      -7.849   9.028  64.670  1.00  0.00    -0.110 OA 
HETATM   20  O   UNL     1      -6.363  10.713  65.811  1.00  0.00    -0.122 OA 
HETATM   21  C   UNL     1      -6.210   8.220  66.573  1.00  0.00    -0.054 C  
ENDBRANCH  16  18
ENDBRANCH  13  16
ENDBRANCH   7  10
ENDBRANCH   6   7
ENDBRANCH   4   6
ENDBRANCH   2   4
TORSDOF 6
ENDMDL
MODEL      195
REMARK 921   NORMALIZED FREE ENERGY PREDICTED BY IDOCK:   -2.99 KCAL/MOL
REMARK 922        TOTAL FREE ENERGY PREDICTED BY IDOCK:   -4.68 KCAL/MOL
REMARK 923 INTER-LIGAND FREE ENERGY PREDICTED BY IDOCK:   -4.66 KCAL/MOL
REMARK 924 INTRA-LIGAND FREE ENERGY PREDICTED BY IDOCK:   -0.03 KCAL/MOL
REMARK 927      BINDING AFFINITY PREDICTED BY RF-SCORE:    0.00 PKD
ROOT
HETATM    1  C   UNL     1     -11.916  11.172  69.318  1.00  0.00    -0.421 C  
HETATM    2  C   UNL     1     -11.822  12.308  68.301  1.00  0.00    -0.310 C  
HETATM    3  C   UNL     1     -10.492  13.044  68.474  1.00  0.00    -0.261 C  
ENDROOT
BRANCH   2   4
HETATM    4  N   UNL     1     -11.973  11.745  66.950  1.00  0.00    -0.561 NA 
HETATM    5  H   UNL     1     -12.770  12.158  66.465  1.00  0.00     0.000 HD 
BRANCH   4   6
HETATM    6  C   UNL     1     -10.744  11.871  66.153  1.00  0.00    -0.278 C  
BRANCH   6   7
HETATM    7  C   UNL     1     -10.183  10.522  65.637  1.00  0.00    -0.246 C  
HETATM    8  H   UNL     1      -8.650   9.965  64.562  1.00  0.00     0.000 HD 
HETATM    9  O   UNL     1      -8.994  10.791  64.878  1.00  0.00    -0.192 OA 
BRANCH   7  10
HETATM   10  C   UNL     1      -9.856   9.523  66.745  1.00  0.00    -0.277 A  
HETATM   11  C   UNL     1     -10.521   8.293  66.881  1.00  0.00    -0.365 A  
HETATM   12  C   UNL     1     -10.211   7.414  67.920  1.00  0.00    -0.242 A  
HETATM   13  C   UNL     1      -9.237   7.756  68.849  1.00  0.00    -0.140 A  
HETATM   14  C   UNL     1      -8.848   9.833  67.675  1.00  0.00    -0.127 A  
HETATM   15  C   UNL     1      -8.537   8.953  68.719  1.00  0.00    -0.136 A  
BRANCH  13  16
HETATM   16  N   UNL     1      -8.956   6.850  69.911  1.00  0.00    -0.142 N  
HETATM   17  H   UNL     1      -8.121   6.957  70.488  1.00  0.00     0.000 HD 
BRANCH  16  18
HETATM   18  S   UNL     1     -10.049   5.592  70.186  1.00  0.00    -0.262 S  
HETATM   19  O   UNL     1     -10.221   4.811  68.984  1.00  0.00    -0.155 OA 
HETATM   20  O   UNL     1      -9.617   4.977  71.425  1.00  0.00    -0.151 OA 
HETATM   21  C   UNL     1     -11.552   6.485  70.529  1.00  0.00    -0.393 C  
ENDBRANCH  16  18
ENDBRANCH  13  16
ENDBRANCH   7  10
ENDBRANCH   6   7
ENDBRANCH   4   6
ENDBRANCH   2   4
TORSDOF 6
ENDMDL
MODEL      196
REMARK 921   NORMALIZED FREE ENERGY PREDICTED BY IDOCK:   -2.96 KCAL/MOL
REMARK 922        TOTAL FREE ENERGY PREDICTED BY IDOCK:   -4.65 KCAL/MOL
REMARK 923 INTER-LIGAND FREE ENERGY PREDICTED BY IDOCK:   -4.36 KCAL/MOL
REMARK 924 INTRA-LIGAND FREE ENERGY PREDICTED BY IDOCK:   -0.29 KCAL/MOL
REMARK 927      BINDING AFFINITY PREDICTED BY RF-SCORE:    0.00 PKD
ROOT
HETATM    1  C   UNL     1     -10.592  12.168  63.493  1.00  0.00    -0.501 C  
HETATM    2  C   UNL     1     -10.097  10.745  63.742  1.00  0.00    -0.327 C  
HETATM    3  C   UNL     1      -8.726  10.555  63.089  1.00  0.00    -0.200 C  
ENDROOT
BRANCH   2   4
HETATM    4  N   UNL     1     -10.058  10.506  65.194  1.00  0.00    -0.310 NA 
HETATM    5  H   UNL     1      -9.387   9.774  65.429  1.00  0.00     0.000 HD 
BRANCH   4   6
HETATM    6  C   UNL     1      -9.790  11.736  65.954  1.00  0.00    -0.238 C  
BRANCH   6   7
HETATM    7  C   UNL     1     -10.393  11.741  67.381  1.00  0.00    -0.204 C  
HETATM    8  H   UNL     1     -12.193  11.723  68.139  1.00  0.00     0.000 HD 
HETATM    9  O   UNL     1     -11.823  11.720  67.264  1.00  0.00    -0.596 OA 
BRANCH   7  10
HETATM   10  C   UNL     1      -9.941  10.568  68.248  1.00  0.00    -0.176 A  
HETATM   11  C   UNL     1      -8.595  10.183  68.367  1.00  0.00    -0.119 A  
HETATM   12  C   UNL     1      -8.221   9.092  69.153  1.00  0.00    -0.121 A  
HETATM   13  C   UNL     1      -9.190   8.358  69.825  1.00  0.00    -0.157 A  
HETATM   14  C   UNL     1     -10.901   9.835  68.967  1.00  0.00    -0.223 A  
HETATM   15  C   UNL     1     -10.529   8.738  69.754  1.00  0.00    -0.222 A  
BRANCH  13  16
HETATM   16  N   UNL     1      -8.784   7.236  70.601  1.00  0.00    -0.146 N  
HETATM   17  H   UNL     1      -8.689   6.311  70.181  1.00  0.00     0.000 HD 
BRANCH  16  18
HETATM   18  S   UNL     1      -8.462   7.486  72.241  1.00  0.00    -0.120 S  
HETATM   19  O   UNL     1      -7.513   6.507  72.716  1.00  0.00    -0.092 OA 
HETATM   20  O   UNL     1      -8.201   8.905  72.365  1.00  0.00    -0.384 OA 
HETATM   21  C   UNL     1     -10.054   7.169  72.976  1.00  0.00    -0.228 C  
ENDBRANCH  16  18
ENDBRANCH  13  16
ENDBRANCH   7  10
ENDBRANCH   6   7
ENDBRANCH   4   6
ENDBRANCH   2   4
TORSDOF 6
ENDMDL
MODEL      197
REMARK 921   NORMALIZED FREE ENERGY PREDICTED BY IDOCK:   -2.96 KCAL/MOL
REMARK 922        TOTAL FREE ENERGY PREDICTED BY IDOCK:   -4.65 KCAL/MOL
REMARK 923 INTER-LIGAND FREE ENERGY PREDICTED BY IDOCK:   -4.15 KCAL/MOL
REMARK 924 INTRA-LIGAND FREE ENERGY PREDICTED BY IDOCK:   -0.50 KCAL/MOL
REMARK 927      BINDING AFFINITY PREDICTED BY RF-SCORE:    0.00 PKD
ROOT
HETATM    1  C   UNL     1     -11.902  11.710  68.814  1.00  0.00    -0.387 C  
HETATM    2  C   UNL     1     -11.665  13.045  68.110  1.00  0.00    -0.351 C  
HETATM    3  C   UNL     1     -10.180  13.410  68.188  1.00  0.00    -0.246 C  
ENDROOT
BRANCH   2   4
HETATM    4  N   UNL     1     -12.137  12.938  66.721  1.00  0.00    -0.444 NA 
HETATM    5  H   UNL     1     -12.823  13.662  66.508  1.00  0.00     0.000 HD 
BRANCH   4   6
HETATM    6  C   UNL     1     -11.031  12.954  65.753  1.00  0.00    -0.278 C  
BRANCH   6   7
HETATM    7  C   UNL     1     -11.051  11.774  64.749  1.00  0.00    -0.296 C  
HETATM    8  H   UNL     1     -10.698  11.556  62.840  1.00  0.00     0.000 HD 
HETATM    9  O   UNL     1     -10.686  12.279  63.456  1.00  0.00    -0.429 OA 
BRANCH   7  10
HETATM   10  C   UNL     1     -10.115  10.627  65.124  1.00  0.00    -0.374 A  
HETATM   11  C   UNL     1     -10.341   9.789  66.229  1.00  0.00    -0.235 A  
HETATM   12  C   UNL     1      -9.452   8.764  66.553  1.00  0.00    -0.281 A  
HETATM   13  C   UNL     1      -8.313   8.564  65.784  1.00  0.00    -0.140 A  
HETATM   14  C   UNL     1      -8.976  10.384  64.336  1.00  0.00    -0.247 A  
HETATM   15  C   UNL     1      -8.081   9.356  64.662  1.00  0.00    -0.133 A  
BRANCH  13  16
HETATM   16  N   UNL     1      -7.412   7.525  66.150  1.00  0.00    -0.081 N  
HETATM   17  H   UNL     1      -7.227   6.742  65.522  1.00  0.00     0.000 HD 
BRANCH  16  18
HETATM   18  S   UNL     1      -6.658   7.629  67.658  1.00  0.00    -0.064 S  
HETATM   19  O   UNL     1      -7.626   7.442  68.712  1.00  0.00    -0.101 OA 
HETATM   20  O   UNL     1      -5.487   6.782  67.556  1.00  0.00    -0.008 OA 
HETATM   21  C   UNL     1      -6.096   9.319  67.667  1.00  0.00    -0.054 C  
ENDBRANCH  16  18
ENDBRANCH  13  16
ENDBRANCH   7  10
ENDBRANCH   6   7
ENDBRANCH   4   6
ENDBRANCH   2   4
TORSDOF 6
ENDMDL
MODEL      198
REMARK 921   NORMALIZED FREE ENERGY PREDICTED BY IDOCK:   -2.96 KCAL/MOL
REMARK 922        TOTAL FREE ENERGY PREDICTED BY IDOCK:   -4.64 KCAL/MOL
REMARK 923 INTER-LIGAND FREE ENERGY PREDICTED BY IDOCK:   -4.48 KCAL/MOL
REMARK 924 INTRA-LIGAND FREE ENERGY PREDICTED BY IDOCK:   -0.16 KCAL/MOL
REMARK 927      BINDING AFFINITY PREDICTED BY RF-SCORE:    0.00 PKD
ROOT
HETATM    1  C   UNL     1      -9.517   5.467  66.693  1.00  0.00    -0.154 C  
HETATM    2  C   UNL     1     -10.801   5.950  67.367  1.00  0.00    -0.248 C  
HETATM    3  C   UNL     1     -10.639   5.884  68.887  1.00  0.00    -0.357 C  
ENDROOT
BRANCH   2   4
HETATM    4  N   UNL     1     -11.095   7.313  66.899  1.00  0.00    -0.574 NA 
HETATM    5  H   UNL     1     -12.099   7.454  66.781  1.00  0.00     0.000 HD 
BRANCH   4   6
HETATM    6  C   UNL     1     -10.516   8.341  67.776  1.00  0.00    -0.215 C  
BRANCH   6   7
HETATM    7  C   UNL     1      -9.518   9.290  67.066  1.00  0.00    -0.159 C  
HETATM    8  H   UNL     1      -9.165   9.819  65.219  1.00  0.00     0.000 HD 
HETATM    9  O   UNL     1      -9.776   9.238  65.655  1.00  0.00    -0.284 OA 
BRANCH   7  10
HETATM   10  C   UNL     1      -9.600  10.740  67.539  1.00  0.00    -0.176 A  
HETATM   11  C   UNL     1     -10.687  11.241  68.273  1.00  0.00    -0.231 A  
HETATM   12  C   UNL     1     -10.738  12.578  68.670  1.00  0.00    -0.263 A  
HETATM   13  C   UNL     1      -9.705  13.442  68.329  1.00  0.00    -0.226 A  
HETATM   14  C   UNL     1      -8.548  11.622  67.236  1.00  0.00    -0.154 A  
HETATM   15  C   UNL     1      -8.597  12.965  67.631  1.00  0.00    -0.182 A  
BRANCH  13  16
HETATM   16  N   UNL     1      -9.792  14.806  68.728  1.00  0.00    -0.223 N  
HETATM   17  H   UNL     1      -9.133  15.202  69.399  1.00  0.00     0.000 HD 
BRANCH  16  18
HETATM   18  S   UNL     1     -11.022  15.748  68.054  1.00  0.00    -0.333 S  
HETATM   19  O   UNL     1     -12.310  15.159  68.335  1.00  0.00    -0.046 OA 
HETATM   20  O   UNL     1     -10.718  17.108  68.449  1.00  0.00    -0.361 OA 
HETATM   21  C   UNL     1     -10.676  15.606  66.312  1.00  0.00    -0.295 C  
ENDBRANCH  16  18
ENDBRANCH  13  16
ENDBRANCH   7  10
ENDBRANCH   6   7
ENDBRANCH   4   6
ENDBRANCH   2   4
TORSDOF 6
ENDMDL
MODEL      199
REMARK 921   NORMALIZED FREE ENERGY PREDICTED BY IDOCK:   -2.92 KCAL/MOL
REMARK 922        TOTAL FREE ENERGY PREDICTED BY IDOCK:   -4.59 KCAL/MOL
REMARK 923 INTER-LIGAND FREE ENERGY PREDICTED BY IDOCK:   -4.30 KCAL/MOL
REMARK 924 INTRA-LIGAND FREE ENERGY PREDICTED BY IDOCK:   -0.29 KCAL/MOL
REMARK 927      BINDING AFFINITY PREDICTED BY RF-SCORE:    0.00 PKD
ROOT
HETATM    1  C   UNL     1      -9.335   6.023  71.989  1.00  0.00    -0.158 C  
HETATM    2  C   UNL     1     -10.533   6.960  71.859  1.00  0.00    -0.201 C  
HETATM    3  C   UNL     1     -10.174   8.335  72.427  1.00  0.00    -0.397 C  
ENDROOT
BRANCH   2   4
HETATM    4  N   UNL     1     -10.926   7.031  70.443  1.00  0.00    -0.257 NA 
HETATM    5  H   UNL     1     -11.183   7.983  70.179  1.00  0.00     0.000 HD 
BRANCH   4   6
HETATM    6  C   UNL     1      -9.890   6.494  69.549  1.00  0.00    -0.151 C  
BRANCH   6   7
HETATM    7  C   UNL     1      -8.943   7.569  68.960  1.00  0.00    -0.131 C  
HETATM    8  H   UNL     1      -7.676   7.654  67.475  1.00  0.00     0.000 HD 
HETATM    9  O   UNL     1      -8.257   6.996  67.837  1.00  0.00    -0.114 OA 
BRANCH   7  10
HETATM   10  C   UNL     1      -9.654   8.846  68.517  1.00  0.00    -0.165 A  
HETATM   11  C   UNL     1      -9.649  10.025  69.282  1.00  0.00    -0.227 A  
HETATM   12  C   UNL     1     -10.328  11.166  68.855  1.00  0.00    -0.220 A  
HETATM   13  C   UNL     1     -11.037  11.145  67.660  1.00  0.00    -0.287 A  
HETATM   14  C   UNL     1     -10.346   8.858  67.294  1.00  0.00    -0.350 A  
HETATM   15  C   UNL     1     -11.031  10.002  66.865  1.00  0.00    -0.070 A  
BRANCH  13  16
HETATM   16  N   UNL     1     -11.739  12.318  67.260  1.00  0.00    -0.347 N  
HETATM   17  H   UNL     1     -12.671  12.522  67.621  1.00  0.00     0.000 HD 
BRANCH  16  18
HETATM   18  S   UNL     1     -10.979  13.359  66.169  1.00  0.00    -0.277 S  
HETATM   19  O   UNL     1     -10.057  14.223  66.866  1.00  0.00    -0.256 OA 
HETATM   20  O   UNL     1     -10.537  12.512  65.080  1.00  0.00    -0.278 OA 
HETATM   21  C   UNL     1     -12.353  14.324  65.571  1.00  0.00    -0.408 C  
ENDBRANCH  16  18
ENDBRANCH  13  16
ENDBRANCH   7  10
ENDBRANCH   6   7
ENDBRANCH   4   6
ENDBRANCH   2   4
TORSDOF 6
ENDMDL
MODEL      200
REMARK 921   NORMALIZED FREE ENERGY PREDICTED BY IDOCK:   -2.89 KCAL/MOL
REMARK 922        TOTAL FREE ENERGY PREDICTED BY IDOCK:   -4.55 KCAL/MOL
REMARK 923 INTER-LIGAND FREE ENERGY PREDICTED BY IDOCK:   -4.51 KCAL/MOL
REMARK 924 INTRA-LIGAND FREE ENERGY PREDICTED BY IDOCK:   -0.04 KCAL/MOL
REMARK 927      BINDING AFFINITY PREDICTED BY RF-SCORE:    0.00 PKD
ROOT
HETATM    1  C   UNL     1     -10.297  16.953  65.832  1.00  0.00    -0.327 C  
HETATM    2  C   UNL     1     -10.072  15.446  65.929  1.00  0.00    -0.345 C  
HETATM    3  C   UNL     1      -9.096  15.144  67.069  1.00  0.00    -0.249 C  
ENDROOT
BRANCH   2   4
HETATM    4  N   UNL     1     -11.372  14.785  66.124  1.00  0.00    -0.342 NA 
HETATM    5  H   UNL     1     -11.659  14.282  65.284  1.00  0.00     0.000 HD 
BRANCH   4   6
HETATM    6  C   UNL     1     -11.379  13.903  67.300  1.00  0.00    -0.323 C  
BRANCH   6   7
HETATM    7  C   UNL     1     -12.144  12.573  67.089  1.00  0.00    -0.065 C  
HETATM    8  H   UNL     1     -12.785  11.557  65.548  1.00  0.00     0.000 HD 
HETATM    9  O   UNL     1     -12.316  12.373  65.678  1.00  0.00    -0.639 OA 
BRANCH   7  10
HETATM   10  C   UNL     1     -11.444  11.355  67.688  1.00  0.00    -0.348 A  
HETATM   11  C   UNL     1     -10.958  10.294  66.905  1.00  0.00    -0.140 A  
HETATM   12  C   UNL     1     -10.343   9.186  67.490  1.00  0.00    -0.324 A  
HETATM   13  C   UNL     1     -10.213   9.114  68.871  1.00  0.00    -0.207 A  
HETATM   14  C   UNL     1     -11.269  11.279  69.081  1.00  0.00    -0.337 A  
HETATM   15  C   UNL     1     -10.653  10.167  69.670  1.00  0.00    -0.286 A  
BRANCH  13  16
HETATM   16  N   UNL     1      -9.600   7.963  69.442  1.00  0.00    -0.160 N  
HETATM   17  H   UNL     1     -10.157   7.248  69.910  1.00  0.00     0.000 HD 
BRANCH  16  18
HETATM   18  S   UNL     1      -7.922   7.818  69.318  1.00  0.00    -0.127 S  
HETATM   19  O   UNL     1      -7.468   6.659  70.048  1.00  0.00    -0.089 OA 
HETATM   20  O   UNL     1      -7.630   7.979  67.908  1.00  0.00    -0.107 OA 
HETATM   21  C   UNL     1      -7.368   9.293  70.150  1.00  0.00    -0.096 C  
ENDBRANCH  16  18
ENDBRANCH  13  16
ENDBRANCH   7  10
ENDBRANCH   6   7
ENDBRANCH   4   6
ENDBRANCH   2   4
TORSDOF 6
ENDMDL
MODEL      201
REMARK 921   NORMALIZED FREE ENERGY PREDICTED BY IDOCK:   -2.89 KCAL/MOL
REMARK 922        TOTAL FREE ENERGY PREDICTED BY IDOCK:   -4.54 KCAL/MOL
REMARK 923 INTER-LIGAND FREE ENERGY PREDICTED BY IDOCK:   -3.95 KCAL/MOL
REMARK 924 INTRA-LIGAND FREE ENERGY PREDICTED BY IDOCK:   -0.60 KCAL/MOL
REMARK 927      BINDING AFFINITY PREDICTED BY RF-SCORE:    0.00 PKD
ROOT
HETATM    1  C   UNL     1     -11.960  14.086  68.996  1.00  0.00    -0.392 C  
HETATM    2  C   UNL     1     -11.081  12.837  68.953  1.00  0.00    -0.262 C  
HETATM    3  C   UNL     1     -11.905  11.614  69.359  1.00  0.00    -0.408 C  
ENDROOT
BRANCH   2   4
HETATM    4  N   UNL     1     -10.518  12.703  67.600  1.00  0.00    -0.216 NA 
HETATM    5  H   UNL     1      -9.498  12.723  67.621  1.00  0.00     0.000 HD 
BRANCH   4   6
HETATM    6  C   UNL     1     -11.011  11.503  66.908  1.00  0.00    -0.296 C  
BRANCH   6   7
HETATM    7  C   UNL     1      -9.919  10.439  66.630  1.00  0.00    -0.210 C  
HETATM    8  H   UNL     1      -8.028  10.471  66.141  1.00  0.00     0.000 HD 
HETATM    9  O   UNL     1      -8.698  11.123  66.311  1.00  0.00    -0.174 OA 
BRANCH   7  10
HETATM   10  C   UNL     1      -9.671   9.487  67.798  1.00  0.00    -0.176 A  
HETATM   11  C   UNL     1      -8.697   9.725  68.782  1.00  0.00    -0.128 A  
HETATM   12  C   UNL     1      -8.484   8.821  69.824  1.00  0.00    -0.129 A  
HETATM   13  C   UNL     1      -9.235   7.655  69.894  1.00  0.00    -0.147 A  
HETATM   14  C   UNL     1     -10.446   8.319  67.909  1.00  0.00    -0.259 A  
HETATM   15  C   UNL     1     -10.232   7.409  68.953  1.00  0.00    -0.200 A  
BRANCH  13  16
HETATM   16  N   UNL     1      -8.982   6.740  70.955  1.00  0.00    -0.149 N  
HETATM   17  H   UNL     1      -8.233   6.050  70.888  1.00  0.00     0.000 HD 
BRANCH  16  18
HETATM   18  S   UNL     1      -9.962   6.833  72.328  1.00  0.00    -0.157 S  
HETATM   19  O   UNL     1     -10.337   8.204  72.579  1.00  0.00    -0.282 OA 
HETATM   20  O   UNL     1     -10.963   5.802  72.150  1.00  0.00    -0.237 OA 
HETATM   21  C   UNL     1      -8.849   6.282  73.606  1.00  0.00    -0.124 C  
ENDBRANCH  16  18
ENDBRANCH  13  16
ENDBRANCH   7  10
ENDBRANCH   6   7
ENDBRANCH   4   6
ENDBRANCH   2   4
TORSDOF 6
ENDMDL
MODEL      202
REMARK 921   NORMALIZED FREE ENERGY PREDICTED BY IDOCK:   -2.88 KCAL/MOL
REMARK 922        TOTAL FREE ENERGY PREDICTED BY IDOCK:   -4.54 KCAL/MOL
REMARK 923 INTER-LIGAND FREE ENERGY PREDICTED BY IDOCK:   -4.50 KCAL/MOL
REMARK 924 INTRA-LIGAND FREE ENERGY PREDICTED BY IDOCK:   -0.03 KCAL/MOL
REMARK 927      BINDING AFFINITY PREDICTED BY RF-SCORE:    0.00 PKD
ROOT
HETATM    1  C   UNL     1     -11.943  14.239  64.533  1.00  0.00    -0.478 C  
HETATM    2  C   UNL     1     -12.713  12.959  64.851  1.00  0.00    -0.403 C  
HETATM    3  C   UNL     1     -12.876  12.128  63.576  1.00  0.00    -0.453 C  
ENDROOT
BRANCH   2   4
HETATM    4  N   UNL     1     -11.995  12.224  65.903  1.00  0.00    -0.597 NA 
HETATM    5  H   UNL     1     -12.438  11.325  66.093  1.00  0.00     0.000 HD 
BRANCH   4   6
HETATM    6  C   UNL     1     -10.568  12.057  65.592  1.00  0.00    -0.265 C  
BRANCH   6   7
HETATM    7  C   UNL     1     -10.255  10.833  64.694  1.00  0.00    -0.350 C  
HETATM    8  H   UNL     1      -9.107  10.488  63.152  1.00  0.00     0.000 HD 
HETATM    9  O   UNL     1      -9.299  11.237  63.702  1.00  0.00    -0.215 OA 
BRANCH   7  10
HETATM   10  C   UNL     1      -9.708   9.629  65.458  1.00  0.00    -0.372 A  
HETATM   11  C   UNL     1      -8.643   8.846  64.984  1.00  0.00    -0.202 A  
HETATM   12  C   UNL     1      -8.183   7.739  65.699  1.00  0.00    -0.135 A  
HETATM   13  C   UNL     1      -8.791   7.389  66.898  1.00  0.00    -0.132 A  
HETATM   14  C   UNL     1     -10.283   9.279  66.692  1.00  0.00    -0.323 A  
HETATM   15  C   UNL     1      -9.826   8.167  67.411  1.00  0.00    -0.242 A  
BRANCH  13  16
HETATM   16  N   UNL     1      -8.316   6.242  67.597  1.00  0.00    -0.116 N  
HETATM   17  H   UNL     1      -8.783   5.339  67.505  1.00  0.00     0.000 HD 
BRANCH  16  18
HETATM   18  S   UNL     1      -6.956   6.424  68.582  1.00  0.00    -0.083 S  
HETATM   19  O   UNL     1      -5.759   6.102  67.843  1.00  0.00    -0.008 OA 
HETATM   20  O   UNL     1      -7.120   7.715  69.220  1.00  0.00    -0.072 OA 
HETATM   21  C   UNL     1      -7.237   5.177  69.823  1.00  0.00    -0.060 C  
ENDBRANCH  16  18
ENDBRANCH  13  16
ENDBRANCH   7  10
ENDBRANCH   6   7
ENDBRANCH   4   6
ENDBRANCH   2   4
TORSDOF 6
ENDMDL
MODEL      203
REMARK 921   NORMALIZED FREE ENERGY PREDICTED BY IDOCK:   -2.86 KCAL/MOL
REMARK 922        TOTAL FREE ENERGY PREDICTED BY IDOCK:   -4.51 KCAL/MOL
REMARK 923 INTER-LIGAND FREE ENERGY PREDICTED BY IDOCK:   -4.26 KCAL/MOL
REMARK 924 INTRA-LIGAND FREE ENERGY PREDICTED BY IDOCK:   -0.26 KCAL/MOL
REMARK 927      BINDING AFFINITY PREDICTED BY RF-SCORE:    0.00 PKD
ROOT
HETATM    1  C   UNL     1      -9.493  16.158  68.756  1.00  0.00    -0.230 C  
HETATM    2  C   UNL     1     -10.072  16.625  67.422  1.00  0.00    -0.274 C  
HETATM    3  C   UNL     1      -9.927  18.144  67.304  1.00  0.00    -0.336 C  
ENDROOT
BRANCH   2   4
HETATM    4  N   UNL     1      -9.382  15.916  66.333  1.00  0.00    -0.270 NA 
HETATM    5  H   UNL     1      -8.603  15.362  66.690  1.00  0.00     0.000 HD 
BRANCH   4   6
HETATM    6  C   UNL     1     -10.299  15.090  65.536  1.00  0.00    -0.373 C  
BRANCH   6   7
HETATM    7  C   UNL     1     -11.077  14.033  66.360  1.00  0.00    -0.316 C  
HETATM    8  H   UNL     1     -12.908  13.352  66.389  1.00  0.00     0.000 HD 
HETATM    9  O   UNL     1     -12.431  14.000  65.884  1.00  0.00    -0.470 OA 
BRANCH   7  10
HETATM   10  C   UNL     1     -10.482  12.628  66.284  1.00  0.00    -0.270 A  
HETATM   11  C   UNL     1      -9.902  11.986  67.391  1.00  0.00    -0.191 A  
HETATM   12  C   UNL     1      -9.349  10.709  67.278  1.00  0.00    -0.166 A  
HETATM   13  C   UNL     1      -9.356  10.057  66.052  1.00  0.00    -0.174 A  
HETATM   14  C   UNL     1     -10.512  11.935  65.061  1.00  0.00    -0.333 A  
HETATM   15  C   UNL     1      -9.955  10.654  64.946  1.00  0.00    -0.382 A  
BRANCH  13  16
HETATM   16  N   UNL     1      -8.765   8.765  65.961  1.00  0.00    -0.156 N  
HETATM   17  H   UNL     1      -9.342   7.926  65.889  1.00  0.00     0.000 HD 
BRANCH  16  18
HETATM   18  S   UNL     1      -7.079   8.665  65.975  1.00  0.00    -0.085 S  
HETATM   19  O   UNL     1      -6.574   8.960  67.295  1.00  0.00    -0.060 OA 
HETATM   20  O   UNL     1      -6.767   7.413  65.316  1.00  0.00    -0.046 OA 
HETATM   21  C   UNL     1      -6.627   9.981  64.863  1.00  0.00    -0.126 C  
ENDBRANCH  16  18
ENDBRANCH  13  16
ENDBRANCH   7  10
ENDBRANCH   6   7
ENDBRANCH   4   6
ENDBRANCH   2   4
TORSDOF 6
ENDMDL
MODEL      204
REMARK 921   NORMALIZED FREE ENERGY PREDICTED BY IDOCK:   -2.80 KCAL/MOL
REMARK 922        TOTAL FREE ENERGY PREDICTED BY IDOCK:   -4.43 KCAL/MOL
REMARK 923 INTER-LIGAND FREE ENERGY PREDICTED BY IDOCK:   -4.10 KCAL/MOL
REMARK 924 INTRA-LIGAND FREE ENERGY PREDICTED BY IDOCK:   -0.34 KCAL/MOL
REMARK 927      BINDING AFFINITY PREDICTED BY RF-SCORE:    0.00 PKD
ROOT
HETATM    1  C   UNL     1      -6.560   5.246  68.343  1.00  0.00    -0.049 C  
HETATM    2  C   UNL     1      -7.939   4.998  68.952  1.00  0.00    -0.081 C  
HETATM    3  C   UNL     1      -8.029   5.686  70.316  1.00  0.00    -0.103 C  
ENDROOT
BRANCH   2   4
HETATM    4  N   UNL     1      -8.963   5.487  68.016  1.00  0.00    -0.108 NA 
HETATM    5  H   UNL     1      -9.901   5.370  68.402  1.00  0.00     0.000 HD 
BRANCH   4   6
HETATM    6  C   UNL     1      -8.727   6.879  67.608  1.00  0.00    -0.120 C  
BRANCH   6   7
HETATM    7  C   UNL     1      -9.824   7.461  66.680  1.00  0.00    -0.193 C  
HETATM    8  H   UNL     1     -11.715   7.099  66.354  1.00  0.00     0.000 HD 
HETATM    9  O   UNL     1     -11.043   6.743  66.922  1.00  0.00    -0.397 OA 
BRANCH   7  10
HETATM   10  C   UNL     1     -10.072   8.955  66.877  1.00  0.00    -0.343 A  
HETATM   11  C   UNL     1     -10.981   9.458  67.823  1.00  0.00    -0.122 A  
HETATM   12  C   UNL     1     -11.197  10.830  67.960  1.00  0.00    -0.372 A  
HETATM   13  C   UNL     1     -10.516  11.724  67.143  1.00  0.00    -0.220 A  
HETATM   14  C   UNL     1      -9.365   9.879  66.087  1.00  0.00    -0.232 A  
HETATM   15  C   UNL     1      -9.583  11.256  66.221  1.00  0.00    -0.235 A  
BRANCH  13  16
HETATM   16  N   UNL     1     -10.772  13.116  67.290  1.00  0.00    -0.253 N  
HETATM   17  H   UNL     1     -10.285  13.670  67.994  1.00  0.00     0.000 HD 
BRANCH  16  18
HETATM   18  S   UNL     1     -11.910  13.822  66.259  1.00  0.00    -0.422 S  
HETATM   19  O   UNL     1     -12.735  12.803  65.657  1.00  0.00    -0.549 OA 
HETATM   20  O   UNL     1     -12.494  14.906  67.023  1.00  0.00     0.115 OA 
HETATM   21  C   UNL     1     -10.867  14.550  65.011  1.00  0.00    -0.412 C  
ENDBRANCH  16  18
ENDBRANCH  13  16
ENDBRANCH   7  10
ENDBRANCH   6   7
ENDBRANCH   4   6
ENDBRANCH   2   4
TORSDOF 6
ENDMDL
MODEL      205
REMARK 921   NORMALIZED FREE ENERGY PREDICTED BY IDOCK:   -2.77 KCAL/MOL
REMARK 922        TOTAL FREE ENERGY PREDICTED BY IDOCK:   -4.39 KCAL/MOL
REMARK 923 INTER-LIGAND FREE ENERGY PREDICTED BY IDOCK:   -3.81 KCAL/MOL
REMARK 924 INTRA-LIGAND FREE ENERGY PREDICTED BY IDOCK:   -0.58 KCAL/MOL
REMARK 927      BINDING AFFINITY PREDICTED BY RF-SCORE:    0.00 PKD
ROOT
HETATM    1  C   UNL     1     -10.648  17.883  67.466  1.00  0.00    -0.386 C  
HETATM    2  C   UNL     1      -9.597  18.806  66.853  1.00  0.00    -0.309 C  
HETATM    3  C   UNL     1     -10.209  20.186  66.600  1.00  0.00    -0.556 C  
ENDROOT
BRANCH   2   4
HETATM    4  N   UNL     1      -8.440  18.871  67.760  1.00  0.00    -0.279 NA 
HETATM    5  H   UNL     1      -8.488  18.142  68.472  1.00  0.00     0.000 HD 
BRANCH   4   6
HETATM    6  C   UNL     1      -7.161  18.822  67.036  1.00  0.00    -0.209 C  
BRANCH   6   7
HETATM    7  C   UNL     1      -6.890  17.475  66.321  1.00  0.00    -0.287 C  
HETATM    8  H   UNL     1      -5.446  16.736  65.232  1.00  0.00     0.000 HD 
HETATM    9  O   UNL     1      -5.613  17.561  65.670  1.00  0.00    -0.177 OA 
BRANCH   7  10
HETATM   10  C   UNL     1      -6.899  16.266  67.254  1.00  0.00    -0.230 A  
HETATM   11  C   UNL     1      -6.022  16.140  68.345  1.00  0.00    -0.107 A  
HETATM   12  C   UNL     1      -6.045  15.010  69.164  1.00  0.00    -0.103 A  
HETATM   13  C   UNL     1      -6.937  13.980  68.899  1.00  0.00    -0.110 A  
HETATM   14  C   UNL     1      -7.819  15.228  67.026  1.00  0.00    -0.224 A  
HETATM   15  C   UNL     1      -7.842  14.092  67.845  1.00  0.00    -0.157 A  
BRANCH  13  16
HETATM   16  N   UNL     1      -6.923  12.829  69.737  1.00  0.00    -0.317 N  
HETATM   17  H   UNL     1      -7.011  12.915  70.750  1.00  0.00     0.000 HD 
BRANCH  16  18
HETATM   18  S   UNL     1      -6.758  11.317  69.001  1.00  0.00    -0.099 S  
HETATM   19  O   UNL     1      -8.057  10.754  68.724  1.00  0.00    -0.126 OA 
HETATM   20  O   UNL     1      -5.785  11.514  67.946  1.00  0.00    -0.043 OA 
HETATM   21  C   UNL     1      -5.967  10.372  70.288  1.00  0.00    -0.096 C  
ENDBRANCH  16  18
ENDBRANCH  13  16
ENDBRANCH   7  10
ENDBRANCH   6   7
ENDBRANCH   4   6
ENDBRANCH   2   4
TORSDOF 6
ENDMDL
MODEL      206
REMARK 921   NORMALIZED FREE ENERGY PREDICTED BY IDOCK:   -2.70 KCAL/MOL
REMARK 922        TOTAL FREE ENERGY PREDICTED BY IDOCK:   -4.29 KCAL/MOL
REMARK 923 INTER-LIGAND FREE ENERGY PREDICTED BY IDOCK:   -4.27 KCAL/MOL
REMARK 924 INTRA-LIGAND FREE ENERGY PREDICTED BY IDOCK:   -0.02 KCAL/MOL
REMARK 927      BINDING AFFINITY PREDICTED BY RF-SCORE:    0.00 PKD
ROOT
HETATM    1  C   UNL     1      -5.884   7.108  68.450  1.00  0.00    -0.022 C  
HETATM    2  C   UNL     1      -7.395   7.222  68.640  1.00  0.00    -0.100 C  
HETATM    3  C   UNL     1      -7.697   8.193  69.784  1.00  0.00    -0.100 C  
ENDROOT
BRANCH   2   4
HETATM    4  N   UNL     1      -7.999   7.656  67.371  1.00  0.00    -0.117 NA 
HETATM    5  H   UNL     1      -8.991   7.867  67.488  1.00  0.00     0.000 HD 
BRANCH   4   6
HETATM    6  C   UNL     1      -7.283   8.791  66.771  1.00  0.00    -0.082 C  
BRANCH   6   7
HETATM    7  C   UNL     1      -7.461   8.912  65.237  1.00  0.00    -0.089 C  
HETATM    8  H   UNL     1      -7.774   7.670  63.763  1.00  0.00     0.000 HD 
HETATM    9  O   UNL     1      -7.664   7.595  64.703  1.00  0.00    -0.106 OA 
BRANCH   7  10
HETATM   10  C   UNL     1      -8.623   9.810  64.818  1.00  0.00    -0.195 A  
HETATM   11  C   UNL     1      -8.789  10.277  63.503  1.00  0.00    -0.232 A  
HETATM   12  C   UNL     1      -9.853  11.114  63.162  1.00  0.00    -0.403 A  
HETATM   13  C   UNL     1     -10.763  11.509  64.133  1.00  0.00    -0.368 A  
HETATM   14  C   UNL     1      -9.577  10.192  65.777  1.00  0.00    -0.288 A  
HETATM   15  C   UNL     1     -10.644  11.033  65.437  1.00  0.00    -0.270 A  
BRANCH  13  16
HETATM   16  N   UNL     1     -11.826  12.381  63.762  1.00  0.00    -0.455 N  
HETATM   17  H   UNL     1     -12.522  12.098  63.072  1.00  0.00     0.000 HD 
BRANCH  16  18
HETATM   18  S   UNL     1     -11.897  13.899  64.500  1.00  0.00    -0.440 S  
HETATM   19  O   UNL     1     -12.597  14.832  63.651  1.00  0.00    -0.749 OA 
HETATM   20  O   UNL     1     -12.337  13.641  65.856  1.00  0.00    -0.438 OA 
HETATM   21  C   UNL     1     -10.174  14.347  64.574  1.00  0.00     0.179 C  
ENDBRANCH  16  18
ENDBRANCH  13  16
ENDBRANCH   7  10
ENDBRANCH   6   7
ENDBRANCH   4   6
ENDBRANCH   2   4
TORSDOF 6
ENDMDL
MODEL      207
REMARK 921   NORMALIZED FREE ENERGY PREDICTED BY IDOCK:   -2.70 KCAL/MOL
REMARK 922        TOTAL FREE ENERGY PREDICTED BY IDOCK:   -4.29 KCAL/MOL
REMARK 923 INTER-LIGAND FREE ENERGY PREDICTED BY IDOCK:   -3.91 KCAL/MOL
REMARK 924 INTRA-LIGAND FREE ENERGY PREDICTED BY IDOCK:   -0.38 KCAL/MOL
REMARK 927      BINDING AFFINITY PREDICTED BY RF-SCORE:    0.00 PKD
ROOT
HETATM    1  C   UNL     1      -7.623  14.372  68.015  1.00  0.00    -0.139 C  
HETATM    2  C   UNL     1      -9.135  14.369  67.799  1.00  0.00    -0.192 C  
HETATM    3  C   UNL     1      -9.454  13.807  66.411  1.00  0.00    -0.259 C  
ENDROOT
BRANCH   2   4
HETATM    4  N   UNL     1      -9.764  13.584  68.873  1.00  0.00    -0.418 NA 
HETATM    5  H   UNL     1     -10.570  14.074  69.263  1.00  0.00     0.000 HD 
BRANCH   4   6
HETATM    6  C   UNL     1     -10.128  12.229  68.434  1.00  0.00    -0.215 C  
BRANCH   6   7
HETATM    7  C   UNL     1     -11.043  11.467  69.425  1.00  0.00    -0.226 C  
HETATM    8  H   UNL     1     -12.884  10.816  69.410  1.00  0.00     0.000 HD 
HETATM    9  O   UNL     1     -12.323  11.283  68.803  1.00  0.00    -0.518 OA 
BRANCH   7  10
HETATM   10  C   UNL     1     -10.493  10.109  69.856  1.00  0.00    -0.322 A  
HETATM   11  C   UNL     1      -9.124   9.875  70.069  1.00  0.00    -0.217 A  
HETATM   12  C   UNL     1      -8.655   8.614  70.442  1.00  0.00    -0.160 A  
HETATM   13  C   UNL     1      -9.547   7.561  70.597  1.00  0.00    -0.171 A  
HETATM   14  C   UNL     1     -11.382   9.039  70.055  1.00  0.00    -0.072 A  
HETATM   15  C   UNL     1     -10.913   7.772  70.426  1.00  0.00    -0.255 A  
BRANCH  13  16
HETATM   16  N   UNL     1      -9.039   6.281  70.956  1.00  0.00    -0.153 N  
HETATM   17  H   UNL     1      -8.462   5.743  70.309  1.00  0.00     0.000 HD 
BRANCH  16  18
HETATM   18  S   UNL     1      -9.424   5.680  72.488  1.00  0.00    -0.144 S  
HETATM   19  O   UNL     1      -9.369   6.740  73.466  1.00  0.00    -0.140 OA 
HETATM   20  O   UNL     1     -10.627   4.896  72.297  1.00  0.00    -0.211 OA 
HETATM   21  C   UNL     1      -8.085   4.541  72.777  1.00  0.00    -0.095 C  
ENDBRANCH  16  18
ENDBRANCH  13  16
ENDBRANCH   7  10
ENDBRANCH   6   7
ENDBRANCH   4   6
ENDBRANCH   2   4
TORSDOF 6
ENDMDL
MODEL      208
REMARK 921   NORMALIZED FREE ENERGY PREDICTED BY IDOCK:   -2.65 KCAL/MOL
REMARK 922        TOTAL FREE ENERGY PREDICTED BY IDOCK:   -4.22 KCAL/MOL
REMARK 923 INTER-LIGAND FREE ENERGY PREDICTED BY IDOCK:   -4.63 KCAL/MOL
REMARK 924 INTRA-LIGAND FREE ENERGY PREDICTED BY IDOCK:    0.41 KCAL/MOL
REMARK 927      BINDING AFFINITY PREDICTED BY RF-SCORE:    0.00 PKD
ROOT
HETATM    1  C   UNL     1     -11.029  18.927  67.433  1.00  0.00    -0.319 C  
HETATM    2  C   UNL     1      -9.798  19.417  68.194  1.00  0.00    -0.393 C  
HETATM    3  C   UNL     1     -10.239  20.175  69.449  1.00  0.00    -0.046 C  
ENDROOT
BRANCH   2   4
HETATM    4  N   UNL     1      -8.949  18.259  68.515  1.00  0.00    -0.316 NA 
HETATM    5  H   UNL     1      -9.457  17.383  68.388  1.00  0.00     0.000 HD 
BRANCH   4   6
HETATM    6  C   UNL     1      -7.693  18.260  67.752  1.00  0.00    -0.235 C  
BRANCH   6   7
HETATM    7  C   UNL     1      -7.841  17.769  66.289  1.00  0.00    -0.264 C  
HETATM    8  H   UNL     1      -6.617  17.315  64.837  1.00  0.00     0.000 HD 
HETATM    9  O   UNL     1      -6.527  17.616  65.732  1.00  0.00    -0.215 OA 
BRANCH   7  10
HETATM   10  C   UNL     1      -8.601  16.451  66.153  1.00  0.00    -0.343 A  
HETATM   11  C   UNL     1      -9.837  16.350  65.492  1.00  0.00    -0.108 A  
HETATM   12  C   UNL     1     -10.513  15.132  65.405  1.00  0.00    -0.416 A  
HETATM   13  C   UNL     1      -9.971  13.995  65.990  1.00  0.00    -0.315 A  
HETATM   14  C   UNL     1      -8.052  15.281  66.705  1.00  0.00    -0.166 A  
HETATM   15  C   UNL     1      -8.731  14.058  66.622  1.00  0.00    -0.055 A  
BRANCH  13  16
HETATM   16  N   UNL     1     -10.693  12.771  65.906  1.00  0.00    -0.267 N  
HETATM   17  H   UNL     1     -11.211  12.522  65.062  1.00  0.00     0.000 HD 
BRANCH  16  18
HETATM   18  S   UNL     1     -10.666  11.744  67.247  1.00  0.00    -0.250 S  
HETATM   19  O   UNL     1     -11.961  11.135  67.433  1.00  0.00    -0.532 OA 
HETATM   20  O   UNL     1      -9.474  10.937  67.083  1.00  0.00    -0.159 OA 
HETATM   21  C   UNL     1     -10.356  12.890  68.575  1.00  0.00    -0.229 C  
ENDBRANCH  16  18
ENDBRANCH  13  16
ENDBRANCH   7  10
ENDBRANCH   6   7
ENDBRANCH   4   6
ENDBRANCH   2   4
TORSDOF 6
ENDMDL
MODEL      209
REMARK 921   NORMALIZED FREE ENERGY PREDICTED BY IDOCK:   -2.64 KCAL/MOL
REMARK 922        TOTAL FREE ENERGY PREDICTED BY IDOCK:   -4.21 KCAL/MOL
REMARK 923 INTER-LIGAND FREE ENERGY PREDICTED BY IDOCK:   -4.18 KCAL/MOL
REMARK 924 INTRA-LIGAND FREE ENERGY PREDICTED BY IDOCK:   -0.04 KCAL/MOL
REMARK 927      BINDING AFFINITY PREDICTED BY RF-SCORE:    0.00 PKD
ROOT
HETATM    1  C   UNL     1      -6.052   7.108  68.935  1.00  0.00    -0.027 C  
HETATM    2  C   UNL     1      -7.548   6.998  69.223  1.00  0.00    -0.096 C  
HETATM    3  C   UNL     1      -7.876   7.734  70.525  1.00  0.00    -0.096 C  
ENDROOT
BRANCH   2   4
HETATM    4  N   UNL     1      -8.292   7.542  68.076  1.00  0.00    -0.123 NA 
HETATM    5  H   UNL     1      -9.252   7.197  68.062  1.00  0.00     0.000 HD 
BRANCH   4   6
HETATM    6  C   UNL     1      -8.255   9.011  68.035  1.00  0.00    -0.110 C  
BRANCH   6   7
HETATM    7  C   UNL     1      -9.011   9.629  66.831  1.00  0.00    -0.134 C  
HETATM    8  H   UNL     1     -10.289   8.985  65.503  1.00  0.00     0.000 HD 
HETATM    9  O   UNL     1      -9.826   8.606  66.240  1.00  0.00    -0.267 OA 
BRANCH   7  10
HETATM   10  C   UNL     1      -9.889  10.823  67.199  1.00  0.00    -0.216 A  
HETATM   11  C   UNL     1     -10.145  11.882  66.311  1.00  0.00    -0.249 A  
HETATM   12  C   UNL     1     -10.936  12.968  66.690  1.00  0.00    -0.301 A  
HETATM   13  C   UNL     1     -11.475  13.020  67.969  1.00  0.00    -0.309 A  
HETATM   14  C   UNL     1     -10.475  10.878  68.475  1.00  0.00    -0.209 A  
HETATM   15  C   UNL     1     -11.267  11.968  68.858  1.00  0.00    -0.315 A  
BRANCH  13  16
HETATM   16  N   UNL     1     -12.260  14.150  68.335  1.00  0.00    -0.569 N  
HETATM   17  H   UNL     1     -13.277  14.134  68.253  1.00  0.00     0.000 HD 
BRANCH  16  18
HETATM   18  S   UNL     1     -11.453  15.518  68.911  1.00  0.00    -0.372 S  
HETATM   19  O   UNL     1     -11.402  16.533  67.887  1.00  0.00    -0.218 OA 
HETATM   20  O   UNL     1     -12.043  15.788  70.207  1.00  0.00    -0.368 OA 
HETATM   21  C   UNL     1      -9.813  14.881  69.193  1.00  0.00    -0.199 C  
ENDBRANCH  16  18
ENDBRANCH  13  16
ENDBRANCH   7  10
ENDBRANCH   6   7
ENDBRANCH   4   6
ENDBRANCH   2   4
TORSDOF 6
ENDMDL
MODEL      210
REMARK 921   NORMALIZED FREE ENERGY PREDICTED BY IDOCK:   -2.64 KCAL/MOL
REMARK 922        TOTAL FREE ENERGY PREDICTED BY IDOCK:   -4.21 KCAL/MOL
REMARK 923 INTER-LIGAND FREE ENERGY PREDICTED BY IDOCK:   -3.84 KCAL/MOL
REMARK 924 INTRA-LIGAND FREE ENERGY PREDICTED BY IDOCK:   -0.38 KCAL/MOL
REMARK 927      BINDING AFFINITY PREDICTED BY RF-SCORE:    0.00 PKD
ROOT
HETATM    1  C   UNL     1      -8.421   4.265  73.056  1.00  0.00    -0.094 C  
HETATM    2  C   UNL     1      -9.444   4.207  71.923  1.00  0.00    -0.140 C  
HETATM    3  C   UNL     1      -9.959   2.774  71.770  1.00  0.00    -0.183 C  
ENDROOT
BRANCH   2   4
HETATM    4  N   UNL     1     -10.529   5.157  72.217  1.00  0.00    -0.214 NA 
HETATM    5  H   UNL     1     -11.443   4.723  72.090  1.00  0.00     0.000 HD 
BRANCH   4   6
HETATM    6  C   UNL     1     -10.404   5.749  73.556  1.00  0.00    -0.236 C  
BRANCH   6   7
HETATM    7  C   UNL     1     -10.167   7.281  73.552  1.00  0.00    -0.358 C  
HETATM    8  H   UNL     1      -8.847   8.493  74.327  1.00  0.00     0.000 HD 
HETATM    9  O   UNL     1      -8.992   7.555  74.330  1.00  0.00    -0.230 OA 
BRANCH   7  10
HETATM   10  C   UNL     1      -9.996   7.876  72.156  1.00  0.00    -0.266 A  
HETATM   11  C   UNL     1      -8.777   7.848  71.459  1.00  0.00    -0.150 A  
HETATM   12  C   UNL     1      -8.653   8.421  70.193  1.00  0.00    -0.131 A  
HETATM   13  C   UNL     1      -9.745   9.046  69.605  1.00  0.00    -0.172 A  
HETATM   14  C   UNL     1     -11.099   8.480  71.527  1.00  0.00    -0.343 A  
HETATM   15  C   UNL     1     -10.976   9.059  70.257  1.00  0.00    -0.274 A  
BRANCH  13  16
HETATM   16  N   UNL     1      -9.585   9.642  68.322  1.00  0.00    -0.140 N  
HETATM   17  H   UNL     1      -9.333  10.626  68.227  1.00  0.00     0.000 HD 
BRANCH  16  18
HETATM   18  S   UNL     1      -9.825   8.668  66.963  1.00  0.00    -0.246 S  
HETATM   19  O   UNL     1     -10.657   7.538  67.302  1.00  0.00    -0.290 OA 
HETATM   20  O   UNL     1     -10.197   9.582  65.902  1.00  0.00    -0.266 OA 
HETATM   21  C   UNL     1      -8.170   8.101  66.625  1.00  0.00    -0.103 C  
ENDBRANCH  16  18
ENDBRANCH  13  16
ENDBRANCH   7  10
ENDBRANCH   6   7
ENDBRANCH   4   6
ENDBRANCH   2   4
TORSDOF 6
ENDMDL
MODEL      211
REMARK 921   NORMALIZED FREE ENERGY PREDICTED BY IDOCK:   -2.62 KCAL/MOL
REMARK 922        TOTAL FREE ENERGY PREDICTED BY IDOCK:   -4.19 KCAL/MOL
REMARK 923 INTER-LIGAND FREE ENERGY PREDICTED BY IDOCK:   -4.16 KCAL/MOL
REMARK 924 INTRA-LIGAND FREE ENERGY PREDICTED BY IDOCK:   -0.03 KCAL/MOL
REMARK 927      BINDING AFFINITY PREDICTED BY RF-SCORE:    0.00 PKD
ROOT
HETATM    1  C   UNL     1      -7.084   3.154  63.849  1.00  0.00    -0.049 C  
HETATM    2  C   UNL     1      -6.933   4.128  65.016  1.00  0.00    -0.058 C  
HETATM    3  C   UNL     1      -7.272   5.546  64.548  1.00  0.00    -0.055 C  
ENDROOT
BRANCH   2   4
HETATM    4  N   UNL     1      -7.803   3.685  66.117  1.00  0.00    -0.088 NA 
HETATM    5  H   UNL     1      -7.803   2.668  66.200  1.00  0.00     0.000 HD 
BRANCH   4   6
HETATM    6  C   UNL     1      -7.454   4.322  67.394  1.00  0.00    -0.073 C  
BRANCH   6   7
HETATM    7  C   UNL     1      -8.226   3.759  68.614  1.00  0.00    -0.073 C  
HETATM    8  H   UNL     1      -7.755   3.161  70.412  1.00  0.00     0.000 HD 
HETATM    9  O   UNL     1      -7.282   3.505  69.665  1.00  0.00    -0.041 OA 
BRANCH   7  10
HETATM   10  C   UNL     1      -9.321   4.688  69.135  1.00  0.00    -0.206 A  
HETATM   11  C   UNL     1      -9.622   4.819  70.502  1.00  0.00    -0.258 A  
HETATM   12  C   UNL     1     -10.644   5.662  70.940  1.00  0.00    -0.328 A  
HETATM   13  C   UNL     1     -11.393   6.380  70.017  1.00  0.00    -0.430 A  
HETATM   14  C   UNL     1     -10.067   5.452  68.221  1.00  0.00    -0.225 A  
HETATM   15  C   UNL     1     -11.095   6.297  68.659  1.00  0.00    -0.409 A  
BRANCH  13  16
HETATM   16  N   UNL     1     -12.445   7.216  70.490  1.00  0.00    -0.614 N  
HETATM   17  H   UNL     1     -13.422   6.937  70.396  1.00  0.00     0.000 HD 
BRANCH  16  18
HETATM   18  S   UNL     1     -12.023   8.683  71.213  1.00  0.00    -0.288 S  
HETATM   19  O   UNL     1     -13.131   9.605  71.150  1.00  0.00    -0.348 OA 
HETATM   20  O   UNL     1     -11.418   8.322  72.480  1.00  0.00    -0.378 OA 
HETATM   21  C   UNL     1     -10.718   9.253  70.142  1.00  0.00    -0.235 C  
ENDBRANCH  16  18
ENDBRANCH  13  16
ENDBRANCH   7  10
ENDBRANCH   6   7
ENDBRANCH   4   6
ENDBRANCH   2   4
TORSDOF 6
ENDMDL
MODEL      212
REMARK 921   NORMALIZED FREE ENERGY PREDICTED BY IDOCK:   -2.62 KCAL/MOL
REMARK 922        TOTAL FREE ENERGY PREDICTED BY IDOCK:   -4.18 KCAL/MOL
REMARK 923 INTER-LIGAND FREE ENERGY PREDICTED BY IDOCK:   -4.69 KCAL/MOL
REMARK 924 INTRA-LIGAND FREE ENERGY PREDICTED BY IDOCK:    0.51 KCAL/MOL
REMARK 927      BINDING AFFINITY PREDICTED BY RF-SCORE:    0.00 PKD
ROOT
HETATM    1  C   UNL     1      -5.505  18.960  69.170  1.00  0.00    -0.209 C  
HETATM    2  C   UNL     1      -5.637  18.366  67.770  1.00  0.00    -0.160 C  
HETATM    3  C   UNL     1      -5.719  16.840  67.865  1.00  0.00    -0.129 C  
ENDROOT
BRANCH   2   4
HETATM    4  N   UNL     1      -6.823  18.945  67.120  1.00  0.00    -0.202 NA 
HETATM    5  H   UNL     1      -7.421  18.217  66.728  1.00  0.00     0.000 HD 
BRANCH   4   6
HETATM    6  C   UNL     1      -7.580  19.824  68.023  1.00  0.00    -0.299 C  
BRANCH   6   7
HETATM    7  C   UNL     1      -9.108  19.572  68.018  1.00  0.00    -0.326 C  
HETATM    8  H   UNL     1     -10.682  20.535  67.378  1.00  0.00     0.000 HD 
HETATM    9  O   UNL     1      -9.745  20.689  67.381  1.00  0.00    -0.457 OA 
BRANCH   7  10
HETATM   10  C   UNL     1      -9.521  18.285  67.307  1.00  0.00    -0.264 A  
HETATM   11  C   UNL     1      -9.951  18.259  65.969  1.00  0.00    -0.222 A  
HETATM   12  C   UNL     1     -10.341  17.066  65.358  1.00  0.00    -0.084 A  
HETATM   13  C   UNL     1     -10.319  15.879  66.078  1.00  0.00    -0.348 A  
HETATM   14  C   UNL     1      -9.470  17.066  68.006  1.00  0.00    -0.256 A  
HETATM   15  C   UNL     1      -9.863  15.869  67.394  1.00  0.00    -0.234 A  
BRANCH  13  16
HETATM   16  N   UNL     1     -10.743  14.681  65.436  1.00  0.00    -0.343 N  
HETATM   17  H   UNL     1     -10.992  14.673  64.447  1.00  0.00     0.000 HD 
BRANCH  16  18
HETATM   18  S   UNL     1     -10.819  13.272  66.365  1.00  0.00    -0.290 S  
HETATM   19  O   UNL     1     -11.299  12.172  65.563  1.00  0.00    -0.328 OA 
HETATM   20  O   UNL     1      -9.545  13.200  67.052  1.00  0.00    -0.226 OA 
HETATM   21  C   UNL     1     -12.054  13.702  67.576  1.00  0.00    -0.316 C  
ENDBRANCH  16  18
ENDBRANCH  13  16
ENDBRANCH   7  10
ENDBRANCH   6   7
ENDBRANCH   4   6
ENDBRANCH   2   4
TORSDOF 6
ENDMDL
MODEL      213
REMARK 921   NORMALIZED FREE ENERGY PREDICTED BY IDOCK:   -2.53 KCAL/MOL
REMARK 922        TOTAL FREE ENERGY PREDICTED BY IDOCK:   -4.06 KCAL/MOL
REMARK 923 INTER-LIGAND FREE ENERGY PREDICTED BY IDOCK:   -3.99 KCAL/MOL
REMARK 924 INTRA-LIGAND FREE ENERGY PREDICTED BY IDOCK:   -0.07 KCAL/MOL
REMARK 927      BINDING AFFINITY PREDICTED BY RF-SCORE:    0.00 PKD
ROOT
HETATM    1  C   UNL     1     -11.898  12.930  67.430  1.00  0.00    -0.418 C  
HETATM    2  C   UNL     1     -11.153  13.385  68.683  1.00  0.00    -0.263 C  
HETATM    3  C   UNL     1     -11.994  13.075  69.923  1.00  0.00    -0.381 C  
ENDROOT
BRANCH   2   4
HETATM    4  N   UNL     1      -9.842  12.718  68.722  1.00  0.00    -0.422 NA 
HETATM    5  H   UNL     1      -9.769  12.096  69.527  1.00  0.00     0.000 HD 
BRANCH   4   6
HETATM    6  C   UNL     1      -9.542  12.006  67.471  1.00  0.00    -0.177 C  
BRANCH   6   7
HETATM    7  C   UNL     1      -8.415  10.950  67.599  1.00  0.00    -0.123 C  
HETATM    8  H   UNL     1      -6.999  10.566  68.888  1.00  0.00     0.000 HD 
HETATM    9  O   UNL     1      -7.690  11.213  68.809  1.00  0.00    -0.121 OA 
BRANCH   7  10
HETATM   10  C   UNL     1      -8.917   9.508  67.615  1.00  0.00    -0.124 A  
HETATM   11  C   UNL     1      -9.685   8.957  66.575  1.00  0.00    -0.322 A  
HETATM   12  C   UNL     1     -10.145   7.641  66.635  1.00  0.00    -0.278 A  
HETATM   13  C   UNL     1      -9.854   6.855  67.742  1.00  0.00    -0.136 A  
HETATM   14  C   UNL     1      -8.603   8.683  68.709  1.00  0.00    -0.130 A  
HETATM   15  C   UNL     1      -9.065   7.363  68.772  1.00  0.00    -0.131 A  
BRANCH  13  16
HETATM   16  N   UNL     1     -10.354   5.523  67.787  1.00  0.00    -0.195 N  
HETATM   17  H   UNL     1     -11.102   5.262  68.430  1.00  0.00     0.000 HD 
BRANCH  16  18
HETATM   18  S   UNL     1      -9.670   4.387  66.739  1.00  0.00    -0.219 S  
HETATM   19  O   UNL     1      -9.563   3.106  67.396  1.00  0.00    -0.185 OA 
HETATM   20  O   UNL     1     -10.395   4.534  65.494  1.00  0.00    -0.254 OA 
HETATM   21  C   UNL     1      -8.039   5.060  66.490  1.00  0.00    -0.108 C  
ENDBRANCH  16  18
ENDBRANCH  13  16
ENDBRANCH   7  10
ENDBRANCH   6   7
ENDBRANCH   4   6
ENDBRANCH   2   4
TORSDOF 6
ENDMDL
MODEL      214
REMARK 921   NORMALIZED FREE ENERGY PREDICTED BY IDOCK:   -2.52 KCAL/MOL
REMARK 922        TOTAL FREE ENERGY PREDICTED BY IDOCK:   -4.05 KCAL/MOL
REMARK 923 INTER-LIGAND FREE ENERGY PREDICTED BY IDOCK:   -3.90 KCAL/MOL
REMARK 924 INTRA-LIGAND FREE ENERGY PREDICTED BY IDOCK:   -0.15 KCAL/MOL
REMARK 927      BINDING AFFINITY PREDICTED BY RF-SCORE:    0.00 PKD
ROOT
HETATM    1  C   UNL     1      -6.855   6.921  67.631  1.00  0.00    -0.077 C  
HETATM    2  C   UNL     1      -8.101   6.388  66.926  1.00  0.00    -0.109 C  
HETATM    3  C   UNL     1      -9.307   6.500  67.861  1.00  0.00    -0.111 C  
ENDROOT
BRANCH   2   4
HETATM    4  N   UNL     1      -8.295   7.140  65.677  1.00  0.00    -0.134 NA 
HETATM    5  H   UNL     1      -9.286   7.292  65.488  1.00  0.00     0.000 HD 
BRANCH   4   6
HETATM    6  C   UNL     1      -7.553   8.408  65.668  1.00  0.00    -0.089 C  
BRANCH   6   7
HETATM    7  C   UNL     1      -8.113   9.463  64.681  1.00  0.00    -0.133 C  
HETATM    8  H   UNL     1      -8.996   9.418  62.940  1.00  0.00     0.000 HD 
HETATM    9  O   UNL     1      -8.653   8.772  63.545  1.00  0.00    -0.155 OA 
BRANCH   7  10
HETATM   10  C   UNL     1      -9.191  10.362  65.282  1.00  0.00    -0.240 A  
HETATM   11  C   UNL     1      -9.823  11.385  64.554  1.00  0.00    -0.302 A  
HETATM   12  C   UNL     1     -10.790  12.201  65.144  1.00  0.00    -0.343 A  
HETATM   13  C   UNL     1     -11.134  12.016  66.477  1.00  0.00    -0.314 A  
HETATM   14  C   UNL     1      -9.581  10.168  66.619  1.00  0.00    -0.230 A  
HETATM   15  C   UNL     1     -10.549  10.988  67.213  1.00  0.00    -0.287 A  
BRANCH  13  16
HETATM   16  N   UNL     1     -12.107  12.877  67.058  1.00  0.00    -0.312 N  
HETATM   17  H   UNL     1     -13.074  12.874  66.734  1.00  0.00     0.000 HD 
BRANCH  16  18
HETATM   18  S   UNL     1     -11.609  13.905  68.303  1.00  0.00    -0.358 S  
HETATM   19  O   UNL     1     -12.142  15.231  68.097  1.00  0.00    -0.176 OA 
HETATM   20  O   UNL     1     -11.869  13.174  69.526  1.00  0.00    -0.299 OA 
HETATM   21  C   UNL     1      -9.843  13.936  68.064  1.00  0.00    -0.234 C  
ENDBRANCH  16  18
ENDBRANCH  13  16
ENDBRANCH   7  10
ENDBRANCH   6   7
ENDBRANCH   4   6
ENDBRANCH   2   4
TORSDOF 6
ENDMDL
MODEL      215
REMARK 921   NORMALIZED FREE ENERGY PREDICTED BY IDOCK:   -2.51 KCAL/MOL
REMARK 922        TOTAL FREE ENERGY PREDICTED BY IDOCK:   -4.03 KCAL/MOL
REMARK 923 INTER-LIGAND FREE ENERGY PREDICTED BY IDOCK:   -3.79 KCAL/MOL
REMARK 924 INTRA-LIGAND FREE ENERGY PREDICTED BY IDOCK:   -0.25 KCAL/MOL
REMARK 927      BINDING AFFINITY PREDICTED BY RF-SCORE:    0.00 PKD
ROOT
HETATM    1  C   UNL     1      -7.347   5.495  73.739  1.00  0.00    -0.087 C  
HETATM    2  C   UNL     1      -7.264   5.136  72.257  1.00  0.00    -0.090 C  
HETATM    3  C   UNL     1      -7.173   3.616  72.101  1.00  0.00    -0.050 C  
ENDROOT
BRANCH   2   4
HETATM    4  N   UNL     1      -8.438   5.694  71.569  1.00  0.00    -0.127 NA 
HETATM    5  H   UNL     1      -8.582   5.248  70.663  1.00  0.00     0.000 HD 
BRANCH   4   6
HETATM    6  C   UNL     1      -9.653   5.624  72.394  1.00  0.00    -0.149 C  
BRANCH   6   7
HETATM    7  C   UNL     1     -10.682   6.745  72.103  1.00  0.00    -0.220 C  
HETATM    8  H   UNL     1     -11.513   8.182  73.133  1.00  0.00     0.000 HD 
HETATM    9  O   UNL     1     -10.883   7.495  73.311  1.00  0.00    -0.386 OA 
BRANCH   7  10
HETATM   10  C   UNL     1     -10.261   7.696  70.985  1.00  0.00    -0.200 A  
HETATM   11  C   UNL     1      -9.432   8.810  71.204  1.00  0.00    -0.306 A  
HETATM   12  C   UNL     1      -9.085   9.670  70.161  1.00  0.00    -0.280 A  
HETATM   13  C   UNL     1      -9.571   9.438  68.881  1.00  0.00    -0.155 A  
HETATM   14  C   UNL     1     -10.711   7.459  69.674  1.00  0.00    -0.245 A  
HETATM   15  C   UNL     1     -10.366   8.322  68.627  1.00  0.00    -0.225 A  
BRANCH  13  16
HETATM   16  N   UNL     1      -9.219  10.344  67.840  1.00  0.00    -0.138 N  
HETATM   17  H   UNL     1      -8.372  10.208  67.287  1.00  0.00     0.000 HD 
BRANCH  16  18
HETATM   18  S   UNL     1     -10.249  11.651  67.550  1.00  0.00    -0.198 S  
HETATM   19  O   UNL     1     -11.596  11.183  67.326  1.00  0.00    -0.514 OA 
HETATM   20  O   UNL     1      -9.951  12.608  68.596  1.00  0.00    -0.194 OA 
HETATM   21  C   UNL     1      -9.590  12.301  66.027  1.00  0.00    -0.222 C  
ENDBRANCH  16  18
ENDBRANCH  13  16
ENDBRANCH   7  10
ENDBRANCH   6   7
ENDBRANCH   4   6
ENDBRANCH   2   4
TORSDOF 6
ENDMDL
MODEL      216
REMARK 921   NORMALIZED FREE ENERGY PREDICTED BY IDOCK:   -2.35 KCAL/MOL
REMARK 922        TOTAL FREE ENERGY PREDICTED BY IDOCK:   -3.82 KCAL/MOL
REMARK 923 INTER-LIGAND FREE ENERGY PREDICTED BY IDOCK:   -3.62 KCAL/MOL
REMARK 924 INTRA-LIGAND FREE ENERGY PREDICTED BY IDOCK:   -0.20 KCAL/MOL
REMARK 927      BINDING AFFINITY PREDICTED BY RF-SCORE:    0.00 PKD
ROOT
HETATM    1  C   UNL     1      -5.870   4.870  64.483  1.00  0.00    -0.017 C  
HETATM    2  C   UNL     1      -6.086   6.368  64.688  1.00  0.00    -0.030 C  
HETATM    3  C   UNL     1      -6.150   7.070  63.330  1.00  0.00    -0.044 C  
ENDROOT
BRANCH   2   4
HETATM    4  N   UNL     1      -7.316   6.565  65.472  1.00  0.00    -0.073 NA 
HETATM    5  H   UNL     1      -7.489   5.772  66.090  1.00  0.00     0.000 HD 
BRANCH   4   6
HETATM    6  C   UNL     1      -7.303   7.829  66.221  1.00  0.00    -0.079 C  
BRANCH   6   7
HETATM    7  C   UNL     1      -8.616   8.122  66.991  1.00  0.00    -0.123 C  
HETATM    8  H   UNL     1      -9.206   7.994  68.849  1.00  0.00     0.000 HD 
HETATM    9  O   UNL     1      -8.402   7.815  68.377  1.00  0.00    -0.123 OA 
BRANCH   7  10
HETATM   10  C   UNL     1      -9.099   9.565  66.864  1.00  0.00    -0.158 A  
HETATM   11  C   UNL     1      -8.222  10.649  66.687  1.00  0.00    -0.134 A  
HETATM   12  C   UNL     1      -8.699  11.957  66.596  1.00  0.00    -0.185 A  
HETATM   13  C   UNL     1     -10.062  12.207  66.694  1.00  0.00    -0.199 A  
HETATM   14  C   UNL     1     -10.477   9.836  66.923  1.00  0.00    -0.281 A  
HETATM   15  C   UNL     1     -10.957  11.149  66.834  1.00  0.00    -0.333 A  
BRANCH  13  16
HETATM   16  N   UNL     1     -10.518  13.554  66.620  1.00  0.00    -0.272 N  
HETATM   17  H   UNL     1     -10.487  14.166  67.436  1.00  0.00     0.000 HD 
BRANCH  16  18
HETATM   18  S   UNL     1     -11.114  14.105  65.139  1.00  0.00    -0.370 S  
HETATM   19  O   UNL     1     -10.913  15.530  65.021  1.00  0.00    -0.402 OA 
HETATM   20  O   UNL     1     -10.584  13.188  64.151  1.00  0.00    -0.414 OA 
HETATM   21  C   UNL     1     -12.856  13.768  65.300  1.00  0.00    -0.384 C  
ENDBRANCH  16  18
ENDBRANCH  13  16
ENDBRANCH   7  10
ENDBRANCH   6   7
ENDBRANCH   4   6
ENDBRANCH   2   4
TORSDOF 6
ENDMDL
MODEL      217
REMARK 921   NORMALIZED FREE ENERGY PREDICTED BY IDOCK:   -2.30 KCAL/MOL
REMARK 922        TOTAL FREE ENERGY PREDICTED BY IDOCK:   -3.75 KCAL/MOL
REMARK 923 INTER-LIGAND FREE ENERGY PREDICTED BY IDOCK:   -3.17 KCAL/MOL
REMARK 924 INTRA-LIGAND FREE ENERGY PREDICTED BY IDOCK:   -0.58 KCAL/MOL
REMARK 927      BINDING AFFINITY PREDICTED BY RF-SCORE:    0.00 PKD
ROOT
HETATM    1  C   UNL     1      -9.227  10.698  66.707  1.00  0.00    -0.174 C  
HETATM    2  C   UNL     1      -9.482  10.042  65.351  1.00  0.00    -0.250 C  
HETATM    3  C   UNL     1      -9.671  11.124  64.284  1.00  0.00    -0.315 C  
ENDROOT
BRANCH   2   4
HETATM    4  N   UNL     1      -8.357   9.147  65.040  1.00  0.00    -0.149 NA 
HETATM    5  H   UNL     1      -7.500   9.460  65.496  1.00  0.00     0.000 HD 
BRANCH   4   6
HETATM    6  C   UNL     1      -8.652   7.745  65.370  1.00  0.00    -0.070 C  
BRANCH   6   7
HETATM    7  C   UNL     1      -7.861   7.201  66.586  1.00  0.00    -0.109 C  
HETATM    8  H   UNL     1      -6.415   7.860  67.721  1.00  0.00     0.000 HD 
HETATM    9  O   UNL     1      -6.900   8.194  66.976  1.00  0.00    -0.067 OA 
BRANCH   7  10
HETATM   10  C   UNL     1      -8.736   6.848  67.786  1.00  0.00    -0.120 A  
HETATM   11  C   UNL     1      -9.982   6.211  67.659  1.00  0.00    -0.150 A  
HETATM   12  C   UNL     1     -10.764   5.923  68.778  1.00  0.00    -0.354 A  
HETATM   13  C   UNL     1     -10.320   6.279  70.045  1.00  0.00    -0.199 A  
HETATM   14  C   UNL     1      -8.288   7.166  69.081  1.00  0.00    -0.129 A  
HETATM   15  C   UNL     1      -9.074   6.880  70.205  1.00  0.00    -0.152 A  
BRANCH  13  16
HETATM   16  N   UNL     1     -11.148   5.993  71.167  1.00  0.00    -0.283 N  
HETATM   17  H   UNL     1     -11.098   5.092  71.643  1.00  0.00     0.000 HD 
BRANCH  16  18
HETATM   18  S   UNL     1     -12.218   7.194  71.685  1.00  0.00    -0.367 S  
HETATM   19  O   UNL     1     -12.399   8.180  70.647  1.00  0.00    -0.032 OA 
HETATM   20  O   UNL     1     -13.347   6.480  72.246  1.00  0.00    -0.014 OA 
HETATM   21  C   UNL     1     -11.319   7.921  73.040  1.00  0.00    -0.236 C  
ENDBRANCH  16  18
ENDBRANCH  13  16
ENDBRANCH   7  10
ENDBRANCH   6   7
ENDBRANCH   4   6
ENDBRANCH   2   4
TORSDOF 6
ENDMDL
MODEL      218
REMARK 921   NORMALIZED FREE ENERGY PREDICTED BY IDOCK:   -2.18 KCAL/MOL
REMARK 922        TOTAL FREE ENERGY PREDICTED BY IDOCK:   -3.59 KCAL/MOL
REMARK 923 INTER-LIGAND FREE ENERGY PREDICTED BY IDOCK:   -3.41 KCAL/MOL
REMARK 924 INTRA-LIGAND FREE ENERGY PREDICTED BY IDOCK:   -0.18 KCAL/MOL
REMARK 927      BINDING AFFINITY PREDICTED BY RF-SCORE:    0.00 PKD
ROOT
HETATM    1  C   UNL     1      -6.603   3.281  63.914  1.00  0.00    -0.031 C  
HETATM    2  C   UNL     1      -6.571   4.806  63.832  1.00  0.00    -0.042 C  
HETATM    3  C   UNL     1      -7.374   5.271  62.615  1.00  0.00    -0.046 C  
ENDROOT
BRANCH   2   4
HETATM    4  N   UNL     1      -7.100   5.358  65.089  1.00  0.00    -0.064 NA 
HETATM    5  H   UNL     1      -7.980   5.851  64.934  1.00  0.00     0.000 HD 
BRANCH   4   6
HETATM    6  C   UNL     1      -7.242   4.332  66.132  1.00  0.00    -0.075 C  
BRANCH   6   7
HETATM    7  C   UNL     1      -8.709   4.049  66.545  1.00  0.00    -0.116 C  
HETATM    8  H   UNL     1      -9.628   2.673  67.583  1.00  0.00     0.000 HD 
HETATM    9  O   UNL     1      -8.730   2.847  67.330  1.00  0.00    -0.102 OA 
BRANCH   7  10
HETATM   10  C   UNL     1      -9.358   5.180  67.338  1.00  0.00    -0.128 A  
HETATM   11  C   UNL     1     -10.591   5.751  66.980  1.00  0.00    -0.373 A  
HETATM   12  C   UNL     1     -11.144   6.799  67.717  1.00  0.00    -0.285 A  
HETATM   13  C   UNL     1     -10.467   7.303  68.821  1.00  0.00    -0.200 A  
HETATM   14  C   UNL     1      -8.708   5.680  68.480  1.00  0.00    -0.110 A  
HETATM   15  C   UNL     1      -9.261   6.734  69.220  1.00  0.00    -0.141 A  
BRANCH  13  16
HETATM   16  N   UNL     1     -11.044   8.387  69.541  1.00  0.00    -0.439 N  
HETATM   17  H   UNL     1     -11.052   9.332  69.155  1.00  0.00     0.000 HD 
BRANCH  16  18
HETATM   18  S   UNL     1     -11.715   8.060  71.057  1.00  0.00    -0.249 S  
HETATM   19  O   UNL     1     -12.790   8.981  71.335  1.00  0.00    -0.320 OA 
HETATM   20  O   UNL     1     -11.931   6.627  71.075  1.00  0.00    -0.362 OA 
HETATM   21  C   UNL     1     -10.346   8.407  72.143  1.00  0.00    -0.327 C  
ENDBRANCH  16  18
ENDBRANCH  13  16
ENDBRANCH   7  10
ENDBRANCH   6   7
ENDBRANCH   4   6
ENDBRANCH   2   4
TORSDOF 6
ENDMDL
MODEL      219
REMARK 921   NORMALIZED FREE ENERGY PREDICTED BY IDOCK:   -2.04 KCAL/MOL
REMARK 922        TOTAL FREE ENERGY PREDICTED BY IDOCK:   -3.40 KCAL/MOL
REMARK 923 INTER-LIGAND FREE ENERGY PREDICTED BY IDOCK:   -2.80 KCAL/MOL
REMARK 924 INTRA-LIGAND FREE ENERGY PREDICTED BY IDOCK:   -0.61 KCAL/MOL
REMARK 927      BINDING AFFINITY PREDICTED BY RF-SCORE:    0.00 PKD
ROOT
HETATM    1  C   UNL     1      -9.784  10.354  67.202  1.00  0.00    -0.206 C  
HETATM    2  C   UNL     1      -9.993   9.649  65.864  1.00  0.00    -0.281 C  
HETATM    3  C   UNL     1     -10.487  10.658  64.824  1.00  0.00    -0.280 C  
ENDROOT
BRANCH   2   4
HETATM    4  N   UNL     1      -8.729   9.013  65.462  1.00  0.00    -0.170 NA 
HETATM    5  H   UNL     1      -7.926   9.569  65.758  1.00  0.00     0.000 HD 
BRANCH   4   6
HETATM    6  C   UNL     1      -8.623   7.629  65.945  1.00  0.00    -0.148 C  
BRANCH   6   7
HETATM    7  C   UNL     1      -7.449   7.389  66.927  1.00  0.00    -0.097 C  
HETATM    8  H   UNL     1      -5.879   8.399  67.502  1.00  0.00     0.000 HD 
HETATM    9  O   UNL     1      -6.599   8.546  66.901  1.00  0.00    -0.056 OA 
BRANCH   7  10
HETATM   10  C   UNL     1      -7.889   7.120  68.364  1.00  0.00    -0.122 A  
HETATM   11  C   UNL     1      -6.981   6.838  69.399  1.00  0.00    -0.067 A  
HETATM   12  C   UNL     1      -7.422   6.577  70.697  1.00  0.00    -0.080 A  
HETATM   13  C   UNL     1      -8.781   6.581  70.981  1.00  0.00    -0.138 A  
HETATM   14  C   UNL     1      -9.258   7.157  68.682  1.00  0.00    -0.135 A  
HETATM   15  C   UNL     1      -9.703   6.892  69.984  1.00  0.00    -0.170 A  
BRANCH  13  16
HETATM   16  N   UNL     1      -9.204   6.289  72.309  1.00  0.00    -0.141 N  
HETATM   17  H   UNL     1      -9.345   7.034  72.992  1.00  0.00     0.000 HD 
BRANCH  16  18
HETATM   18  S   UNL     1      -9.465   4.671  72.717  1.00  0.00    -0.134 S  
HETATM   19  O   UNL     1      -9.973   3.946  71.577  1.00  0.00    -0.183 OA 
HETATM   20  O   UNL     1      -8.255   4.250  73.395  1.00  0.00    -0.089 OA 
HETATM   21  C   UNL     1     -10.746   4.808  73.947  1.00  0.00    -0.298 C  
ENDBRANCH  16  18
ENDBRANCH  13  16
ENDBRANCH   7  10
ENDBRANCH   6   7
ENDBRANCH   4   6
ENDBRANCH   2   4
TORSDOF 6
ENDMDL
MODEL      220
REMARK 921   NORMALIZED FREE ENERGY PREDICTED BY IDOCK:   -1.94 KCAL/MOL
REMARK 922        TOTAL FREE ENERGY PREDICTED BY IDOCK:   -3.27 KCAL/MOL
REMARK 923 INTER-LIGAND FREE ENERGY PREDICTED BY IDOCK:   -3.22 KCAL/MOL
REMARK 924 INTRA-LIGAND FREE ENERGY PREDICTED BY IDOCK:   -0.05 KCAL/MOL
REMARK 927      BINDING AFFINITY PREDICTED BY RF-SCORE:    0.00 PKD
ROOT
HETATM    1  C   UNL     1     -10.877  13.098  65.607  1.00  0.00    -0.294 C  
HETATM    2  C   UNL     1     -10.585  11.643  65.246  1.00  0.00    -0.281 C  
HETATM    3  C   UNL     1     -11.144  11.336  63.855  1.00  0.00    -0.317 C  
ENDROOT
BRANCH   2   4
HETATM    4  N   UNL     1      -9.132  11.420  65.321  1.00  0.00    -0.378 NA 
HETATM    5  H   UNL     1      -8.736  11.850  66.157  1.00  0.00     0.000 HD 
BRANCH   4   6
HETATM    6  C   UNL     1      -8.782   9.995  65.239  1.00  0.00    -0.163 C  
BRANCH   6   7
HETATM    7  C   UNL     1      -7.557   9.594  66.100  1.00  0.00    -0.102 C  
HETATM    8  H   UNL     1      -5.856  10.424  66.584  1.00  0.00     0.000 HD 
HETATM    9  O   UNL     1      -6.606  10.669  66.056  1.00  0.00    -0.118 OA 
BRANCH   7  10
HETATM   10  C   UNL     1      -7.899   9.284  67.556  1.00  0.00    -0.096 A  
HETATM   11  C   UNL     1      -8.814  10.047  68.302  1.00  0.00    -0.116 A  
HETATM   12  C   UNL     1      -9.086   9.747  69.638  1.00  0.00    -0.235 A  
HETATM   13  C   UNL     1      -8.438   8.685  70.255  1.00  0.00    -0.132 A  
HETATM   14  C   UNL     1      -7.283   8.191  68.189  1.00  0.00    -0.094 A  
HETATM   15  C   UNL     1      -7.553   7.890  69.531  1.00  0.00    -0.099 A  
BRANCH  13  16
HETATM   16  N   UNL     1      -8.718   8.415  71.625  1.00  0.00    -0.166 N  
HETATM   17  H   UNL     1      -8.850   9.173  72.295  1.00  0.00     0.000 HD 
BRANCH  16  18
HETATM   18  S   UNL     1      -8.823   6.798  72.106  1.00  0.00    -0.132 S  
HETATM   19  O   UNL     1      -9.609   6.047  71.156  1.00  0.00    -0.169 OA 
HETATM   20  O   UNL     1      -7.465   6.410  72.430  1.00  0.00    -0.093 OA 
HETATM   21  C   UNL     1      -9.721   6.933  73.639  1.00  0.00    -0.235 C  
ENDBRANCH  16  18
ENDBRANCH  13  16
ENDBRANCH   7  10
ENDBRANCH   6   7
ENDBRANCH   4   6
ENDBRANCH   2   4
TORSDOF 6
ENDMDL
MODEL      221
REMARK 921   NORMALIZED FREE ENERGY PREDICTED BY IDOCK:   -1.70 KCAL/MOL
REMARK 922        TOTAL FREE ENERGY PREDICTED BY IDOCK:   -2.95 KCAL/MOL
REMARK 923 INTER-LIGAND FREE ENERGY PREDICTED BY IDOCK:   -3.86 KCAL/MOL
REMARK 924 INTRA-LIGAND FREE ENERGY PREDICTED BY IDOCK:    0.91 KCAL/MOL
REMARK 927      BINDING AFFINITY PREDICTED BY RF-SCORE:    0.00 PKD
ROOT
HETATM    1  C   UNL     1     -12.239  14.191  64.383  1.00  0.00    -0.466 C  
HETATM    2  C   UNL     1     -12.909  12.904  64.860  1.00  0.00    -0.295 C  
HETATM    3  C   UNL     1     -13.068  11.940  63.681  1.00  0.00    -0.163 C  
ENDROOT
BRANCH   2   4
HETATM    4  N   UNL     1     -12.101  12.325  65.945  1.00  0.00    -0.620 NA 
HETATM    5  H   UNL     1     -12.416  11.382  66.175  1.00  0.00     0.000 HD 
BRANCH   4   6
HETATM    6  C   UNL     1     -10.663  12.345  65.641  1.00  0.00    -0.264 C  
BRANCH   6   7
HETATM    7  C   UNL     1     -10.263  11.485  64.416  1.00  0.00    -0.300 C  
HETATM    8  H   UNL     1      -9.085  11.711  62.874  1.00  0.00     0.000 HD 
HETATM    9  O   UNL     1      -9.330  12.238  63.625  1.00  0.00    -0.004 OA 
BRANCH   7  10
HETATM   10  C   UNL     1      -9.641  10.139  64.781  1.00  0.00    -0.378 A  
HETATM   11  C   UNL     1      -8.686   9.498  63.974  1.00  0.00    -0.239 A  
HETATM   12  C   UNL     1      -8.155   8.257  64.330  1.00  0.00    -0.147 A  
HETATM   13  C   UNL     1      -8.579   7.630  65.494  1.00  0.00    -0.092 A  
HETATM   14  C   UNL     1     -10.028   9.504  65.974  1.00  0.00    -0.348 A  
HETATM   15  C   UNL     1      -9.498   8.258  66.331  1.00  0.00    -0.287 A  
BRANCH  13  16
HETATM   16  N   UNL     1      -8.037   6.354  65.821  1.00  0.00    -0.120 N  
HETATM   17  H   UNL     1      -8.633   5.528  65.882  1.00  0.00     0.000 HD 
BRANCH  16  18
HETATM   18  S   UNL     1      -6.375   6.252  66.106  1.00  0.00    -0.040 S  
HETATM   19  O   UNL     1      -5.981   7.218  67.104  1.00  0.00    -0.037 OA 
HETATM   20  O   UNL     1      -6.106   4.840  66.281  1.00  0.00    -0.029 OA 
HETATM   21  C   UNL     1      -5.705   6.731  64.526  1.00  0.00    -0.031 C  
ENDBRANCH  16  18
ENDBRANCH  13  16
ENDBRANCH   7  10
ENDBRANCH   6   7
ENDBRANCH   4   6
ENDBRANCH   2   4
TORSDOF 6
ENDMDL
MODEL      222
REMARK 921   NORMALIZED FREE ENERGY PREDICTED BY IDOCK:   -1.53 KCAL/MOL
REMARK 922        TOTAL FREE ENERGY PREDICTED BY IDOCK:   -2.72 KCAL/MOL
REMARK 923 INTER-LIGAND FREE ENERGY PREDICTED BY IDOCK:   -2.42 KCAL/MOL
REMARK 924 INTRA-LIGAND FREE ENERGY PREDICTED BY IDOCK:   -0.30 KCAL/MOL
REMARK 927      BINDING AFFINITY PREDICTED BY RF-SCORE:    0.00 PKD
ROOT
HETATM    1  C   UNL     1     -10.406  20.906  66.093  1.00  0.00     0.989 C  
HETATM    2  C   UNL     1      -9.780  19.514  66.152  1.00  0.00    -0.387 C  
HETATM    3  C   UNL     1      -8.259  19.629  66.032  1.00  0.00    -0.307 C  
ENDROOT
BRANCH   2   4
HETATM    4  N   UNL     1     -10.190  18.864  67.407  1.00  0.00    -0.368 NA 
HETATM    5  H   UNL     1     -10.998  19.332  67.818  1.00  0.00     0.000 HD 
BRANCH   4   6
HETATM    6  C   UNL     1     -10.440  17.426  67.235  1.00  0.00    -0.321 C  
BRANCH   6   7
HETATM    7  C   UNL     1     -10.303  16.599  68.538  1.00  0.00    -0.303 C  
HETATM    8  H   UNL     1     -11.529  15.912  69.894  1.00  0.00     0.000 HD 
HETATM    9  O   UNL     1     -11.613  16.419  69.096  1.00  0.00    -0.256 OA 
BRANCH   7  10
HETATM   10  C   UNL     1      -9.648  15.234  68.339  1.00  0.00    -0.206 A  
HETATM   11  C   UNL     1      -8.259  15.066  68.215  1.00  0.00    -0.146 A  
HETATM   12  C   UNL     1      -7.698  13.804  68.012  1.00  0.00    -0.152 A  
HETATM   13  C   UNL     1      -8.519  12.688  67.918  1.00  0.00    -0.173 A  
HETATM   14  C   UNL     1     -10.458  14.086  68.279  1.00  0.00    -0.245 A  
HETATM   15  C   UNL     1      -9.897  12.819  68.073  1.00  0.00    -0.226 A  
BRANCH  13  16
HETATM   16  N   UNL     1      -7.922  11.416  67.689  1.00  0.00    -0.119 N  
HETATM   17  H   UNL     1      -7.637  10.820  68.467  1.00  0.00     0.000 HD 
BRANCH  16  18
HETATM   18  S   UNL     1      -7.698  10.925  66.088  1.00  0.00    -0.096 S  
HETATM   19  O   UNL     1      -8.847  11.285  65.293  1.00  0.00    -0.133 OA 
HETATM   20  O   UNL     1      -6.369  11.379  65.734  1.00  0.00     0.122 OA 
HETATM   21  C   UNL     1      -7.629   9.153  66.257  1.00  0.00    -0.092 C  
ENDBRANCH  16  18
ENDBRANCH  13  16
ENDBRANCH   7  10
ENDBRANCH   6   7
ENDBRANCH   4   6
ENDBRANCH   2   4
TORSDOF 6
ENDMDL
MODEL      223
REMARK 921   NORMALIZED FREE ENERGY PREDICTED BY IDOCK:   10.24 KCAL/MOL
REMARK 922        TOTAL FREE ENERGY PREDICTED BY IDOCK:   13.19 KCAL/MOL
REMARK 923 INTER-LIGAND FREE ENERGY PREDICTED BY IDOCK:   12.66 KCAL/MOL
REMARK 924 INTRA-LIGAND FREE ENERGY PREDICTED BY IDOCK:    0.53 KCAL/MOL
REMARK 927      BINDING AFFINITY PREDICTED BY RF-SCORE:    0.00 PKD
ROOT
HETATM    1  C   UNL     1      -6.111  15.258  65.152  1.00  0.00    12.519 C  
HETATM    2  C   UNL     1      -6.374  16.558  65.910  1.00  0.00     1.704 C  
HETATM    3  C   UNL     1      -5.126  16.952  66.703  1.00  0.00    -0.074 C  
ENDROOT
BRANCH   2   4
HETATM    4  N   UNL     1      -6.769  17.596  64.945  1.00  0.00     0.915 NA 
HETATM    5  H   UNL     1      -7.202  17.185  64.118  1.00  0.00     0.000 HD 
BRANCH   4   6
HETATM    6  C   UNL     1      -7.638  18.617  65.549  1.00  0.00     0.280 C  
BRANCH   6   7
HETATM    7  C   UNL     1      -8.402  18.133  66.808  1.00  0.00    -0.254 C  
HETATM    8  H   UNL     1      -9.615  18.946  68.104  1.00  0.00     0.000 HD 
HETATM    9  O   UNL     1      -9.147  19.242  67.333  1.00  0.00    -0.288 OA 
BRANCH   7  10
HETATM   10  C   UNL     1      -9.352  16.967  66.545  1.00  0.00    -0.291 A  
HETATM   11  C   UNL     1     -10.488  17.081  65.726  1.00  0.00    -0.261 A  
HETATM   12  C   UNL     1     -11.347  15.999  65.526  1.00  0.00     0.140 A  
HETATM   13  C   UNL     1     -11.090  14.785  66.152  1.00  0.00    -0.339 A  
HETATM   14  C   UNL     1      -9.091  15.720  67.139  1.00  0.00    -0.228 A  
HETATM   15  C   UNL     1      -9.953  14.634  66.942  1.00  0.00    -0.254 A  
BRANCH  13  16
HETATM   16  N   UNL     1     -11.994  13.705  65.948  1.00  0.00    -0.381 N  
HETATM   17  H   UNL     1     -12.669  13.440  66.667  1.00  0.00     0.000 HD 
BRANCH  16  18
HETATM   18  S   UNL     1     -11.915  12.876  64.479  1.00  0.00    -0.424 S  
HETATM   19  O   UNL     1     -11.984  11.452  64.706  1.00  0.00     0.105 OA 
HETATM   20  O   UNL     1     -12.866  13.544  63.614  1.00  0.00    -0.548 OA 
HETATM   21  C   UNL     1     -10.282  13.303  63.908  1.00  0.00     0.342 C  
ENDBRANCH  16  18
ENDBRANCH  13  16
ENDBRANCH   7  10
ENDBRANCH   6   7
ENDBRANCH   4   6
ENDBRANCH   2   4
TORSDOF 6
ENDMDL
MODEL      224
REMARK 921   NORMALIZED FREE ENERGY PREDICTED BY IDOCK:   18.12 KCAL/MOL
REMARK 922        TOTAL FREE ENERGY PREDICTED BY IDOCK:   23.82 KCAL/MOL
REMARK 923 INTER-LIGAND FREE ENERGY PREDICTED BY IDOCK:   18.87 KCAL/MOL
REMARK 924 INTRA-LIGAND FREE ENERGY PREDICTED BY IDOCK:    4.95 KCAL/MOL
REMARK 927      BINDING AFFINITY PREDICTED BY RF-SCORE:    0.00 PKD
ROOT
HETATM    1  C   UNL     1      -7.754  16.312  71.432  1.00  0.00     5.891 C  
HETATM    2  C   UNL     1      -8.428  15.193  72.223  1.00  0.00     7.062 C  
HETATM    3  C   UNL     1      -9.713  14.763  71.512  1.00  0.00     3.244 C  
ENDROOT
BRANCH   2   4
HETATM    4  N   UNL     1      -7.478  14.080  72.372  1.00  0.00     3.772 NA 
HETATM    5  H   UNL     1      -7.949  13.233  72.692  1.00  0.00     0.000 HD 
BRANCH   4   6
HETATM    6  C   UNL     1      -6.716  13.830  71.140  1.00  0.00     1.316 C  
BRANCH   6   7
HETATM    7  C   UNL     1      -6.858  14.942  70.071  1.00  0.00    -0.129 C  
HETATM    8  H   UNL     1      -5.643  15.893  68.872  1.00  0.00     0.000 HD 
HETATM    9  O   UNL     1      -5.557  15.211  69.527  1.00  0.00    -0.093 OA 
BRANCH   7  10
HETATM   10  C   UNL     1      -7.815  14.590  68.934  1.00  0.00    -0.134 A  
HETATM   11  C   UNL     1      -9.061  15.217  68.765  1.00  0.00    -0.200 A  
HETATM   12  C   UNL     1      -9.919  14.853  67.726  1.00  0.00    -0.222 A  
HETATM   13  C   UNL     1      -9.550  13.846  66.844  1.00  0.00    -0.269 A  
HETATM   14  C   UNL     1      -7.446  13.599  68.007  1.00  0.00    -0.133 A  
HETATM   15  C   UNL     1      -8.307  13.231  66.965  1.00  0.00    -0.092 A  
BRANCH  13  16
HETATM   16  N   UNL     1     -10.454  13.480  65.806  1.00  0.00    -0.286 N  
HETATM   17  H   UNL     1     -11.086  14.166  65.392  1.00  0.00     0.000 HD 
BRANCH  16  18
HETATM   18  S   UNL     1     -10.449  11.873  65.284  1.00  0.00    -0.286 S  
HETATM   19  O   UNL     1     -11.545  11.642  64.374  1.00  0.00    -0.287 OA 
HETATM   20  O   UNL     1      -9.079  11.606  64.893  1.00  0.00    -0.015 OA 
HETATM   21  C   UNL     1     -10.750  10.996  66.806  1.00  0.00    -0.266 C  
ENDBRANCH  16  18
ENDBRANCH  13  16
ENDBRANCH   7  10
ENDBRANCH   6   7
ENDBRANCH   4   6
ENDBRANCH   2   4
TORSDOF 6
ENDMDL
MODEL      225
REMARK 921   NORMALIZED FREE ENERGY PREDICTED BY IDOCK:   23.77 KCAL/MOL
REMARK 922        TOTAL FREE ENERGY PREDICTED BY IDOCK:   31.46 KCAL/MOL
REMARK 923 INTER-LIGAND FREE ENERGY PREDICTED BY IDOCK:   25.73 KCAL/MOL
REMARK 924 INTRA-LIGAND FREE ENERGY PREDICTED BY IDOCK:    5.74 KCAL/MOL
REMARK 927      BINDING AFFINITY PREDICTED BY RF-SCORE:    0.00 PKD
ROOT
HETATM    1  C   UNL     1      -6.982  15.739  72.031  1.00  0.00     4.415 C  
HETATM    2  C   UNL     1      -7.841  14.974  73.036  1.00  0.00     7.810 C  
HETATM    3  C   UNL     1      -9.215  14.691  72.426  1.00  0.00     7.010 C  
ENDROOT
BRANCH   2   4
HETATM    4  N   UNL     1      -7.137  13.739  73.415  1.00  0.00     2.714 NA 
HETATM    5  H   UNL     1      -7.756  13.101  73.916  1.00  0.00     0.000 HD 
BRANCH   4   6
HETATM    6  C   UNL     1      -6.513  13.076  72.260  1.00  0.00     3.580 C  
BRANCH   6   7
HETATM    7  C   UNL     1      -6.443  13.956  70.987  1.00  0.00     0.416 C  
HETATM    8  H   UNL     1      -5.135  14.261  69.569  1.00  0.00     0.000 HD 
HETATM    9  O   UNL     1      -5.178  13.722  70.349  1.00  0.00    -0.096 OA 
BRANCH   7  10
HETATM   10  C   UNL     1      -7.567  13.690  69.988  1.00  0.00     1.223 A  
HETATM   11  C   UNL     1      -8.621  14.593  69.770  1.00  0.00     0.424 A  
HETATM   12  C   UNL     1      -9.643  14.306  68.864  1.00  0.00    -0.086 A  
HETATM   13  C   UNL     1      -9.635  13.105  68.167  1.00  0.00    -0.227 A  
HETATM   14  C   UNL     1      -7.558  12.497  69.245  1.00  0.00     0.363 A  
HETATM   15  C   UNL     1      -8.584  12.207  68.337  1.00  0.00    -0.141 A  
BRANCH  13  16
HETATM   16  N   UNL     1     -10.702  12.829  67.266  1.00  0.00    -0.235 N  
HETATM   17  H   UNL     1     -11.037  11.876  67.122  1.00  0.00     0.000 HD 
BRANCH  16  18
HETATM   18  S   UNL     1     -11.395  14.130  66.441  1.00  0.00    -0.349 S  
HETATM   19  O   UNL     1     -12.317  13.650  65.439  1.00  0.00    -0.417 OA 
HETATM   20  O   UNL     1     -11.824  15.050  67.475  1.00  0.00    -0.320 OA 
HETATM   21  C   UNL     1      -9.976  14.850  65.640  1.00  0.00    -0.358 C  
ENDBRANCH  16  18
ENDBRANCH  13  16
ENDBRANCH   7  10
ENDBRANCH   6   7
ENDBRANCH   4   6
ENDBRANCH   2   4
TORSDOF 6
ENDMDL
