MODEL        1
REMARK 921   NORMALIZED FREE ENERGY PREDICTED BY IDOCK:   -7.61 KCAL/MOL
REMARK 922        TOTAL FREE ENERGY PREDICTED BY IDOCK:  -12.97 KCAL/MOL
REMARK 923 INTER-LIGAND FREE ENERGY PREDICTED BY IDOCK:  -11.62 KCAL/MOL
REMARK 924 INTRA-LIGAND FREE ENERGY PREDICTED BY IDOCK:   -1.35 KCAL/MOL
REMARK 927      BINDING AFFINITY PREDICTED BY RF-SCORE:    0.00 PKD
ROOT
HETATM    1  C   UNK A   0     -14.047   8.527  71.827  1.00  0.00    -0.515 C  
HETATM    2  C   UNK A   0     -12.581   8.906  71.931  1.00  0.00    -0.377 C  
ENDROOT
BRANCH   2   3
HETATM    3  O   UNK A   0     -12.318  10.106  71.186  1.00  0.00    -0.322 OA 
BRANCH   3   4
HETATM    4  C   UNK A   0     -11.298  10.041  70.281  1.00  0.00    -0.308 C  
HETATM    5  O   UNK A   0     -10.492   9.123  70.188  1.00  0.00    -0.197 OA 
BRANCH   4   6
HETATM    6  C   UNK A   0     -11.305  11.285  69.374  1.00  0.00    -0.292 C  
BRANCH   6   7
HETATM    7  C   UNK A   0     -12.334  12.304  69.895  1.00  0.00    -0.121 C  
BRANCH   7   8
HETATM    8  C   UNK A   0     -11.905  13.772  69.804  1.00  0.00    -0.394 C  
BRANCH   8   9
HETATM    9  C   UNK A   0     -12.384  14.497  71.044  1.00  0.00    -0.417 A  
HETATM   10  C   UNK A   0     -11.476  15.161  71.882  1.00  0.00    -0.457 A  
HETATM   11  C   UNK A   0     -11.933  15.912  72.968  1.00  0.00    -0.596 A  
HETATM   12  C   UNK A   0     -13.300  16.007  73.225  1.00  0.00    -0.625 A  
HETATM   13  C   UNK A   0     -13.756  14.601  71.313  1.00  0.00    -0.439 A  
HETATM   14  C   UNK A   0     -14.210  15.351  72.400  1.00  0.00    -0.584 A  
ENDBRANCH   8   9
ENDBRANCH   7   8
ENDBRANCH   6   7
BRANCH   6  15
ATOM     15  N   ALA A   1     -11.603  10.839  67.979  1.00  0.00    -0.637 NA 
ATOM     16  H   ALA A   1     -12.580  11.021  67.746  1.00  0.00     0.000 HD 
BRANCH  15  17
ATOM     17  CA  ALA A   1     -10.709  11.423  66.958  1.00  0.00    -0.261 C  
ATOM     18  CB  ALA A   1     -10.129  10.345  66.044  1.00  0.00    -0.307 C  
BRANCH  17  19
ATOM     19  C   ALA A   1     -11.402  12.560  66.140  1.00  0.00    -0.343 C  
HETATM   20  C   UNK A   2      -9.482  15.644  67.059  1.00  0.00    -0.224 C  
ATOM     21  O   ALA A   1     -12.411  12.383  65.456  1.00  0.00    -0.643 OA 
HETATM   22  C   UNK A   2     -10.391  16.138  65.932  1.00  0.00    -0.384 C  
HETATM   23  N   UNK A   2     -10.806  13.820  66.189  1.00  0.00    -0.279 N  
HETATM   24  S   UNK A   2      -7.710  15.741  66.580  1.00  0.00     0.026 SA 
HETATM   25  C   UNK A   2      -7.158  16.863  67.888  1.00  0.00    -0.152 C  
HETATM   26  C   UNK A   2     -11.470  15.052  65.721  1.00  0.00    -0.236 C  
HETATM   27  C   UNK A   2      -9.872  14.174  67.260  1.00  0.00    -0.238 C  
HETATM   28  C   UNK A   2     -12.011  15.237  64.282  1.00  0.00    -0.223 C  
HETATM   29  C   UNK A   2      -8.011  16.638  69.119  1.00  0.00    -0.154 C  
HETATM   30  S   UNK A   2      -9.740  16.613  68.589  1.00  0.00    -0.257 SA 
HETATM   31  O   UNK A   2     -12.405  14.122  63.641  1.00  0.00    -0.741 OA 
HETATM   32  O   UNK A   2     -12.180  16.341  63.773  1.00  0.00    -0.923 OA 
ENDBRANCH  17  19
ENDBRANCH  15  17
ENDBRANCH   6  15
ENDBRANCH   4   6
ENDBRANCH   3   4
ENDBRANCH   2   3
TORSDOF 9
ENDMDL
MODEL        2
REMARK 921   NORMALIZED FREE ENERGY PREDICTED BY IDOCK:   -7.27 KCAL/MOL
REMARK 922        TOTAL FREE ENERGY PREDICTED BY IDOCK:  -12.44 KCAL/MOL
REMARK 923 INTER-LIGAND FREE ENERGY PREDICTED BY IDOCK:  -11.23 KCAL/MOL
REMARK 924 INTRA-LIGAND FREE ENERGY PREDICTED BY IDOCK:   -1.22 KCAL/MOL
REMARK 927      BINDING AFFINITY PREDICTED BY RF-SCORE:    0.00 PKD
ROOT
HETATM    1  C   UNK A   0     -13.250   7.123  71.484  1.00  0.00    -0.419 C  
HETATM    2  C   UNK A   0     -11.814   6.817  71.101  1.00  0.00    -0.360 C  
ENDROOT
BRANCH   2   3
HETATM    3  O   UNK A   0     -11.254   7.902  70.344  1.00  0.00    -0.269 OA 
BRANCH   3   4
HETATM    4  C   UNK A   0     -10.764   8.951  71.068  1.00  0.00    -0.247 C  
HETATM    5  O   UNK A   0     -10.129   8.856  72.111  1.00  0.00    -0.325 OA 
BRANCH   4   6
HETATM    6  C   UNK A   0     -11.111  10.285  70.382  1.00  0.00    -0.319 C  
BRANCH   6   7
HETATM    7  C   UNK A   0     -12.603  10.603  70.585  1.00  0.00    -0.454 C  
BRANCH   7   8
HETATM    8  C   UNK A   0     -12.955  11.272  71.917  1.00  0.00    -0.471 C  
BRANCH   8   9
HETATM    9  C   UNK A   0     -13.030  12.770  71.706  1.00  0.00    -0.416 A  
HETATM   10  C   UNK A   0     -12.193  13.406  70.778  1.00  0.00    -0.409 A  
HETATM   11  C   UNK A   0     -12.335  14.771  70.515  1.00  0.00    -0.398 A  
HETATM   12  C   UNK A   0     -13.315  15.511  71.175  1.00  0.00    -0.553 A  
HETATM   13  C   UNK A   0     -14.011  13.525  72.364  1.00  0.00    -0.638 A  
HETATM   14  C   UNK A   0     -14.150  14.888  72.100  1.00  0.00    -0.616 A  
ENDBRANCH   8   9
ENDBRANCH   7   8
ENDBRANCH   6   7
BRANCH   6  15
ATOM     15  N   ALA A   1     -10.746  10.171  68.936  1.00  0.00    -0.213 NA 
ATOM     16  H   ALA A   1     -11.558   9.899  68.383  1.00  0.00     0.000 HD 
BRANCH  15  17
ATOM     17  CA  ALA A   1     -10.123  11.388  68.378  1.00  0.00    -0.201 C  
ATOM     18  CB  ALA A   1      -8.723  11.099  67.838  1.00  0.00    -0.136 C  
BRANCH  17  19
ATOM     19  C   ALA A   1     -11.022  12.079  67.303  1.00  0.00    -0.262 C  
HETATM   20  C   UNK A   2      -9.767  15.609  67.197  1.00  0.00    -0.223 C  
ATOM     21  O   ALA A   1     -11.970  11.518  66.751  1.00  0.00    -0.470 OA 
HETATM   22  C   UNK A   2     -10.747  15.566  66.023  1.00  0.00    -0.331 C  
HETATM   23  N   UNK A   2     -10.692  13.390  66.957  1.00  0.00    -0.267 N  
HETATM   24  S   UNK A   2      -8.046  15.903  66.622  1.00  0.00    -0.230 SA 
HETATM   25  C   UNK A   2      -7.741  17.444  67.521  1.00  0.00    -0.192 C  
HETATM   26  C   UNK A   2     -11.585  14.277  66.189  1.00  0.00    -0.369 C  
HETATM   27  C   UNK A   2      -9.856  14.215  67.832  1.00  0.00    -0.224 C  
HETATM   28  C   UNK A   2     -12.140  13.925  64.787  1.00  0.00    -0.419 C  
HETATM   29  C   UNK A   2      -8.541  17.427  68.807  1.00  0.00    -0.221 C  
HETATM   30  S   UNK A   2     -10.226  16.913  68.395  1.00  0.00    -0.345 SA 
HETATM   31  O   UNK A   2     -12.298  12.618  64.515  1.00  0.00    -0.427 OA 
HETATM   32  O   UNK A   2     -12.522  14.779  63.991  1.00  0.00    -0.803 OA 
ENDBRANCH  17  19
ENDBRANCH  15  17
ENDBRANCH   6  15
ENDBRANCH   4   6
ENDBRANCH   3   4
ENDBRANCH   2   3
TORSDOF 9
ENDMDL
MODEL        3
REMARK 921   NORMALIZED FREE ENERGY PREDICTED BY IDOCK:   -7.11 KCAL/MOL
REMARK 922        TOTAL FREE ENERGY PREDICTED BY IDOCK:  -12.20 KCAL/MOL
REMARK 923 INTER-LIGAND FREE ENERGY PREDICTED BY IDOCK:  -10.63 KCAL/MOL
REMARK 924 INTRA-LIGAND FREE ENERGY PREDICTED BY IDOCK:   -1.57 KCAL/MOL
REMARK 927      BINDING AFFINITY PREDICTED BY RF-SCORE:    0.00 PKD
ROOT
HETATM    1  C   UNK A   0     -10.554  11.273  63.931  1.00  0.00    -0.455 C  
HETATM    2  C   UNK A   0     -10.649  12.783  64.041  1.00  0.00    -0.416 C  
ENDROOT
BRANCH   2   3
HETATM    3  O   UNK A   0     -10.731  13.183  65.419  1.00  0.00    -0.283 OA 
BRANCH   3   4
HETATM    4  C   UNK A   0     -11.793  13.972  65.754  1.00  0.00    -0.383 C  
HETATM    5  O   UNK A   0     -12.964  13.737  65.480  1.00  0.00    -0.651 OA 
BRANCH   4   6
HETATM    6  C   UNK A   0     -11.318  15.205  66.545  1.00  0.00    -0.234 C  
BRANCH   6   7
HETATM    7  C   UNK A   0      -9.785  15.177  66.682  1.00  0.00    -0.274 C  
BRANCH   7   8
HETATM    8  C   UNK A   0      -9.043  16.313  65.971  1.00  0.00    -0.332 C  
BRANCH   8   9
HETATM    9  C   UNK A   0      -9.340  17.613  66.689  1.00  0.00    -0.289 A  
HETATM   10  C   UNK A   0     -10.358  18.465  66.238  1.00  0.00    -0.440 A  
HETATM   11  C   UNK A   0     -10.693  19.613  66.961  1.00  0.00    -0.575 A  
HETATM   12  C   UNK A   0     -10.017  19.917  68.141  1.00  0.00    -0.551 A  
HETATM   13  C   UNK A   0      -8.667  17.930  67.877  1.00  0.00    -0.252 A  
HETATM   14  C   UNK A   0      -9.004  19.078  68.597  1.00  0.00    -0.402 A  
ENDBRANCH   8   9
ENDBRANCH   7   8
ENDBRANCH   6   7
BRANCH   6  15
ATOM     15  N   ALA A   1     -12.006  15.198  67.872  1.00  0.00    -0.467 NA 
ATOM     16  H   ALA A   1     -12.921  14.753  67.798  1.00  0.00     0.000 HD 
BRANCH  15  17
ATOM     17  CA  ALA A   1     -11.214  14.580  68.955  1.00  0.00    -0.262 C  
ATOM     18  CB  ALA A   1     -10.638  15.638  69.895  1.00  0.00    -0.328 C  
BRANCH  17  19
ATOM     19  C   ALA A   1     -12.018  13.493  69.736  1.00  0.00    -0.340 C  
HETATM   20  C   UNK A   2     -10.270  10.287  68.896  1.00  0.00    -0.205 C  
ATOM     21  O   ALA A   1     -13.045  13.737  70.373  1.00  0.00    -0.096 OA 
HETATM   22  C   UNK A   2     -11.261   9.854  69.978  1.00  0.00    -0.327 C  
HETATM   23  N   UNK A   2     -11.508  12.195  69.710  1.00  0.00    -0.483 N  
HETATM   24  S   UNK A   2      -8.532  10.071  69.457  1.00  0.00    -0.172 SA 
HETATM   25  C   UNK A   2      -7.996   8.914  68.173  1.00  0.00    -0.102 C  
HETATM   26  C   UNK A   2     -12.274  11.011  70.143  1.00  0.00    -0.344 C  
HETATM   27  C   UNK A   2     -10.550  11.780  68.683  1.00  0.00    -0.223 C  
HETATM   28  C   UNK A   2     -12.893  10.862  71.554  1.00  0.00    -0.454 C  
HETATM   29  C   UNK A   2      -8.773   9.196  66.904  1.00  0.00    -0.123 C  
HETATM   30  S   UNK A   2     -10.519   9.338  67.353  1.00  0.00    -0.253 SA 
HETATM   31  O   UNK A   2     -13.241  12.000  72.180  1.00  0.00    -0.495 OA 
HETATM   32  O   UNK A   2     -13.159   9.771  72.050  1.00  0.00    -0.414 OA 
ENDBRANCH  17  19
ENDBRANCH  15  17
ENDBRANCH   6  15
ENDBRANCH   4   6
ENDBRANCH   3   4
ENDBRANCH   2   3
TORSDOF 9
ENDMDL
MODEL        4
REMARK 921   NORMALIZED FREE ENERGY PREDICTED BY IDOCK:   -7.11 KCAL/MOL
REMARK 922        TOTAL FREE ENERGY PREDICTED BY IDOCK:  -12.19 KCAL/MOL
REMARK 923 INTER-LIGAND FREE ENERGY PREDICTED BY IDOCK:  -11.10 KCAL/MOL
REMARK 924 INTRA-LIGAND FREE ENERGY PREDICTED BY IDOCK:   -1.09 KCAL/MOL
REMARK 927      BINDING AFFINITY PREDICTED BY RF-SCORE:    0.00 PKD
ROOT
HETATM    1  C   UNK A   0     -13.482  15.770  72.818  1.00  0.00    -0.659 C  
HETATM    2  C   UNK A   0     -13.849  15.181  71.469  1.00  0.00    -0.508 C  
ENDROOT
BRANCH   2   3
HETATM    3  O   UNK A   0     -13.079  13.995  71.212  1.00  0.00    -0.328 OA 
BRANCH   3   4
HETATM    4  C   UNK A   0     -12.393  13.968  70.032  1.00  0.00    -0.337 C  
HETATM    5  O   UNK A   0     -12.125  14.947  69.346  1.00  0.00    -0.298 OA 
BRANCH   4   6
HETATM    6  C   UNK A   0     -11.982  12.525  69.683  1.00  0.00    -0.272 C  
BRANCH   6   7
HETATM    7  C   UNK A   0     -12.212  11.610  70.899  1.00  0.00    -0.401 C  
BRANCH   7   8
HETATM    8  C   UNK A   0     -12.340  10.117  70.579  1.00  0.00    -0.330 C  
BRANCH   8   9
HETATM    9  C   UNK A   0     -11.359   9.349  71.440  1.00  0.00    -0.451 A  
HETATM   10  C   UNK A   0     -11.812   8.440  72.406  1.00  0.00    -0.452 A  
HETATM   11  C   UNK A   0     -10.904   7.661  73.128  1.00  0.00    -0.440 A  
HETATM   12  C   UNK A   0      -9.536   7.782  72.889  1.00  0.00    -0.294 A  
HETATM   13  C   UNK A   0      -9.981   9.462  71.209  1.00  0.00    -0.274 A  
HETATM   14  C   UNK A   0      -9.075   8.683  71.932  1.00  0.00    -0.326 A  
ENDBRANCH   8   9
ENDBRANCH   7   8
ENDBRANCH   6   7
BRANCH   6  15
ATOM     15  N   ALA A   1     -10.552  12.543  69.248  1.00  0.00    -0.437 NA 
ATOM     16  H   ALA A   1      -9.978  11.986  69.881  1.00  0.00     0.000 HD 
BRANCH  15  17
ATOM     17  CA  ALA A   1     -10.346  12.116  67.849  1.00  0.00    -0.206 C  
ATOM     18  CB  ALA A   1     -10.649  10.629  67.671  1.00  0.00    -0.288 C  
BRANCH  17  19
ATOM     19  C   ALA A   1     -11.147  12.992  66.834  1.00  0.00    -0.277 C  
HETATM   20  C   UNK A   2      -9.404  16.308  66.918  1.00  0.00    -0.224 C  
ATOM     21  O   ALA A   1     -12.171  12.606  66.267  1.00  0.00    -0.562 OA 
HETATM   22  C   UNK A   2     -10.391  16.478  65.761  1.00  0.00    -0.359 C  
HETATM   23  N   UNK A   2     -10.637  14.262  66.562  1.00  0.00    -0.283 N  
HETATM   24  S   UNK A   2      -7.664  16.391  66.330  1.00  0.00    -0.110 SA 
HETATM   25  C   UNK A   2      -7.134  17.814  67.315  1.00  0.00    -0.181 C  
HETATM   26  C   UNK A   2     -11.402  15.313  65.864  1.00  0.00    -0.172 C  
HETATM   27  C   UNK A   2      -9.684  14.904  67.470  1.00  0.00    -0.212 C  
HETATM   28  C   UNK A   2     -12.015  15.131  64.454  1.00  0.00    -0.310 C  
HETATM   29  C   UNK A   2      -7.917  17.832  68.612  1.00  0.00    -0.276 C  
HETATM   30  S   UNK A   2      -9.661  17.588  68.200  1.00  0.00    -0.318 SA 
HETATM   31  O   UNK A   2     -12.359  13.878  64.107  1.00  0.00    -0.614 OA 
HETATM   32  O   UNK A   2     -12.279  16.077  63.718  1.00  0.00    -0.895 OA 
ENDBRANCH  17  19
ENDBRANCH  15  17
ENDBRANCH   6  15
ENDBRANCH   4   6
ENDBRANCH   3   4
ENDBRANCH   2   3
TORSDOF 9
ENDMDL
MODEL        5
REMARK 921   NORMALIZED FREE ENERGY PREDICTED BY IDOCK:   -7.00 KCAL/MOL
REMARK 922        TOTAL FREE ENERGY PREDICTED BY IDOCK:  -12.03 KCAL/MOL
REMARK 923 INTER-LIGAND FREE ENERGY PREDICTED BY IDOCK:  -10.69 KCAL/MOL
REMARK 924 INTRA-LIGAND FREE ENERGY PREDICTED BY IDOCK:   -1.34 KCAL/MOL
REMARK 927      BINDING AFFINITY PREDICTED BY RF-SCORE:    0.00 PKD
ROOT
HETATM    1  C   UNK A   0     -10.219  18.593  67.505  1.00  0.00    -0.425 C  
HETATM    2  C   UNK A   0     -10.436  18.275  66.037  1.00  0.00    -0.361 C  
ENDROOT
BRANCH   2   3
HETATM    3  O   UNK A   0      -9.996  16.940  65.741  1.00  0.00    -0.510 OA 
BRANCH   3   4
HETATM    4  C   UNK A   0     -10.852  16.173  65.006  1.00  0.00    -0.363 C  
HETATM    5  O   UNK A   0     -11.454  16.544  64.006  1.00  0.00    -1.137 OA 
BRANCH   4   6
HETATM    6  C   UNK A   0     -10.952  14.756  65.603  1.00  0.00    -0.344 C  
BRANCH   6   7
HETATM    7  C   UNK A   0     -11.899  13.896  64.747  1.00  0.00    -0.414 C  
BRANCH   7   8
HETATM    8  C   UNK A   0     -12.056  12.443  65.204  1.00  0.00    -0.464 C  
BRANCH   8   9
HETATM    9  C   UNK A   0     -10.969  11.609  64.559  1.00  0.00    -0.376 A  
HETATM   10  C   UNK A   0     -10.469  11.940  63.291  1.00  0.00    -0.427 A  
HETATM   11  C   UNK A   0      -9.398  11.228  62.744  1.00  0.00    -0.362 A  
HETATM   12  C   UNK A   0      -8.817  10.182  63.459  1.00  0.00    -0.242 A  
HETATM   13  C   UNK A   0     -10.376  10.555  65.268  1.00  0.00    -0.300 A  
HETATM   14  C   UNK A   0      -9.307   9.845  64.718  1.00  0.00    -0.339 A  
ENDBRANCH   8   9
ENDBRANCH   7   8
ENDBRANCH   6   7
BRANCH   6  15
ATOM     15  N   ALA A   1     -11.419  14.881  67.017  1.00  0.00    -0.349 NA 
ATOM     16  H   ALA A   1     -12.420  14.694  67.081  1.00  0.00     0.000 HD 
BRANCH  15  17
ATOM     17  CA  ALA A   1     -10.672  14.037  67.972  1.00  0.00    -0.246 C  
ATOM     18  CB  ALA A   1      -9.565  14.829  68.667  1.00  0.00    -0.218 C  
BRANCH  17  19
ATOM     19  C   ALA A   1     -11.609  13.332  69.004  1.00  0.00    -0.312 C  
HETATM   20  C   UNK A   2     -10.154   9.896  69.357  1.00  0.00    -0.212 C  
ATOM     21  O   ALA A   1     -12.630  13.852  69.457  1.00  0.00    -0.210 OA 
HETATM   22  C   UNK A   2     -11.224   9.921  70.451  1.00  0.00    -0.379 C  
HETATM   23  N   UNK A   2     -11.228  12.059  69.430  1.00  0.00    -0.399 N  
HETATM   24  S   UNK A   2      -8.468   9.735  70.075  1.00  0.00    -0.175 SA 
HETATM   25  C   UNK A   2      -8.001   8.184  69.268  1.00  0.00    -0.115 C  
HETATM   26  C   UNK A   2     -12.123  11.146  70.166  1.00  0.00    -0.362 C  
HETATM   27  C   UNK A   2     -10.277  11.257  68.658  1.00  0.00    -0.203 C  
HETATM   28  C   UNK A   2     -12.807  11.516  71.505  1.00  0.00    -0.380 C  
HETATM   29  C   UNK A   2      -8.697   8.100  67.926  1.00  0.00    -0.128 C  
HETATM   30  S   UNK A   2     -10.437   8.521  68.186  1.00  0.00    -0.140 SA 
HETATM   31  O   UNK A   2     -13.065  12.820  71.708  1.00  0.00    -0.404 OA 
HETATM   32  O   UNK A   2     -13.198  10.671  72.305  1.00  0.00    -0.400 OA 
ENDBRANCH  17  19
ENDBRANCH  15  17
ENDBRANCH   6  15
ENDBRANCH   4   6
ENDBRANCH   3   4
ENDBRANCH   2   3
TORSDOF 9
ENDMDL
MODEL        6
REMARK 921   NORMALIZED FREE ENERGY PREDICTED BY IDOCK:   -6.85 KCAL/MOL
REMARK 922        TOTAL FREE ENERGY PREDICTED BY IDOCK:  -11.81 KCAL/MOL
REMARK 923 INTER-LIGAND FREE ENERGY PREDICTED BY IDOCK:  -10.34 KCAL/MOL
REMARK 924 INTRA-LIGAND FREE ENERGY PREDICTED BY IDOCK:   -1.46 KCAL/MOL
REMARK 927      BINDING AFFINITY PREDICTED BY RF-SCORE:    0.00 PKD
ROOT
HETATM    1  C   UNK A   0     -11.804   8.548  72.448  1.00  0.00    -0.437 C  
HETATM    2  C   UNK A   0     -13.114   9.286  72.246  1.00  0.00    -0.441 C  
ENDROOT
BRANCH   2   3
HETATM    3  O   UNK A   0     -13.048  10.117  71.076  1.00  0.00    -0.380 OA 
BRANCH   3   4
HETATM    4  C   UNK A   0     -12.909  11.456  71.295  1.00  0.00    -0.379 C  
HETATM    5  O   UNK A   0     -13.303  12.055  72.290  1.00  0.00    -0.485 OA 
BRANCH   4   6
HETATM    6  C   UNK A   0     -12.171  12.120  70.119  1.00  0.00    -0.231 C  
BRANCH   6   7
HETATM    7  C   UNK A   0     -11.055  11.189  69.611  1.00  0.00    -0.297 C  
BRANCH   7   8
HETATM    8  C   UNK A   0     -11.247  10.651  68.190  1.00  0.00    -0.366 C  
BRANCH   8   9
HETATM    9  C   UNK A   0     -10.575   9.298  68.086  1.00  0.00    -0.248 A  
HETATM   10  C   UNK A   0     -10.190   8.598  69.237  1.00  0.00    -0.215 A  
HETATM   11  C   UNK A   0      -9.661   7.308  69.139  1.00  0.00    -0.160 A  
HETATM   12  C   UNK A   0      -9.515   6.707  67.890  1.00  0.00    -0.117 A  
HETATM   13  C   UNK A   0     -10.422   8.683  66.835  1.00  0.00    -0.329 A  
HETATM   14  C   UNK A   0      -9.894   7.395  66.739  1.00  0.00    -0.290 A  
ENDBRANCH   8   9
ENDBRANCH   7   8
ENDBRANCH   6   7
BRANCH   6  15
ATOM     15  N   ALA A   1     -11.641  13.437  70.588  1.00  0.00    -0.452 NA 
ATOM     16  H   ALA A   1     -10.638  13.503  70.413  1.00  0.00     0.000 HD 
BRANCH  15  17
ATOM     17  CA  ALA A   1     -12.344  14.604  70.018  1.00  0.00    -0.315 C  
ATOM     18  CB  ALA A   1     -13.193  15.312  71.072  1.00  0.00    -0.546 C  
BRANCH  17  19
ATOM     19  C   ALA A   1     -11.372  15.595  69.302  1.00  0.00    -0.345 C  
HETATM   20  C   UNK A   2     -11.123  14.264  65.808  1.00  0.00    -0.310 C  
ATOM     21  O   ALA A   1     -10.794  16.515  69.883  1.00  0.00    -0.344 OA 
HETATM   22  C   UNK A   2     -10.380  15.598  65.712  1.00  0.00    -0.386 C  
HETATM   23  N   UNK A   2     -11.190  15.416  67.930  1.00  0.00    -0.324 N  
HETATM   24  S   UNK A   2     -12.638  14.266  64.766  1.00  0.00    -0.176 SA 
HETATM   25  C   UNK A   2     -12.202  12.880  63.687  1.00  0.00    -0.499 C  
HETATM   26  C   UNK A   2     -10.110  16.062  67.161  1.00  0.00    -0.270 C  
HETATM   27  C   UNK A   2     -11.525  14.145  67.284  1.00  0.00    -0.350 C  
HETATM   28  C   UNK A   2      -9.902  17.596  67.105  1.00  0.00    -0.306 C  
HETATM   29  C   UNK A   2     -11.335  11.910  64.461  1.00  0.00    -0.316 C  
HETATM   30  S   UNK A   2     -10.052  12.871  65.298  1.00  0.00    -0.193 SA 
HETATM   31  O   UNK A   2     -10.309  18.297  68.177  1.00  0.00    -0.365 OA 
HETATM   32  O   UNK A   2      -9.304  18.150  66.187  1.00  0.00    -0.471 OA 
ENDBRANCH  17  19
ENDBRANCH  15  17
ENDBRANCH   6  15
ENDBRANCH   4   6
ENDBRANCH   3   4
ENDBRANCH   2   3
TORSDOF 9
ENDMDL
MODEL        7
REMARK 921   NORMALIZED FREE ENERGY PREDICTED BY IDOCK:   -6.79 KCAL/MOL
REMARK 922        TOTAL FREE ENERGY PREDICTED BY IDOCK:  -11.71 KCAL/MOL
REMARK 923 INTER-LIGAND FREE ENERGY PREDICTED BY IDOCK:  -10.44 KCAL/MOL
REMARK 924 INTRA-LIGAND FREE ENERGY PREDICTED BY IDOCK:   -1.27 KCAL/MOL
REMARK 927      BINDING AFFINITY PREDICTED BY RF-SCORE:    0.00 PKD
ROOT
HETATM    1  C   UNK A   0     -11.428   5.387  72.722  1.00  0.00    -0.333 C  
HETATM    2  C   UNK A   0     -11.980   6.498  71.848  1.00  0.00    -0.341 C  
ENDROOT
BRANCH   2   3
HETATM    3  O   UNK A   0     -11.883   7.763  72.521  1.00  0.00    -0.335 OA 
BRANCH   3   4
HETATM    4  C   UNK A   0     -12.811   8.702  72.175  1.00  0.00    -0.391 C  
HETATM    5  O   UNK A   0     -14.020   8.601  72.353  1.00  0.00    -0.409 OA 
BRANCH   4   6
HETATM    6  C   UNK A   0     -12.128   9.924  71.535  1.00  0.00    -0.410 C  
BRANCH   6   7
HETATM    7  C   UNK A   0     -12.961  11.189  71.808  1.00  0.00    -0.526 C  
BRANCH   7   8
HETATM    8  C   UNK A   0     -12.910  12.256  70.710  1.00  0.00    -0.101 C  
BRANCH   8   9
HETATM    9  C   UNK A   0     -12.742  13.614  71.358  1.00  0.00    -0.437 A  
HETATM   10  C   UNK A   0     -13.326  13.893  72.602  1.00  0.00    -0.640 A  
HETATM   11  C   UNK A   0     -13.085  15.113  73.240  1.00  0.00    -0.622 A  
HETATM   12  C   UNK A   0     -12.258  16.062  72.642  1.00  0.00    -0.619 A  
HETATM   13  C   UNK A   0     -11.912  14.578  70.766  1.00  0.00    -0.388 A  
HETATM   14  C   UNK A   0     -11.674  15.795  71.406  1.00  0.00    -0.508 A  
ENDBRANCH   8   9
ENDBRANCH   7   8
ENDBRANCH   6   7
BRANCH   6  15
ATOM     15  N   ALA A   1     -11.967   9.654  70.074  1.00  0.00    -0.459 NA 
ATOM     16  H   ALA A   1     -12.636  10.202  69.533  1.00  0.00     0.000 HD 
BRANCH  15  17
ATOM     17  CA  ALA A   1     -10.595   9.867  69.572  1.00  0.00    -0.242 C  
ATOM     18  CB  ALA A   1      -9.591   8.976  70.300  1.00  0.00    -0.230 C  
BRANCH  17  19
ATOM     19  C   ALA A   1     -10.495   9.700  68.022  1.00  0.00    -0.229 C  
HETATM   20  C   UNK A   2     -10.471  13.215  66.724  1.00  0.00    -0.261 C  
ATOM     21  O   ALA A   1     -10.527   8.606  67.456  1.00  0.00    -0.255 OA 
HETATM   22  C   UNK A   2     -10.174  12.392  65.469  1.00  0.00    -0.297 C  
HETATM   23  N   UNK A   2     -10.337  10.866  67.273  1.00  0.00    -0.205 N  
HETATM   24  S   UNK A   2      -9.051  14.296  67.167  1.00  0.00    -0.237 SA 
HETATM   25  C   UNK A   2      -9.904  15.888  67.053  1.00  0.00    -0.232 C  
HETATM   26  C   UNK A   2     -10.511  10.922  65.809  1.00  0.00    -0.210 C  
HETATM   27  C   UNK A   2     -10.679  12.176  67.833  1.00  0.00    -0.207 C  
HETATM   28  C   UNK A   2      -9.710  10.042  64.819  1.00  0.00    -0.293 C  
HETATM   29  C   UNK A   2     -11.361  15.691  67.415  1.00  0.00    -0.163 C  
HETATM   30  S   UNK A   2     -11.961  14.251  66.498  1.00  0.00    -0.408 SA 
HETATM   31  O   UNK A   2      -9.295   8.848  65.278  1.00  0.00    -0.168 OA 
HETATM   32  O   UNK A   2      -9.542  10.351  63.643  1.00  0.00    -0.284 OA 
ENDBRANCH  17  19
ENDBRANCH  15  17
ENDBRANCH   6  15
ENDBRANCH   4   6
ENDBRANCH   3   4
ENDBRANCH   2   3
TORSDOF 9
ENDMDL
MODEL        8
REMARK 921   NORMALIZED FREE ENERGY PREDICTED BY IDOCK:   -6.77 KCAL/MOL
REMARK 922        TOTAL FREE ENERGY PREDICTED BY IDOCK:  -11.68 KCAL/MOL
REMARK 923 INTER-LIGAND FREE ENERGY PREDICTED BY IDOCK:  -10.33 KCAL/MOL
REMARK 924 INTRA-LIGAND FREE ENERGY PREDICTED BY IDOCK:   -1.35 KCAL/MOL
REMARK 927      BINDING AFFINITY PREDICTED BY RF-SCORE:    0.00 PKD
ROOT
HETATM    1  C   UNK A   0     -10.462  19.906  66.429  1.00  0.00    -0.589 C  
HETATM    2  C   UNK A   0     -10.223  19.417  67.845  1.00  0.00    -0.420 C  
ENDROOT
BRANCH   2   3
HETATM    3  O   UNK A   0     -10.778  18.104  68.024  1.00  0.00    -0.374 OA 
BRANCH   3   4
HETATM    4  C   UNK A   0      -9.884  17.100  68.263  1.00  0.00    -0.288 C  
HETATM    5  O   UNK A   0      -8.773  17.245  68.758  1.00  0.00    -0.276 OA 
BRANCH   4   6
HETATM    6  C   UNK A   0     -10.473  15.744  67.834  1.00  0.00    -0.270 C  
BRANCH   6   7
HETATM    7  C   UNK A   0     -10.810  15.773  66.332  1.00  0.00    -0.226 C  
BRANCH   7   8
HETATM    8  C   UNK A   0      -9.951  14.861  65.451  1.00  0.00    -0.367 C  
BRANCH   8   9
HETATM    9  C   UNK A   0     -10.827  13.762  64.887  1.00  0.00    -0.398 A  
HETATM   10  C   UNK A   0     -12.197  13.714  65.184  1.00  0.00    -0.461 A  
HETATM   11  C   UNK A   0     -13.019  12.757  64.582  1.00  0.00    -0.231 A  
HETATM   12  C   UNK A   0     -12.480  11.843  63.678  1.00  0.00    -0.583 A  
HETATM   13  C   UNK A   0     -10.297  12.837  63.977  1.00  0.00    -0.392 A  
HETATM   14  C   UNK A   0     -11.120  11.882  63.378  1.00  0.00    -0.463 A  
ENDBRANCH   8   9
ENDBRANCH   7   8
ENDBRANCH   6   7
BRANCH   6  15
ATOM     15  N   ALA A   1     -11.675  15.471  68.680  1.00  0.00    -0.422 NA 
ATOM     16  H   ALA A   1     -12.309  14.828  68.205  1.00  0.00     0.000 HD 
BRANCH  15  17
ATOM     17  CA  ALA A   1     -11.355  14.979  70.035  1.00  0.00    -0.273 C  
ATOM     18  CB  ALA A   1     -11.548  16.073  71.084  1.00  0.00    -0.492 C  
BRANCH  17  19
ATOM     19  C   ALA A   1     -12.149  13.685  70.402  1.00  0.00    -0.351 C  
HETATM   20  C   UNK A   2     -10.272  10.943  68.668  1.00  0.00    -0.189 C  
ATOM     21  O   ALA A   1     -13.202  13.694  71.041  1.00  0.00    -0.236 OA 
HETATM   22  C   UNK A   2     -11.283  10.172  69.518  1.00  0.00    -0.288 C  
HETATM   23  N   UNK A   2     -11.596  12.472  69.990  1.00  0.00    -0.530 N  
HETATM   24  S   UNK A   2      -8.547  10.597  69.202  1.00  0.00    -0.084 SA 
HETATM   25  C   UNK A   2      -7.934   9.916  67.641  1.00  0.00    -0.109 C  
HETATM   26  C   UNK A   2     -12.337  11.196  69.996  1.00  0.00    -0.279 C  
HETATM   27  C   UNK A   2     -10.593  12.422  68.924  1.00  0.00    -0.126 C  
HETATM   28  C   UNK A   2     -12.996  10.598  71.263  1.00  0.00    -0.414 C  
HETATM   29  C   UNK A   2      -8.679  10.568  66.496  1.00  0.00    -0.139 C  
HETATM   30  S   UNK A   2     -10.442  10.525  66.895  1.00  0.00    -0.236 SA 
HETATM   31  O   UNK A   2     -13.400  11.473  72.201  1.00  0.00    -0.477 OA 
HETATM   32  O   UNK A   2     -13.242   9.401  71.380  1.00  0.00    -0.348 OA 
ENDBRANCH  17  19
ENDBRANCH  15  17
ENDBRANCH   6  15
ENDBRANCH   4   6
ENDBRANCH   3   4
ENDBRANCH   2   3
TORSDOF 9
ENDMDL
MODEL        9
REMARK 921   NORMALIZED FREE ENERGY PREDICTED BY IDOCK:   -6.74 KCAL/MOL
REMARK 922        TOTAL FREE ENERGY PREDICTED BY IDOCK:  -11.63 KCAL/MOL
REMARK 923 INTER-LIGAND FREE ENERGY PREDICTED BY IDOCK:  -10.31 KCAL/MOL
REMARK 924 INTRA-LIGAND FREE ENERGY PREDICTED BY IDOCK:   -1.32 KCAL/MOL
REMARK 927      BINDING AFFINITY PREDICTED BY RF-SCORE:    0.00 PKD
ROOT
HETATM    1  C   UNK A   0     -10.981  11.867  63.737  1.00  0.00    -0.494 C  
HETATM    2  C   UNK A   0     -12.493  12.001  63.752  1.00  0.00    -0.485 C  
ENDROOT
BRANCH   2   3
HETATM    3  O   UNK A   0     -12.924  12.697  64.932  1.00  0.00    -0.830 OA 
BRANCH   3   4
HETATM    4  C   UNK A   0     -12.533  13.999  65.041  1.00  0.00    -0.425 C  
HETATM    5  O   UNK A   0     -12.692  14.860  64.183  1.00  0.00    -0.750 OA 
BRANCH   4   6
HETATM    6  C   UNK A   0     -11.868  14.249  66.407  1.00  0.00    -0.411 C  
BRANCH   6   7
HETATM    7  C   UNK A   0     -10.367  14.527  66.213  1.00  0.00    -0.300 C  
BRANCH   7   8
HETATM    8  C   UNK A   0     -10.031  15.828  65.479  1.00  0.00    -0.341 C  
BRANCH   8   9
HETATM    9  C   UNK A   0     -10.186  16.986  66.442  1.00  0.00    -0.330 A  
HETATM   10  C   UNK A   0      -9.910  16.825  67.807  1.00  0.00    -0.257 A  
HETATM   11  C   UNK A   0      -9.958  17.920  68.674  1.00  0.00    -0.387 A  
HETATM   12  C   UNK A   0     -10.280  19.185  68.184  1.00  0.00    -0.489 A  
HETATM   13  C   UNK A   0     -10.510  18.263  65.961  1.00  0.00    -0.380 A  
HETATM   14  C   UNK A   0     -10.558  19.355  66.830  1.00  0.00    -0.574 A  
ENDBRANCH   8   9
ENDBRANCH   7   8
ENDBRANCH   6   7
BRANCH   6  15
ATOM     15  N   ALA A   1     -12.118  13.053  67.269  1.00  0.00    -0.324 NA 
ATOM     16  H   ALA A   1     -11.861  12.197  66.777  1.00  0.00     0.000 HD 
BRANCH  15  17
ATOM     17  CA  ALA A   1     -11.452  13.114  68.586  1.00  0.00    -0.305 C  
ATOM     18  CB  ALA A   1     -12.036  14.229  69.454  1.00  0.00    -0.381 C  
BRANCH  17  19
ATOM     19  C   ALA A   1     -11.470  11.739  69.328  1.00  0.00    -0.306 C  
HETATM   20  C   UNK A   2      -8.044  10.341  68.738  1.00  0.00    -0.120 C  
ATOM     21  O   ALA A   1     -12.476  11.274  69.866  1.00  0.00    -0.242 OA 
HETATM   22  C   UNK A   2      -8.641   9.353  69.743  1.00  0.00    -0.182 C  
HETATM   23  N   UNK A   2     -10.264  11.041  69.385  1.00  0.00    -0.418 N  
HETATM   24  S   UNK A   2      -6.605  11.234  69.453  1.00  0.00    -0.127 SA 
HETATM   25  C   UNK A   2      -5.359  10.700  68.255  1.00  0.00    -0.033 C  
HETATM   26  C   UNK A   2     -10.162   9.625  69.785  1.00  0.00    -0.237 C  
HETATM   27  C   UNK A   2      -9.172  11.342  68.457  1.00  0.00    -0.174 C  
HETATM   28  C   UNK A   2     -10.674   9.081  71.142  1.00  0.00    -0.288 C  
HETATM   29  C   UNK A   2      -6.030  10.477  66.916  1.00  0.00    -0.059 C  
HETATM   30  S   UNK A   2      -7.516   9.489  67.208  1.00  0.00    -0.091 SA 
HETATM   31  O   UNK A   2     -11.706   9.737  71.701  1.00  0.00    -0.385 OA 
HETATM   32  O   UNK A   2     -10.246   8.047  71.645  1.00  0.00    -0.190 OA 
ENDBRANCH  17  19
ENDBRANCH  15  17
ENDBRANCH   6  15
ENDBRANCH   4   6
ENDBRANCH   3   4
ENDBRANCH   2   3
TORSDOF 9
ENDMDL
MODEL       10
REMARK 921   NORMALIZED FREE ENERGY PREDICTED BY IDOCK:   -6.74 KCAL/MOL
REMARK 922        TOTAL FREE ENERGY PREDICTED BY IDOCK:  -11.63 KCAL/MOL
REMARK 923 INTER-LIGAND FREE ENERGY PREDICTED BY IDOCK:  -10.37 KCAL/MOL
REMARK 924 INTRA-LIGAND FREE ENERGY PREDICTED BY IDOCK:   -1.26 KCAL/MOL
REMARK 927      BINDING AFFINITY PREDICTED BY RF-SCORE:    0.00 PKD
ROOT
HETATM    1  C   UNK A   0     -10.104  11.940  63.255  1.00  0.00    -0.427 C  
HETATM    2  C   UNK A   0      -9.834  10.492  63.623  1.00  0.00    -0.293 C  
ENDROOT
BRANCH   2   3
HETATM    3  O   UNK A   0     -10.281  10.222  64.961  1.00  0.00    -0.320 OA 
BRANCH   3   4
HETATM    4  C   UNK A   0      -9.496  10.707  65.967  1.00  0.00    -0.193 C  
HETATM    5  O   UNK A   0      -8.271  10.710  65.971  1.00  0.00    -0.148 OA 
BRANCH   4   6
HETATM    6  C   UNK A   0     -10.368  11.271  67.104  1.00  0.00    -0.209 C  
BRANCH   6   7
HETATM    7  C   UNK A   0     -10.708  10.152  68.105  1.00  0.00    -0.285 C  
BRANCH   7   8
HETATM    8  C   UNK A   0     -10.142  10.341  69.515  1.00  0.00    -0.260 C  
BRANCH   8   9
HETATM    9  C   UNK A   0     -11.130   9.779  70.516  1.00  0.00    -0.384 A  
HETATM   10  C   UNK A   0     -10.780   8.701  71.341  1.00  0.00    -0.338 A  
HETATM   11  C   UNK A   0     -11.659   8.252  72.331  1.00  0.00    -0.464 A  
HETATM   12  C   UNK A   0     -12.893   8.877  72.505  1.00  0.00    -0.401 A  
HETATM   13  C   UNK A   0     -12.374  10.399  70.701  1.00  0.00    -0.438 A  
HETATM   14  C   UNK A   0     -13.250   9.948  71.690  1.00  0.00    -0.519 A  
ENDBRANCH   8   9
ENDBRANCH   7   8
ENDBRANCH   6   7
BRANCH   6  15
ATOM     15  N   ALA A   1     -11.591  11.877  66.494  1.00  0.00    -0.519 NA 
ATOM     16  H   ALA A   1     -12.433  11.472  66.902  1.00  0.00     0.000 HD 
BRANCH  15  17
ATOM     17  CA  ALA A   1     -11.633  13.351  66.572  1.00  0.00    -0.357 C  
ATOM     18  CB  ALA A   1     -12.762  13.923  65.716  1.00  0.00    -0.503 C  
BRANCH  17  19
ATOM     19  C   ALA A   1     -11.710  13.868  68.045  1.00  0.00    -0.352 C  
HETATM   20  C   UNK A   2      -9.766  17.071  67.991  1.00  0.00    -0.260 C  
ATOM     21  O   ALA A   1     -12.234  13.229  68.960  1.00  0.00    -0.277 OA 
HETATM   22  C   UNK A   2     -10.378  17.074  69.393  1.00  0.00    -0.230 C  
HETATM   23  N   UNK A   2     -11.171  15.129  68.297  1.00  0.00    -0.294 N  
HETATM   24  S   UNK A   2     -10.410  18.462  66.977  1.00  0.00    -0.399 SA 
HETATM   25  C   UNK A   2      -8.832  19.286  66.651  1.00  0.00    -0.334 C  
HETATM   26  C   UNK A   2     -10.903  15.643  69.653  1.00  0.00    -0.287 C  
HETATM   27  C   UNK A   2     -10.217  15.742  67.370  1.00  0.00    -0.270 C  
HETATM   28  C   UNK A   2     -11.987  15.760  70.752  1.00  0.00    -0.407 C  
HETATM   29  C   UNK A   2      -7.733  18.244  66.617  1.00  0.00    -0.236 C  
HETATM   30  S   UNK A   2      -7.942  17.182  68.066  1.00  0.00    -0.219 SA 
HETATM   31  O   UNK A   2     -13.005  14.884  70.688  1.00  0.00    -0.363 OA 
HETATM   32  O   UNK A   2     -11.890  16.534  71.700  1.00  0.00    -0.390 OA 
ENDBRANCH  17  19
ENDBRANCH  15  17
ENDBRANCH   6  15
ENDBRANCH   4   6
ENDBRANCH   3   4
ENDBRANCH   2   3
TORSDOF 9
ENDMDL
MODEL       11
REMARK 921   NORMALIZED FREE ENERGY PREDICTED BY IDOCK:   -6.68 KCAL/MOL
REMARK 922        TOTAL FREE ENERGY PREDICTED BY IDOCK:  -11.53 KCAL/MOL
REMARK 923 INTER-LIGAND FREE ENERGY PREDICTED BY IDOCK:  -10.09 KCAL/MOL
REMARK 924 INTRA-LIGAND FREE ENERGY PREDICTED BY IDOCK:   -1.44 KCAL/MOL
REMARK 927      BINDING AFFINITY PREDICTED BY RF-SCORE:    0.00 PKD
ROOT
HETATM    1  C   UNK A   0      -8.628  19.376  68.377  1.00  0.00    -0.397 C  
HETATM    2  C   UNK A   0      -9.338  19.219  67.045  1.00  0.00    -0.318 C  
ENDROOT
BRANCH   2   3
HETATM    3  O   UNK A   0     -10.484  18.363  67.184  1.00  0.00    -0.381 OA 
BRANCH   3   4
HETATM    4  C   UNK A   0     -10.377  17.120  66.631  1.00  0.00    -0.310 C  
HETATM    5  O   UNK A   0      -9.920  16.876  65.520  1.00  0.00    -0.572 OA 
BRANCH   4   6
HETATM    6  C   UNK A   0     -10.902  16.051  67.607  1.00  0.00    -0.311 C  
BRANCH   6   7
HETATM    7  C   UNK A   0     -10.860  16.594  69.046  1.00  0.00    -0.314 C  
BRANCH   7   8
HETATM    8  C   UNK A   0     -10.560  15.555  70.130  1.00  0.00    -0.336 C  
BRANCH   8   9
HETATM    9  C   UNK A   0     -11.754  15.459  71.057  1.00  0.00    -0.408 A  
HETATM   10  C   UNK A   0     -11.687  15.957  72.366  1.00  0.00    -0.582 A  
HETATM   11  C   UNK A   0     -12.820  15.956  73.184  1.00  0.00    -0.643 A  
HETATM   12  C   UNK A   0     -14.030  15.461  72.700  1.00  0.00    -0.590 A  
HETATM   13  C   UNK A   0     -12.976  14.963  70.582  1.00  0.00    -0.389 A  
HETATM   14  C   UNK A   0     -14.107  14.963  71.401  1.00  0.00    -0.552 A  
ENDBRANCH   8   9
ENDBRANCH   7   8
ENDBRANCH   6   7
BRANCH   6  15
ATOM     15  N   ALA A   1     -10.068  14.822  67.440  1.00  0.00    -0.231 NA 
ATOM     16  H   ALA A   1      -9.510  14.651  68.276  1.00  0.00     0.000 HD 
BRANCH  15  17
ATOM     17  CA  ALA A   1     -10.842  13.617  67.077  1.00  0.00    -0.286 C  
ATOM     18  CB  ALA A   1     -12.339  13.915  67.016  1.00  0.00    -0.287 C  
BRANCH  17  19
ATOM     19  C   ALA A   1     -10.332  12.956  65.757  1.00  0.00    -0.284 C  
HETATM   20  C   UNK A   2      -9.253   9.526  66.811  1.00  0.00    -0.149 C  
ATOM     21  O   ALA A   1     -10.253  13.559  64.685  1.00  0.00    -0.387 OA 
HETATM   22  C   UNK A   2      -9.147   9.457  65.286  1.00  0.00    -0.287 C  
HETATM   23  N   UNK A   2      -9.980  11.608  65.824  1.00  0.00    -0.229 N  
HETATM   24  S   UNK A   2     -10.533   8.368  67.445  1.00  0.00    -0.253 SA 
HETATM   25  C   UNK A   2      -9.459   7.360  68.497  1.00  0.00    -0.144 C  
HETATM   26  C   UNK A   2      -9.222  10.911  64.768  1.00  0.00    -0.201 C  
HETATM   27  C   UNK A   2      -9.685  10.968  67.108  1.00  0.00    -0.174 C  
HETATM   28  C   UNK A   2      -9.687  10.834  63.293  1.00  0.00    -0.355 C  
HETATM   29  C   UNK A   2      -8.327   8.224  69.012  1.00  0.00    -0.120 C  
HETATM   30  S   UNK A   2      -7.652   9.136  67.603  1.00  0.00    -0.085 SA 
HETATM   31  O   UNK A   2     -10.441  11.854  62.847  1.00  0.00    -0.225 OA 
HETATM   32  O   UNK A   2      -9.311   9.953  62.525  1.00  0.00    -0.291 OA 
ENDBRANCH  17  19
ENDBRANCH  15  17
ENDBRANCH   6  15
ENDBRANCH   4   6
ENDBRANCH   3   4
ENDBRANCH   2   3
TORSDOF 9
ENDMDL
MODEL       12
REMARK 921   NORMALIZED FREE ENERGY PREDICTED BY IDOCK:   -6.61 KCAL/MOL
REMARK 922        TOTAL FREE ENERGY PREDICTED BY IDOCK:  -11.43 KCAL/MOL
REMARK 923 INTER-LIGAND FREE ENERGY PREDICTED BY IDOCK:  -10.56 KCAL/MOL
REMARK 924 INTRA-LIGAND FREE ENERGY PREDICTED BY IDOCK:   -0.87 KCAL/MOL
REMARK 927      BINDING AFFINITY PREDICTED BY RF-SCORE:    0.00 PKD
ROOT
HETATM    1  C   UNK A   0     -13.423  14.000  72.395  1.00  0.00    -0.639 C  
HETATM    2  C   UNK A   0     -13.535  12.511  72.125  1.00  0.00    -0.422 C  
ENDROOT
BRANCH   2   3
HETATM    3  O   UNK A   0     -12.706  12.137  71.012  1.00  0.00    -0.328 OA 
BRANCH   3   4
HETATM    4  C   UNK A   0     -12.696  10.812  70.687  1.00  0.00    -0.331 C  
HETATM    5  O   UNK A   0     -13.588  10.013  70.948  1.00  0.00    -0.297 OA 
BRANCH   4   6
HETATM    6  C   UNK A   0     -11.405  10.454  69.928  1.00  0.00    -0.302 C  
BRANCH   6   7
HETATM    7  C   UNK A   0     -10.572   9.460  70.757  1.00  0.00    -0.371 C  
BRANCH   7   8
HETATM    8  C   UNK A   0     -10.654   8.000  70.303  1.00  0.00    -0.231 C  
BRANCH   8   9
HETATM    9  C   UNK A   0     -10.511   7.104  71.516  1.00  0.00    -0.221 A  
HETATM   10  C   UNK A   0     -10.390   7.650  72.801  1.00  0.00    -0.351 A  
HETATM   11  C   UNK A   0     -10.359   6.819  73.924  1.00  0.00    -0.397 A  
HETATM   12  C   UNK A   0     -10.451   5.437  73.773  1.00  0.00    -0.305 A  
HETATM   13  C   UNK A   0     -10.601   5.711  71.376  1.00  0.00    -0.317 A  
HETATM   14  C   UNK A   0     -10.569   4.884  72.500  1.00  0.00    -0.271 A  
ENDBRANCH   8   9
ENDBRANCH   7   8
ENDBRANCH   6   7
BRANCH   6  15
ATOM     15  N   ALA A   1     -10.665  11.722  69.650  1.00  0.00    -0.440 NA 
ATOM     16  H   ALA A   1      -9.948  11.881  70.358  1.00  0.00     0.000 HD 
BRANCH  15  17
ATOM     17  CA  ALA A   1     -10.080  11.791  68.295  1.00  0.00    -0.197 C  
ATOM     18  CB  ALA A   1      -9.600  10.418  67.827  1.00  0.00    -0.169 C  
BRANCH  17  19
ATOM     19  C   ALA A   1     -11.050  12.445  67.260  1.00  0.00    -0.281 C  
HETATM   20  C   UNK A   2      -9.895  16.004  67.052  1.00  0.00    -0.236 C  
ATOM     21  O   ALA A   1     -12.010  11.853  66.763  1.00  0.00    -0.613 OA 
HETATM   22  C   UNK A   2     -10.932  15.921  65.929  1.00  0.00    -0.151 C  
HETATM   23  N   UNK A   2     -10.772  13.759  66.883  1.00  0.00    -0.279 N  
HETATM   24  S   UNK A   2      -8.214  16.335  66.386  1.00  0.00    -0.280 SA 
HETATM   25  C   UNK A   2      -7.904  17.894  67.252  1.00  0.00    -0.213 C  
HETATM   26  C   UNK A   2     -11.726  14.614  66.152  1.00  0.00    -0.313 C  
HETATM   27  C   UNK A   2      -9.915  14.616  67.706  1.00  0.00    -0.224 C  
HETATM   28  C   UNK A   2     -12.342  14.230  64.784  1.00  0.00    -0.426 C  
HETATM   29  C   UNK A   2      -8.638  17.873  68.577  1.00  0.00    -0.293 C  
HETATM   30  S   UNK A   2     -10.327  17.311  68.256  1.00  0.00    -0.380 SA 
HETATM   31  O   UNK A   2     -12.479  12.916  64.534  1.00  0.00    -0.512 OA 
HETATM   32  O   UNK A   2     -12.786  15.064  63.999  1.00  0.00    -0.772 OA 
ENDBRANCH  17  19
ENDBRANCH  15  17
ENDBRANCH   6  15
ENDBRANCH   4   6
ENDBRANCH   3   4
ENDBRANCH   2   3
TORSDOF 9
ENDMDL
MODEL       13
REMARK 921   NORMALIZED FREE ENERGY PREDICTED BY IDOCK:   -6.56 KCAL/MOL
REMARK 922        TOTAL FREE ENERGY PREDICTED BY IDOCK:  -11.36 KCAL/MOL
REMARK 923 INTER-LIGAND FREE ENERGY PREDICTED BY IDOCK:   -9.73 KCAL/MOL
REMARK 924 INTRA-LIGAND FREE ENERGY PREDICTED BY IDOCK:   -1.64 KCAL/MOL
REMARK 927      BINDING AFFINITY PREDICTED BY RF-SCORE:    0.00 PKD
ROOT
HETATM    1  C   UNK A   0     -13.169   9.213  71.753  1.00  0.00    -0.459 C  
HETATM    2  C   UNK A   0     -12.888  10.667  71.422  1.00  0.00    -0.451 C  
ENDROOT
BRANCH   2   3
HETATM    3  O   UNK A   0     -11.585  10.807  70.834  1.00  0.00    -0.306 OA 
BRANCH   3   4
HETATM    4  C   UNK A   0     -11.546  10.903  69.473  1.00  0.00    -0.313 C  
HETATM    5  O   UNK A   0     -12.501  11.173  68.755  1.00  0.00    -0.468 OA 
BRANCH   4   6
HETATM    6  C   UNK A   0     -10.120  10.638  68.957  1.00  0.00    -0.213 C  
BRANCH   6   7
HETATM    7  C   UNK A   0      -9.347   9.782  69.977  1.00  0.00    -0.274 C  
BRANCH   7   8
HETATM    8  C   UNK A   0      -9.505   8.268  69.814  1.00  0.00    -0.163 C  
BRANCH   8   9
HETATM    9  C   UNK A   0     -10.003   7.686  71.121  1.00  0.00    -0.188 A  
HETATM   10  C   UNK A   0     -10.745   6.497  71.140  1.00  0.00    -0.285 A  
HETATM   11  C   UNK A   0     -11.116   5.913  72.354  1.00  0.00    -0.328 A  
HETATM   12  C   UNK A   0     -10.746   6.510  73.558  1.00  0.00    -0.286 A  
HETATM   13  C   UNK A   0      -9.637   8.278  72.339  1.00  0.00    -0.364 A  
HETATM   14  C   UNK A   0     -10.009   7.692  73.550  1.00  0.00    -0.354 A  
ENDBRANCH   8   9
ENDBRANCH   7   8
ENDBRANCH   6   7
BRANCH   6  15
ATOM     15  N   ALA A   1      -9.463  11.957  68.710  1.00  0.00    -0.393 NA 
ATOM     16  H   ALA A   1      -8.682  12.094  69.350  1.00  0.00     0.000 HD 
BRANCH  15  17
ATOM     17  CA  ALA A   1      -9.029  12.159  67.312  1.00  0.00    -0.184 C  
ATOM     18  CB  ALA A   1      -8.594  10.843  66.669  1.00  0.00    -0.148 C  
BRANCH  17  19
ATOM     19  C   ALA A   1     -10.109  12.890  66.452  1.00  0.00    -0.269 C  
HETATM   20  C   UNK A   2      -9.247  16.520  66.798  1.00  0.00    -0.234 C  
ATOM     21  O   ALA A   1     -11.050  12.308  65.909  1.00  0.00    -0.296 OA 
HETATM   22  C   UNK A   2     -10.342  16.536  65.730  1.00  0.00    -0.359 C  
HETATM   23  N   UNK A   2      -9.958  14.267  66.292  1.00  0.00    -0.295 N  
HETATM   24  S   UNK A   2      -7.640  17.101  66.118  1.00  0.00    -0.167 SA 
HETATM   25  C   UNK A   2      -7.398  18.515  67.221  1.00  0.00    -0.217 C  
HETATM   26  C   UNK A   2     -11.018  15.146  65.764  1.00  0.00    -0.349 C  
HETATM   27  C   UNK A   2      -9.119  15.046  67.206  1.00  0.00    -0.201 C  
HETATM   28  C   UNK A   2     -11.687  14.944  64.383  1.00  0.00    -0.328 C  
HETATM   29  C   UNK A   2      -8.044  18.211  68.557  1.00  0.00    -0.302 C  
HETATM   30  S   UNK A   2      -9.701  17.566  68.228  1.00  0.00    -0.327 SA 
HETATM   31  O   UNK A   2     -11.738  13.683  63.920  1.00  0.00    -0.389 OA 
HETATM   32  O   UNK A   2     -12.242  15.855  63.775  1.00  0.00    -0.817 OA 
ENDBRANCH  17  19
ENDBRANCH  15  17
ENDBRANCH   6  15
ENDBRANCH   4   6
ENDBRANCH   3   4
ENDBRANCH   2   3
TORSDOF 9
ENDMDL
MODEL       14
REMARK 921   NORMALIZED FREE ENERGY PREDICTED BY IDOCK:   -6.55 KCAL/MOL
REMARK 922        TOTAL FREE ENERGY PREDICTED BY IDOCK:  -11.34 KCAL/MOL
REMARK 923 INTER-LIGAND FREE ENERGY PREDICTED BY IDOCK:   -9.96 KCAL/MOL
REMARK 924 INTRA-LIGAND FREE ENERGY PREDICTED BY IDOCK:   -1.38 KCAL/MOL
REMARK 927      BINDING AFFINITY PREDICTED BY RF-SCORE:    0.00 PKD
ROOT
HETATM    1  C   UNK A   0     -13.651   9.021  72.350  1.00  0.00    -0.533 C  
HETATM    2  C   UNK A   0     -13.291  10.426  71.903  1.00  0.00    -0.364 C  
ENDROOT
BRANCH   2   3
HETATM    3  O   UNK A   0     -13.010  10.449  70.495  1.00  0.00    -0.344 OA 
BRANCH   3   4
HETATM    4  C   UNK A   0     -12.085  11.363  70.081  1.00  0.00    -0.357 C  
HETATM    5  O   UNK A   0     -12.085  12.553  70.375  1.00  0.00    -0.362 OA 
BRANCH   4   6
HETATM    6  C   UNK A   0     -11.022  10.689  69.195  1.00  0.00    -0.247 C  
BRANCH   6   7
HETATM    7  C   UNK A   0     -10.739   9.266  69.712  1.00  0.00    -0.245 C  
BRANCH   7   8
HETATM    8  C   UNK A   0      -9.810   9.184  70.926  1.00  0.00    -0.359 C  
BRANCH   8   9
HETATM    9  C   UNK A   0     -10.152   7.939  71.718  1.00  0.00    -0.236 A  
HETATM   10  C   UNK A   0      -9.954   7.895  73.105  1.00  0.00    -0.358 A  
HETATM   11  C   UNK A   0     -10.364   6.781  73.844  1.00  0.00    -0.397 A  
HETATM   12  C   UNK A   0     -10.975   5.705  73.204  1.00  0.00    -0.326 A  
HETATM   13  C   UNK A   0     -10.768   6.850  71.085  1.00  0.00    -0.252 A  
HETATM   14  C   UNK A   0     -11.175   5.738  71.826  1.00  0.00    -0.275 A  
ENDBRANCH   8   9
ENDBRANCH   7   8
ENDBRANCH   6   7
BRANCH   6  15
ATOM     15  N   ALA A   1      -9.799  11.548  69.202  1.00  0.00    -0.418 NA 
ATOM     16  H   ALA A   1      -9.076  11.138  69.792  1.00  0.00     0.000 HD 
BRANCH  15  17
ATOM     17  CA  ALA A   1      -9.265  11.842  67.856  1.00  0.00    -0.181 C  
ATOM     18  CB  ALA A   1      -8.521  10.638  67.278  1.00  0.00    -0.126 C  
BRANCH  17  19
ATOM     19  C   ALA A   1     -10.366  12.362  66.878  1.00  0.00    -0.224 C  
HETATM   20  C   UNK A   2      -9.969  16.087  66.955  1.00  0.00    -0.251 C  
ATOM     21  O   ALA A   1     -11.193  11.626  66.336  1.00  0.00    -0.313 OA 
HETATM   22  C   UNK A   2     -10.986  15.882  65.831  1.00  0.00    -0.151 C  
HETATM   23  N   UNK A   2     -10.370  13.730  66.607  1.00  0.00    -0.275 N  
HETATM   24  S   UNK A   2      -8.403  16.808  66.316  1.00  0.00    -0.286 SA 
HETATM   25  C   UNK A   2      -8.404  18.324  67.304  1.00  0.00    -0.246 C  
HETATM   26  C   UNK A   2     -11.492  14.425  65.948  1.00  0.00    -0.341 C  
HETATM   27  C   UNK A   2      -9.692  14.678  67.495  1.00  0.00    -0.210 C  
HETATM   28  C   UNK A   2     -12.040  14.032  64.554  1.00  0.00    -0.459 C  
HETATM   29  C   UNK A   2      -9.094  18.049  68.624  1.00  0.00    -0.266 C  
HETATM   30  S   UNK A   2     -10.638  17.179  68.261  1.00  0.00    -0.365 SA 
HETATM   31  O   UNK A   2     -11.909  12.741  64.200  1.00  0.00    -0.356 OA 
HETATM   32  O   UNK A   2     -12.659  14.815  63.840  1.00  0.00    -0.834 OA 
ENDBRANCH  17  19
ENDBRANCH  15  17
ENDBRANCH   6  15
ENDBRANCH   4   6
ENDBRANCH   3   4
ENDBRANCH   2   3
TORSDOF 9
ENDMDL
MODEL       15
REMARK 921   NORMALIZED FREE ENERGY PREDICTED BY IDOCK:   -6.52 KCAL/MOL
REMARK 922        TOTAL FREE ENERGY PREDICTED BY IDOCK:  -11.30 KCAL/MOL
REMARK 923 INTER-LIGAND FREE ENERGY PREDICTED BY IDOCK:  -10.10 KCAL/MOL
REMARK 924 INTRA-LIGAND FREE ENERGY PREDICTED BY IDOCK:   -1.20 KCAL/MOL
REMARK 927      BINDING AFFINITY PREDICTED BY RF-SCORE:    0.00 PKD
ROOT
HETATM    1  C   UNK A   0     -12.233  13.912  63.958  1.00  0.00    -0.413 C  
HETATM    2  C   UNK A   0     -12.203  12.471  64.431  1.00  0.00    -0.449 C  
ENDROOT
BRANCH   2   3
HETATM    3  O   UNK A   0     -12.394  12.404  65.854  1.00  0.00    -0.638 OA 
BRANCH   3   4
HETATM    4  C   UNK A   0     -11.263  12.467  66.616  1.00  0.00    -0.315 C  
HETATM    5  O   UNK A   0     -10.116  12.425  66.186  1.00  0.00    -0.237 OA 
BRANCH   4   6
HETATM    6  C   UNK A   0     -11.626  12.612  68.105  1.00  0.00    -0.338 C  
BRANCH   6   7
HETATM    7  C   UNK A   0     -11.897  14.092  68.433  1.00  0.00    -0.397 C  
BRANCH   7   8
HETATM    8  C   UNK A   0     -11.050  14.676  69.567  1.00  0.00    -0.294 C  
BRANCH   8   9
HETATM    9  C   UNK A   0     -11.959  15.015  70.729  1.00  0.00    -0.371 A  
HETATM   10  C   UNK A   0     -13.180  14.348  70.904  1.00  0.00    -0.347 A  
HETATM   11  C   UNK A   0     -13.967  14.594  72.032  1.00  0.00    -0.581 A  
HETATM   12  C   UNK A   0     -13.541  15.507  72.995  1.00  0.00    -0.593 A  
HETATM   13  C   UNK A   0     -11.541  15.932  71.705  1.00  0.00    -0.541 A  
HETATM   14  C   UNK A   0     -12.331  16.177  72.830  1.00  0.00    -0.607 A  
ENDBRANCH   8   9
ENDBRANCH   7   8
ENDBRANCH   6   7
BRANCH   6  15
ATOM     15  N   ALA A   1     -10.503  12.048  68.913  1.00  0.00    -0.370 NA 
ATOM     16  H   ALA A   1     -10.077  12.773  69.490  1.00  0.00     0.000 HD 
BRANCH  15  17
ATOM     17  CA  ALA A   1     -10.885  10.885  69.741  1.00  0.00    -0.187 C  
ATOM     18  CB  ALA A   1     -12.341  10.979  70.194  1.00  0.00    -0.389 C  
BRANCH  17  19
ATOM     19  C   ALA A   1     -10.590   9.525  69.030  1.00  0.00    -0.219 C  
HETATM   20  C   UNK A   2      -9.703   7.204  71.836  1.00  0.00    -0.156 C  
ATOM     21  O   ALA A   1     -10.582   9.389  67.806  1.00  0.00    -0.252 OA 
HETATM   22  C   UNK A   2      -9.780   6.262  70.632  1.00  0.00    -0.199 C  
HETATM   23  N   UNK A   2     -10.353   8.425  69.854  1.00  0.00    -0.206 N  
HETATM   24  S   UNK A   2     -10.998   6.808  73.079  1.00  0.00    -0.233 SA 
HETATM   25  C   UNK A   2      -9.903   6.446  74.474  1.00  0.00    -0.337 C  
HETATM   26  C   UNK A   2      -9.785   7.153  69.369  1.00  0.00    -0.160 C  
HETATM   27  C   UNK A   2      -9.969   8.601  71.257  1.00  0.00    -0.246 C  
HETATM   28  C   UNK A   2     -10.421   6.312  68.235  1.00  0.00    -0.228 C  
HETATM   29  C   UNK A   2      -8.648   7.282  74.341  1.00  0.00    -0.206 C  
HETATM   30  S   UNK A   2      -8.062   7.121  72.638  1.00  0.00    -0.107 SA 
HETATM   31  O   UNK A   2     -11.129   6.986  67.312  1.00  0.00    -0.318 OA 
HETATM   32  O   UNK A   2     -10.215   5.108  68.107  1.00  0.00    -0.163 OA 
ENDBRANCH  17  19
ENDBRANCH  15  17
ENDBRANCH   6  15
ENDBRANCH   4   6
ENDBRANCH   3   4
ENDBRANCH   2   3
TORSDOF 9
ENDMDL
MODEL       16
REMARK 921   NORMALIZED FREE ENERGY PREDICTED BY IDOCK:   -6.49 KCAL/MOL
REMARK 922        TOTAL FREE ENERGY PREDICTED BY IDOCK:  -11.25 KCAL/MOL
REMARK 923 INTER-LIGAND FREE ENERGY PREDICTED BY IDOCK:   -9.73 KCAL/MOL
REMARK 924 INTRA-LIGAND FREE ENERGY PREDICTED BY IDOCK:   -1.52 KCAL/MOL
REMARK 927      BINDING AFFINITY PREDICTED BY RF-SCORE:    0.00 PKD
ROOT
HETATM    1  C   UNK A   0     -10.669  15.762  65.099  1.00  0.00    -0.455 C  
HETATM    2  C   UNK A   0     -11.879  15.128  64.439  1.00  0.00    -0.305 C  
ENDROOT
BRANCH   2   3
HETATM    3  O   UNK A   0     -12.688  14.452  65.415  1.00  0.00    -0.442 OA 
BRANCH   3   4
HETATM    4  C   UNK A   0     -12.623  13.089  65.411  1.00  0.00    -0.422 C  
HETATM    5  O   UNK A   0     -13.072  12.362  64.533  1.00  0.00    -0.823 OA 
BRANCH   4   6
HETATM    6  C   UNK A   0     -11.889  12.582  66.667  1.00  0.00    -0.352 C  
BRANCH   6   7
HETATM    7  C   UNK A   0     -12.123  13.557  67.835  1.00  0.00    -0.304 C  
BRANCH   7   8
HETATM    8  C   UNK A   0     -11.525  13.124  69.177  1.00  0.00    -0.358 C  
BRANCH   8   9
HETATM    9  C   UNK A   0     -12.364  13.706  70.295  1.00  0.00    -0.392 A  
HETATM   10  C   UNK A   0     -12.948  12.874  71.261  1.00  0.00    -0.317 A  
HETATM   11  C   UNK A   0     -13.638  13.423  72.345  1.00  0.00    -0.708 A  
HETATM   12  C   UNK A   0     -13.747  14.806  72.475  1.00  0.00    -0.572 A  
HETATM   13  C   UNK A   0     -12.482  15.096  70.436  1.00  0.00    -0.416 A  
HETATM   14  C   UNK A   0     -13.172  15.641  71.521  1.00  0.00    -0.555 A  
ENDBRANCH   8   9
ENDBRANCH   7   8
ENDBRANCH   6   7
BRANCH   6  15
ATOM     15  N   ALA A   1     -10.441  12.436  66.330  1.00  0.00    -0.241 NA 
ATOM     16  H   ALA A   1      -9.880  13.100  66.863  1.00  0.00     0.000 HD 
BRANCH  15  17
ATOM     17  CA  ALA A   1      -9.920  11.064  66.500  1.00  0.00    -0.212 C  
ATOM     18  CB  ALA A   1      -9.492  10.461  65.164  1.00  0.00    -0.303 C  
BRANCH  17  19
ATOM     19  C   ALA A   1      -8.774  10.989  67.559  1.00  0.00    -0.128 C  
HETATM   20  C   UNK A   2     -10.187   8.834  70.281  1.00  0.00    -0.196 C  
ATOM     21  O   ALA A   1      -7.721  11.621  67.463  1.00  0.00    -0.120 OA 
HETATM   22  C   UNK A   2      -8.728   9.001  70.708  1.00  0.00    -0.269 C  
HETATM   23  N   UNK A   2      -8.976  10.134  68.643  1.00  0.00    -0.130 N  
HETATM   24  S   UNK A   2     -10.574   7.080  69.889  1.00  0.00    -0.237 SA 
HETATM   25  C   UNK A   2     -11.879   6.831  71.118  1.00  0.00    -0.360 C  
HETATM   26  C   UNK A   2      -8.144  10.154  69.861  1.00  0.00    -0.122 C  
HETATM   27  C   UNK A   2     -10.320   9.678  69.005  1.00  0.00    -0.205 C  
HETATM   28  C   UNK A   2      -6.607   9.962  69.848  1.00  0.00    -0.080 C  
HETATM   29  C   UNK A   2     -12.593   8.147  71.348  1.00  0.00    -0.283 C  
HETATM   30  S   UNK A   2     -11.329   9.419  71.584  1.00  0.00    -0.322 SA 
HETATM   31  O   UNK A   2      -5.962  10.353  68.735  1.00  0.00    -0.041 OA 
HETATM   32  O   UNK A   2      -5.979   9.575  70.830  1.00  0.00    -0.056 OA 
ENDBRANCH  17  19
ENDBRANCH  15  17
ENDBRANCH   6  15
ENDBRANCH   4   6
ENDBRANCH   3   4
ENDBRANCH   2   3
TORSDOF 9
ENDMDL
MODEL       17
REMARK 921   NORMALIZED FREE ENERGY PREDICTED BY IDOCK:   -6.49 KCAL/MOL
REMARK 922        TOTAL FREE ENERGY PREDICTED BY IDOCK:  -11.24 KCAL/MOL
REMARK 923 INTER-LIGAND FREE ENERGY PREDICTED BY IDOCK:   -9.68 KCAL/MOL
REMARK 924 INTRA-LIGAND FREE ENERGY PREDICTED BY IDOCK:   -1.56 KCAL/MOL
REMARK 927      BINDING AFFINITY PREDICTED BY RF-SCORE:    0.00 PKD
ROOT
HETATM    1  C   UNK A   0     -12.689   9.981  71.587  1.00  0.00    -0.535 C  
HETATM    2  C   UNK A   0     -12.125  11.156  70.809  1.00  0.00    -0.357 C  
ENDROOT
BRANCH   2   3
HETATM    3  O   UNK A   0     -11.064  10.723  69.944  1.00  0.00    -0.266 OA 
BRANCH   3   4
HETATM    4  C   UNK A   0     -11.330  10.751  68.605  1.00  0.00    -0.291 C  
HETATM    5  O   UNK A   0     -12.209  11.417  68.072  1.00  0.00    -0.607 OA 
BRANCH   4   6
HETATM    6  C   UNK A   0     -10.356   9.832  67.845  1.00  0.00    -0.213 C  
BRANCH   6   7
HETATM    7  C   UNK A   0     -10.388   8.419  68.457  1.00  0.00    -0.232 C  
BRANCH   7   8
HETATM    8  C   UNK A   0      -9.211   8.078  69.375  1.00  0.00    -0.152 C  
BRANCH   8   9
HETATM    9  C   UNK A   0      -9.752   7.653  70.724  1.00  0.00    -0.173 A  
HETATM   10  C   UNK A   0      -9.243   8.206  71.908  1.00  0.00    -0.243 A  
HETATM   11  C   UNK A   0      -9.814   7.885  73.142  1.00  0.00    -0.357 A  
HETATM   12  C   UNK A   0     -10.899   7.012  73.204  1.00  0.00    -0.350 A  
HETATM   13  C   UNK A   0     -10.843   6.775  70.800  1.00  0.00    -0.291 A  
HETATM   14  C   UNK A   0     -11.411   6.456  72.035  1.00  0.00    -0.338 A  
ENDBRANCH   8   9
ENDBRANCH   7   8
ENDBRANCH   6   7
BRANCH   6  15
ATOM     15  N   ALA A   1      -8.995  10.447  67.906  1.00  0.00    -0.128 NA 
ATOM     16  H   ALA A   1      -8.308   9.764  68.225  1.00  0.00     0.000 HD 
BRANCH  15  17
ATOM     17  CA  ALA A   1      -8.560  11.068  66.639  1.00  0.00    -0.157 C  
ATOM     18  CB  ALA A   1      -7.596  10.161  65.876  1.00  0.00    -0.128 C  
BRANCH  17  19
ATOM     19  C   ALA A   1      -9.765  11.507  65.746  1.00  0.00    -0.235 C  
HETATM   20  C   UNK A   2     -10.411  15.054  66.767  1.00  0.00    -0.283 C  
ATOM     21  O   ALA A   1     -10.358  10.741  64.985  1.00  0.00    -0.302 OA 
HETATM   22  C   UNK A   2     -11.335  14.879  65.560  1.00  0.00    -0.339 C  
HETATM   23  N   UNK A   2     -10.148  12.846  65.822  1.00  0.00    -0.287 N  
HETATM   24  S   UNK A   2      -9.107  16.307  66.434  1.00  0.00    -0.328 SA 
HETATM   25  C   UNK A   2      -9.524  17.462  67.763  1.00  0.00    -0.261 C  
HETATM   26  C   UNK A   2     -11.419  13.361  65.280  1.00  0.00    -0.298 C  
HETATM   27  C   UNK A   2      -9.755  13.681  66.960  1.00  0.00    -0.251 C  
HETATM   28  C   UNK A   2     -11.841  13.205  63.798  1.00  0.00    -0.486 C  
HETATM   29  C   UNK A   2     -10.108  16.684  68.924  1.00  0.00    -0.274 C  
HETATM   30  S   UNK A   2     -11.352  15.555  68.253  1.00  0.00    -0.353 SA 
HETATM   31  O   UNK A   2     -11.360  12.132  63.146  1.00  0.00    -0.343 OA 
HETATM   32  O   UNK A   2     -12.654  13.950  63.258  1.00  0.00    -0.824 OA 
ENDBRANCH  17  19
ENDBRANCH  15  17
ENDBRANCH   6  15
ENDBRANCH   4   6
ENDBRANCH   3   4
ENDBRANCH   2   3
TORSDOF 9
ENDMDL
MODEL       18
REMARK 921   NORMALIZED FREE ENERGY PREDICTED BY IDOCK:   -6.47 KCAL/MOL
REMARK 922        TOTAL FREE ENERGY PREDICTED BY IDOCK:  -11.22 KCAL/MOL
REMARK 923 INTER-LIGAND FREE ENERGY PREDICTED BY IDOCK:   -9.75 KCAL/MOL
REMARK 924 INTRA-LIGAND FREE ENERGY PREDICTED BY IDOCK:   -1.48 KCAL/MOL
REMARK 927      BINDING AFFINITY PREDICTED BY RF-SCORE:    0.00 PKD
ROOT
HETATM    1  C   UNK A   0     -12.909  15.727  73.091  1.00  0.00    -0.631 C  
HETATM    2  C   UNK A   0     -13.998  15.163  72.197  1.00  0.00    -0.533 C  
ENDROOT
BRANCH   2   3
HETATM    3  O   UNK A   0     -13.517  15.017  70.851  1.00  0.00    -0.394 OA 
BRANCH   3   4
HETATM    4  C   UNK A   0     -12.640  13.994  70.633  1.00  0.00    -0.344 C  
HETATM    5  O   UNK A   0     -12.709  12.882  71.145  1.00  0.00    -0.360 OA 
BRANCH   4   6
HETATM    6  C   UNK A   0     -11.550  14.424  69.635  1.00  0.00    -0.292 C  
BRANCH   6   7
HETATM    7  C   UNK A   0     -11.142  15.883  69.906  1.00  0.00    -0.343 C  
BRANCH   7   8
HETATM    8  C   UNK A   0      -9.828  16.327  69.257  1.00  0.00    -0.252 C  
BRANCH   8   9
HETATM    9  C   UNK A   0     -10.107  17.503  68.345  1.00  0.00    -0.358 A  
HETATM   10  C   UNK A   0     -10.000  18.819  68.818  1.00  0.00    -0.442 A  
HETATM   11  C   UNK A   0     -10.161  19.900  67.948  1.00  0.00    -0.571 A  
HETATM   12  C   UNK A   0     -10.427  19.676  66.598  1.00  0.00    -0.610 A  
HETATM   13  C   UNK A   0     -10.375  17.291  66.985  1.00  0.00    -0.318 A  
HETATM   14  C   UNK A   0     -10.535  18.374  66.118  1.00  0.00    -0.422 A  
ENDBRANCH   8   9
ENDBRANCH   7   8
ENDBRANCH   6   7
BRANCH   6  15
ATOM     15  N   ALA A   1     -12.085  14.231  68.252  1.00  0.00    -0.549 NA 
ATOM     16  H   ALA A   1     -11.854  15.032  67.664  1.00  0.00     0.000 HD 
BRANCH  15  17
ATOM     17  CA  ALA A   1     -11.649  12.974  67.611  1.00  0.00    -0.355 C  
ATOM     18  CB  ALA A   1     -12.031  12.943  66.132  1.00  0.00    -0.491 C  
BRANCH  17  19
ATOM     19  C   ALA A   1     -10.126  12.696  67.817  1.00  0.00    -0.220 C  
HETATM   20  C   UNK A   2     -10.032   9.391  69.580  1.00  0.00    -0.197 C  
ATOM     21  O   ALA A   1      -9.244  13.504  67.519  1.00  0.00    -0.201 OA 
HETATM   22  C   UNK A   2      -8.556   9.647  69.270  1.00  0.00    -0.153 C  
HETATM   23  N   UNK A   2      -9.780  11.453  68.346  1.00  0.00    -0.198 N  
HETATM   24  S   UNK A   2     -10.657   7.911  68.687  1.00  0.00    -0.048 SA 
HETATM   25  C   UNK A   2     -11.146   6.935  70.131  1.00  0.00    -0.299 C  
HETATM   26  C   UNK A   2      -8.437  11.135  68.867  1.00  0.00    -0.092 C  
HETATM   27  C   UNK A   2     -10.763  10.638  69.065  1.00  0.00    -0.221 C  
HETATM   28  C   UNK A   2      -7.142  11.266  68.028  1.00  0.00    -0.070 C  
HETATM   29  C   UNK A   2     -11.567   7.877  71.239  1.00  0.00    -0.276 C  
HETATM   30  S   UNK A   2     -10.300   9.161  71.375  1.00  0.00    -0.325 SA 
HETATM   31  O   UNK A   2      -7.149  12.193  67.054  1.00  0.00    -0.133 OA 
HETATM   32  O   UNK A   2      -6.118  10.642  68.287  1.00  0.00    -0.047 OA 
ENDBRANCH  17  19
ENDBRANCH  15  17
ENDBRANCH   6  15
ENDBRANCH   4   6
ENDBRANCH   3   4
ENDBRANCH   2   3
TORSDOF 9
ENDMDL
MODEL       19
REMARK 921   NORMALIZED FREE ENERGY PREDICTED BY IDOCK:   -6.45 KCAL/MOL
REMARK 922        TOTAL FREE ENERGY PREDICTED BY IDOCK:  -11.19 KCAL/MOL
REMARK 923 INTER-LIGAND FREE ENERGY PREDICTED BY IDOCK:   -9.61 KCAL/MOL
REMARK 924 INTRA-LIGAND FREE ENERGY PREDICTED BY IDOCK:   -1.57 KCAL/MOL
REMARK 927      BINDING AFFINITY PREDICTED BY RF-SCORE:    0.00 PKD
ROOT
HETATM    1  C   UNK A   0     -10.092   5.229  70.440  1.00  0.00    -0.324 C  
HETATM    2  C   UNK A   0     -10.748   5.853  69.222  1.00  0.00    -0.331 C  
ENDROOT
BRANCH   2   3
HETATM    3  O   UNK A   0      -9.828   6.728  68.549  1.00  0.00    -0.138 OA 
BRANCH   3   4
HETATM    4  C   UNK A   0     -10.342   7.466  67.523  1.00  0.00    -0.251 C  
HETATM    5  O   UNK A   0     -11.203   7.085  66.738  1.00  0.00    -0.229 OA 
BRANCH   4   6
HETATM    6  C   UNK A   0      -9.698   8.865  67.493  1.00  0.00    -0.170 C  
BRANCH   6   7
HETATM    7  C   UNK A   0      -9.349   9.309  68.925  1.00  0.00    -0.150 C  
BRANCH   7   8
HETATM    8  C   UNK A   0     -10.211  10.444  69.486  1.00  0.00    -0.258 C  
BRANCH   8   9
HETATM    9  C   UNK A   0     -11.159   9.871  70.519  1.00  0.00    -0.398 A  
HETATM   10  C   UNK A   0     -10.769   8.799  71.334  1.00  0.00    -0.356 A  
HETATM   11  C   UNK A   0     -11.610   8.340  72.352  1.00  0.00    -0.464 A  
HETATM   12  C   UNK A   0     -12.846   8.950  72.564  1.00  0.00    -0.401 A  
HETATM   13  C   UNK A   0     -12.405  10.475  70.742  1.00  0.00    -0.474 A  
HETATM   14  C   UNK A   0     -13.243  10.014  71.759  1.00  0.00    -0.540 A  
ENDBRANCH   8   9
ENDBRANCH   7   8
ENDBRANCH   6   7
BRANCH   6  15
ATOM     15  N   ALA A   1     -10.653   9.801  66.825  1.00  0.00    -0.178 NA 
ATOM     16  H   ALA A   1     -11.158  10.352  67.519  1.00  0.00     0.000 HD 
BRANCH  15  17
ATOM     17  CA  ALA A   1     -10.026  10.681  65.819  1.00  0.00    -0.257 C  
ATOM     18  CB  ALA A   1      -9.395   9.872  64.687  1.00  0.00    -0.338 C  
BRANCH  17  19
ATOM     19  C   ALA A   1     -11.014  11.761  65.272  1.00  0.00    -0.295 C  
HETATM   20  C   UNK A   2     -10.124  14.860  67.182  1.00  0.00    -0.240 C  
ATOM     21  O   ALA A   1     -11.912  11.511  64.467  1.00  0.00    -0.078 OA 
HETATM   22  C   UNK A   2     -11.120  15.380  66.144  1.00  0.00    -0.230 C  
HETATM   23  N   UNK A   2     -10.825  13.068  65.721  1.00  0.00    -0.271 N  
HETATM   24  S   UNK A   2      -8.454  15.588  66.929  1.00  0.00    -0.273 SA 
HETATM   25  C   UNK A   2      -8.287  16.394  68.541  1.00  0.00    -0.202 C  
HETATM   26  C   UNK A   2     -11.820  14.142  65.539  1.00  0.00    -0.364 C  
HETATM   27  C   UNK A   2     -10.057  13.347  66.937  1.00  0.00    -0.255 C  
HETATM   28  C   UNK A   2     -12.369  14.573  64.156  1.00  0.00    -0.286 C  
HETATM   29  C   UNK A   2      -9.052  15.592  69.572  1.00  0.00    -0.260 C  
HETATM   30  S   UNK A   2     -10.685  15.232  68.882  1.00  0.00    -0.258 SA 
HETATM   31  O   UNK A   2     -12.400  13.627  63.201  1.00  0.00    -0.729 OA 
HETATM   32  O   UNK A   2     -12.852  15.682  63.951  1.00  0.00    -0.619 OA 
ENDBRANCH  17  19
ENDBRANCH  15  17
ENDBRANCH   6  15
ENDBRANCH   4   6
ENDBRANCH   3   4
ENDBRANCH   2   3
TORSDOF 9
ENDMDL
MODEL       20
REMARK 921   NORMALIZED FREE ENERGY PREDICTED BY IDOCK:   -6.45 KCAL/MOL
REMARK 922        TOTAL FREE ENERGY PREDICTED BY IDOCK:  -11.19 KCAL/MOL
REMARK 923 INTER-LIGAND FREE ENERGY PREDICTED BY IDOCK:  -10.23 KCAL/MOL
REMARK 924 INTRA-LIGAND FREE ENERGY PREDICTED BY IDOCK:   -0.95 KCAL/MOL
REMARK 927      BINDING AFFINITY PREDICTED BY RF-SCORE:    0.00 PKD
ROOT
HETATM    1  C   UNK A   0     -12.423  12.842  70.739  1.00  0.00    -0.370 C  
HETATM    2  C   UNK A   0     -12.763  14.229  70.225  1.00  0.00    -0.249 C  
ENDROOT
BRANCH   2   3
HETATM    3  O   UNK A   0     -11.650  14.784  69.505  1.00  0.00    -0.270 OA 
BRANCH   3   4
HETATM    4  C   UNK A   0     -11.134  15.947  70.000  1.00  0.00    -0.354 C  
HETATM    5  O   UNK A   0     -11.422  16.446  71.082  1.00  0.00    -0.394 OA 
BRANCH   4   6
HETATM    6  C   UNK A   0     -10.118  16.547  69.011  1.00  0.00    -0.279 C  
BRANCH   6   7
HETATM    7  C   UNK A   0     -10.681  17.848  68.411  1.00  0.00    -0.171 C  
BRANCH   7   8
HETATM    8  C   UNK A   0     -10.036  19.139  68.925  1.00  0.00    -0.481 C  
BRANCH   8   9
HETATM    9  C   UNK A   0      -8.791  19.419  68.109  1.00  0.00    -0.376 A  
HETATM   10  C   UNK A   0      -7.515  19.210  68.652  1.00  0.00    -0.370 A  
HETATM   11  C   UNK A   0      -6.374  19.374  67.863  1.00  0.00    -0.237 A  
HETATM   12  C   UNK A   0      -6.497  19.747  66.525  1.00  0.00    -0.195 A  
HETATM   13  C   UNK A   0      -8.902  19.795  66.762  1.00  0.00    -0.410 A  
HETATM   14  C   UNK A   0      -7.760  19.959  65.977  1.00  0.00    -0.337 A  
ENDBRANCH   8   9
ENDBRANCH   7   8
ENDBRANCH   6   7
BRANCH   6  15
ATOM     15  N   ALA A   1      -9.826  15.520  67.965  1.00  0.00    -0.212 NA 
ATOM     16  H   ALA A   1     -10.575  14.829  67.923  1.00  0.00     0.000 HD 
BRANCH  15  17
ATOM     17  CA  ALA A   1      -9.567  16.085  66.625  1.00  0.00    -0.239 C  
ATOM     18  CB  ALA A   1      -8.068  16.191  66.347  1.00  0.00    -0.305 C  
BRANCH  17  19
ATOM     19  C   ALA A   1     -10.308  15.303  65.494  1.00  0.00    -0.383 C  
HETATM   20  C   UNK A   2      -9.822  11.702  66.408  1.00  0.00    -0.207 C  
ATOM     21  O   ALA A   1     -10.817  15.850  64.514  1.00  0.00    -0.532 OA 
HETATM   22  C   UNK A   2     -10.810  11.621  65.242  1.00  0.00    -0.340 C  
HETATM   23  N   UNK A   2     -10.402  13.920  65.646  1.00  0.00    -0.313 N  
HETATM   24  S   UNK A   2     -10.579  11.090  67.968  1.00  0.00    -0.221 SA 
HETATM   25  C   UNK A   2      -9.419   9.741  68.297  1.00  0.00    -0.139 C  
HETATM   26  C   UNK A   2     -10.806  13.008  64.559  1.00  0.00    -0.372 C  
HETATM   27  C   UNK A   2      -9.506  13.196  66.552  1.00  0.00    -0.243 C  
HETATM   28  C   UNK A   2     -12.147  13.131  63.795  1.00  0.00    -0.495 C  
HETATM   29  C   UNK A   2      -8.061  10.116  67.742  1.00  0.00    -0.109 C  
HETATM   30  S   UNK A   2      -8.310  10.734  66.061  1.00  0.00    -0.159 SA 
HETATM   31  O   UNK A   2     -12.675  14.364  63.702  1.00  0.00    -0.773 OA 
HETATM   32  O   UNK A   2     -12.665  12.185  63.207  1.00  0.00    -0.698 OA 
ENDBRANCH  17  19
ENDBRANCH  15  17
ENDBRANCH   6  15
ENDBRANCH   4   6
ENDBRANCH   3   4
ENDBRANCH   2   3
TORSDOF 9
ENDMDL
MODEL       21
REMARK 921   NORMALIZED FREE ENERGY PREDICTED BY IDOCK:   -6.44 KCAL/MOL
REMARK 922        TOTAL FREE ENERGY PREDICTED BY IDOCK:  -11.17 KCAL/MOL
REMARK 923 INTER-LIGAND FREE ENERGY PREDICTED BY IDOCK:  -10.21 KCAL/MOL
REMARK 924 INTRA-LIGAND FREE ENERGY PREDICTED BY IDOCK:   -0.96 KCAL/MOL
REMARK 927      BINDING AFFINITY PREDICTED BY RF-SCORE:    0.00 PKD
ROOT
HETATM    1  C   UNK A   0     -12.255  12.033  63.474  1.00  0.00    -0.653 C  
HETATM    2  C   UNK A   0     -12.538  12.872  64.707  1.00  0.00    -0.425 C  
ENDROOT
BRANCH   2   3
HETATM    3  O   UNK A   0     -12.304  12.108  65.900  1.00  0.00    -0.561 OA 
BRANCH   3   4
HETATM    4  C   UNK A   0     -11.187  12.434  66.614  1.00  0.00    -0.315 C  
HETATM    5  O   UNK A   0     -10.110  12.764  66.132  1.00  0.00    -0.256 OA 
BRANCH   4   6
HETATM    6  C   UNK A   0     -11.471  12.345  68.125  1.00  0.00    -0.318 C  
BRANCH   6   7
HETATM    7  C   UNK A   0     -12.225  13.605  68.589  1.00  0.00    -0.189 C  
BRANCH   7   8
HETATM    8  C   UNK A   0     -11.380  14.631  69.349  1.00  0.00    -0.314 C  
BRANCH   8   9
HETATM    9  C   UNK A   0     -11.997  14.856  70.713  1.00  0.00    -0.372 A  
HETATM   10  C   UNK A   0     -12.771  13.858  71.324  1.00  0.00    -0.444 A  
HETATM   11  C   UNK A   0     -13.253  14.032  72.623  1.00  0.00    -0.606 A  
HETATM   12  C   UNK A   0     -12.965  15.201  73.325  1.00  0.00    -0.645 A  
HETATM   13  C   UNK A   0     -11.714  16.028  71.429  1.00  0.00    -0.536 A  
HETATM   14  C   UNK A   0     -12.198  16.199  72.727  1.00  0.00    -0.628 A  
ENDBRANCH   8   9
ENDBRANCH   7   8
ENDBRANCH   6   7
BRANCH   6  15
ATOM     15  N   ALA A   1     -10.165  12.174  68.832  1.00  0.00    -0.413 NA 
ATOM     16  H   ALA A   1     -10.223  12.534  69.784  1.00  0.00     0.000 HD 
BRANCH  15  17
ATOM     17  CA  ALA A   1      -9.662  10.784  68.833  1.00  0.00    -0.198 C  
ATOM     18  CB  ALA A   1      -8.180  10.729  69.202  1.00  0.00    -0.124 C  
BRANCH  17  19
ATOM     19  C   ALA A   1     -10.516   9.842  69.741  1.00  0.00    -0.261 C  
HETATM   20  C   UNK A   2      -9.912   6.424  68.329  1.00  0.00    -0.140 C  
ATOM     21  O   ALA A   1     -11.265  10.254  70.629  1.00  0.00    -0.315 OA 
HETATM   22  C   UNK A   2     -10.700   6.125  69.606  1.00  0.00    -0.385 C  
HETATM   23  N   UNK A   2     -10.383   8.471  69.523  1.00  0.00    -0.215 N  
HETATM   24  S   UNK A   2      -8.210   5.735  68.417  1.00  0.00    -0.108 SA 
HETATM   25  C   UNK A   2      -8.311   4.634  66.984  1.00  0.00    -0.105 C  
HETATM   26  C   UNK A   2     -11.308   7.465  70.079  1.00  0.00    -0.127 C  
HETATM   27  C   UNK A   2      -9.835   7.955  68.266  1.00  0.00    -0.169 C  
HETATM   28  C   UNK A   2     -11.596   7.314  71.592  1.00  0.00    -0.274 C  
HETATM   29  C   UNK A   2      -9.262   5.235  65.971  1.00  0.00    -0.157 C  
HETATM   30  S   UNK A   2     -10.755   5.742  66.857  1.00  0.00    -0.259 SA 
HETATM   31  O   UNK A   2     -11.478   8.425  72.340  1.00  0.00    -0.367 OA 
HETATM   32  O   UNK A   2     -12.013   6.270  72.087  1.00  0.00    -0.329 OA 
ENDBRANCH  17  19
ENDBRANCH  15  17
ENDBRANCH   6  15
ENDBRANCH   4   6
ENDBRANCH   3   4
ENDBRANCH   2   3
TORSDOF 9
ENDMDL
MODEL       22
REMARK 921   NORMALIZED FREE ENERGY PREDICTED BY IDOCK:   -6.32 KCAL/MOL
REMARK 922        TOTAL FREE ENERGY PREDICTED BY IDOCK:  -10.99 KCAL/MOL
REMARK 923 INTER-LIGAND FREE ENERGY PREDICTED BY IDOCK:   -9.97 KCAL/MOL
REMARK 924 INTRA-LIGAND FREE ENERGY PREDICTED BY IDOCK:   -1.02 KCAL/MOL
REMARK 927      BINDING AFFINITY PREDICTED BY RF-SCORE:    0.00 PKD
ROOT
HETATM    1  C   UNK A   0     -12.449  15.790  74.539  1.00  0.00    -0.755 C  
HETATM    2  C   UNK A   0     -12.659  14.968  73.281  1.00  0.00    -0.485 C  
ENDROOT
BRANCH   2   3
HETATM    3  O   UNK A   0     -11.795  15.426  72.230  1.00  0.00    -0.384 OA 
BRANCH   3   4
HETATM    4  C   UNK A   0     -12.306  15.377  70.966  1.00  0.00    -0.392 C  
HETATM    5  O   UNK A   0     -13.407  15.798  70.630  1.00  0.00    -0.486 OA 
BRANCH   4   6
HETATM    6  C   UNK A   0     -11.296  14.725  70.003  1.00  0.00    -0.265 C  
BRANCH   6   7
HETATM    7  C   UNK A   0     -10.451  15.815  69.318  1.00  0.00    -0.247 C  
BRANCH   7   8
HETATM    8  C   UNK A   0     -10.928  16.235  67.925  1.00  0.00    -0.310 C  
BRANCH   8   9
HETATM    9  C   UNK A   0     -10.467  17.652  67.658  1.00  0.00    -0.372 A  
HETATM   10  C   UNK A   0     -10.473  18.175  66.358  1.00  0.00    -0.364 A  
HETATM   11  C   UNK A   0     -10.141  19.514  66.130  1.00  0.00    -0.557 A  
HETATM   12  C   UNK A   0      -9.803  20.341  67.201  1.00  0.00    -0.606 A  
HETATM   13  C   UNK A   0     -10.125  18.494  68.727  1.00  0.00    -0.394 A  
HETATM   14  C   UNK A   0      -9.793  19.830  68.497  1.00  0.00    -0.506 A  
ENDBRANCH   8   9
ENDBRANCH   7   8
ENDBRANCH   6   7
BRANCH   6  15
ATOM     15  N   ALA A   1     -12.060  13.899  69.019  1.00  0.00    -0.399 NA 
ATOM     16  H   ALA A   1     -12.302  14.452  68.197  1.00  0.00     0.000 HD 
BRANCH  15  17
ATOM     17  CA  ALA A   1     -11.374  12.652  68.622  1.00  0.00    -0.291 C  
ATOM     18  CB  ALA A   1     -12.079  11.422  69.191  1.00  0.00    -0.331 C  
BRANCH  17  19
ATOM     19  C   ALA A   1     -11.186  12.543  67.075  1.00  0.00    -0.302 C  
HETATM   20  C   UNK A   2      -8.019  10.579  66.679  1.00  0.00    -0.125 C  
ATOM     21  O   ALA A   1     -11.922  13.104  66.262  1.00  0.00    -0.387 OA 
HETATM   22  C   UNK A   2      -8.540  10.668  65.243  1.00  0.00    -0.175 C  
HETATM   23  N   UNK A   2     -10.136  11.741  66.626  1.00  0.00    -0.201 N  
HETATM   24  S   UNK A   2      -7.993   8.840  67.274  1.00  0.00    -0.097 SA 
HETATM   25  C   UNK A   2      -6.220   8.717  67.613  1.00  0.00    -0.052 C  
HETATM   26  C   UNK A   2      -9.642  11.752  65.236  1.00  0.00    -0.168 C  
HETATM   27  C   UNK A   2      -9.026  11.383  67.512  1.00  0.00    -0.150 C  
HETATM   28  C   UNK A   2     -10.540  11.464  64.007  1.00  0.00    -0.383 C  
HETATM   29  C   UNK A   2      -5.702  10.082  68.014  1.00  0.00    -0.038 C  
HETATM   30  S   UNK A   2      -6.335  11.280  66.817  1.00  0.00    -0.140 SA 
HETATM   31  O   UNK A   2     -11.842  11.774  64.130  1.00  0.00    -0.327 OA 
HETATM   32  O   UNK A   2     -10.090  11.074  62.934  1.00  0.00    -0.282 OA 
ENDBRANCH  17  19
ENDBRANCH  15  17
ENDBRANCH   6  15
ENDBRANCH   4   6
ENDBRANCH   3   4
ENDBRANCH   2   3
TORSDOF 9
ENDMDL
MODEL       23
REMARK 921   NORMALIZED FREE ENERGY PREDICTED BY IDOCK:   -6.31 KCAL/MOL
REMARK 922        TOTAL FREE ENERGY PREDICTED BY IDOCK:  -10.97 KCAL/MOL
REMARK 923 INTER-LIGAND FREE ENERGY PREDICTED BY IDOCK:   -9.54 KCAL/MOL
REMARK 924 INTRA-LIGAND FREE ENERGY PREDICTED BY IDOCK:   -1.43 KCAL/MOL
REMARK 927      BINDING AFFINITY PREDICTED BY RF-SCORE:    0.00 PKD
ROOT
HETATM    1  C   UNK A   0     -13.651   9.111  72.288  1.00  0.00    -0.548 C  
HETATM    2  C   UNK A   0     -13.276  10.381  71.547  1.00  0.00    -0.386 C  
ENDROOT
BRANCH   2   3
HETATM    3  O   UNK A   0     -11.875  10.382  71.229  1.00  0.00    -0.350 OA 
BRANCH   3   4
HETATM    4  C   UNK A   0     -11.543  10.805  69.974  1.00  0.00    -0.334 C  
HETATM    5  O   UNK A   0     -12.143  11.660  69.334  1.00  0.00    -0.306 OA 
BRANCH   4   6
HETATM    6  C   UNK A   0     -10.289  10.066  69.472  1.00  0.00    -0.235 C  
BRANCH   6   7
HETATM    7  C   UNK A   0      -9.848   9.022  70.514  1.00  0.00    -0.263 C  
BRANCH   7   8
HETATM    8  C   UNK A   0     -10.279   7.582  70.220  1.00  0.00    -0.204 C  
BRANCH   8   9
HETATM    9  C   UNK A   0     -10.428   6.840  71.532  1.00  0.00    -0.236 A  
HETATM   10  C   UNK A   0     -10.575   5.446  71.555  1.00  0.00    -0.285 A  
HETATM   11  C   UNK A   0     -10.611   4.757  72.770  1.00  0.00    -0.272 A  
HETATM   12  C   UNK A   0     -10.499   5.455  73.972  1.00  0.00    -0.317 A  
HETATM   13  C   UNK A   0     -10.317   7.531  72.747  1.00  0.00    -0.331 A  
HETATM   14  C   UNK A   0     -10.354   6.840  73.960  1.00  0.00    -0.377 A  
ENDBRANCH   8   9
ENDBRANCH   7   8
ENDBRANCH   6   7
BRANCH   6  15
ATOM     15  N   ALA A   1      -9.227  11.083  69.204  1.00  0.00    -0.389 NA 
ATOM     16  H   ALA A   1      -8.434  10.947  69.831  1.00  0.00     0.000 HD 
BRANCH  15  17
ATOM     17  CA  ALA A   1      -8.776  11.123  67.798  1.00  0.00    -0.132 C  
ATOM     18  CB  ALA A   1      -7.995   9.862  67.428  1.00  0.00    -0.106 C  
BRANCH  17  19
ATOM     19  C   ALA A   1      -9.951  11.384  66.802  1.00  0.00    -0.208 C  
HETATM   20  C   UNK A   2     -10.739  15.019  67.256  1.00  0.00    -0.298 C  
ATOM     21  O   ALA A   1     -10.488  10.494  66.140  1.00  0.00    -0.230 OA 
HETATM   22  C   UNK A   2     -11.603  14.636  66.052  1.00  0.00    -0.328 C  
HETATM   23  N   UNK A   2     -10.373  12.706  66.662  1.00  0.00    -0.235 N  
HETATM   24  S   UNK A   2      -9.456  16.252  66.793  1.00  0.00    -0.250 SA 
HETATM   25  C   UNK A   2      -9.964  17.576  67.917  1.00  0.00    -0.312 C  
HETATM   26  C   UNK A   2     -11.633  13.092  65.998  1.00  0.00    -0.365 C  
HETATM   27  C   UNK A   2     -10.055  13.712  67.678  1.00  0.00    -0.242 C  
HETATM   28  C   UNK A   2     -11.984  12.705  64.541  1.00  0.00    -0.399 C  
HETATM   29  C   UNK A   2     -10.578  16.959  69.156  1.00  0.00    -0.330 C  
HETATM   30  S   UNK A   2     -11.759  15.702  68.612  1.00  0.00    -0.289 SA 
HETATM   31  O   UNK A   2     -11.444  11.564  64.076  1.00  0.00    -0.350 OA 
HETATM   32  O   UNK A   2     -12.792  13.334  63.864  1.00  0.00    -0.633 OA 
ENDBRANCH  17  19
ENDBRANCH  15  17
ENDBRANCH   6  15
ENDBRANCH   4   6
ENDBRANCH   3   4
ENDBRANCH   2   3
TORSDOF 9
ENDMDL
MODEL       24
REMARK 921   NORMALIZED FREE ENERGY PREDICTED BY IDOCK:   -6.30 KCAL/MOL
REMARK 922        TOTAL FREE ENERGY PREDICTED BY IDOCK:  -10.95 KCAL/MOL
REMARK 923 INTER-LIGAND FREE ENERGY PREDICTED BY IDOCK:   -9.29 KCAL/MOL
REMARK 924 INTRA-LIGAND FREE ENERGY PREDICTED BY IDOCK:   -1.66 KCAL/MOL
REMARK 927      BINDING AFFINITY PREDICTED BY RF-SCORE:    0.00 PKD
ROOT
HETATM    1  C   UNK A   0     -10.749  19.113  67.454  1.00  0.00    -0.578 C  
HETATM    2  C   UNK A   0     -10.465  18.978  65.969  1.00  0.00    -0.458 C  
ENDROOT
BRANCH   2   3
HETATM    3  O   UNK A   0     -10.780  17.652  65.515  1.00  0.00    -0.565 OA 
BRANCH   3   4
HETATM    4  C   UNK A   0      -9.847  16.690  65.774  1.00  0.00    -0.211 C  
HETATM    5  O   UNK A   0      -8.634  16.862  65.771  1.00  0.00    -0.505 OA 
BRANCH   4   6
HETATM    6  C   UNK A   0     -10.533  15.348  66.088  1.00  0.00    -0.316 C  
BRANCH   6   7
HETATM    7  C   UNK A   0     -11.462  14.953  64.926  1.00  0.00    -0.407 C  
BRANCH   7   8
HETATM    8  C   UNK A   0     -12.259  13.662  65.134  1.00  0.00    -0.461 C  
BRANCH   8   9
HETATM    9  C   UNK A   0     -11.400  12.486  64.718  1.00  0.00    -0.354 A  
HETATM   10  C   UNK A   0     -10.768  12.467  63.467  1.00  0.00    -0.417 A  
HETATM   11  C   UNK A   0      -9.897  11.428  63.128  1.00  0.00    -0.413 A  
HETATM   12  C   UNK A   0      -9.649  10.401  64.037  1.00  0.00    -0.376 A  
HETATM   13  C   UNK A   0     -11.143  11.447  65.624  1.00  0.00    -0.207 A  
HETATM   14  C   UNK A   0     -10.273  10.409  65.282  1.00  0.00    -0.332 A  
ENDBRANCH   8   9
ENDBRANCH   7   8
ENDBRANCH   6   7
BRANCH   6  15
ATOM     15  N   ALA A   1     -11.271  15.495  67.380  1.00  0.00    -0.291 NA 
ATOM     16  H   ALA A   1     -12.191  15.058  67.319  1.00  0.00     0.000 HD 
BRANCH  15  17
ATOM     17  CA  ALA A   1     -10.532  14.987  68.554  1.00  0.00    -0.232 C  
ATOM     18  CB  ALA A   1     -10.622  15.957  69.730  1.00  0.00    -0.322 C  
BRANCH  17  19
ATOM     19  C   ALA A   1     -10.979  13.546  68.961  1.00  0.00    -0.225 C  
HETATM   20  C   UNK A   2      -7.913  11.457  68.431  1.00  0.00    -0.142 C  
ATOM     21  O   ALA A   1     -12.136  13.259  69.273  1.00  0.00    -0.301 OA 
HETATM   22  C   UNK A   2      -8.869  10.481  69.121  1.00  0.00    -0.161 C  
HETATM   23  N   UNK A   2      -9.988  12.565  68.985  1.00  0.00    -0.409 N  
HETATM   24  S   UNK A   2      -6.438  11.798  69.474  1.00  0.00    -0.103 SA 
HETATM   25  C   UNK A   2      -5.175  11.203  68.322  1.00  0.00    -0.039 C  
HETATM   26  C   UNK A   2     -10.276  11.120  69.065  1.00  0.00    -0.176 C  
HETATM   27  C   UNK A   2      -8.725  12.749  68.267  1.00  0.00    -0.168 C  
HETATM   28  C   UNK A   2     -11.103  10.475  70.204  1.00  0.00    -0.298 C  
HETATM   29  C   UNK A   2      -5.663  11.421  66.905  1.00  0.00    -0.120 C  
HETATM   30  S   UNK A   2      -7.362  10.810  66.812  1.00  0.00    -0.136 SA 
HETATM   31  O   UNK A   2     -12.032  11.254  70.786  1.00  0.00    -0.339 OA 
HETATM   32  O   UNK A   2     -11.006   9.289  70.504  1.00  0.00    -0.233 OA 
ENDBRANCH  17  19
ENDBRANCH  15  17
ENDBRANCH   6  15
ENDBRANCH   4   6
ENDBRANCH   3   4
ENDBRANCH   2   3
TORSDOF 9
ENDMDL
MODEL       25
REMARK 921   NORMALIZED FREE ENERGY PREDICTED BY IDOCK:   -6.27 KCAL/MOL
REMARK 922        TOTAL FREE ENERGY PREDICTED BY IDOCK:  -10.92 KCAL/MOL
REMARK 923 INTER-LIGAND FREE ENERGY PREDICTED BY IDOCK:   -9.52 KCAL/MOL
REMARK 924 INTRA-LIGAND FREE ENERGY PREDICTED BY IDOCK:   -1.40 KCAL/MOL
REMARK 927      BINDING AFFINITY PREDICTED BY RF-SCORE:    0.00 PKD
ROOT
HETATM    1  C   UNK A   0     -11.254   6.576  67.806  1.00  0.00    -0.261 C  
HETATM    2  C   UNK A   0     -10.050   7.494  67.710  1.00  0.00    -0.185 C  
ENDROOT
BRANCH   2   3
HETATM    3  O   UNK A   0     -10.383   8.686  66.981  1.00  0.00    -0.270 OA 
BRANCH   3   4
HETATM    4  C   UNK A   0      -9.675   9.807  67.305  1.00  0.00    -0.169 C  
HETATM    5  O   UNK A   0      -8.492   9.830  67.625  1.00  0.00    -0.121 OA 
BRANCH   4   6
HETATM    6  C   UNK A   0     -10.569  11.057  67.198  1.00  0.00    -0.250 C  
BRANCH   6   7
HETATM    7  C   UNK A   0     -11.792  10.902  68.119  1.00  0.00    -0.125 C  
BRANCH   7   8
HETATM    8  C   UNK A   0     -11.619  11.455  69.537  1.00  0.00    -0.399 C  
BRANCH   8   9
HETATM    9  C   UNK A   0     -11.757  10.315  70.524  1.00  0.00    -0.418 A  
HETATM   10  C   UNK A   0     -10.672   9.472  70.802  1.00  0.00    -0.391 A  
HETATM   11  C   UNK A   0     -10.775   8.486  71.787  1.00  0.00    -0.373 A  
HETATM   12  C   UNK A   0     -11.961   8.336  72.504  1.00  0.00    -0.420 A  
HETATM   13  C   UNK A   0     -12.945  10.154  71.252  1.00  0.00    -0.510 A  
HETATM   14  C   UNK A   0     -13.045   9.168  72.234  1.00  0.00    -0.509 A  
ENDBRANCH   8   9
ENDBRANCH   7   8
ENDBRANCH   6   7
BRANCH   6  15
ATOM     15  N   ALA A   1     -10.955  11.229  65.765  1.00  0.00    -0.199 NA 
ATOM     16  H   ALA A   1     -11.931  11.517  65.689  1.00  0.00     0.000 HD 
BRANCH  15  17
ATOM     17  CA  ALA A   1     -10.081  12.155  65.015  1.00  0.00    -0.263 C  
ATOM     18  CB  ALA A   1      -9.760  11.614  63.623  1.00  0.00    -0.310 C  
BRANCH  17  19
ATOM     19  C   ALA A   1     -10.665  13.603  64.949  1.00  0.00    -0.391 C  
HETATM   20  C   UNK A   2      -8.665  15.510  67.479  1.00  0.00    -0.172 C  
ATOM     21  O   ALA A   1     -11.636  13.910  64.255  1.00  0.00    -0.390 OA 
HETATM   22  C   UNK A   2      -9.475  16.612  66.792  1.00  0.00    -0.260 C  
HETATM   23  N   UNK A   2     -10.016  14.577  65.706  1.00  0.00    -0.325 N  
HETATM   24  S   UNK A   2      -6.863  15.723  67.182  1.00  0.00    -0.046 SA 
HETATM   25  C   UNK A   2      -6.344  15.890  68.908  1.00  0.00    -0.122 C  
HETATM   26  C   UNK A   2     -10.589  15.908  65.984  1.00  0.00    -0.323 C  
HETATM   27  C   UNK A   2      -9.136  14.208  66.818  1.00  0.00    -0.247 C  
HETATM   28  C   UNK A   2     -11.028  16.897  64.877  1.00  0.00    -0.001 C  
HETATM   29  C   UNK A   2      -7.283  15.086  69.783  1.00  0.00    -0.149 C  
HETATM   30  S   UNK A   2      -8.973  15.488  69.281  1.00  0.00    -0.270 SA 
HETATM   31  O   UNK A   2     -11.432  16.356  63.714  1.00  0.00    -1.002 OA 
HETATM   32  O   UNK A   2     -11.111  18.108  65.064  1.00  0.00    -0.650 OA 
ENDBRANCH  17  19
ENDBRANCH  15  17
ENDBRANCH   6  15
ENDBRANCH   4   6
ENDBRANCH   3   4
ENDBRANCH   2   3
TORSDOF 9
ENDMDL
MODEL       26
REMARK 921   NORMALIZED FREE ENERGY PREDICTED BY IDOCK:   -6.20 KCAL/MOL
REMARK 922        TOTAL FREE ENERGY PREDICTED BY IDOCK:  -10.80 KCAL/MOL
REMARK 923 INTER-LIGAND FREE ENERGY PREDICTED BY IDOCK:   -9.39 KCAL/MOL
REMARK 924 INTRA-LIGAND FREE ENERGY PREDICTED BY IDOCK:   -1.42 KCAL/MOL
REMARK 927      BINDING AFFINITY PREDICTED BY RF-SCORE:    0.00 PKD
ROOT
HETATM    1  C   UNK A   0     -13.601   9.143  72.359  1.00  0.00    -0.544 C  
HETATM    2  C   UNK A   0     -13.109  10.457  71.781  1.00  0.00    -0.462 C  
ENDROOT
BRANCH   2   3
HETATM    3  O   UNK A   0     -11.822  10.287  71.167  1.00  0.00    -0.353 OA 
BRANCH   3   4
HETATM    4  C   UNK A   0     -11.778  10.435  69.811  1.00  0.00    -0.237 C  
HETATM    5  O   UNK A   0     -12.536  11.136  69.150  1.00  0.00    -0.418 OA 
BRANCH   4   6
HETATM    6  C   UNK A   0     -10.626   9.604  69.217  1.00  0.00    -0.219 C  
BRANCH   6   7
HETATM    7  C   UNK A   0     -10.363   8.372  70.100  1.00  0.00    -0.214 C  
BRANCH   7   8
HETATM    8  C   UNK A   0     -11.317   7.194  69.881  1.00  0.00    -0.199 C  
BRANCH   8   9
HETATM    9  C   UNK A   0     -10.679   6.223  68.911  1.00  0.00    -0.357 A  
HETATM   10  C   UNK A   0      -9.841   5.196  69.370  1.00  0.00    -0.269 A  
HETATM   11  C   UNK A   0      -9.335   4.244  68.481  1.00  0.00    -0.209 A  
HETATM   12  C   UNK A   0      -9.664   4.307  67.128  1.00  0.00    -0.232 A  
HETATM   13  C   UNK A   0     -11.002   6.276  67.547  1.00  0.00    -0.444 A  
HETATM   14  C   UNK A   0     -10.494   5.324  66.662  1.00  0.00    -0.345 A  
ENDBRANCH   8   9
ENDBRANCH   7   8
ENDBRANCH   6   7
BRANCH   6  15
ATOM     15  N   ALA A   1      -9.426  10.489  69.105  1.00  0.00    -0.236 NA 
ATOM     16  H   ALA A   1      -8.699  10.190  69.755  1.00  0.00     0.000 HD 
BRANCH  15  17
ATOM     17  CA  ALA A   1      -8.885  10.595  67.735  1.00  0.00    -0.133 C  
ATOM     18  CB  ALA A   1      -8.126   9.330  67.337  1.00  0.00    -0.110 C  
BRANCH  17  19
ATOM     19  C   ALA A   1      -9.984  10.960  66.686  1.00  0.00    -0.208 C  
HETATM   20  C   UNK A   2     -10.585  14.618  67.233  1.00  0.00    -0.284 C  
ATOM     21  O   ALA A   1     -10.532  10.127  65.962  1.00  0.00    -0.194 OA 
HETATM   22  C   UNK A   2     -11.399  14.329  65.970  1.00  0.00    -0.335 C  
HETATM   23  N   UNK A   2     -10.320  12.309  66.573  1.00  0.00    -0.224 N  
HETATM   24  S   UNK A   2      -9.209  15.787  66.888  1.00  0.00    -0.246 SA 
HETATM   25  C   UNK A   2      -9.703  17.099  68.032  1.00  0.00    -0.274 C  
HETATM   26  C   UNK A   2     -11.515  12.792  65.856  1.00  0.00    -0.356 C  
HETATM   27  C   UNK A   2     -10.003  13.259  67.642  1.00  0.00    -0.229 C  
HETATM   28  C   UNK A   2     -11.804  12.477  64.367  1.00  0.00    -0.386 C  
HETATM   29  C   UNK A   2     -10.421  16.478  69.211  1.00  0.00    -0.326 C  
HETATM   30  S   UNK A   2     -11.640  15.313  68.555  1.00  0.00    -0.341 SA 
HETATM   31  O   UNK A   2     -11.305  11.323  63.890  1.00  0.00    -0.317 OA 
HETATM   32  O   UNK A   2     -12.534  13.176  63.671  1.00  0.00    -0.685 OA 
ENDBRANCH  17  19
ENDBRANCH  15  17
ENDBRANCH   6  15
ENDBRANCH   4   6
ENDBRANCH   3   4
ENDBRANCH   2   3
TORSDOF 9
ENDMDL
MODEL       27
REMARK 921   NORMALIZED FREE ENERGY PREDICTED BY IDOCK:   -6.19 KCAL/MOL
REMARK 922        TOTAL FREE ENERGY PREDICTED BY IDOCK:  -10.79 KCAL/MOL
REMARK 923 INTER-LIGAND FREE ENERGY PREDICTED BY IDOCK:   -9.77 KCAL/MOL
REMARK 924 INTRA-LIGAND FREE ENERGY PREDICTED BY IDOCK:   -1.03 KCAL/MOL
REMARK 927      BINDING AFFINITY PREDICTED BY RF-SCORE:    0.00 PKD
ROOT
HETATM    1  C   UNK A   0     -12.250  12.321  63.883  1.00  0.00    -0.608 C  
HETATM    2  C   UNK A   0     -11.343  12.475  65.089  1.00  0.00    -0.313 C  
ENDROOT
BRANCH   2   3
HETATM    3  O   UNK A   0     -12.110  12.442  66.303  1.00  0.00    -0.612 OA 
BRANCH   3   4
HETATM    4  C   UNK A   0     -11.634  11.634  67.294  1.00  0.00    -0.238 C  
HETATM    5  O   UNK A   0     -10.826  10.725  67.140  1.00  0.00    -0.266 OA 
BRANCH   4   6
HETATM    6  C   UNK A   0     -12.244  12.031  68.651  1.00  0.00     0.120 C  
BRANCH   6   7
HETATM    7  C   UNK A   0     -11.314  13.026  69.369  1.00  0.00    -0.269 C  
BRANCH   7   8
HETATM    8  C   UNK A   0     -11.771  14.487  69.339  1.00  0.00    -0.361 C  
BRANCH   8   9
HETATM    9  C   UNK A   0     -12.305  14.859  70.707  1.00  0.00    -0.392 A  
HETATM   10  C   UNK A   0     -11.436  15.254  71.733  1.00  0.00    -0.494 A  
HETATM   11  C   UNK A   0     -11.941  15.691  72.960  1.00  0.00    -0.590 A  
HETATM   12  C   UNK A   0     -13.318  15.739  73.172  1.00  0.00    -0.685 A  
HETATM   13  C   UNK A   0     -13.689  14.910  70.932  1.00  0.00    -0.266 A  
HETATM   14  C   UNK A   0     -14.190  15.347  72.159  1.00  0.00    -0.660 A  
ENDBRANCH   8   9
ENDBRANCH   7   8
ENDBRANCH   6   7
BRANCH   6  15
ATOM     15  N   ALA A   1     -12.460  10.783  69.445  1.00  0.00    -0.649 NA 
ATOM     16  H   ALA A   1     -11.978   9.995  69.013  1.00  0.00     0.000 HD 
BRANCH  15  17
ATOM     17  CA  ALA A   1     -12.082  10.904  70.868  1.00  0.00    -0.349 C  
ATOM     18  CB  ALA A   1     -13.210  11.522  71.693  1.00  0.00    -0.389 C  
BRANCH  17  19
ATOM     19  C   ALA A   1     -11.603   9.547  71.475  1.00  0.00    -0.395 C  
HETATM   20  C   UNK A   2      -8.284   8.940  69.843  1.00  0.00    -0.118 C  
ATOM     21  O   ALA A   1     -12.291   8.864  72.235  1.00  0.00    -0.373 OA 
HETATM   22  C   UNK A   2      -8.349   7.831  70.895  1.00  0.00    -0.111 C  
HETATM   23  N   UNK A   2     -10.316   9.128  71.138  1.00  0.00    -0.290 N  
HETATM   24  S   UNK A   2      -6.915  10.115  70.194  1.00  0.00    -0.149 SA 
HETATM   25  C   UNK A   2      -5.988   9.885  68.656  1.00  0.00    -0.038 C  
HETATM   26  C   UNK A   2      -9.814   7.763  71.381  1.00  0.00    -0.167 C  
HETATM   27  C   UNK A   2      -9.625   9.676  69.967  1.00  0.00    -0.243 C  
HETATM   28  C   UNK A   2      -9.788   7.099  72.780  1.00  0.00    -0.179 C  
HETATM   29  C   UNK A   2      -6.958   9.542  67.546  1.00  0.00    -0.084 C  
HETATM   30  S   UNK A   2      -8.061   8.249  68.165  1.00  0.00    -0.125 SA 
HETATM   31  O   UNK A   2     -10.724   7.505  73.655  1.00  0.00    -0.343 OA 
HETATM   32  O   UNK A   2      -9.029   6.175  73.062  1.00  0.00    -0.132 OA 
ENDBRANCH  17  19
ENDBRANCH  15  17
ENDBRANCH   6  15
ENDBRANCH   4   6
ENDBRANCH   3   4
ENDBRANCH   2   3
TORSDOF 9
ENDMDL
MODEL       28
REMARK 921   NORMALIZED FREE ENERGY PREDICTED BY IDOCK:   -6.16 KCAL/MOL
REMARK 922        TOTAL FREE ENERGY PREDICTED BY IDOCK:  -10.75 KCAL/MOL
REMARK 923 INTER-LIGAND FREE ENERGY PREDICTED BY IDOCK:   -9.42 KCAL/MOL
REMARK 924 INTRA-LIGAND FREE ENERGY PREDICTED BY IDOCK:   -1.33 KCAL/MOL
REMARK 927      BINDING AFFINITY PREDICTED BY RF-SCORE:    0.00 PKD
ROOT
HETATM    1  C   UNK A   0      -8.057   5.729  69.998  1.00  0.00    -0.108 C  
HETATM    2  C   UNK A   0      -7.887   7.116  70.589  1.00  0.00    -0.096 C  
ENDROOT
BRANCH   2   3
HETATM    3  O   UNK A   0      -8.143   8.122  69.595  1.00  0.00    -0.113 OA 
BRANCH   3   4
HETATM    4  C   UNK A   0      -8.022   9.418  70.005  1.00  0.00    -0.137 C  
HETATM    5  O   UNK A   0      -7.229   9.822  70.847  1.00  0.00    -0.310 OA 
BRANCH   4   6
HETATM    6  C   UNK A   0      -9.017  10.316  69.247  1.00  0.00    -0.179 C  
BRANCH   6   7
HETATM    7  C   UNK A   0     -10.436  10.107  69.805  1.00  0.00    -0.301 C  
BRANCH   7   8
HETATM    8  C   UNK A   0     -11.524  10.976  69.168  1.00  0.00    -0.370 C  
BRANCH   8   9
HETATM    9  C   UNK A   0     -12.129  11.861  70.238  1.00  0.00    -0.409 A  
HETATM   10  C   UNK A   0     -12.131  13.256  70.098  1.00  0.00    -0.403 A  
HETATM   11  C   UNK A   0     -12.778  14.062  71.039  1.00  0.00    -0.431 A  
HETATM   12  C   UNK A   0     -13.430  13.481  72.126  1.00  0.00    -0.631 A  
HETATM   13  C   UNK A   0     -12.787  11.288  71.336  1.00  0.00    -0.515 A  
HETATM   14  C   UNK A   0     -13.432  12.096  72.275  1.00  0.00    -0.298 A  
ENDBRANCH   8   9
ENDBRANCH   7   8
ENDBRANCH   6   7
BRANCH   6  15
ATOM     15  N   ALA A   1      -8.924   9.987  67.792  1.00  0.00    -0.131 NA 
ATOM     16  H   ALA A   1      -9.785   9.546  67.469  1.00  0.00     0.000 HD 
BRANCH  15  17
ATOM     17  CA  ALA A   1      -8.580  11.141  66.937  1.00  0.00    -0.148 C  
ATOM     18  CB  ALA A   1      -7.300  10.884  66.143  1.00  0.00    -0.103 C  
BRANCH  17  19
ATOM     19  C   ALA A   1      -9.760  11.565  66.005  1.00  0.00    -0.226 C  
HETATM   20  C   UNK A   2     -10.138  15.241  66.627  1.00  0.00    -0.261 C  
ATOM     21  O   ALA A   1     -10.415  10.764  65.335  1.00  0.00    -0.260 OA 
HETATM   22  C   UNK A   2     -11.086  15.001  65.450  1.00  0.00    -0.377 C  
HETATM   23  N   UNK A   2     -10.044  12.928  65.933  1.00  0.00    -0.286 N  
HETATM   24  S   UNK A   2      -8.751  16.350  66.153  1.00  0.00    -0.250 SA 
HETATM   25  C   UNK A   2      -9.070  17.673  67.347  1.00  0.00    -0.239 C  
HETATM   26  C   UNK A   2     -11.282  13.471  65.340  1.00  0.00    -0.289 C  
HETATM   27  C   UNK A   2      -9.581  13.853  66.970  1.00  0.00    -0.254 C  
HETATM   28  C   UNK A   2     -11.730  13.183  63.887  1.00  0.00    -0.456 C  
HETATM   29  C   UNK A   2      -9.695  17.072  68.589  1.00  0.00    -0.282 C  
HETATM   30  S   UNK A   2     -11.025  15.970  68.051  1.00  0.00    -0.328 SA 
HETATM   31  O   UNK A   2     -11.334  12.013  63.357  1.00  0.00    -0.415 OA 
HETATM   32  O   UNK A   2     -12.493  13.921  63.270  1.00  0.00    -0.817 OA 
ENDBRANCH  17  19
ENDBRANCH  15  17
ENDBRANCH   6  15
ENDBRANCH   4   6
ENDBRANCH   3   4
ENDBRANCH   2   3
TORSDOF 9
ENDMDL
MODEL       29
REMARK 921   NORMALIZED FREE ENERGY PREDICTED BY IDOCK:   -6.16 KCAL/MOL
REMARK 922        TOTAL FREE ENERGY PREDICTED BY IDOCK:  -10.75 KCAL/MOL
REMARK 923 INTER-LIGAND FREE ENERGY PREDICTED BY IDOCK:   -9.47 KCAL/MOL
REMARK 924 INTRA-LIGAND FREE ENERGY PREDICTED BY IDOCK:   -1.28 KCAL/MOL
REMARK 927      BINDING AFFINITY PREDICTED BY RF-SCORE:    0.00 PKD
ROOT
HETATM    1  C   UNK A   0      -7.381   8.142  72.670  1.00  0.00    -0.141 C  
HETATM    2  C   UNK A   0      -8.425   7.879  73.739  1.00  0.00    -0.252 C  
ENDROOT
BRANCH   2   3
HETATM    3  O   UNK A   0      -9.720   8.317  73.297  1.00  0.00    -0.227 OA 
BRANCH   3   4
HETATM    4  C   UNK A   0     -10.705   7.373  73.293  1.00  0.00    -0.391 C  
HETATM    5  O   UNK A   0     -10.703   6.344  73.959  1.00  0.00    -0.236 OA 
BRANCH   4   6
HETATM    6  C   UNK A   0     -11.841   7.786  72.339  1.00  0.00    -0.321 C  
BRANCH   6   7
HETATM    7  C   UNK A   0     -11.930   6.787  71.171  1.00  0.00    -0.421 C  
BRANCH   7   8
HETATM    8  C   UNK A   0     -10.590   6.393  70.544  1.00  0.00    -0.291 C  
BRANCH   8   9
HETATM    9  C   UNK A   0     -10.503   6.998  69.159  1.00  0.00    -0.218 A  
HETATM   10  C   UNK A   0      -9.954   8.274  68.967  1.00  0.00    -0.193 A  
HETATM   11  C   UNK A   0      -9.785   8.786  67.678  1.00  0.00    -0.210 A  
HETATM   12  C   UNK A   0     -10.161   8.028  66.570  1.00  0.00    -0.228 A  
HETATM   13  C   UNK A   0     -10.878   6.245  68.037  1.00  0.00    -0.409 A  
HETATM   14  C   UNK A   0     -10.709   6.760  66.750  1.00  0.00    -0.312 A  
ENDBRANCH   8   9
ENDBRANCH   7   8
ENDBRANCH   6   7
BRANCH   6  15
ATOM     15  N   ALA A   1     -11.571   9.181  71.873  1.00  0.00    -0.370 NA 
ATOM     16  H   ALA A   1     -10.717   9.214  71.317  1.00  0.00     0.000 HD 
BRANCH  15  17
ATOM     17  CA  ALA A   1     -12.694   9.795  71.136  1.00  0.00    -0.340 C  
ATOM     18  CB  ALA A   1     -14.013   9.084  71.438  1.00  0.00    -0.275 C  
BRANCH  17  19
ATOM     19  C   ALA A   1     -12.800  11.333  71.384  1.00  0.00    -0.410 C  
HETATM   20  C   UNK A   2     -11.130  12.855  68.394  1.00  0.00    -0.262 C  
ATOM     21  O   ALA A   1     -13.259  11.823  72.417  1.00  0.00    -0.302 OA 
HETATM   22  C   UNK A   2     -11.727  14.074  69.101  1.00  0.00    -0.375 C  
HETATM   23  N   UNK A   2     -12.365  12.166  70.353  1.00  0.00    -0.276 N  
HETATM   24  S   UNK A   2     -11.898  12.597  66.743  1.00  0.00    -0.307 SA 
HETATM   25  C   UNK A   2     -10.397  12.746  65.743  1.00  0.00    -0.281 C  
HETATM   26  C   UNK A   2     -12.128  13.613  70.521  1.00  0.00    -0.339 C  
HETATM   27  C   UNK A   2     -11.474  11.668  69.302  1.00  0.00    -0.300 C  
HETATM   28  C   UNK A   2     -13.207  14.603  71.022  1.00  0.00    -0.374 C  
HETATM   29  C   UNK A   2      -9.216  12.259  66.556  1.00  0.00    -0.219 C  
HETATM   30  S   UNK A   2      -9.321  13.030  68.188  1.00  0.00    -0.206 SA 
HETATM   31  O   UNK A   2     -14.149  14.102  71.840  1.00  0.00    -0.441 OA 
HETATM   32  O   UNK A   2     -13.165  15.807  70.782  1.00  0.00    -0.542 OA 
ENDBRANCH  17  19
ENDBRANCH  15  17
ENDBRANCH   6  15
ENDBRANCH   4   6
ENDBRANCH   3   4
ENDBRANCH   2   3
TORSDOF 9
ENDMDL
MODEL       30
REMARK 921   NORMALIZED FREE ENERGY PREDICTED BY IDOCK:   -6.16 KCAL/MOL
REMARK 922        TOTAL FREE ENERGY PREDICTED BY IDOCK:  -10.75 KCAL/MOL
REMARK 923 INTER-LIGAND FREE ENERGY PREDICTED BY IDOCK:   -9.33 KCAL/MOL
REMARK 924 INTRA-LIGAND FREE ENERGY PREDICTED BY IDOCK:   -1.42 KCAL/MOL
REMARK 927      BINDING AFFINITY PREDICTED BY RF-SCORE:    0.00 PKD
ROOT
HETATM    1  C   UNK A   0     -12.985  10.678  71.515  1.00  0.00    -0.566 C  
HETATM    2  C   UNK A   0     -11.786   9.752  71.426  1.00  0.00    -0.398 C  
ENDROOT
BRANCH   2   3
HETATM    3  O   UNK A   0     -10.855  10.227  70.441  1.00  0.00    -0.294 OA 
BRANCH   3   4
HETATM    4  C   UNK A   0      -9.724   9.483  70.274  1.00  0.00    -0.263 C  
HETATM    5  O   UNK A   0      -8.829   9.359  71.102  1.00  0.00    -0.272 OA 
BRANCH   4   6
HETATM    6  C   UNK A   0      -9.729   8.799  68.894  1.00  0.00    -0.172 C  
BRANCH   6   7
HETATM    7  C   UNK A   0      -9.819   7.273  69.069  1.00  0.00    -0.165 C  
BRANCH   7   8
HETATM    8  C   UNK A   0     -11.152   6.754  69.616  1.00  0.00    -0.343 C  
BRANCH   8   9
HETATM    9  C   UNK A   0     -10.877   5.869  70.813  1.00  0.00    -0.352 A  
HETATM   10  C   UNK A   0     -11.525   6.093  72.036  1.00  0.00    -0.366 A  
HETATM   11  C   UNK A   0     -11.343   5.215  73.107  1.00  0.00    -0.385 A  
HETATM   12  C   UNK A   0     -10.514   4.103  72.965  1.00  0.00    -0.247 A  
HETATM   13  C   UNK A   0     -10.045   4.747  70.683  1.00  0.00    -0.288 A  
HETATM   14  C   UNK A   0      -9.864   3.871  71.755  1.00  0.00    -0.249 A  
ENDBRANCH   8   9
ENDBRANCH   7   8
ENDBRANCH   6   7
BRANCH   6  15
ATOM     15  N   ALA A   1      -8.492   9.215  68.165  1.00  0.00    -0.124 NA 
ATOM     16  H   ALA A   1      -8.293   8.570  67.401  1.00  0.00     0.000 HD 
BRANCH  15  17
ATOM     17  CA  ALA A   1      -8.526  10.608  67.672  1.00  0.00    -0.118 C  
ATOM     18  CB  ALA A   1      -7.236  10.969  66.938  1.00  0.00    -0.133 C  
BRANCH  17  19
ATOM     19  C   ALA A   1      -9.787  10.900  66.798  1.00  0.00    -0.195 C  
HETATM   20  C   UNK A   2     -11.190  14.057  68.249  1.00  0.00    -0.268 C  
ATOM     21  O   ALA A   1     -10.194  10.137  65.920  1.00  0.00    -0.254 OA 
HETATM   22  C   UNK A   2     -12.042  13.857  66.994  1.00  0.00    -0.451 C  
HETATM   23  N   UNK A   2     -10.449  12.105  67.034  1.00  0.00    -0.218 N  
HETATM   24  S   UNK A   2     -10.182  15.590  68.135  1.00  0.00    -0.230 SA 
HETATM   25  C   UNK A   2     -10.851  16.438  69.587  1.00  0.00    -0.346 C  
HETATM   26  C   UNK A   2     -11.795  12.409  66.514  1.00  0.00    -0.339 C  
HETATM   27  C   UNK A   2     -10.257  12.840  68.286  1.00  0.00    -0.244 C  
HETATM   28  C   UNK A   2     -12.159  12.371  65.009  1.00  0.00    -0.407 C  
HETATM   29  C   UNK A   2     -11.267  15.404  70.611  1.00  0.00    -0.342 C  
HETATM   30  S   UNK A   2     -12.233  14.140  69.749  1.00  0.00    -0.311 SA 
HETATM   31  O   UNK A   2     -11.451  11.524  64.242  1.00  0.00    -0.296 OA 
HETATM   32  O   UNK A   2     -13.106  12.995  64.540  1.00  0.00    -0.693 OA 
ENDBRANCH  17  19
ENDBRANCH  15  17
ENDBRANCH   6  15
ENDBRANCH   4   6
ENDBRANCH   3   4
ENDBRANCH   2   3
TORSDOF 9
ENDMDL
MODEL       31
REMARK 921   NORMALIZED FREE ENERGY PREDICTED BY IDOCK:   -6.09 KCAL/MOL
REMARK 922        TOTAL FREE ENERGY PREDICTED BY IDOCK:  -10.65 KCAL/MOL
REMARK 923 INTER-LIGAND FREE ENERGY PREDICTED BY IDOCK:   -9.51 KCAL/MOL
REMARK 924 INTRA-LIGAND FREE ENERGY PREDICTED BY IDOCK:   -1.13 KCAL/MOL
REMARK 927      BINDING AFFINITY PREDICTED BY RF-SCORE:    0.00 PKD
ROOT
HETATM    1  C   UNK A   0     -11.947  13.637  69.114  1.00  0.00    -0.394 C  
HETATM    2  C   UNK A   0     -11.425  12.639  68.097  1.00  0.00    -0.313 C  
ENDROOT
BRANCH   2   3
HETATM    3  O   UNK A   0     -12.256  12.635  66.925  1.00  0.00    -0.489 OA 
BRANCH   3   4
HETATM    4  C   UNK A   0     -12.012  13.618  66.010  1.00  0.00    -0.413 C  
HETATM    5  O   UNK A   0     -12.868  14.305  65.464  1.00  0.00    -0.539 OA 
BRANCH   4   6
HETATM    6  C   UNK A   0     -10.499  13.761  65.765  1.00  0.00    -0.299 C  
BRANCH   6   7
HETATM    7  C   UNK A   0     -10.103  15.248  65.802  1.00  0.00    -0.384 C  
BRANCH   7   8
HETATM    8  C   UNK A   0      -9.616  15.762  67.160  1.00  0.00    -0.224 C  
BRANCH   8   9
HETATM    9  C   UNK A   0      -9.864  17.254  67.233  1.00  0.00    -0.267 A  
HETATM   10  C   UNK A   0     -10.248  17.975  66.093  1.00  0.00    -0.364 A  
HETATM   11  C   UNK A   0     -10.572  19.331  66.188  1.00  0.00    -0.549 A  
HETATM   12  C   UNK A   0     -10.516  19.977  67.421  1.00  0.00    -0.490 A  
HETATM   13  C   UNK A   0      -9.811  17.916  68.468  1.00  0.00    -0.367 A  
HETATM   14  C   UNK A   0     -10.134  19.271  68.559  1.00  0.00    -0.513 A  
ENDBRANCH   8   9
ENDBRANCH   7   8
ENDBRANCH   6   7
BRANCH   6  15
ATOM     15  N   ALA A   1     -10.179  13.121  64.453  1.00  0.00    -0.590 NA 
ATOM     16  H   ALA A   1      -9.172  13.117  64.292  1.00  0.00     0.000 HD 
BRANCH  15  17
ATOM     17  CA  ALA A   1     -10.735  11.760  64.298  1.00  0.00    -0.342 C  
ATOM     18  CB  ALA A   1     -11.882  11.739  63.289  1.00  0.00    -0.342 C  
BRANCH  17  19
ATOM     19  C   ALA A   1      -9.638  10.706  63.945  1.00  0.00    -0.306 C  
HETATM   20  C   UNK A   2      -9.426   8.552  67.004  1.00  0.00    -0.173 C  
ATOM     21  O   ALA A   1      -8.982  10.734  62.902  1.00  0.00    -0.218 OA 
HETATM   22  C   UNK A   2      -8.539   7.805  66.005  1.00  0.00    -0.166 C  
HETATM   23  N   UNK A   2      -9.434   9.679  64.867  1.00  0.00    -0.386 N  
HETATM   24  S   UNK A   2     -10.898   7.553  67.469  1.00  0.00    -0.091 SA 
HETATM   25  C   UNK A   2     -10.581   7.454  69.248  1.00  0.00    -0.213 C  
HETATM   26  C   UNK A   2      -8.266   8.778  64.836  1.00  0.00    -0.159 C  
HETATM   27  C   UNK A   2      -9.885   9.810  66.255  1.00  0.00    -0.250 C  
HETATM   28  C   UNK A   2      -7.891   7.908  63.612  1.00  0.00    -0.138 C  
HETATM   29  C   UNK A   2      -9.850   8.705  69.686  1.00  0.00    -0.186 C  
HETATM   30  S   UNK A   2      -8.497   8.984  68.519  1.00  0.00    -0.129 SA 
HETATM   31  O   UNK A   2      -8.253   8.380  62.406  1.00  0.00    -0.166 OA 
HETATM   32  O   UNK A   2      -7.208   6.892  63.704  1.00  0.00    -0.056 OA 
ENDBRANCH  17  19
ENDBRANCH  15  17
ENDBRANCH   6  15
ENDBRANCH   4   6
ENDBRANCH   3   4
ENDBRANCH   2   3
TORSDOF 9
ENDMDL
MODEL       32
REMARK 921   NORMALIZED FREE ENERGY PREDICTED BY IDOCK:   -6.09 KCAL/MOL
REMARK 922        TOTAL FREE ENERGY PREDICTED BY IDOCK:  -10.64 KCAL/MOL
REMARK 923 INTER-LIGAND FREE ENERGY PREDICTED BY IDOCK:  -10.10 KCAL/MOL
REMARK 924 INTRA-LIGAND FREE ENERGY PREDICTED BY IDOCK:   -0.55 KCAL/MOL
REMARK 927      BINDING AFFINITY PREDICTED BY RF-SCORE:    0.00 PKD
ROOT
HETATM    1  C   UNK A   0     -14.288   7.306  71.470  1.00  0.00    -0.558 C  
HETATM    2  C   UNK A   0     -14.099   8.639  72.170  1.00  0.00    -0.441 C  
ENDROOT
BRANCH   2   3
HETATM    3  O   UNK A   0     -13.459   9.581  71.294  1.00  0.00    -0.370 OA 
BRANCH   3   4
HETATM    4  C   UNK A   0     -12.094   9.593  71.317  1.00  0.00    -0.371 C  
HETATM    5  O   UNK A   0     -11.393   8.895  72.040  1.00  0.00    -0.353 OA 
BRANCH   4   6
HETATM    6  C   UNK A   0     -11.549  10.603  70.291  1.00  0.00    -0.336 C  
BRANCH   6   7
HETATM    7  C   UNK A   0     -12.388  11.892  70.332  1.00  0.00    -0.334 C  
BRANCH   7   8
HETATM    8  C   UNK A   0     -11.596  13.195  70.189  1.00  0.00    -0.147 C  
BRANCH   8   9
HETATM    9  C   UNK A   0     -12.184  14.229  71.125  1.00  0.00    -0.431 A  
HETATM   10  C   UNK A   0     -13.543  14.195  71.469  1.00  0.00    -0.405 A  
HETATM   11  C   UNK A   0     -14.059  15.090  72.410  1.00  0.00    -0.574 A  
HETATM   12  C   UNK A   0     -13.221  16.024  73.017  1.00  0.00    -0.590 A  
HETATM   13  C   UNK A   0     -11.352  15.174  71.743  1.00  0.00    -0.391 A  
HETATM   14  C   UNK A   0     -11.870  16.067  72.682  1.00  0.00    -0.611 A  
ENDBRANCH   8   9
ENDBRANCH   7   8
ENDBRANCH   6   7
BRANCH   6  15
ATOM     15  N   ALA A   1     -11.570   9.954  68.945  1.00  0.00    -0.482 NA 
ATOM     16  H   ALA A   1     -11.892  10.611  68.235  1.00  0.00     0.000 HD 
BRANCH  15  17
ATOM     17  CA  ALA A   1     -10.280   9.353  68.548  1.00  0.00    -0.199 C  
ATOM     18  CB  ALA A   1     -10.419   8.530  67.268  1.00  0.00    -0.366 C  
BRANCH  17  19
ATOM     19  C   ALA A   1      -9.140  10.414  68.429  1.00  0.00    -0.147 C  
HETATM   20  C   UNK A   2     -10.470  12.908  65.968  1.00  0.00    -0.276 C  
ATOM     21  O   ALA A   1      -8.048  10.300  68.989  1.00  0.00    -0.112 OA 
HETATM   22  C   UNK A   2      -9.190  13.580  66.469  1.00  0.00    -0.187 C  
HETATM   23  N   UNK A   2      -9.415  11.547  67.663  1.00  0.00    -0.165 N  
HETATM   24  S   UNK A   2     -11.961  13.878  66.432  1.00  0.00    -0.454 SA 
HETATM   25  C   UNK A   2     -12.584  14.193  64.763  1.00  0.00    -0.302 C  
HETATM   26  C   UNK A   2      -8.378  12.496  67.214  1.00  0.00    -0.185 C  
HETATM   27  C   UNK A   2     -10.506  11.552  66.686  1.00  0.00    -0.238 C  
HETATM   28  C   UNK A   2      -7.424  13.240  68.180  1.00  0.00    -0.128 C  
HETATM   29  C   UNK A   2     -12.192  13.037  63.867  1.00  0.00    -0.437 C  
HETATM   30  S   UNK A   2     -10.439  12.696  64.152  1.00  0.00    -0.402 SA 
HETATM   31  O   UNK A   2      -7.135  12.617  69.336  1.00  0.00     0.025 OA 
HETATM   32  O   UNK A   2      -6.867  14.292  67.882  1.00  0.00    -0.129 OA 
ENDBRANCH  17  19
ENDBRANCH  15  17
ENDBRANCH   6  15
ENDBRANCH   4   6
ENDBRANCH   3   4
ENDBRANCH   2   3
TORSDOF 9
ENDMDL
MODEL       33
REMARK 921   NORMALIZED FREE ENERGY PREDICTED BY IDOCK:   -6.08 KCAL/MOL
REMARK 922        TOTAL FREE ENERGY PREDICTED BY IDOCK:  -10.63 KCAL/MOL
REMARK 923 INTER-LIGAND FREE ENERGY PREDICTED BY IDOCK:   -9.06 KCAL/MOL
REMARK 924 INTRA-LIGAND FREE ENERGY PREDICTED BY IDOCK:   -1.57 KCAL/MOL
REMARK 927      BINDING AFFINITY PREDICTED BY RF-SCORE:    0.00 PKD
ROOT
HETATM    1  C   UNK A   0      -8.957  18.437  68.413  1.00  0.00    -0.336 C  
HETATM    2  C   UNK A   0      -8.746  16.968  68.098  1.00  0.00    -0.233 C  
ENDROOT
BRANCH   2   3
HETATM    3  O   UNK A   0      -9.565  16.569  66.988  1.00  0.00    -0.233 OA 
BRANCH   3   4
HETATM    4  C   UNK A   0      -9.739  15.226  66.821  1.00  0.00    -0.236 C  
HETATM    5  O   UNK A   0      -8.861  14.378  66.933  1.00  0.00    -0.228 OA 
BRANCH   4   6
HETATM    6  C   UNK A   0     -11.209  14.912  66.483  1.00  0.00    -0.335 C  
BRANCH   6   7
HETATM    7  C   UNK A   0     -11.808  13.997  67.566  1.00  0.00    -0.442 C  
BRANCH   7   8
HETATM    8  C   UNK A   0     -11.463  14.376  69.009  1.00  0.00    -0.314 C  
BRANCH   8   9
HETATM    9  C   UNK A   0     -12.087  13.361  69.943  1.00  0.00    -0.389 A  
HETATM   10  C   UNK A   0     -11.833  11.991  69.786  1.00  0.00    -0.401 A  
HETATM   11  C   UNK A   0     -12.330  11.067  70.709  1.00  0.00    -0.496 A  
HETATM   12  C   UNK A   0     -13.082  11.505  71.798  1.00  0.00    -0.503 A  
HETATM   13  C   UNK A   0     -12.846  13.788  71.042  1.00  0.00    -0.376 A  
HETATM   14  C   UNK A   0     -13.342  12.864  71.963  1.00  0.00    -0.579 A  
ENDBRANCH   8   9
ENDBRANCH   7   8
ENDBRANCH   6   7
BRANCH   6  15
ATOM     15  N   ALA A   1     -11.249  14.288  65.126  1.00  0.00    -0.328 NA 
ATOM     16  H   ALA A   1     -10.367  14.436  64.637  1.00  0.00     0.000 HD 
BRANCH  15  17
ATOM     17  CA  ALA A   1     -11.602  12.854  65.136  1.00  0.00    -0.332 C  
ATOM     18  CB  ALA A   1     -12.996  12.619  64.556  1.00  0.00    -0.236 C  
BRANCH  17  19
ATOM     19  C   ALA A   1     -10.528  11.971  64.425  1.00  0.00    -0.312 C  
HETATM   20  C   UNK A   2      -9.237   9.738  67.144  1.00  0.00    -0.138 C  
ATOM     21  O   ALA A   1     -10.189  12.130  63.251  1.00  0.00    -0.429 OA 
HETATM   22  C   UNK A   2      -8.575   9.159  65.892  1.00  0.00    -0.168 C  
HETATM   23  N   UNK A   2      -9.961  10.943  65.178  1.00  0.00    -0.263 N  
HETATM   24  S   UNK A   2     -10.399   8.533  67.905  1.00  0.00    -0.207 SA 
HETATM   25  C   UNK A   2      -9.599   8.402  69.523  1.00  0.00    -0.170 C  
HETATM   26  C   UNK A   2      -8.748  10.208  64.770  1.00  0.00    -0.185 C  
HETATM   27  C   UNK A   2     -10.027  10.954  66.642  1.00  0.00    -0.208 C  
HETATM   28  C   UNK A   2      -8.622   9.448  63.427  1.00  0.00    -0.211 C  
HETATM   29  C   UNK A   2      -8.928   9.721  69.846  1.00  0.00    -0.229 C  
HETATM   30  S   UNK A   2      -7.987  10.227  68.387  1.00  0.00    -0.112 SA 
HETATM   31  O   UNK A   2      -9.352   9.918  62.400  1.00  0.00    -0.292 OA 
HETATM   32  O   UNK A   2      -7.825   8.530  63.257  1.00  0.00    -0.137 OA 
ENDBRANCH  17  19
ENDBRANCH  15  17
ENDBRANCH   6  15
ENDBRANCH   4   6
ENDBRANCH   3   4
ENDBRANCH   2   3
TORSDOF 9
ENDMDL
MODEL       34
REMARK 921   NORMALIZED FREE ENERGY PREDICTED BY IDOCK:   -6.06 KCAL/MOL
REMARK 922        TOTAL FREE ENERGY PREDICTED BY IDOCK:  -10.59 KCAL/MOL
REMARK 923 INTER-LIGAND FREE ENERGY PREDICTED BY IDOCK:   -9.17 KCAL/MOL
REMARK 924 INTRA-LIGAND FREE ENERGY PREDICTED BY IDOCK:   -1.42 KCAL/MOL
REMARK 927      BINDING AFFINITY PREDICTED BY RF-SCORE:    0.00 PKD
ROOT
HETATM    1  C   UNK A   0     -10.358   5.487  66.557  1.00  0.00    -0.309 C  
HETATM    2  C   UNK A   0      -8.843   5.489  66.646  1.00  0.00    -0.117 C  
ENDROOT
BRANCH   2   3
HETATM    3  O   UNK A   0      -8.333   6.824  66.508  1.00  0.00    -0.113 OA 
BRANCH   3   4
HETATM    4  C   UNK A   0      -7.659   7.326  67.583  1.00  0.00    -0.110 C  
HETATM    5  O   UNK A   0      -6.609   6.881  68.032  1.00  0.00    -0.054 OA 
BRANCH   4   6
HETATM    6  C   UNK A   0      -8.397   8.550  68.156  1.00  0.00    -0.127 C  
BRANCH   6   7
HETATM    7  C   UNK A   0      -9.199   8.139  69.404  1.00  0.00    -0.155 C  
BRANCH   7   8
HETATM    8  C   UNK A   0      -9.262   9.188  70.517  1.00  0.00    -0.286 C  
BRANCH   8   9
HETATM    9  C   UNK A   0     -10.705   9.363  70.942  1.00  0.00    -0.393 A  
HETATM   10  C   UNK A   0     -11.306   8.458  71.828  1.00  0.00    -0.366 A  
HETATM   11  C   UNK A   0     -12.605   8.679  72.294  1.00  0.00    -0.457 A  
HETATM   12  C   UNK A   0     -13.312   9.807  71.880  1.00  0.00    -0.530 A  
HETATM   13  C   UNK A   0     -11.427  10.493  70.533  1.00  0.00    -0.433 A  
HETATM   14  C   UNK A   0     -12.725  10.711  70.999  1.00  0.00    -0.512 A  
ENDBRANCH   8   9
ENDBRANCH   7   8
ENDBRANCH   6   7
BRANCH   6  15
ATOM     15  N   ALA A   1      -9.270   9.110  67.080  1.00  0.00    -0.132 NA 
ATOM     16  H   ALA A   1     -10.254   9.019  67.333  1.00  0.00     0.000 HD 
BRANCH  15  17
ATOM     17  CA  ALA A   1      -8.955  10.508  66.718  1.00  0.00    -0.137 C  
ATOM     18  CB  ALA A   1      -7.557  10.624  66.111  1.00  0.00    -0.138 C  
BRANCH  17  19
ATOM     19  C   ALA A   1     -10.040  11.143  65.791  1.00  0.00    -0.249 C  
HETATM   20  C   UNK A   2     -10.978  14.325  67.532  1.00  0.00    -0.289 C  
ATOM     21  O   ALA A   1     -10.485  10.583  64.787  1.00  0.00    -0.304 OA 
HETATM   22  C   UNK A   2     -11.714  14.445  66.196  1.00  0.00    -0.384 C  
HETATM   23  N   UNK A   2     -10.487  12.419  66.131  1.00  0.00    -0.243 N  
HETATM   24  S   UNK A   2      -9.696  15.631  67.708  1.00  0.00    -0.219 SA 
HETATM   25  C   UNK A   2     -10.347  16.421  69.201  1.00  0.00    -0.289 C  
HETATM   26  C   UNK A   2     -11.691  13.041  65.547  1.00  0.00    -0.368 C  
HETATM   27  C   UNK A   2     -10.296  12.952  67.482  1.00  0.00    -0.223 C  
HETATM   28  C   UNK A   2     -11.892  13.251  64.027  1.00  0.00    -0.455 C  
HETATM   29  C   UNK A   2     -11.055  15.377  70.039  1.00  0.00    -0.303 C  
HETATM   30  S   UNK A   2     -12.141  14.438  68.940  1.00  0.00    -0.196 SA 
HETATM   31  O   UNK A   2     -11.277  12.375  63.213  1.00  0.00    -0.441 OA 
HETATM   32  O   UNK A   2     -12.653  14.099  63.569  1.00  0.00    -0.834 OA 
ENDBRANCH  17  19
ENDBRANCH  15  17
ENDBRANCH   6  15
ENDBRANCH   4   6
ENDBRANCH   3   4
ENDBRANCH   2   3
TORSDOF 9
ENDMDL
MODEL       35
REMARK 921   NORMALIZED FREE ENERGY PREDICTED BY IDOCK:   -5.96 KCAL/MOL
REMARK 922        TOTAL FREE ENERGY PREDICTED BY IDOCK:  -10.44 KCAL/MOL
REMARK 923 INTER-LIGAND FREE ENERGY PREDICTED BY IDOCK:   -9.10 KCAL/MOL
REMARK 924 INTRA-LIGAND FREE ENERGY PREDICTED BY IDOCK:   -1.33 KCAL/MOL
REMARK 927      BINDING AFFINITY PREDICTED BY RF-SCORE:    0.00 PKD
ROOT
HETATM    1  C   UNK A   0      -8.054   6.003  71.350  1.00  0.00    -0.115 C  
HETATM    2  C   UNK A   0      -6.968   6.843  70.703  1.00  0.00    -0.063 C  
ENDROOT
BRANCH   2   3
HETATM    3  O   UNK A   0      -7.549   7.863  69.874  1.00  0.00    -0.085 OA 
BRANCH   3   4
HETATM    4  C   UNK A   0      -7.693   9.094  70.446  1.00  0.00    -0.127 C  
HETATM    5  O   UNK A   0      -7.196   9.443  71.510  1.00  0.00    -0.325 OA 
BRANCH   4   6
HETATM    6  C   UNK A   0      -8.563  10.001  69.556  1.00  0.00    -0.186 C  
BRANCH   6   7
HETATM    7  C   UNK A   0     -10.051   9.781  69.886  1.00  0.00    -0.288 C  
BRANCH   7   8
HETATM    8  C   UNK A   0     -10.345   9.349  71.325  1.00  0.00    -0.363 C  
BRANCH   8   9
HETATM    9  C   UNK A   0     -11.750   8.787  71.388  1.00  0.00    -0.369 A  
HETATM   10  C   UNK A   0     -11.979   7.410  71.254  1.00  0.00    -0.343 A  
HETATM   11  C   UNK A   0     -13.265   6.887  71.413  1.00  0.00    -0.287 A  
HETATM   12  C   UNK A   0     -14.332   7.734  71.708  1.00  0.00    -0.594 A  
HETATM   13  C   UNK A   0     -12.832   9.629  71.684  1.00  0.00    -0.499 A  
HETATM   14  C   UNK A   0     -14.115   9.103  71.841  1.00  0.00    -0.349 A  
ENDBRANCH   8   9
ENDBRANCH   7   8
ENDBRANCH   6   7
BRANCH   6  15
ATOM     15  N   ALA A   1      -8.247   9.691  68.129  1.00  0.00    -0.106 NA 
ATOM     16  H   ALA A   1      -8.894   8.994  67.761  1.00  0.00     0.000 HD 
BRANCH  15  17
ATOM     17  CA  ALA A   1      -8.210  10.879  67.251  1.00  0.00    -0.123 C  
ATOM     18  CB  ALA A   1      -7.007  10.839  66.310  1.00  0.00    -0.134 C  
BRANCH  17  19
ATOM     19  C   ALA A   1      -9.546  11.083  66.468  1.00  0.00    -0.195 C  
HETATM   20  C   UNK A   2     -11.066  14.129  68.035  1.00  0.00    -0.267 C  
ATOM     21  O   ALA A   1      -9.957  10.295  65.614  1.00  0.00    -0.251 OA 
HETATM   22  C   UNK A   2     -11.986  13.871  66.840  1.00  0.00    -0.467 C  
HETATM   23  N   UNK A   2     -10.274  12.237  66.757  1.00  0.00    -0.210 N  
HETATM   24  S   UNK A   2     -10.179  15.730  67.863  1.00  0.00    -0.246 SA 
HETATM   25  C   UNK A   2     -10.805  16.524  69.364  1.00  0.00    -0.311 C  
HETATM   26  C   UNK A   2     -11.671  12.445  66.333  1.00  0.00    -0.391 C  
HETATM   27  C   UNK A   2     -10.048  12.981  67.999  1.00  0.00    -0.235 C  
HETATM   28  C   UNK A   2     -12.134  12.386  64.857  1.00  0.00    -0.407 C  
HETATM   29  C   UNK A   2     -11.075  15.460  70.406  1.00  0.00    -0.328 C  
HETATM   30  S   UNK A   2     -12.006  14.133  69.604  1.00  0.00    -0.350 SA 
HETATM   31  O   UNK A   2     -11.423  11.592  64.036  1.00  0.00    -0.364 OA 
HETATM   32  O   UNK A   2     -13.154  12.941  64.458  1.00  0.00    -0.728 OA 
ENDBRANCH  17  19
ENDBRANCH  15  17
ENDBRANCH   6  15
ENDBRANCH   4   6
ENDBRANCH   3   4
ENDBRANCH   2   3
TORSDOF 9
ENDMDL
MODEL       36
REMARK 921   NORMALIZED FREE ENERGY PREDICTED BY IDOCK:   -5.93 KCAL/MOL
REMARK 922        TOTAL FREE ENERGY PREDICTED BY IDOCK:  -10.40 KCAL/MOL
REMARK 923 INTER-LIGAND FREE ENERGY PREDICTED BY IDOCK:   -8.94 KCAL/MOL
REMARK 924 INTRA-LIGAND FREE ENERGY PREDICTED BY IDOCK:   -1.45 KCAL/MOL
REMARK 927      BINDING AFFINITY PREDICTED BY RF-SCORE:    0.00 PKD
ROOT
HETATM    1  C   UNK A   0     -14.157  15.008  72.043  1.00  0.00    -0.633 C  
HETATM    2  C   UNK A   0     -12.768  14.436  71.826  1.00  0.00    -0.351 C  
ENDROOT
BRANCH   2   3
HETATM    3  O   UNK A   0     -12.652  13.888  70.503  1.00  0.00    -0.333 OA 
BRANCH   3   4
HETATM    4  C   UNK A   0     -12.403  12.548  70.426  1.00  0.00    -0.232 C  
HETATM    5  O   UNK A   0     -12.746  11.716  71.258  1.00  0.00    -0.393 OA 
BRANCH   4   6
HETATM    6  C   UNK A   0     -11.638  12.216  69.132  1.00  0.00    -0.319 C  
BRANCH   6   7
HETATM    7  C   UNK A   0     -11.973  13.257  68.048  1.00  0.00    -0.351 C  
BRANCH   7   8
HETATM    8  C   UNK A   0     -10.796  13.687  67.167  1.00  0.00    -0.292 C  
BRANCH   8   9
HETATM    9  C   UNK A   0     -10.919  13.003  65.822  1.00  0.00    -0.299 A  
HETATM   10  C   UNK A   0      -9.917  12.134  65.365  1.00  0.00    -0.269 A  
HETATM   11  C   UNK A   0     -10.081  11.429  64.170  1.00  0.00    -0.358 A  
HETATM   12  C   UNK A   0     -11.248  11.584  63.422  1.00  0.00    -0.342 A  
HETATM   13  C   UNK A   0     -12.088  13.150  65.061  1.00  0.00    -0.458 A  
HETATM   14  C   UNK A   0     -12.249  12.445  63.867  1.00  0.00    -0.603 A  
ENDBRANCH   8   9
ENDBRANCH   7   8
ENDBRANCH   6   7
BRANCH   6  15
ATOM     15  N   ALA A   1     -12.006  10.828  68.718  1.00  0.00    -0.718 NA 
ATOM     16  H   ALA A   1     -12.459  10.834  67.805  1.00  0.00     0.000 HD 
BRANCH  15  17
ATOM     17  CA  ALA A   1     -10.874   9.879  68.730  1.00  0.00    -0.208 C  
ATOM     18  CB  ALA A   1      -9.555  10.591  69.025  1.00  0.00    -0.213 C  
BRANCH  17  19
ATOM     19  C   ALA A   1     -11.111   8.680  69.702  1.00  0.00    -0.013 C  
HETATM   20  C   UNK A   2      -9.444   5.785  68.004  1.00  0.00    -0.110 C  
ATOM     21  O   ALA A   1     -11.797   8.761  70.723  1.00  0.00    -0.266 OA 
HETATM   22  C   UNK A   2      -9.815   5.204  69.370  1.00  0.00    -0.269 C  
HETATM   23  N   UNK A   2     -10.481   7.478  69.382  1.00  0.00    -0.220 N  
HETATM   24  S   UNK A   2      -7.621   5.843  67.775  1.00  0.00    -0.090 SA 
HETATM   25  C   UNK A   2      -7.519   4.783  66.312  1.00  0.00    -0.086 C  
HETATM   26  C   UNK A   2     -10.817   6.189  70.016  1.00  0.00    -0.341 C  
HETATM   27  C   UNK A   2      -9.997   7.216  68.024  1.00  0.00    -0.158 C  
HETATM   28  C   UNK A   2     -10.756   5.946  71.544  1.00  0.00    -0.256 C  
HETATM   29  C   UNK A   2      -8.789   4.940  65.503  1.00  0.00    -0.143 C  
HETATM   30  S   UNK A   2     -10.184   4.808  66.647  1.00  0.00    -0.207 SA 
HETATM   31  O   UNK A   2     -10.965   7.017  72.330  1.00  0.00    -0.229 OA 
HETATM   32  O   UNK A   2     -10.630   4.827  72.033  1.00  0.00    -0.186 OA 
ENDBRANCH  17  19
ENDBRANCH  15  17
ENDBRANCH   6  15
ENDBRANCH   4   6
ENDBRANCH   3   4
ENDBRANCH   2   3
TORSDOF 9
ENDMDL
MODEL       37
REMARK 921   NORMALIZED FREE ENERGY PREDICTED BY IDOCK:   -5.92 KCAL/MOL
REMARK 922        TOTAL FREE ENERGY PREDICTED BY IDOCK:  -10.38 KCAL/MOL
REMARK 923 INTER-LIGAND FREE ENERGY PREDICTED BY IDOCK:   -9.38 KCAL/MOL
REMARK 924 INTRA-LIGAND FREE ENERGY PREDICTED BY IDOCK:   -1.00 KCAL/MOL
REMARK 927      BINDING AFFINITY PREDICTED BY RF-SCORE:    0.00 PKD
ROOT
HETATM    1  C   UNK A   0     -12.748  12.122  63.330  1.00  0.00    -0.508 C  
HETATM    2  C   UNK A   0     -11.845  13.333  63.471  1.00  0.00    -0.418 C  
ENDROOT
BRANCH   2   3
HETATM    3  O   UNK A   0     -12.097  14.006  64.715  1.00  0.00    -0.393 OA 
BRANCH   3   4
HETATM    4  C   UNK A   0     -11.634  15.286  64.811  1.00  0.00    -0.322 C  
HETATM    5  O   UNK A   0     -11.751  16.149  63.948  1.00  0.00    -0.860 OA 
BRANCH   4   6
HETATM    6  C   UNK A   0     -10.947  15.509  66.171  1.00  0.00    -0.247 C  
BRANCH   6   7
HETATM    7  C   UNK A   0      -9.432  15.685  65.968  1.00  0.00    -0.390 C  
BRANCH   7   8
HETATM    8  C   UNK A   0      -8.888  17.083  66.275  1.00  0.00    -0.289 C  
BRANCH   8   9
HETATM    9  C   UNK A   0      -7.649  16.946  67.135  1.00  0.00    -0.210 A  
HETATM   10  C   UNK A   0      -7.117  15.684  67.430  1.00  0.00    -0.241 A  
HETATM   11  C   UNK A   0      -5.919  15.568  68.140  1.00  0.00    -0.138 A  
HETATM   12  C   UNK A   0      -5.241  16.712  68.557  1.00  0.00    -0.114 A  
HETATM   13  C   UNK A   0      -6.959  18.090  67.561  1.00  0.00    -0.201 A  
HETATM   14  C   UNK A   0      -5.762  17.971  68.270  1.00  0.00    -0.161 A  
ENDBRANCH   8   9
ENDBRANCH   7   8
ENDBRANCH   6   7
BRANCH   6  15
ATOM     15  N   ALA A   1     -11.270  14.343  67.049  1.00  0.00    -0.317 NA 
ATOM     16  H   ALA A   1     -10.786  13.506  66.726  1.00  0.00     0.000 HD 
BRANCH  15  17
ATOM     17  CA  ALA A   1     -10.999  14.578  68.482  1.00  0.00    -0.249 C  
ATOM     18  CB  ALA A   1     -11.208  16.045  68.855  1.00  0.00    -0.353 C  
BRANCH  17  19
ATOM     19  C   ALA A   1     -11.820  13.626  69.409  1.00  0.00    -0.339 C  
HETATM   20  C   UNK A   2     -10.176  10.287  68.973  1.00  0.00    -0.210 C  
ATOM     21  O   ALA A   1     -12.829  13.981  70.021  1.00  0.00    -0.200 OA 
HETATM   22  C   UNK A   2     -11.161  10.029  70.114  1.00  0.00    -0.367 C  
HETATM   23  N   UNK A   2     -11.346  12.321  69.546  1.00  0.00    -0.438 N  
HETATM   24  S   UNK A   2      -8.436  10.095  69.535  1.00  0.00    -0.145 SA 
HETATM   25  C   UNK A   2      -7.954   8.765  68.405  1.00  0.00    -0.109 C  
HETATM   26  C   UNK A   2     -12.138  11.227  70.139  1.00  0.00    -0.366 C  
HETATM   27  C   UNK A   2     -10.417  11.748  68.570  1.00  0.00    -0.215 C  
HETATM   28  C   UNK A   2     -12.738  11.281  71.565  1.00  0.00    -0.376 C  
HETATM   29  C   UNK A   2      -8.743   8.903  67.120  1.00  0.00    -0.120 C  
HETATM   30  S   UNK A   2     -10.477   9.154  67.569  1.00  0.00    -0.249 SA 
HETATM   31  O   UNK A   2     -13.044  12.501  72.041  1.00  0.00    -0.421 OA 
HETATM   32  O   UNK A   2     -13.026  10.273  72.203  1.00  0.00    -0.416 OA 
ENDBRANCH  17  19
ENDBRANCH  15  17
ENDBRANCH   6  15
ENDBRANCH   4   6
ENDBRANCH   3   4
ENDBRANCH   2   3
TORSDOF 9
ENDMDL
MODEL       38
REMARK 921   NORMALIZED FREE ENERGY PREDICTED BY IDOCK:   -5.92 KCAL/MOL
REMARK 922        TOTAL FREE ENERGY PREDICTED BY IDOCK:  -10.38 KCAL/MOL
REMARK 923 INTER-LIGAND FREE ENERGY PREDICTED BY IDOCK:   -8.75 KCAL/MOL
REMARK 924 INTRA-LIGAND FREE ENERGY PREDICTED BY IDOCK:   -1.63 KCAL/MOL
REMARK 927      BINDING AFFINITY PREDICTED BY RF-SCORE:    0.00 PKD
ROOT
HETATM    1  C   UNK A   0     -10.723   5.241  66.415  1.00  0.00    -0.290 C  
HETATM    2  C   UNK A   0     -10.884   6.647  66.962  1.00  0.00    -0.397 C  
ENDROOT
BRANCH   2   3
HETATM    3  O   UNK A   0      -9.601   7.221  67.259  1.00  0.00    -0.140 OA 
BRANCH   3   4
HETATM    4  C   UNK A   0      -9.075   8.046  66.307  1.00  0.00    -0.186 C  
HETATM    5  O   UNK A   0      -8.304   7.701  65.419  1.00  0.00    -0.135 OA 
BRANCH   4   6
HETATM    6  C   UNK A   0      -9.600   9.482  66.491  1.00  0.00    -0.201 C  
BRANCH   6   7
HETATM    7  C   UNK A   0     -10.145  10.012  65.153  1.00  0.00    -0.268 C  
BRANCH   7   8
HETATM    8  C   UNK A   0      -9.426  11.244  64.595  1.00  0.00    -0.215 C  
BRANCH   8   9
HETATM    9  C   UNK A   0     -10.396  12.407  64.573  1.00  0.00    -0.351 A  
HETATM   10  C   UNK A   0     -10.102  13.599  65.250  1.00  0.00    -0.297 A  
HETATM   11  C   UNK A   0     -10.953  14.702  65.145  1.00  0.00    -0.395 A  
HETATM   12  C   UNK A   0     -12.102  14.625  64.360  1.00  0.00    -0.481 A  
HETATM   13  C   UNK A   0     -11.556  12.341  63.787  1.00  0.00    -0.555 A  
HETATM   14  C   UNK A   0     -12.404  13.445  63.684  1.00  0.00    -0.422 A  
ENDBRANCH   8   9
ENDBRANCH   7   8
ENDBRANCH   6   7
BRANCH   6  15
ATOM     15  N   ALA A   1      -8.481  10.320  67.020  1.00  0.00    -0.129 NA 
ATOM     16  H   ALA A   1      -8.479  11.237  66.574  1.00  0.00     0.000 HD 
BRANCH  15  17
ATOM     17  CA  ALA A   1      -8.479  10.458  68.491  1.00  0.00    -0.129 C  
ATOM     18  CB  ALA A   1      -7.317  11.329  68.966  1.00  0.00    -0.115 C  
BRANCH  17  19
ATOM     19  C   ALA A   1      -9.847  10.971  69.043  1.00  0.00    -0.149 C  
HETATM   20  C   UNK A   2     -10.923   8.300  71.441  1.00  0.00    -0.249 C  
ATOM     21  O   ALA A   1     -10.402  11.992  68.633  1.00  0.00    -0.216 OA 
HETATM   22  C   UNK A   2     -11.958   9.402  71.679  1.00  0.00    -0.465 C  
HETATM   23  N   UNK A   2     -10.430  10.227  70.068  1.00  0.00    -0.373 N  
HETATM   24  S   UNK A   2      -9.897   8.011  72.938  1.00  0.00    -0.277 SA 
HETATM   25  C   UNK A   2     -10.318   6.270  73.197  1.00  0.00    -0.222 C  
HETATM   26  C   UNK A   2     -11.829  10.397  70.503  1.00  0.00    -0.337 C  
HETATM   27  C   UNK A   2     -10.032   8.838  70.314  1.00  0.00    -0.186 C  
HETATM   28  C   UNK A   2     -12.413  11.744  70.994  1.00  0.00    -0.309 C  
HETATM   29  C   UNK A   2     -10.607   5.631  71.855  1.00  0.00    -0.232 C  
HETATM   30  S   UNK A   2     -11.728   6.731  70.957  1.00  0.00    -0.370 SA 
HETATM   31  O   UNK A   2     -11.853  12.859  70.493  1.00  0.00    -0.253 OA 
HETATM   32  O   UNK A   2     -13.401  11.814  71.719  1.00  0.00    -0.407 OA 
ENDBRANCH  17  19
ENDBRANCH  15  17
ENDBRANCH   6  15
ENDBRANCH   4   6
ENDBRANCH   3   4
ENDBRANCH   2   3
TORSDOF 9
ENDMDL
MODEL       39
REMARK 921   NORMALIZED FREE ENERGY PREDICTED BY IDOCK:   -5.91 KCAL/MOL
REMARK 922        TOTAL FREE ENERGY PREDICTED BY IDOCK:  -10.37 KCAL/MOL
REMARK 923 INTER-LIGAND FREE ENERGY PREDICTED BY IDOCK:   -8.85 KCAL/MOL
REMARK 924 INTRA-LIGAND FREE ENERGY PREDICTED BY IDOCK:   -1.52 KCAL/MOL
REMARK 927      BINDING AFFINITY PREDICTED BY RF-SCORE:    0.00 PKD
ROOT
HETATM    1  C   UNK A   0     -12.303  16.517  73.799  1.00  0.00    -0.494 C  
HETATM    2  C   UNK A   0     -11.883  15.197  73.178  1.00  0.00    -0.327 C  
ENDROOT
BRANCH   2   3
HETATM    3  O   UNK A   0     -12.998  14.574  72.521  1.00  0.00    -0.361 OA 
BRANCH   3   4
HETATM    4  C   UNK A   0     -13.307  15.048  71.279  1.00  0.00    -0.438 C  
HETATM    5  O   UNK A   0     -14.322  15.672  70.992  1.00  0.00    -0.428 OA 
BRANCH   4   6
HETATM    6  C   UNK A   0     -12.189  14.703  70.279  1.00  0.00    -0.331 C  
BRANCH   6   7
HETATM    7  C   UNK A   0     -11.931  15.903  69.350  1.00  0.00    -0.268 C  
BRANCH   7   8
HETATM    8  C   UNK A   0     -10.562  16.571  69.508  1.00  0.00    -0.321 C  
BRANCH   8   9
HETATM    9  C   UNK A   0     -10.457  17.709  68.514  1.00  0.00    -0.337 A  
HETATM   10  C   UNK A   0     -10.113  19.000  68.937  1.00  0.00    -0.396 A  
HETATM   11  C   UNK A   0      -9.920  20.023  68.005  1.00  0.00    -0.550 A  
HETATM   12  C   UNK A   0     -10.067  19.764  66.643  1.00  0.00    -0.578 A  
HETATM   13  C   UNK A   0     -10.603  17.460  67.142  1.00  0.00    -0.264 A  
HETATM   14  C   UNK A   0     -10.410  18.484  66.213  1.00  0.00    -0.459 A  
ENDBRANCH   8   9
ENDBRANCH   7   8
ENDBRANCH   6   7
BRANCH   6  15
ATOM     15  N   ALA A   1     -12.603  13.480  69.524  1.00  0.00    -0.084 NA 
ATOM     16  H   ALA A   1     -12.683  13.684  68.528  1.00  0.00     0.000 HD 
BRANCH  15  17
ATOM     17  CA  ALA A   1     -11.725  12.313  69.746  1.00  0.00    -0.298 C  
ATOM     18  CB  ALA A   1     -12.406  11.263  70.623  1.00  0.00    -0.477 C  
BRANCH  17  19
ATOM     19  C   ALA A   1     -11.205  11.696  68.408  1.00  0.00    -0.249 C  
HETATM   20  C   UNK A   2      -7.927  13.414  67.824  1.00  0.00    -0.167 C  
ATOM     21  O   ALA A   1     -11.860  10.903  67.729  1.00  0.00    -0.579 OA 
HETATM   22  C   UNK A   2      -7.942  12.341  66.734  1.00  0.00     0.010 C  
HETATM   23  N   UNK A   2      -9.922  12.063  68.004  1.00  0.00    -0.191 N  
HETATM   24  S   UNK A   2      -6.567  13.126  69.028  1.00  0.00    -0.102 SA 
HETATM   25  C   UNK A   2      -5.682  14.686  68.784  1.00  0.00    -0.086 C  
HETATM   26  C   UNK A   2      -9.391  11.810  66.652  1.00  0.00    -0.198 C  
HETATM   27  C   UNK A   2      -9.275  13.264  68.541  1.00  0.00    -0.073 C  
HETATM   28  C   UNK A   2      -9.312  10.400  66.015  1.00  0.00    -0.178 C  
HETATM   29  C   UNK A   2      -6.679  15.760  68.404  1.00  0.00    -0.116 C  
HETATM   30  S   UNK A   2      -7.741  15.085  67.105  1.00  0.00    -0.094 SA 
HETATM   31  O   UNK A   2     -10.229   9.505  66.422  1.00  0.00    -0.264 OA 
HETATM   32  O   UNK A   2      -8.531  10.125  65.109  1.00  0.00    -0.146 OA 
ENDBRANCH  17  19
ENDBRANCH  15  17
ENDBRANCH   6  15
ENDBRANCH   4   6
ENDBRANCH   3   4
ENDBRANCH   2   3
TORSDOF 9
ENDMDL
MODEL       40
REMARK 921   NORMALIZED FREE ENERGY PREDICTED BY IDOCK:   -5.87 KCAL/MOL
REMARK 922        TOTAL FREE ENERGY PREDICTED BY IDOCK:  -10.30 KCAL/MOL
REMARK 923 INTER-LIGAND FREE ENERGY PREDICTED BY IDOCK:   -9.22 KCAL/MOL
REMARK 924 INTRA-LIGAND FREE ENERGY PREDICTED BY IDOCK:   -1.09 KCAL/MOL
REMARK 927      BINDING AFFINITY PREDICTED BY RF-SCORE:    0.00 PKD
ROOT
HETATM    1  C   UNK A   0     -11.389  15.478  70.840  1.00  0.00    -0.406 C  
HETATM    2  C   UNK A   0     -10.750  16.388  69.808  1.00  0.00    -0.324 C  
ENDROOT
BRANCH   2   3
HETATM    3  O   UNK A   0      -9.431  15.925  69.476  1.00  0.00    -0.260 OA 
BRANCH   3   4
HETATM    4  C   UNK A   0      -8.671  16.767  68.716  1.00  0.00    -0.258 C  
HETATM    5  O   UNK A   0      -8.541  17.970  68.908  1.00  0.00    -0.235 OA 
BRANCH   4   6
HETATM    6  C   UNK A   0      -7.979  15.989  67.582  1.00  0.00    -0.143 C  
BRANCH   6   7
HETATM    7  C   UNK A   0      -6.462  16.245  67.625  1.00  0.00    -0.183 C  
BRANCH   7   8
HETATM    8  C   UNK A   0      -5.909  17.095  66.478  1.00  0.00    -0.215 C  
BRANCH   8   9
HETATM    9  C   UNK A   0      -5.940  18.551  66.891  1.00  0.00    -0.171 A  
HETATM   10  C   UNK A   0      -6.607  19.505  66.109  1.00  0.00    -0.222 A  
HETATM   11  C   UNK A   0      -6.718  20.827  66.546  1.00  0.00    -0.322 A  
HETATM   12  C   UNK A   0      -6.165  21.208  67.768  1.00  0.00    -0.421 A  
HETATM   13  C   UNK A   0      -5.387  18.947  68.118  1.00  0.00    -0.179 A  
HETATM   14  C   UNK A   0      -5.499  20.269  68.551  1.00  0.00    -0.276 A  
ENDBRANCH   8   9
ENDBRANCH   7   8
ENDBRANCH   6   7
BRANCH   6  15
ATOM     15  N   ALA A   1      -8.590  16.417  66.287  1.00  0.00    -0.323 NA 
ATOM     16  H   ALA A   1      -8.240  15.845  65.519  1.00  0.00     0.000 HD 
BRANCH  15  17
ATOM     17  CA  ALA A   1     -10.068  16.426  66.294  1.00  0.00    -0.331 C  
ATOM     18  CB  ALA A   1     -10.617  17.841  66.115  1.00  0.00    -0.235 C  
BRANCH  17  19
ATOM     19  C   ALA A   1     -10.675  15.436  65.250  1.00  0.00    -0.421 C  
HETATM   20  C   UNK A   2     -10.772  12.153  67.054  1.00  0.00    -0.238 C  
ATOM     21  O   ALA A   1     -10.932  15.753  64.087  1.00  0.00    -0.230 OA 
HETATM   22  C   UNK A   2     -11.534  11.849  65.763  1.00  0.00    -0.326 C  
HETATM   23  N   UNK A   2     -10.950  14.144  65.696  1.00  0.00    -0.300 N  
HETATM   24  S   UNK A   2     -11.863  12.002  68.526  1.00  0.00    -0.242 SA 
HETATM   25  C   UNK A   2     -10.941  10.705  69.388  1.00  0.00    -0.255 C  
HETATM   26  C   UNK A   2     -11.250  13.018  64.791  1.00  0.00    -0.317 C  
HETATM   27  C   UNK A   2     -10.321  13.613  66.908  1.00  0.00    -0.262 C  
HETATM   28  C   UNK A   2     -12.408  13.033  63.763  1.00  0.00    -0.397 C  
HETATM   29  C   UNK A   2      -9.471  10.840  69.049  1.00  0.00    -0.166 C  
HETATM   30  S   UNK A   2      -9.340  11.034  67.256  1.00  0.00    -0.156 SA 
HETATM   31  O   UNK A   2     -12.768  14.235  63.282  1.00  0.00    -0.665 OA 
HETATM   32  O   UNK A   2     -12.913  12.006  63.319  1.00  0.00    -0.736 OA 
ENDBRANCH  17  19
ENDBRANCH  15  17
ENDBRANCH   6  15
ENDBRANCH   4   6
ENDBRANCH   3   4
ENDBRANCH   2   3
TORSDOF 9
ENDMDL
MODEL       41
REMARK 921   NORMALIZED FREE ENERGY PREDICTED BY IDOCK:   -5.86 KCAL/MOL
REMARK 922        TOTAL FREE ENERGY PREDICTED BY IDOCK:  -10.30 KCAL/MOL
REMARK 923 INTER-LIGAND FREE ENERGY PREDICTED BY IDOCK:   -8.81 KCAL/MOL
REMARK 924 INTRA-LIGAND FREE ENERGY PREDICTED BY IDOCK:   -1.48 KCAL/MOL
REMARK 927      BINDING AFFINITY PREDICTED BY RF-SCORE:    0.00 PKD
ROOT
HETATM    1  C   UNK A   0     -14.098   7.673  71.543  1.00  0.00    -0.535 C  
HETATM    2  C   UNK A   0     -12.888   8.501  71.932  1.00  0.00    -0.363 C  
ENDROOT
BRANCH   2   3
HETATM    3  O   UNK A   0     -11.966   8.591  70.834  1.00  0.00    -0.271 OA 
BRANCH   3   4
HETATM    4  C   UNK A   0     -11.476   9.835  70.560  1.00  0.00    -0.300 C  
HETATM    5  O   UNK A   0     -12.075  10.888  70.742  1.00  0.00    -0.322 OA 
BRANCH   4   6
HETATM    6  C   UNK A   0     -10.045   9.737  69.999  1.00  0.00    -0.257 C  
BRANCH   6   7
HETATM    7  C   UNK A   0      -9.107   9.145  71.065  1.00  0.00    -0.305 C  
BRANCH   7   8
HETATM    8  C   UNK A   0      -8.060   8.158  70.541  1.00  0.00    -0.104 C  
BRANCH   8   9
HETATM    9  C   UNK A   0      -8.732   6.825  70.284  1.00  0.00    -0.144 A  
HETATM   10  C   UNK A   0      -8.601   6.183  69.044  1.00  0.00    -0.121 A  
HETATM   11  C   UNK A   0      -9.140   4.909  68.845  1.00  0.00    -0.149 A  
HETATM   12  C   UNK A   0      -9.812   4.266  69.883  1.00  0.00    -0.267 A  
HETATM   13  C   UNK A   0      -9.411   6.168  71.320  1.00  0.00    -0.177 A  
HETATM   14  C   UNK A   0      -9.949   4.895  71.118  1.00  0.00    -0.278 A  
ENDBRANCH   8   9
ENDBRANCH   7   8
ENDBRANCH   6   7
BRANCH   6  15
ATOM     15  N   ALA A   1      -9.622  11.104  69.566  1.00  0.00    -0.364 NA 
ATOM     16  H   ALA A   1      -8.792  11.401  70.079  1.00  0.00     0.000 HD 
BRANCH  15  17
ATOM     17  CA  ALA A   1      -9.407  11.232  68.110  1.00  0.00    -0.181 C  
ATOM     18  CB  ALA A   1      -8.998   9.897  67.489  1.00  0.00    -0.141 C  
BRANCH  17  19
ATOM     19  C   ALA A   1     -10.638  11.854  67.378  1.00  0.00    -0.225 C  
HETATM   20  C   UNK A   2      -9.872  15.520  67.259  1.00  0.00    -0.224 C  
ATOM     21  O   ALA A   1     -11.631  11.202  67.049  1.00  0.00    -0.463 OA 
HETATM   22  C   UNK A   2     -11.124  15.411  66.386  1.00  0.00    -0.230 C  
HETATM   23  N   UNK A   2     -10.567  13.214  67.075  1.00  0.00    -0.257 N  
HETATM   24  S   UNK A   2      -8.419  16.074  66.276  1.00  0.00    -0.212 SA 
HETATM   25  C   UNK A   2      -8.058  17.589  67.197  1.00  0.00    -0.210 C  
HETATM   26  C   UNK A   2     -11.732  14.015  66.652  1.00  0.00    -0.399 C  
HETATM   27  C   UNK A   2      -9.623  14.094  67.768  1.00  0.00    -0.219 C  
HETATM   28  C   UNK A   2     -12.606  13.669  65.422  1.00  0.00    -0.491 C  
HETATM   29  C   UNK A   2      -8.468  17.395  68.642  1.00  0.00    -0.257 C  
HETATM   30  S   UNK A   2     -10.131  16.683  68.646  1.00  0.00    -0.288 SA 
HETATM   31  O   UNK A   2     -12.682  12.369  65.086  1.00  0.00    -0.630 OA 
HETATM   32  O   UNK A   2     -13.286  14.506  64.835  1.00  0.00    -0.430 OA 
ENDBRANCH  17  19
ENDBRANCH  15  17
ENDBRANCH   6  15
ENDBRANCH   4   6
ENDBRANCH   3   4
ENDBRANCH   2   3
TORSDOF 9
ENDMDL
MODEL       42
REMARK 921   NORMALIZED FREE ENERGY PREDICTED BY IDOCK:   -5.86 KCAL/MOL
REMARK 922        TOTAL FREE ENERGY PREDICTED BY IDOCK:  -10.29 KCAL/MOL
REMARK 923 INTER-LIGAND FREE ENERGY PREDICTED BY IDOCK:   -8.93 KCAL/MOL
REMARK 924 INTRA-LIGAND FREE ENERGY PREDICTED BY IDOCK:   -1.36 KCAL/MOL
REMARK 927      BINDING AFFINITY PREDICTED BY RF-SCORE:    0.00 PKD
ROOT
HETATM    1  C   UNK A   0     -14.314   8.011  71.567  1.00  0.00    -0.546 C  
HETATM    2  C   UNK A   0     -13.671   9.289  72.072  1.00  0.00    -0.428 C  
ENDROOT
BRANCH   2   3
HETATM    3  O   UNK A   0     -12.628   9.714  71.179  1.00  0.00    -0.312 OA 
BRANCH   3   4
HETATM    4  C   UNK A   0     -12.515  11.059  70.983  1.00  0.00    -0.409 C  
HETATM    5  O   UNK A   0     -13.072  11.922  71.652  1.00  0.00    -0.436 OA 
BRANCH   4   6
HETATM    6  C   UNK A   0     -11.573  11.353  69.801  1.00  0.00    -0.332 C  
BRANCH   6   7
HETATM    7  C   UNK A   0     -11.700  12.830  69.387  1.00  0.00    -0.380 C  
BRANCH   7   8
HETATM    8  C   UNK A   0     -10.505  13.399  68.617  1.00  0.00    -0.237 C  
BRANCH   8   9
HETATM    9  C   UNK A   0     -10.916  13.628  67.178  1.00  0.00    -0.299 A  
HETATM   10  C   UNK A   0      -9.952  13.728  66.164  1.00  0.00    -0.318 A  
HETATM   11  C   UNK A   0     -10.340  13.840  64.826  1.00  0.00    -0.422 A  
HETATM   12  C   UNK A   0     -11.693  13.849  64.490  1.00  0.00    -0.430 A  
HETATM   13  C   UNK A   0     -12.274  13.640  66.827  1.00  0.00    -0.416 A  
HETATM   14  C   UNK A   0     -12.658  13.751  65.489  1.00  0.00    -0.551 A  
ENDBRANCH   8   9
ENDBRANCH   7   8
ENDBRANCH   6   7
BRANCH   6  15
ATOM     15  N   ALA A   1     -11.921  10.418  68.687  1.00  0.00    -0.745 NA 
ATOM     16  H   ALA A   1     -12.334  10.929  67.908  1.00  0.00     0.000 HD 
BRANCH  15  17
ATOM     17  CA  ALA A   1     -10.789   9.591  68.223  1.00  0.00    -0.145 C  
ATOM     18  CB  ALA A   1     -10.506   9.817  66.739  1.00  0.00    -0.259 C  
BRANCH  17  19
ATOM     19  C   ALA A   1      -9.506   9.795  69.091  1.00  0.00    -0.188 C  
HETATM   20  C   UNK A   2      -9.645   7.011  71.594  1.00  0.00    -0.156 C  
ATOM     21  O   ALA A   1      -8.743  10.754  68.956  1.00  0.00    -0.161 OA 
HETATM   22  C   UNK A   2      -8.262   7.615  71.842  1.00  0.00    -0.121 C  
HETATM   23  N   UNK A   2      -9.226   8.812  70.039  1.00  0.00    -0.162 N  
HETATM   24  S   UNK A   2      -9.520   5.282  70.981  1.00  0.00    -0.168 SA 
HETATM   25  C   UNK A   2     -10.434   4.475  72.319  1.00  0.00    -0.145 C  
HETATM   26  C   UNK A   2      -8.237   8.982  71.120  1.00  0.00    -0.149 C  
HETATM   27  C   UNK A   2     -10.267   7.891  70.502  1.00  0.00    -0.198 C  
HETATM   28  C   UNK A   2      -6.748   9.325  70.869  1.00  0.00    -0.094 C  
HETATM   29  C   UNK A   2     -11.474   5.438  72.853  1.00  0.00    -0.275 C  
HETATM   30  S   UNK A   2     -10.658   7.030  73.118  1.00  0.00    -0.346 SA 
HETATM   31  O   UNK A   2      -6.473  10.028  69.757  1.00  0.00    -0.049 OA 
HETATM   32  O   UNK A   2      -5.863   9.071  71.681  1.00  0.00    -0.054 OA 
ENDBRANCH  17  19
ENDBRANCH  15  17
ENDBRANCH   6  15
ENDBRANCH   4   6
ENDBRANCH   3   4
ENDBRANCH   2   3
TORSDOF 9
ENDMDL
MODEL       43
REMARK 921   NORMALIZED FREE ENERGY PREDICTED BY IDOCK:   -5.86 KCAL/MOL
REMARK 922        TOTAL FREE ENERGY PREDICTED BY IDOCK:  -10.29 KCAL/MOL
REMARK 923 INTER-LIGAND FREE ENERGY PREDICTED BY IDOCK:   -8.84 KCAL/MOL
REMARK 924 INTRA-LIGAND FREE ENERGY PREDICTED BY IDOCK:   -1.44 KCAL/MOL
REMARK 927      BINDING AFFINITY PREDICTED BY RF-SCORE:    0.00 PKD
ROOT
HETATM    1  C   UNK A   0      -7.223  20.783  67.249  1.00  0.00    -0.415 C  
HETATM    2  C   UNK A   0      -8.702  20.462  67.132  1.00  0.00    -0.316 C  
ENDROOT
BRANCH   2   3
HETATM    3  O   UNK A   0      -8.897  19.052  66.939  1.00  0.00    -0.283 OA 
BRANCH   3   4
HETATM    4  C   UNK A   0     -10.081  18.542  67.385  1.00  0.00    -0.352 C  
HETATM    5  O   UNK A   0     -11.103  19.190  67.579  1.00  0.00    -0.405 OA 
BRANCH   4   6
HETATM    6  C   UNK A   0      -9.963  17.022  67.602  1.00  0.00    -0.280 C  
BRANCH   6   7
HETATM    7  C   UNK A   0     -11.068  16.546  68.562  1.00  0.00    -0.335 C  
BRANCH   7   8
HETATM    8  C   UNK A   0     -10.740  16.676  70.052  1.00  0.00    -0.157 C  
BRANCH   8   9
HETATM    9  C   UNK A   0     -11.721  15.835  70.843  1.00  0.00    -0.441 A  
HETATM   10  C   UNK A   0     -12.329  14.711  70.266  1.00  0.00    -0.406 A  
HETATM   11  C   UNK A   0     -13.154  13.882  71.030  1.00  0.00    -0.313 A  
HETATM   12  C   UNK A   0     -13.378  14.167  72.376  1.00  0.00    -0.591 A  
HETATM   13  C   UNK A   0     -11.954  16.112  72.197  1.00  0.00    -0.623 A  
HETATM   14  C   UNK A   0     -12.780  15.283  72.958  1.00  0.00    -0.549 A  
ENDBRANCH   8   9
ENDBRANCH   7   8
ENDBRANCH   6   7
BRANCH   6  15
ATOM     15  N   ALA A   1      -8.593  16.733  68.125  1.00  0.00    -0.211 NA 
ATOM     16  H   ALA A   1      -8.624  16.545  69.126  1.00  0.00     0.000 HD 
BRANCH  15  17
ATOM     17  CA  ALA A   1      -7.898  15.640  67.413  1.00  0.00    -0.182 C  
ATOM     18  CB  ALA A   1      -6.415  15.955  67.224  1.00  0.00    -0.174 C  
BRANCH  17  19
ATOM     19  C   ALA A   1      -8.110  14.253  68.099  1.00  0.00    -0.144 C  
HETATM   20  C   UNK A   2     -10.439  12.440  65.791  1.00  0.00    -0.259 C  
ATOM     21  O   ALA A   1      -7.646  13.966  69.204  1.00  0.00    -0.062 OA 
HETATM   22  C   UNK A   2     -10.047  11.353  66.793  1.00  0.00    -0.250 C  
HETATM   23  N   UNK A   2      -8.845  13.306  67.387  1.00  0.00    -0.194 N  
HETATM   24  S   UNK A   2      -9.846  12.035  64.098  1.00  0.00    -0.133 SA 
HETATM   25  C   UNK A   2     -11.456  11.999  63.271  1.00  0.00    -0.310 C  
HETATM   26  C   UNK A   2      -9.378  12.069  67.989  1.00  0.00    -0.196 C  
HETATM   27  C   UNK A   2      -9.726  13.705  66.287  1.00  0.00    -0.283 C  
HETATM   28  C   UNK A   2      -8.493  11.016  68.700  1.00  0.00    -0.157 C  
HETATM   29  C   UNK A   2     -12.386  12.970  63.967  1.00  0.00    -0.363 C  
HETATM   30  S   UNK A   2     -12.252  12.675  65.746  1.00  0.00    -0.238 SA 
HETATM   31  O   UNK A   2      -7.369  11.469  69.280  1.00  0.00    -0.095 OA 
HETATM   32  O   UNK A   2      -8.834   9.843  68.830  1.00  0.00    -0.126 OA 
ENDBRANCH  17  19
ENDBRANCH  15  17
ENDBRANCH   6  15
ENDBRANCH   4   6
ENDBRANCH   3   4
ENDBRANCH   2   3
TORSDOF 9
ENDMDL
MODEL       44
REMARK 921   NORMALIZED FREE ENERGY PREDICTED BY IDOCK:   -5.81 KCAL/MOL
REMARK 922        TOTAL FREE ENERGY PREDICTED BY IDOCK:  -10.21 KCAL/MOL
REMARK 923 INTER-LIGAND FREE ENERGY PREDICTED BY IDOCK:   -8.77 KCAL/MOL
REMARK 924 INTRA-LIGAND FREE ENERGY PREDICTED BY IDOCK:   -1.44 KCAL/MOL
REMARK 927      BINDING AFFINITY PREDICTED BY RF-SCORE:    0.00 PKD
ROOT
HETATM    1  C   UNK A   0     -12.111  14.787  64.206  1.00  0.00    -0.415 C  
HETATM    2  C   UNK A   0     -10.896  14.325  64.987  1.00  0.00    -0.403 C  
ENDROOT
BRANCH   2   3
HETATM    3  O   UNK A   0     -10.109  13.414  64.202  1.00  0.00    -0.338 OA 
BRANCH   3   4
HETATM    4  C   UNK A   0     -10.526  12.115  64.191  1.00  0.00    -0.362 C  
HETATM    5  O   UNK A   0     -11.260  11.614  63.347  1.00  0.00    -0.396 OA 
BRANCH   4   6
HETATM    6  C   UNK A   0      -9.933  11.350  65.388  1.00  0.00    -0.245 C  
BRANCH   6   7
HETATM    7  C   UNK A   0      -9.603   9.905  64.971  1.00  0.00    -0.364 C  
BRANCH   7   8
HETATM    8  C   UNK A   0      -8.522   9.214  65.807  1.00  0.00    -0.152 C  
BRANCH   8   9
HETATM    9  C   UNK A   0      -9.088   7.927  66.370  1.00  0.00    -0.221 A  
HETATM   10  C   UNK A   0     -10.332   7.914  67.017  1.00  0.00    -0.411 A  
HETATM   11  C   UNK A   0     -10.895   6.709  67.446  1.00  0.00    -0.434 A  
HETATM   12  C   UNK A   0     -10.222   5.508  67.228  1.00  0.00    -0.255 A  
HETATM   13  C   UNK A   0      -8.421   6.712  66.158  1.00  0.00    -0.135 A  
HETATM   14  C   UNK A   0      -8.986   5.510  66.587  1.00  0.00    -0.118 A  
ENDBRANCH   8   9
ENDBRANCH   7   8
ENDBRANCH   6   7
BRANCH   6  15
ATOM     15  N   ALA A   1     -10.920  11.405  66.509  1.00  0.00    -0.286 NA 
ATOM     16  H   ALA A   1     -11.526  10.585  66.494  1.00  0.00     0.000 HD 
BRANCH  15  17
ATOM     17  CA  ALA A   1     -10.305  11.570  67.842  1.00  0.00    -0.183 C  
ATOM     18  CB  ALA A   1      -9.026  12.402  67.766  1.00  0.00    -0.182 C  
BRANCH  17  19
ATOM     19  C   ALA A   1     -11.305  12.149  68.893  1.00  0.00    -0.283 C  
HETATM   20  C   UNK A   2     -11.870   9.311  71.274  1.00  0.00    -0.343 C  
ATOM     21  O   ALA A   1     -11.810  13.269  68.802  1.00  0.00    -0.308 OA 
HETATM   22  C   UNK A   2     -12.584  10.475  71.965  1.00  0.00    -0.213 C  
HETATM   23  N   UNK A   2     -11.602  11.340  69.990  1.00  0.00    -0.361 N  
HETATM   24  S   UNK A   2     -10.445   8.714  72.270  1.00  0.00    -0.238 SA 
HETATM   25  C   UNK A   2     -11.003   7.009  72.509  1.00  0.00    -0.264 C  
HETATM   26  C   UNK A   2     -12.723  11.599  70.913  1.00  0.00    -0.258 C  
HETATM   27  C   UNK A   2     -11.354   9.896  69.953  1.00  0.00    -0.222 C  
HETATM   28  C   UNK A   2     -12.894  12.923  71.698  1.00  0.00    -0.268 C  
HETATM   29  C   UNK A   2     -11.830   6.591  71.312  1.00  0.00    -0.329 C  
HETATM   30  S   UNK A   2     -13.015   7.916  70.978  1.00  0.00     0.104 SA 
HETATM   31  O   UNK A   2     -12.384  14.029  71.128  1.00  0.00    -0.338 OA 
HETATM   32  O   UNK A   2     -13.549  13.000  72.733  1.00  0.00    -0.547 OA 
ENDBRANCH  17  19
ENDBRANCH  15  17
ENDBRANCH   6  15
ENDBRANCH   4   6
ENDBRANCH   3   4
ENDBRANCH   2   3
TORSDOF 9
ENDMDL
MODEL       45
REMARK 921   NORMALIZED FREE ENERGY PREDICTED BY IDOCK:   -5.79 KCAL/MOL
REMARK 922        TOTAL FREE ENERGY PREDICTED BY IDOCK:  -10.19 KCAL/MOL
REMARK 923 INTER-LIGAND FREE ENERGY PREDICTED BY IDOCK:  -10.38 KCAL/MOL
REMARK 924 INTRA-LIGAND FREE ENERGY PREDICTED BY IDOCK:    0.19 KCAL/MOL
REMARK 927      BINDING AFFINITY PREDICTED BY RF-SCORE:    0.00 PKD
ROOT
HETATM    1  C   UNK A   0     -11.888  11.884  63.927  1.00  0.00    -0.509 C  
HETATM    2  C   UNK A   0     -12.353  12.989  64.857  1.00  0.00    -0.459 C  
ENDROOT
BRANCH   2   3
HETATM    3  O   UNK A   0     -11.985  12.694  66.214  1.00  0.00    -0.448 OA 
BRANCH   3   4
HETATM    4  C   UNK A   0     -10.991  13.461  66.748  1.00  0.00    -0.288 C  
HETATM    5  O   UNK A   0     -10.073  13.971  66.117  1.00  0.00    -0.290 OA 
BRANCH   4   6
HETATM    6  C   UNK A   0     -11.189  13.615  68.267  1.00  0.00    -0.273 C  
BRANCH   6   7
HETATM    7  C   UNK A   0     -11.733  12.301  68.857  1.00  0.00    -0.380 C  
BRANCH   7   8
HETATM    8  C   UNK A   0     -12.141  12.365  70.332  1.00  0.00    -0.381 C  
BRANCH   8   9
HETATM    9  C   UNK A   0     -12.170  10.959  70.892  1.00  0.00    -0.485 A  
HETATM   10  C   UNK A   0     -11.136  10.054  70.612  1.00  0.00    -0.408 A  
HETATM   11  C   UNK A   0     -11.117   8.792  71.211  1.00  0.00    -0.348 A  
HETATM   12  C   UNK A   0     -12.130   8.424  72.096  1.00  0.00    -0.435 A  
HETATM   13  C   UNK A   0     -13.183  10.577  71.783  1.00  0.00    -0.522 A  
HETATM   14  C   UNK A   0     -13.162   9.315  72.380  1.00  0.00    -0.501 A  
ENDBRANCH   8   9
ENDBRANCH   7   8
ENDBRANCH   6   7
BRANCH   6  15
ATOM     15  N   ALA A   1     -12.113  14.767  68.500  1.00  0.00    -0.578 NA 
ATOM     16  H   ALA A   1     -12.963  14.455  68.969  1.00  0.00     0.000 HD 
BRANCH  15  17
ATOM     17  CA  ALA A   1     -11.497  15.890  69.236  1.00  0.00    -0.374 C  
ATOM     18  CB  ALA A   1     -10.795  15.406  70.504  1.00  0.00    -0.327 C  
BRANCH  17  19
ATOM     19  C   ALA A   1     -10.542  16.739  68.337  1.00  0.00    -0.354 C  
HETATM   20  C   UNK A   2      -7.213  15.060  68.705  1.00  0.00    -0.125 C  
ATOM     21  O   ALA A   1     -10.893  17.771  67.762  1.00  0.00    -0.371 OA 
HETATM   22  C   UNK A   2      -6.951  16.084  67.599  1.00  0.00    -0.179 C  
HETATM   23  N   UNK A   2      -9.241  16.263  68.179  1.00  0.00    -0.196 N  
HETATM   24  S   UNK A   2      -7.032  13.340  68.080  1.00  0.00    -0.134 SA 
HETATM   25  C   UNK A   2      -5.703  12.810  69.188  1.00  0.00    -0.076 C  
HETATM   26  C   UNK A   2      -8.143  17.069  67.613  1.00  0.00    -0.180 C  
HETATM   27  C   UNK A   2      -8.671  15.296  69.120  1.00  0.00    -0.238 C  
HETATM   28  C   UNK A   2      -8.198  17.720  66.209  1.00  0.00    -0.217 C  
HETATM   29  C   UNK A   2      -5.833  13.553  70.501  1.00  0.00    -0.164 C  
HETATM   30  S   UNK A   2      -6.074  15.304  70.115  1.00  0.00    -0.114 SA 
HETATM   31  O   UNK A   2      -9.417  18.049  65.747  1.00  0.00    -0.495 OA 
HETATM   32  O   UNK A   2      -7.189  18.024  65.579  1.00  0.00    -0.532 OA 
ENDBRANCH  17  19
ENDBRANCH  15  17
ENDBRANCH   6  15
ENDBRANCH   4   6
ENDBRANCH   3   4
ENDBRANCH   2   3
TORSDOF 9
ENDMDL
MODEL       46
REMARK 921   NORMALIZED FREE ENERGY PREDICTED BY IDOCK:   -5.78 KCAL/MOL
REMARK 922        TOTAL FREE ENERGY PREDICTED BY IDOCK:  -10.17 KCAL/MOL
REMARK 923 INTER-LIGAND FREE ENERGY PREDICTED BY IDOCK:   -8.73 KCAL/MOL
REMARK 924 INTRA-LIGAND FREE ENERGY PREDICTED BY IDOCK:   -1.44 KCAL/MOL
REMARK 927      BINDING AFFINITY PREDICTED BY RF-SCORE:    0.00 PKD
ROOT
HETATM    1  C   UNK A   0     -14.391   7.891  71.795  1.00  0.00    -0.589 C  
HETATM    2  C   UNK A   0     -13.870   9.231  72.277  1.00  0.00    -0.426 C  
ENDROOT
BRANCH   2   3
HETATM    3  O   UNK A   0     -12.581   9.506  71.706  1.00  0.00    -0.352 OA 
BRANCH   3   4
HETATM    4  C   UNK A   0     -12.419  10.742  71.151  1.00  0.00    -0.414 C  
HETATM    5  O   UNK A   0     -12.963  11.769  71.540  1.00  0.00    -0.419 OA 
BRANCH   4   6
HETATM    6  C   UNK A   0     -11.438  10.675  69.966  1.00  0.00    -0.325 C  
BRANCH   6   7
HETATM    7  C   UNK A   0     -11.834  11.716  68.903  1.00  0.00    -0.392 C  
BRANCH   7   8
HETATM    8  C   UNK A   0     -10.676  12.276  68.072  1.00  0.00    -0.245 C  
BRANCH   8   9
HETATM    9  C   UNK A   0     -10.930  11.967  66.612  1.00  0.00    -0.336 A  
HETATM   10  C   UNK A   0     -11.915  12.658  65.893  1.00  0.00    -0.497 A  
HETATM   11  C   UNK A   0     -12.077  12.439  64.522  1.00  0.00    -0.492 A  
HETATM   12  C   UNK A   0     -11.254  11.531  63.858  1.00  0.00    -0.439 A  
HETATM   13  C   UNK A   0     -10.109  11.055  65.933  1.00  0.00    -0.301 A  
HETATM   14  C   UNK A   0     -10.273  10.838  64.563  1.00  0.00    -0.428 A  
ENDBRANCH   8   9
ENDBRANCH   7   8
ENDBRANCH   6   7
BRANCH   6  15
ATOM     15  N   ALA A   1     -11.454   9.281  69.429  1.00  0.00    -0.417 NA 
ATOM     16  H   ALA A   1     -11.816   9.269  68.475  1.00  0.00     0.000 HD 
BRANCH  15  17
ATOM     17  CA  ALA A   1     -10.147   8.597  69.496  1.00  0.00    -0.203 C  
ATOM     18  CB  ALA A   1      -9.125   9.425  70.272  1.00  0.00    -0.283 C  
BRANCH  17  19
ATOM     19  C   ALA A   1     -10.262   7.146  70.064  1.00  0.00    -0.196 C  
HETATM   20  C   UNK A   2      -8.893   4.983  67.327  1.00  0.00    -0.102 C  
ATOM     21  O   ALA A   1     -10.796   6.882  71.143  1.00  0.00    -0.233 OA 
HETATM   22  C   UNK A   2      -9.076   3.992  68.478  1.00  0.00    -0.189 C  
HETATM   23  N   UNK A   2      -9.700   6.125  69.298  1.00  0.00    -0.135 N  
HETATM   24  S   UNK A   2      -7.119   5.167  66.879  1.00  0.00    -0.074 SA 
HETATM   25  C   UNK A   2      -7.239   4.624  65.157  1.00  0.00    -0.067 C  
HETATM   26  C   UNK A   2      -9.962   4.693  69.533  1.00  0.00    -0.196 C  
HETATM   27  C   UNK A   2      -9.416   6.318  67.873  1.00  0.00    -0.115 C  
HETATM   28  C   UNK A   2      -9.690   3.985  70.883  1.00  0.00    -0.187 C  
HETATM   29  C   UNK A   2      -8.609   4.987  64.622  1.00  0.00    -0.150 C  
HETATM   30  S   UNK A   2      -9.830   4.459  65.847  1.00  0.00    -0.240 SA 
HETATM   31  O   UNK A   2      -9.771   4.747  71.988  1.00  0.00    -0.150 OA 
HETATM   32  O   UNK A   2      -9.513   2.774  70.973  1.00  0.00    -0.137 OA 
ENDBRANCH  17  19
ENDBRANCH  15  17
ENDBRANCH   6  15
ENDBRANCH   4   6
ENDBRANCH   3   4
ENDBRANCH   2   3
TORSDOF 9
ENDMDL
MODEL       47
REMARK 921   NORMALIZED FREE ENERGY PREDICTED BY IDOCK:   -5.77 KCAL/MOL
REMARK 922        TOTAL FREE ENERGY PREDICTED BY IDOCK:  -10.16 KCAL/MOL
REMARK 923 INTER-LIGAND FREE ENERGY PREDICTED BY IDOCK:   -9.16 KCAL/MOL
REMARK 924 INTRA-LIGAND FREE ENERGY PREDICTED BY IDOCK:   -0.99 KCAL/MOL
REMARK 927      BINDING AFFINITY PREDICTED BY RF-SCORE:    0.00 PKD
ROOT
HETATM    1  C   UNK A   0     -12.182  12.669  63.339  1.00  0.00    -0.610 C  
HETATM    2  C   UNK A   0     -12.411  12.609  64.838  1.00  0.00    -0.494 C  
ENDROOT
BRANCH   2   3
HETATM    3  O   UNK A   0     -11.849  13.764  65.480  1.00  0.00    -0.335 OA 
BRANCH   3   4
HETATM    4  C   UNK A   0     -10.890  13.523  66.421  1.00  0.00    -0.290 C  
HETATM    5  O   UNK A   0     -10.005  14.305  66.747  1.00  0.00    -0.252 OA 
BRANCH   4   6
HETATM    6  C   UNK A   0     -11.080  12.123  67.035  1.00  0.00    -0.294 C  
BRANCH   6   7
HETATM    7  C   UNK A   0     -11.728  12.248  68.425  1.00  0.00    -0.390 C  
BRANCH   7   8
HETATM    8  C   UNK A   0     -11.107  13.304  69.344  1.00  0.00    -0.148 C  
BRANCH   8   9
HETATM    9  C   UNK A   0     -12.111  13.667  70.418  1.00  0.00    -0.421 A  
HETATM   10  C   UNK A   0     -12.692  14.942  70.455  1.00  0.00    -0.370 A  
HETATM   11  C   UNK A   0     -13.691  15.240  71.386  1.00  0.00    -0.602 A  
HETATM   12  C   UNK A   0     -14.118  14.265  72.286  1.00  0.00    -0.621 A  
HETATM   13  C   UNK A   0     -12.549  12.696  71.330  1.00  0.00    -0.339 A  
HETATM   14  C   UNK A   0     -13.546  12.996  72.259  1.00  0.00    -0.643 A  
ENDBRANCH   8   9
ENDBRANCH   7   8
ENDBRANCH   6   7
BRANCH   6  15
ATOM     15  N   ALA A   1      -9.744  11.456  67.089  1.00  0.00    -0.181 NA 
ATOM     16  H   ALA A   1      -9.341  11.536  68.022  1.00  0.00     0.000 HD 
BRANCH  15  17
ATOM     17  CA  ALA A   1      -9.760  10.045  66.651  1.00  0.00    -0.194 C  
ATOM     18  CB  ALA A   1      -9.765   9.935  65.127  1.00  0.00    -0.376 C  
BRANCH  17  19
ATOM     19  C   ALA A   1      -8.600   9.211  67.284  1.00  0.00    -0.118 C  
HETATM   20  C   UNK A   2     -10.127   7.719  70.364  1.00  0.00    -0.194 C  
ATOM     21  O   ALA A   1      -7.452   9.202  66.838  1.00  0.00    -0.089 OA 
HETATM   22  C   UNK A   2      -8.766   7.023  70.293  1.00  0.00    -0.144 C  
HETATM   23  N   UNK A   2      -8.922   8.430  68.393  1.00  0.00    -0.136 N  
HETATM   24  S   UNK A   2     -11.504   6.518  70.158  1.00  0.00    -0.389 SA 
HETATM   25  C   UNK A   2     -12.321   6.800  71.748  1.00  0.00    -0.356 C  
HETATM   26  C   UNK A   2      -7.913   7.815  69.276  1.00  0.00    -0.125 C  
HETATM   27  C   UNK A   2     -10.128   8.696  69.181  1.00  0.00    -0.199 C  
HETATM   28  C   UNK A   2      -6.812   6.849  68.772  1.00  0.00    -0.066 C  
HETATM   29  C   UNK A   2     -12.096   8.237  72.167  1.00  0.00    -0.367 C  
HETATM   30  S   UNK A   2     -10.337   8.599  71.953  1.00  0.00    -0.348 SA 
HETATM   31  O   UNK A   2      -6.404   7.015  67.501  1.00  0.00    -0.042 OA 
HETATM   32  O   UNK A   2      -6.253   6.039  69.506  1.00  0.00    -0.027 OA 
ENDBRANCH  17  19
ENDBRANCH  15  17
ENDBRANCH   6  15
ENDBRANCH   4   6
ENDBRANCH   3   4
ENDBRANCH   2   3
TORSDOF 9
ENDMDL
MODEL       48
REMARK 921   NORMALIZED FREE ENERGY PREDICTED BY IDOCK:   -5.75 KCAL/MOL
REMARK 922        TOTAL FREE ENERGY PREDICTED BY IDOCK:  -10.12 KCAL/MOL
REMARK 923 INTER-LIGAND FREE ENERGY PREDICTED BY IDOCK:   -8.78 KCAL/MOL
REMARK 924 INTRA-LIGAND FREE ENERGY PREDICTED BY IDOCK:   -1.34 KCAL/MOL
REMARK 927      BINDING AFFINITY PREDICTED BY RF-SCORE:    0.00 PKD
ROOT
HETATM    1  C   UNK A   0     -12.257  14.125  64.488  1.00  0.00    -0.468 C  
HETATM    2  C   UNK A   0     -12.108  12.617  64.550  1.00  0.00    -0.417 C  
ENDROOT
BRANCH   2   3
HETATM    3  O   UNK A   0     -12.272  12.150  65.898  1.00  0.00    -0.604 OA 
BRANCH   3   4
HETATM    4  C   UNK A   0     -11.188  12.281  66.717  1.00  0.00    -0.318 C  
HETATM    5  O   UNK A   0     -10.019  12.270  66.350  1.00  0.00    -0.219 OA 
BRANCH   4   6
HETATM    6  C   UNK A   0     -11.637  12.462  68.178  1.00  0.00    -0.341 C  
BRANCH   6   7
HETATM    7  C   UNK A   0     -11.876  13.955  68.469  1.00  0.00    -0.401 C  
BRANCH   7   8
HETATM    8  C   UNK A   0     -10.685  14.702  69.075  1.00  0.00    -0.253 C  
BRANCH   8   9
HETATM    9  C   UNK A   0     -10.321  15.858  68.166  1.00  0.00    -0.256 A  
HETATM   10  C   UNK A   0      -9.564  15.647  67.005  1.00  0.00    -0.233 A  
HETATM   11  C   UNK A   0      -9.316  16.699  66.119  1.00  0.00    -0.318 A  
HETATM   12  C   UNK A   0      -9.824  17.969  66.385  1.00  0.00    -0.340 A  
HETATM   13  C   UNK A   0     -10.826  17.141  68.423  1.00  0.00    -0.309 A  
HETATM   14  C   UNK A   0     -10.577  18.190  67.536  1.00  0.00    -0.419 A  
ENDBRANCH   8   9
ENDBRANCH   7   8
ENDBRANCH   6   7
BRANCH   6  15
ATOM     15  N   ALA A   1     -10.586  11.873  69.063  1.00  0.00    -0.373 NA 
ATOM     16  H   ALA A   1     -10.207  12.582  69.690  1.00  0.00     0.000 HD 
BRANCH  15  17
ATOM     17  CA  ALA A   1     -11.038  10.692  69.827  1.00  0.00    -0.295 C  
ATOM     18  CB  ALA A   1     -12.513  10.808  70.208  1.00  0.00    -0.395 C  
BRANCH  17  19
ATOM     19  C   ALA A   1     -10.738   9.351  69.084  1.00  0.00    -0.197 C  
HETATM   20  C   UNK A   2      -9.810   6.976  71.831  1.00  0.00    -0.163 C  
ATOM     21  O   ALA A   1     -10.739   9.242  67.857  1.00  0.00    -0.242 OA 
HETATM   22  C   UNK A   2      -9.889   6.060  70.608  1.00  0.00    -0.222 C  
HETATM   23  N   UNK A   2     -10.485   8.235  69.882  1.00  0.00    -0.219 N  
HETATM   24  S   UNK A   2     -11.092   6.542  73.075  1.00  0.00    -0.146 SA 
HETATM   25  C   UNK A   2      -9.983   6.158  74.453  1.00  0.00    -0.311 C  
HETATM   26  C   UNK A   2      -9.912   6.979  69.364  1.00  0.00    -0.162 C  
HETATM   27  C   UNK A   2     -10.092   8.383  71.286  1.00  0.00    -0.202 C  
HETATM   28  C   UNK A   2     -10.550   6.157  68.217  1.00  0.00    -0.262 C  
HETATM   29  C   UNK A   2      -8.736   7.008  74.329  1.00  0.00    -0.185 C  
HETATM   30  S   UNK A   2      -8.162   6.889  72.618  1.00  0.00    -0.109 SA 
HETATM   31  O   UNK A   2     -11.270   6.845  67.314  1.00  0.00    -0.317 OA 
HETATM   32  O   UNK A   2     -10.335   4.958  68.061  1.00  0.00    -0.085 OA 
ENDBRANCH  17  19
ENDBRANCH  15  17
ENDBRANCH   6  15
ENDBRANCH   4   6
ENDBRANCH   3   4
ENDBRANCH   2   3
TORSDOF 9
ENDMDL
MODEL       49
REMARK 921   NORMALIZED FREE ENERGY PREDICTED BY IDOCK:   -5.72 KCAL/MOL
REMARK 922        TOTAL FREE ENERGY PREDICTED BY IDOCK:  -10.07 KCAL/MOL
REMARK 923 INTER-LIGAND FREE ENERGY PREDICTED BY IDOCK:   -8.66 KCAL/MOL
REMARK 924 INTRA-LIGAND FREE ENERGY PREDICTED BY IDOCK:   -1.41 KCAL/MOL
REMARK 927      BINDING AFFINITY PREDICTED BY RF-SCORE:    0.00 PKD
ROOT
HETATM    1  C   UNK A   0     -12.705  10.379  71.556  1.00  0.00    -0.564 C  
HETATM    2  C   UNK A   0     -11.502  10.187  70.652  1.00  0.00    -0.349 C  
ENDROOT
BRANCH   2   3
HETATM    3  O   UNK A   0     -10.428   9.560  71.371  1.00  0.00    -0.317 OA 
BRANCH   3   4
HETATM    4  C   UNK A   0      -9.423   9.033  70.612  1.00  0.00    -0.236 C  
HETATM    5  O   UNK A   0      -8.283   8.811  71.003  1.00  0.00    -0.130 OA 
BRANCH   4   6
HETATM    6  C   UNK A   0      -9.924   8.740  69.186  1.00  0.00    -0.191 C  
BRANCH   6   7
HETATM    7  C   UNK A   0     -10.394   7.277  69.089  1.00  0.00    -0.207 C  
BRANCH   7   8
HETATM    8  C   UNK A   0     -10.847   6.826  67.698  1.00  0.00    -0.361 C  
BRANCH   8   9
HETATM    9  C   UNK A   0     -10.304   5.437  67.435  1.00  0.00    -0.258 A  
HETATM   10  C   UNK A   0     -10.174   4.954  66.125  1.00  0.00    -0.309 A  
HETATM   11  C   UNK A   0      -9.580   3.713  65.883  1.00  0.00    -0.142 A  
HETATM   12  C   UNK A   0      -9.108   2.945  66.947  1.00  0.00    -0.181 A  
HETATM   13  C   UNK A   0      -9.826   4.656  68.497  1.00  0.00    -0.181 A  
HETATM   14  C   UNK A   0      -9.233   3.416  68.252  1.00  0.00    -0.234 A  
ENDBRANCH   8   9
ENDBRANCH   7   8
ENDBRANCH   6   7
BRANCH   6  15
ATOM     15  N   ALA A   1      -8.813   9.043  68.233  1.00  0.00    -0.133 NA 
ATOM     16  H   ALA A   1      -8.859   8.427  67.421  1.00  0.00     0.000 HD 
BRANCH  15  17
ATOM     17  CA  ALA A   1      -8.756  10.457  67.808  1.00  0.00    -0.122 C  
ATOM     18  CB  ALA A   1      -7.412  10.791  67.163  1.00  0.00    -0.102 C  
BRANCH  17  19
ATOM     19  C   ALA A   1      -9.951  10.850  66.882  1.00  0.00    -0.194 C  
HETATM   20  C   UNK A   2     -11.148  14.117  68.274  1.00  0.00    -0.254 C  
ATOM     21  O   ALA A   1     -10.382  10.120  65.987  1.00  0.00    -0.232 OA 
HETATM   22  C   UNK A   2     -11.960  13.984  66.984  1.00  0.00    -0.472 C  
HETATM   23  N   UNK A   2     -10.520  12.106  67.090  1.00  0.00    -0.217 N  
HETATM   24  S   UNK A   2     -10.012  15.561  68.203  1.00  0.00    -0.218 SA 
HETATM   25  C   UNK A   2     -10.669  16.466  69.626  1.00  0.00    -0.337 C  
HETATM   26  C   UNK A   2     -11.814  12.518  66.514  1.00  0.00    -0.367 C  
HETATM   27  C   UNK A   2     -10.321  12.827  68.350  1.00  0.00    -0.243 C  
HETATM   28  C   UNK A   2     -12.116  12.506  64.996  1.00  0.00    -0.446 C  
HETATM   29  C   UNK A   2     -11.211  15.472  70.631  1.00  0.00    -0.347 C  
HETATM   30  S   UNK A   2     -12.241  14.290  69.729  1.00  0.00    -0.310 SA 
HETATM   31  O   UNK A   2     -11.450  11.601  64.258  1.00  0.00    -0.321 OA 
HETATM   32  O   UNK A   2     -12.989  13.204  64.487  1.00  0.00    -0.688 OA 
ENDBRANCH  17  19
ENDBRANCH  15  17
ENDBRANCH   6  15
ENDBRANCH   4   6
ENDBRANCH   3   4
ENDBRANCH   2   3
TORSDOF 9
ENDMDL
MODEL       50
REMARK 921   NORMALIZED FREE ENERGY PREDICTED BY IDOCK:   -5.72 KCAL/MOL
REMARK 922        TOTAL FREE ENERGY PREDICTED BY IDOCK:  -10.07 KCAL/MOL
REMARK 923 INTER-LIGAND FREE ENERGY PREDICTED BY IDOCK:   -8.48 KCAL/MOL
REMARK 924 INTRA-LIGAND FREE ENERGY PREDICTED BY IDOCK:   -1.59 KCAL/MOL
REMARK 927      BINDING AFFINITY PREDICTED BY RF-SCORE:    0.00 PKD
ROOT
HETATM    1  C   UNK A   0     -14.033   8.387  72.197  1.00  0.00    -0.426 C  
HETATM    2  C   UNK A   0     -12.554   8.618  72.445  1.00  0.00    -0.362 C  
ENDROOT
BRANCH   2   3
HETATM    3  O   UNK A   0     -12.074   9.710  71.645  1.00  0.00    -0.367 OA 
BRANCH   3   4
HETATM    4  C   UNK A   0     -10.957   9.465  70.900  1.00  0.00    -0.320 C  
HETATM    5  O   UNK A   0     -10.113   8.611  71.148  1.00  0.00    -0.194 OA 
BRANCH   4   6
HETATM    6  C   UNK A   0     -10.905  10.406  69.683  1.00  0.00    -0.277 C  
BRANCH   6   7
HETATM    7  C   UNK A   0     -12.202  11.232  69.608  1.00  0.00    -0.340 C  
BRANCH   7   8
HETATM    8  C   UNK A   0     -12.028  12.684  69.150  1.00  0.00    -0.293 C  
BRANCH   8   9
HETATM    9  C   UNK A   0     -12.212  13.597  70.344  1.00  0.00    -0.434 A  
HETATM   10  C   UNK A   0     -12.960  13.182  71.456  1.00  0.00    -0.412 A  
HETATM   11  C   UNK A   0     -13.044  13.988  72.594  1.00  0.00    -0.553 A  
HETATM   12  C   UNK A   0     -12.379  15.213  72.633  1.00  0.00    -0.473 A  
HETATM   13  C   UNK A   0     -11.549  14.831  70.395  1.00  0.00    -0.333 A  
HETATM   14  C   UNK A   0     -11.635  15.634  71.534  1.00  0.00    -0.507 A  
ENDBRANCH   8   9
ENDBRANCH   7   8
ENDBRANCH   6   7
BRANCH   6  15
ATOM     15  N   ALA A   1     -10.691   9.573  68.460  1.00  0.00    -0.333 NA 
ATOM     16  H   ALA A   1     -11.561   9.478  67.936  1.00  0.00     0.000 HD 
BRANCH  15  17
ATOM     17  CA  ALA A   1      -9.607  10.061  67.584  1.00  0.00    -0.148 C  
ATOM     18  CB  ALA A   1      -9.136   8.971  66.622  1.00  0.00    -0.196 C  
BRANCH  17  19
ATOM     19  C   ALA A   1      -9.997  11.369  66.825  1.00  0.00    -0.208 C  
HETATM   20  C   UNK A   2      -7.578  13.926  68.111  1.00  0.00    -0.134 C  
ATOM     21  O   ALA A   1     -10.968  11.450  66.070  1.00  0.00    -0.285 OA 
HETATM   22  C   UNK A   2      -8.285  14.673  66.978  1.00  0.00    -0.188 C  
HETATM   23  N   UNK A   2      -9.170  12.476  67.014  1.00  0.00    -0.207 N  
HETATM   24  S   UNK A   2      -5.791  13.693  67.747  1.00  0.00    -0.060 SA 
HETATM   25  C   UNK A   2      -5.127  14.585  69.175  1.00  0.00    -0.079 C  
HETATM   26  C   UNK A   2      -9.539  13.846  66.614  1.00  0.00    -0.289 C  
HETATM   27  C   UNK A   2      -8.265  12.555  68.164  1.00  0.00    -0.170 C  
HETATM   28  C   UNK A   2      -9.925  14.239  65.166  1.00  0.00    -0.231 C  
HETATM   29  C   UNK A   2      -6.096  14.452  70.330  1.00  0.00    -0.179 C  
HETATM   30  S   UNK A   2      -7.752  14.816  69.699  1.00  0.00     0.086 SA 
HETATM   31  O   UNK A   2     -10.483  13.276  64.412  1.00  0.00    -0.412 OA 
HETATM   32  O   UNK A   2      -9.833  15.387  64.744  1.00  0.00    -0.153 OA 
ENDBRANCH  17  19
ENDBRANCH  15  17
ENDBRANCH   6  15
ENDBRANCH   4   6
ENDBRANCH   3   4
ENDBRANCH   2   3
TORSDOF 9
ENDMDL
MODEL       51
REMARK 921   NORMALIZED FREE ENERGY PREDICTED BY IDOCK:   -5.71 KCAL/MOL
REMARK 922        TOTAL FREE ENERGY PREDICTED BY IDOCK:  -10.06 KCAL/MOL
REMARK 923 INTER-LIGAND FREE ENERGY PREDICTED BY IDOCK:   -8.71 KCAL/MOL
REMARK 924 INTRA-LIGAND FREE ENERGY PREDICTED BY IDOCK:   -1.36 KCAL/MOL
REMARK 927      BINDING AFFINITY PREDICTED BY RF-SCORE:    0.00 PKD
ROOT
HETATM    1  C   UNK A   0     -12.144  13.027  63.528  1.00  0.00    -0.617 C  
HETATM    2  C   UNK A   0     -12.647  12.725  64.928  1.00  0.00    -0.470 C  
ENDROOT
BRANCH   2   3
HETATM    3  O   UNK A   0     -12.077  13.641  65.876  1.00  0.00    -0.386 OA 
BRANCH   3   4
HETATM    4  C   UNK A   0     -11.430  13.081  66.939  1.00  0.00    -0.339 C  
HETATM    5  O   UNK A   0     -11.963  12.429  67.829  1.00  0.00    -0.429 OA 
BRANCH   4   6
HETATM    6  C   UNK A   0      -9.920  13.371  66.862  1.00  0.00    -0.252 C  
BRANCH   6   7
HETATM    7  C   UNK A   0      -9.689  14.877  66.639  1.00  0.00    -0.276 C  
BRANCH   7   8
HETATM    8  C   UNK A   0      -9.767  15.744  67.899  1.00  0.00    -0.216 C  
BRANCH   8   9
HETATM    9  C   UNK A   0      -9.919  17.193  67.485  1.00  0.00    -0.279 A  
HETATM   10  C   UNK A   0     -10.403  17.528  66.212  1.00  0.00    -0.335 A  
HETATM   11  C   UNK A   0     -10.635  18.863  65.871  1.00  0.00    -0.438 A  
HETATM   12  C   UNK A   0     -10.390  19.874  66.799  1.00  0.00    -0.599 A  
HETATM   13  C   UNK A   0      -9.676  18.219  68.410  1.00  0.00    -0.373 A  
HETATM   14  C   UNK A   0      -9.908  19.552  68.066  1.00  0.00    -0.500 A  
ENDBRANCH   8   9
ENDBRANCH   7   8
ENDBRANCH   6   7
BRANCH   6  15
ATOM     15  N   ALA A   1      -9.343  12.540  65.762  1.00  0.00    -0.449 NA 
ATOM     16  H   ALA A   1      -8.378  12.811  65.577  1.00  0.00     0.000 HD 
BRANCH  15  17
ATOM     17  CA  ALA A   1      -9.438  11.085  65.998  1.00  0.00    -0.207 C  
ATOM     18  CB  ALA A   1      -9.701  10.326  64.697  1.00  0.00    -0.398 C  
BRANCH  17  19
ATOM     19  C   ALA A   1      -8.191  10.521  66.751  1.00  0.00    -0.126 C  
HETATM   20  C   UNK A   2      -9.653   8.452  69.513  1.00  0.00    -0.170 C  
ATOM     21  O   ALA A   1      -7.033  10.836  66.473  1.00  0.00    -0.115 OA 
HETATM   22  C   UNK A   2      -8.161   8.128  69.605  1.00  0.00    -0.118 C  
HETATM   23  N   UNK A   2      -8.436   9.598  67.767  1.00  0.00    -0.125 N  
HETATM   24  S   UNK A   2     -10.634   6.965  69.060  1.00  0.00    -0.220 SA 
HETATM   25  C   UNK A   2     -11.690   6.905  70.528  1.00  0.00    -0.350 C  
HETATM   26  C   UNK A   2      -7.421   9.187  68.756  1.00  0.00    -0.076 C  
HETATM   27  C   UNK A   2      -9.760   9.490  68.387  1.00  0.00    -0.154 C  
HETATM   28  C   UNK A   2      -6.053   8.573  68.371  1.00  0.00    -0.050 C  
HETATM   29  C   UNK A   2     -11.900   8.314  71.039  1.00  0.00    -0.255 C  
HETATM   30  S   UNK A   2     -10.283   9.122  71.093  1.00  0.00    -0.320 SA 
HETATM   31  O   UNK A   2      -5.546   8.936  67.180  1.00  0.00    -0.040 OA 
HETATM   32  O   UNK A   2      -5.400   7.873  69.140  1.00  0.00    -0.025 OA 
ENDBRANCH  17  19
ENDBRANCH  15  17
ENDBRANCH   6  15
ENDBRANCH   4   6
ENDBRANCH   3   4
ENDBRANCH   2   3
TORSDOF 9
ENDMDL
MODEL       52
REMARK 921   NORMALIZED FREE ENERGY PREDICTED BY IDOCK:   -5.67 KCAL/MOL
REMARK 922        TOTAL FREE ENERGY PREDICTED BY IDOCK:  -10.00 KCAL/MOL
REMARK 923 INTER-LIGAND FREE ENERGY PREDICTED BY IDOCK:   -9.14 KCAL/MOL
REMARK 924 INTRA-LIGAND FREE ENERGY PREDICTED BY IDOCK:   -0.86 KCAL/MOL
REMARK 927      BINDING AFFINITY PREDICTED BY RF-SCORE:    0.00 PKD
ROOT
HETATM    1  C   UNK A   0     -14.040  14.785  72.039  1.00  0.00    -0.604 C  
HETATM    2  C   UNK A   0     -12.677  14.360  71.525  1.00  0.00    -0.345 C  
ENDROOT
BRANCH   2   3
HETATM    3  O   UNK A   0     -12.628  12.936  71.346  1.00  0.00    -0.322 OA 
BRANCH   3   4
HETATM    4  C   UNK A   0     -12.252  12.497  70.110  1.00  0.00    -0.234 C  
HETATM    5  O   UNK A   0     -11.770  13.197  69.227  1.00  0.00    -0.286 OA 
BRANCH   4   6
HETATM    6  C   UNK A   0     -12.504  10.984  69.977  1.00  0.00    -0.250 C  
BRANCH   6   7
HETATM    7  C   UNK A   0     -11.932  10.250  71.203  1.00  0.00    -0.472 C  
BRANCH   7   8
HETATM    8  C   UNK A   0     -12.772   9.077  71.715  1.00  0.00    -0.431 C  
BRANCH   8   9
HETATM    9  C   UNK A   0     -11.879   7.861  71.849  1.00  0.00    -0.345 A  
HETATM   10  C   UNK A   0     -11.900   6.845  70.883  1.00  0.00    -0.424 A  
HETATM   11  C   UNK A   0     -11.004   5.775  70.960  1.00  0.00    -0.300 A  
HETATM   12  C   UNK A   0     -10.079   5.713  72.001  1.00  0.00    -0.230 A  
HETATM   13  C   UNK A   0     -10.945   7.786  72.892  1.00  0.00    -0.467 A  
HETATM   14  C   UNK A   0     -10.051   6.716  72.967  1.00  0.00    -0.204 A  
ENDBRANCH   8   9
ENDBRANCH   7   8
ENDBRANCH   6   7
BRANCH   6  15
ATOM     15  N   ALA A   1     -11.884  10.521  68.698  1.00  0.00    -0.716 NA 
ATOM     16  H   ALA A   1     -11.835  11.286  68.026  1.00  0.00     0.000 HD 
BRANCH  15  17
ATOM     17  CA  ALA A   1     -10.557   9.895  68.868  1.00  0.00    -0.218 C  
ATOM     18  CB  ALA A   1     -10.437   8.612  68.047  1.00  0.00    -0.254 C  
BRANCH  17  19
ATOM     19  C   ALA A   1      -9.387  10.885  68.562  1.00  0.00    -0.181 C  
HETATM   20  C   UNK A   2     -10.569  12.790  65.558  1.00  0.00    -0.281 C  
ATOM     21  O   ALA A   1      -8.319  10.881  69.175  1.00  0.00    -0.141 OA 
HETATM   22  C   UNK A   2      -9.291  13.536  65.948  1.00  0.00     0.055 C  
HETATM   23  N   UNK A   2      -9.607  11.823  67.553  1.00  0.00    -0.175 N  
HETATM   24  S   UNK A   2     -12.051  13.863  65.737  1.00  0.00    -0.452 SA 
HETATM   25  C   UNK A   2     -12.607  13.809  64.015  1.00  0.00    -0.071 C  
HETATM   26  C   UNK A   2      -8.533  12.631  66.946  1.00  0.00    -0.116 C  
HETATM   27  C   UNK A   2     -10.663  11.628  66.557  1.00  0.00    -0.272 C  
HETATM   28  C   UNK A   2      -7.595  13.556  67.760  1.00  0.00    -0.162 C  
HETATM   29  C   UNK A   2     -12.212  12.477  63.414  1.00  0.00    -0.517 C  
HETATM   30  S   UNK A   2     -10.479  12.179  63.837  1.00  0.00    -0.447 SA 
HETATM   31  O   UNK A   2      -7.362  13.201  69.036  1.00  0.00    -0.060 OA 
HETATM   32  O   UNK A   2      -7.002  14.507  67.259  1.00  0.00    -0.214 OA 
ENDBRANCH  17  19
ENDBRANCH  15  17
ENDBRANCH   6  15
ENDBRANCH   4   6
ENDBRANCH   3   4
ENDBRANCH   2   3
TORSDOF 9
ENDMDL
MODEL       53
REMARK 921   NORMALIZED FREE ENERGY PREDICTED BY IDOCK:   -5.67 KCAL/MOL
REMARK 922        TOTAL FREE ENERGY PREDICTED BY IDOCK:   -9.99 KCAL/MOL
REMARK 923 INTER-LIGAND FREE ENERGY PREDICTED BY IDOCK:   -8.26 KCAL/MOL
REMARK 924 INTRA-LIGAND FREE ENERGY PREDICTED BY IDOCK:   -1.74 KCAL/MOL
REMARK 927      BINDING AFFINITY PREDICTED BY RF-SCORE:    0.00 PKD
ROOT
HETATM    1  C   UNK A   0      -8.273   4.958  70.945  1.00  0.00    -0.095 C  
HETATM    2  C   UNK A   0      -7.560   6.293  71.053  1.00  0.00    -0.090 C  
ENDROOT
BRANCH   2   3
HETATM    3  O   UNK A   0      -8.153   7.253  70.163  1.00  0.00    -0.123 OA 
BRANCH   3   4
HETATM    4  C   UNK A   0      -8.314   8.514  70.660  1.00  0.00    -0.133 C  
HETATM    5  O   UNK A   0      -7.588   9.046  71.491  1.00  0.00    -0.275 OA 
BRANCH   4   6
HETATM    6  C   UNK A   0      -9.539   9.192  70.017  1.00  0.00    -0.197 C  
BRANCH   6   7
HETATM    7  C   UNK A   0     -10.831   8.568  70.575  1.00  0.00    -0.252 C  
BRANCH   7   8
HETATM    8  C   UNK A   0     -11.009   8.677  72.092  1.00  0.00    -0.434 C  
BRANCH   8   9
HETATM    9  C   UNK A   0     -10.833   7.303  72.703  1.00  0.00    -0.331 A  
HETATM   10  C   UNK A   0     -10.009   7.116  73.823  1.00  0.00    -0.373 A  
HETATM   11  C   UNK A   0      -9.929   5.866  74.442  1.00  0.00    -0.279 A  
HETATM   12  C   UNK A   0     -10.672   4.794  73.951  1.00  0.00    -0.362 A  
HETATM   13  C   UNK A   0     -11.574   6.216  72.217  1.00  0.00    -0.362 A  
HETATM   14  C   UNK A   0     -11.491   4.968  72.838  1.00  0.00    -0.306 A  
ENDBRANCH   8   9
ENDBRANCH   7   8
ENDBRANCH   6   7
BRANCH   6  15
ATOM     15  N   ALA A   1      -9.428   9.038  68.535  1.00  0.00    -0.143 NA 
ATOM     16  H   ALA A   1     -10.301   8.680  68.146  1.00  0.00     0.000 HD 
BRANCH  15  17
ATOM     17  CA  ALA A   1      -9.016  10.272  67.834  1.00  0.00    -0.131 C  
ATOM     18  CB  ALA A   1      -7.702  10.070  67.080  1.00  0.00    -0.092 C  
BRANCH  17  19
ATOM     19  C   ALA A   1     -10.136  10.828  66.898  1.00  0.00    -0.212 C  
HETATM   20  C   UNK A   2     -11.345  13.909  68.656  1.00  0.00    -0.278 C  
ATOM     21  O   ALA A   1     -10.523  10.245  65.884  1.00  0.00    -0.195 OA 
HETATM   22  C   UNK A   2     -12.071  13.983  67.312  1.00  0.00    -0.405 C  
HETATM   23  N   UNK A   2     -10.687  12.062  67.244  1.00  0.00    -0.225 N  
HETATM   24  S   UNK A   2     -10.173  15.310  68.862  1.00  0.00    -0.242 SA 
HETATM   25  C   UNK A   2     -10.903  16.030  70.353  1.00  0.00    -0.286 C  
HETATM   26  C   UNK A   2     -11.929  12.593  66.651  1.00  0.00    -0.312 C  
HETATM   27  C   UNK A   2     -10.556  12.594  68.603  1.00  0.00    -0.222 C  
HETATM   28  C   UNK A   2     -12.128  12.802  65.129  1.00  0.00    -0.450 C  
HETATM   29  C   UNK A   2     -11.535  14.925  71.172  1.00  0.00    -0.264 C  
HETATM   30  S   UNK A   2     -12.530  13.915  70.049  1.00  0.00    -0.189 SA 
HETATM   31  O   UNK A   2     -11.435  11.986  64.316  1.00  0.00    -0.338 OA 
HETATM   32  O   UNK A   2     -12.947  13.592  64.670  1.00  0.00    -0.660 OA 
ENDBRANCH  17  19
ENDBRANCH  15  17
ENDBRANCH   6  15
ENDBRANCH   4   6
ENDBRANCH   3   4
ENDBRANCH   2   3
TORSDOF 9
ENDMDL
MODEL       54
REMARK 921   NORMALIZED FREE ENERGY PREDICTED BY IDOCK:   -5.66 KCAL/MOL
REMARK 922        TOTAL FREE ENERGY PREDICTED BY IDOCK:   -9.98 KCAL/MOL
REMARK 923 INTER-LIGAND FREE ENERGY PREDICTED BY IDOCK:   -8.27 KCAL/MOL
REMARK 924 INTRA-LIGAND FREE ENERGY PREDICTED BY IDOCK:   -1.71 KCAL/MOL
REMARK 927      BINDING AFFINITY PREDICTED BY RF-SCORE:    0.00 PKD
ROOT
HETATM    1  C   UNK A   0     -10.905  16.260  69.913  1.00  0.00    -0.352 C  
HETATM    2  C   UNK A   0     -10.984  14.986  69.092  1.00  0.00    -0.261 C  
ENDROOT
BRANCH   2   3
HETATM    3  O   UNK A   0     -11.880  15.158  67.982  1.00  0.00    -0.331 OA 
BRANCH   3   4
HETATM    4  C   UNK A   0     -11.588  14.443  66.857  1.00  0.00    -0.388 C  
HETATM    5  O   UNK A   0     -12.413  13.936  66.106  1.00  0.00    -0.459 OA 
BRANCH   4   6
HETATM    6  C   UNK A   0     -10.064  14.371  66.647  1.00  0.00    -0.274 C  
BRANCH   6   7
HETATM    7  C   UNK A   0      -9.609  15.524  65.735  1.00  0.00    -0.367 C  
BRANCH   7   8
HETATM    8  C   UNK A   0      -8.501  16.413  66.309  1.00  0.00    -0.372 C  
BRANCH   8   9
HETATM    9  C   UNK A   0      -9.138  17.607  66.989  1.00  0.00    -0.256 A  
HETATM   10  C   UNK A   0      -8.467  18.290  68.014  1.00  0.00    -0.273 A  
HETATM   11  C   UNK A   0      -9.015  19.450  68.569  1.00  0.00    -0.418 A  
HETATM   12  C   UNK A   0     -10.235  19.937  68.105  1.00  0.00    -0.564 A  
HETATM   13  C   UNK A   0     -10.365  18.107  66.531  1.00  0.00    -0.397 A  
HETATM   14  C   UNK A   0     -10.910  19.265  67.088  1.00  0.00    -0.543 A  
ENDBRANCH   8   9
ENDBRANCH   7   8
ENDBRANCH   6   7
BRANCH   6  15
ATOM     15  N   ALA A   1      -9.739  13.030  66.072  1.00  0.00    -0.378 NA 
ATOM     16  H   ALA A   1      -9.266  13.131  65.173  1.00  0.00     0.000 HD 
BRANCH  15  17
ATOM     17  CA  ALA A   1      -8.955  12.164  66.976  1.00  0.00    -0.201 C  
ATOM     18  CB  ALA A   1      -7.908  12.967  67.747  1.00  0.00    -0.158 C  
BRANCH  17  19
ATOM     19  C   ALA A   1      -9.861  11.329  67.936  1.00  0.00    -0.176 C  
HETATM   20  C   UNK A   2      -8.569   7.828  67.595  1.00  0.00    -0.123 C  
ATOM     21  O   ALA A   1     -10.823  11.804  68.542  1.00  0.00    -0.202 OA 
HETATM   22  C   UNK A   2      -9.566   7.707  68.749  1.00  0.00    -0.153 C  
HETATM   23  N   UNK A   2      -9.522   9.988  68.111  1.00  0.00    -0.138 N  
HETATM   24  S   UNK A   2      -6.854   7.476  68.153  1.00  0.00    -0.065 SA 
HETATM   25  C   UNK A   2      -6.519   6.070  67.063  1.00  0.00    -0.050 C  
HETATM   26  C   UNK A   2     -10.416   8.998  68.741  1.00  0.00    -0.206 C  
HETATM   27  C   UNK A   2      -8.664   9.293  67.148  1.00  0.00    -0.127 C  
HETATM   28  C   UNK A   2     -10.995   9.157  70.168  1.00  0.00    -0.239 C  
HETATM   29  C   UNK A   2      -7.301   6.249  65.779  1.00  0.00    -0.080 C  
HETATM   30  S   UNK A   2      -8.997   6.689  66.229  1.00  0.00    -0.137 SA 
HETATM   31  O   UNK A   2     -11.171  10.415  70.608  1.00  0.00    -0.319 OA 
HETATM   32  O   UNK A   2     -11.379   8.203  70.839  1.00  0.00    -0.264 OA 
ENDBRANCH  17  19
ENDBRANCH  15  17
ENDBRANCH   6  15
ENDBRANCH   4   6
ENDBRANCH   3   4
ENDBRANCH   2   3
TORSDOF 9
ENDMDL
MODEL       55
REMARK 921   NORMALIZED FREE ENERGY PREDICTED BY IDOCK:   -5.65 KCAL/MOL
REMARK 922        TOTAL FREE ENERGY PREDICTED BY IDOCK:   -9.97 KCAL/MOL
REMARK 923 INTER-LIGAND FREE ENERGY PREDICTED BY IDOCK:   -8.88 KCAL/MOL
REMARK 924 INTRA-LIGAND FREE ENERGY PREDICTED BY IDOCK:   -1.09 KCAL/MOL
REMARK 927      BINDING AFFINITY PREDICTED BY RF-SCORE:    0.00 PKD
ROOT
HETATM    1  C   UNK A   0      -9.885   6.214  74.361  1.00  0.00    -0.294 C  
HETATM    2  C   UNK A   0      -9.902   7.447  73.477  1.00  0.00    -0.312 C  
ENDROOT
BRANCH   2   3
HETATM    3  O   UNK A   0     -10.963   7.361  72.513  1.00  0.00    -0.254 OA 
BRANCH   3   4
HETATM    4  C   UNK A   0     -10.587   7.117  71.224  1.00  0.00    -0.213 C  
HETATM    5  O   UNK A   0      -9.874   6.190  70.858  1.00  0.00    -0.178 OA 
BRANCH   4   6
HETATM    6  C   UNK A   0     -11.198   8.168  70.278  1.00  0.00    -0.182 C  
BRANCH   6   7
HETATM    7  C   UNK A   0     -10.228   8.448  69.116  1.00  0.00    -0.217 C  
BRANCH   7   8
HETATM    8  C   UNK A   0     -10.534   7.703  67.814  1.00  0.00    -0.282 C  
BRANCH   8   9
HETATM    9  C   UNK A   0      -9.932   8.474  66.658  1.00  0.00    -0.363 A  
HETATM   10  C   UNK A   0      -8.936   7.901  65.855  1.00  0.00    -0.166 A  
HETATM   11  C   UNK A   0      -8.456   8.577  64.730  1.00  0.00    -0.146 A  
HETATM   12  C   UNK A   0      -8.968   9.831  64.398  1.00  0.00    -0.284 A  
HETATM   13  C   UNK A   0     -10.439   9.736  66.313  1.00  0.00    -0.160 A  
HETATM   14  C   UNK A   0      -9.957  10.409  65.190  1.00  0.00    -0.390 A  
ENDBRANCH   8   9
ENDBRANCH   7   8
ENDBRANCH   6   7
BRANCH   6  15
ATOM     15  N   ALA A   1     -11.495   9.395  71.079  1.00  0.00    -0.305 NA 
ATOM     16  H   ALA A   1     -10.749  10.082  70.971  1.00  0.00     0.000 HD 
BRANCH  15  17
ATOM     17  CA  ALA A   1     -12.808  10.002  70.780  1.00  0.00    -0.264 C  
ATOM     18  CB  ALA A   1     -13.954   9.117  71.266  1.00  0.00    -0.165 C  
BRANCH  17  19
ATOM     19  C   ALA A   1     -12.930  11.458  71.332  1.00  0.00    -0.365 C  
HETATM   20  C   UNK A   2     -11.303  13.572  68.701  1.00  0.00    -0.288 C  
ATOM     21  O   ALA A   1     -13.388  11.724  72.445  1.00  0.00    -0.343 OA 
HETATM   22  C   UNK A   2     -11.909  14.615  69.641  1.00  0.00    -0.367 C  
HETATM   23  N   UNK A   2     -12.514  12.487  70.488  1.00  0.00    -0.239 N  
HETATM   24  S   UNK A   2     -12.080  13.640  67.036  1.00  0.00    -0.340 SA 
HETATM   25  C   UNK A   2     -10.589  14.008  66.079  1.00  0.00    -0.297 C  
HETATM   26  C   UNK A   2     -12.293  13.873  70.942  1.00  0.00    -0.377 C  
HETATM   27  C   UNK A   2     -11.625  12.222  69.354  1.00  0.00    -0.314 C  
HETATM   28  C   UNK A   2     -13.381  14.728  71.637  1.00  0.00    -0.360 C  
HETATM   29  C   UNK A   2      -9.395  13.383  66.770  1.00  0.00    -0.256 C  
HETATM   30  S   UNK A   2      -9.498  13.809  68.525  1.00  0.00    -0.111 SA 
HETATM   31  O   UNK A   2     -14.310  14.060  72.343  1.00  0.00    -0.614 OA 
HETATM   32  O   UNK A   2     -13.356  15.956  71.644  1.00  0.00    -0.431 OA 
ENDBRANCH  17  19
ENDBRANCH  15  17
ENDBRANCH   6  15
ENDBRANCH   4   6
ENDBRANCH   3   4
ENDBRANCH   2   3
TORSDOF 9
ENDMDL
MODEL       56
REMARK 921   NORMALIZED FREE ENERGY PREDICTED BY IDOCK:   -5.65 KCAL/MOL
REMARK 922        TOTAL FREE ENERGY PREDICTED BY IDOCK:   -9.97 KCAL/MOL
REMARK 923 INTER-LIGAND FREE ENERGY PREDICTED BY IDOCK:   -9.84 KCAL/MOL
REMARK 924 INTRA-LIGAND FREE ENERGY PREDICTED BY IDOCK:   -0.13 KCAL/MOL
REMARK 927      BINDING AFFINITY PREDICTED BY RF-SCORE:    0.00 PKD
ROOT
HETATM    1  C   UNK A   0      -9.759  11.574  62.892  1.00  0.00    -0.302 C  
HETATM    2  C   UNK A   0     -11.168  11.890  63.357  1.00  0.00    -0.377 C  
ENDROOT
BRANCH   2   3
HETATM    3  O   UNK A   0     -11.189  13.118  64.101  1.00  0.00    -0.372 OA 
BRANCH   3   4
HETATM    4  C   UNK A   0     -12.054  13.169  65.156  1.00  0.00    -0.421 C  
HETATM    5  O   UNK A   0     -13.143  12.608  65.206  1.00  0.00    -0.611 OA 
BRANCH   4   6
HETATM    6  C   UNK A   0     -11.465  14.023  66.294  1.00  0.00    -0.351 C  
BRANCH   6   7
HETATM    7  C   UNK A   0     -10.997  15.380  65.737  1.00  0.00    -0.311 C  
BRANCH   7   8
HETATM    8  C   UNK A   0      -9.719  15.940  66.368  1.00  0.00    -0.310 C  
BRANCH   8   9
HETATM    9  C   UNK A   0     -10.026  17.295  66.971  1.00  0.00    -0.289 A  
HETATM   10  C   UNK A   0      -9.787  17.547  68.329  1.00  0.00    -0.319 A  
HETATM   11  C   UNK A   0      -9.978  18.827  68.857  1.00  0.00    -0.423 A  
HETATM   12  C   UNK A   0     -10.407  19.866  68.032  1.00  0.00    -0.547 A  
HETATM   13  C   UNK A   0     -10.458  18.348  66.151  1.00  0.00    -0.422 A  
HETATM   14  C   UNK A   0     -10.648  19.626  66.682  1.00  0.00    -0.599 A  
ENDBRANCH   8   9
ENDBRANCH   7   8
ENDBRANCH   6   7
BRANCH   6  15
ATOM     15  N   ALA A   1     -10.349  13.252  66.922  1.00  0.00    -0.253 NA 
ATOM     16  H   ALA A   1      -9.656  13.885  67.321  1.00  0.00     0.000 HD 
BRANCH  15  17
ATOM     17  CA  ALA A   1     -10.794  12.269  67.931  1.00  0.00    -0.218 C  
ATOM     18  CB  ALA A   1      -9.622  11.437  68.451  1.00  0.00    -0.197 C  
BRANCH  17  19
ATOM     19  C   ALA A   1     -11.591  12.932  69.099  1.00  0.00    -0.322 C  
HETATM   20  C   UNK A   2     -12.476  10.064  71.343  1.00  0.00    -0.411 C  
ATOM     21  O   ALA A   1     -11.892  14.127  69.120  1.00  0.00    -0.300 OA 
HETATM   22  C   UNK A   2     -12.913  11.280  72.163  1.00  0.00    -0.208 C  
HETATM   23  N   UNK A   2     -11.944  12.107  70.166  1.00  0.00    -0.417 N  
HETATM   24  S   UNK A   2     -11.109   9.155  72.172  1.00  0.00     0.118 SA 
HETATM   25  C   UNK A   2     -11.945   7.561  72.356  1.00  0.00    -0.222 C  
HETATM   26  C   UNK A   2     -12.927  12.487  71.198  1.00  0.00    -0.148 C  
HETATM   27  C   UNK A   2     -11.964  10.649  70.020  1.00  0.00    -0.329 C  
HETATM   28  C   UNK A   2     -12.798  13.758  72.074  1.00  0.00    -0.288 C  
HETATM   29  C   UNK A   2     -12.922   7.385  71.212  1.00  0.00    -0.310 C  
HETATM   30  S   UNK A   2     -13.872   8.917  71.065  1.00  0.00     0.210 SA 
HETATM   31  O   UNK A   2     -12.141  14.797  71.530  1.00  0.00    -0.322 OA 
HETATM   32  O   UNK A   2     -13.348  13.869  73.166  1.00  0.00    -0.571 OA 
ENDBRANCH  17  19
ENDBRANCH  15  17
ENDBRANCH   6  15
ENDBRANCH   4   6
ENDBRANCH   3   4
ENDBRANCH   2   3
TORSDOF 9
ENDMDL
MODEL       57
REMARK 921   NORMALIZED FREE ENERGY PREDICTED BY IDOCK:   -5.64 KCAL/MOL
REMARK 922        TOTAL FREE ENERGY PREDICTED BY IDOCK:   -9.96 KCAL/MOL
REMARK 923 INTER-LIGAND FREE ENERGY PREDICTED BY IDOCK:   -8.33 KCAL/MOL
REMARK 924 INTRA-LIGAND FREE ENERGY PREDICTED BY IDOCK:   -1.63 KCAL/MOL
REMARK 927      BINDING AFFINITY PREDICTED BY RF-SCORE:    0.00 PKD
ROOT
HETATM    1  C   UNK A   0      -7.576  10.518  69.570  1.00  0.00    -0.148 C  
HETATM    2  C   UNK A   0      -8.899  10.836  68.898  1.00  0.00    -0.150 C  
ENDROOT
BRANCH   2   3
HETATM    3  O   UNK A   0      -8.954  12.224  68.528  1.00  0.00    -0.161 OA 
BRANCH   3   4
HETATM    4  C   UNK A   0      -8.495  12.533  67.280  1.00  0.00    -0.185 C  
HETATM    5  O   UNK A   0      -7.388  12.991  67.027  1.00  0.00    -0.027 OA 
BRANCH   4   6
HETATM    6  C   UNK A   0      -9.565  12.211  66.220  1.00  0.00    -0.237 C  
BRANCH   6   7
HETATM    7  C   UNK A   0      -9.004  11.197  65.206  1.00  0.00    -0.134 C  
BRANCH   7   8
HETATM    8  C   UNK A   0      -9.846   9.933  65.011  1.00  0.00    -0.323 C  
BRANCH   8   9
HETATM    9  C   UNK A   0      -9.351   8.865  65.964  1.00  0.00    -0.306 A  
HETATM   10  C   UNK A   0      -7.980   8.598  66.093  1.00  0.00    -0.106 A  
HETATM   11  C   UNK A   0      -7.523   7.683  67.045  1.00  0.00    -0.095 A  
HETATM   12  C   UNK A   0      -8.430   7.029  67.876  1.00  0.00    -0.124 A  
HETATM   13  C   UNK A   0     -10.254   8.200  66.806  1.00  0.00    -0.372 A  
HETATM   14  C   UNK A   0      -9.794   7.285  67.755  1.00  0.00    -0.181 A  
ENDBRANCH   8   9
ENDBRANCH   7   8
ENDBRANCH   6   7
BRANCH   6  15
ATOM     15  N   ALA A   1      -9.976  13.493  65.572  1.00  0.00    -0.457 NA 
ATOM     16  H   ALA A   1      -9.856  13.438  64.561  1.00  0.00     0.000 HD 
BRANCH  15  17
ATOM     17  CA  ALA A   1     -11.349  13.922  65.909  1.00  0.00    -0.313 C  
ATOM     18  CB  ALA A   1     -12.387  12.940  65.369  1.00  0.00    -0.538 C  
BRANCH  17  19
ATOM     19  C   ALA A   1     -11.535  14.173  67.440  1.00  0.00    -0.345 C  
HETATM   20  C   UNK A   2      -9.905  17.497  68.023  1.00  0.00    -0.299 C  
ATOM     21  O   ALA A   1     -12.033  13.346  68.206  1.00  0.00    -0.345 OA 
HETATM   22  C   UNK A   2     -10.573  17.210  69.370  1.00  0.00    -0.161 C  
HETATM   23  N   UNK A   2     -11.130  15.416  67.926  1.00  0.00    -0.313 N  
HETATM   24  S   UNK A   2     -10.637  18.978  67.217  1.00  0.00    -0.471 SA 
HETATM   25  C   UNK A   2      -9.133  19.980  67.121  1.00  0.00    -0.363 C  
HETATM   26  C   UNK A   2     -10.968  15.715  69.361  1.00  0.00    -0.283 C  
HETATM   27  C   UNK A   2     -10.201  16.258  67.168  1.00  0.00    -0.276 C  
HETATM   28  C   UNK A   2     -12.104  15.550  70.401  1.00  0.00    -0.392 C  
HETATM   29  C   UNK A   2      -7.939  19.059  66.978  1.00  0.00    -0.256 C  
HETATM   30  S   UNK A   2      -8.105  17.753  68.219  1.00  0.00    -0.291 SA 
HETATM   31  O   UNK A   2     -13.029  14.612  70.136  1.00  0.00    -0.228 OA 
HETATM   32  O   UNK A   2     -12.119  16.158  71.468  1.00  0.00    -0.450 OA 
ENDBRANCH  17  19
ENDBRANCH  15  17
ENDBRANCH   6  15
ENDBRANCH   4   6
ENDBRANCH   3   4
ENDBRANCH   2   3
TORSDOF 9
ENDMDL
MODEL       58
REMARK 921   NORMALIZED FREE ENERGY PREDICTED BY IDOCK:   -5.64 KCAL/MOL
REMARK 922        TOTAL FREE ENERGY PREDICTED BY IDOCK:   -9.96 KCAL/MOL
REMARK 923 INTER-LIGAND FREE ENERGY PREDICTED BY IDOCK:   -8.48 KCAL/MOL
REMARK 924 INTRA-LIGAND FREE ENERGY PREDICTED BY IDOCK:   -1.48 KCAL/MOL
REMARK 927      BINDING AFFINITY PREDICTED BY RF-SCORE:    0.00 PKD
ROOT
HETATM    1  C   UNK A   0      -9.853  10.465  63.364  1.00  0.00    -0.251 C  
HETATM    2  C   UNK A   0     -10.928  11.522  63.537  1.00  0.00    -0.373 C  
ENDROOT
BRANCH   2   3
HETATM    3  O   UNK A   0     -10.601  12.397  64.629  1.00  0.00    -0.281 OA 
BRANCH   3   4
HETATM    4  C   UNK A   0     -11.230  12.141  65.813  1.00  0.00    -0.339 C  
HETATM    5  O   UNK A   0     -12.349  12.534  66.120  1.00  0.00    -0.596 OA 
BRANCH   4   6
HETATM    6  C   UNK A   0     -10.339  11.270  66.717  1.00  0.00    -0.238 C  
BRANCH   6   7
HETATM    7  C   UNK A   0     -11.071  10.971  68.038  1.00  0.00    -0.343 C  
BRANCH   7   8
HETATM    8  C   UNK A   0     -10.471   9.840  68.878  1.00  0.00    -0.233 C  
BRANCH   8   9
HETATM    9  C   UNK A   0     -11.319   9.651  70.118  1.00  0.00    -0.275 A  
HETATM   10  C   UNK A   0     -12.218  10.644  70.531  1.00  0.00    -0.449 A  
HETATM   11  C   UNK A   0     -13.069  10.423  71.617  1.00  0.00    -0.553 A  
HETATM   12  C   UNK A   0     -13.030   9.207  72.298  1.00  0.00    -0.492 A  
HETATM   13  C   UNK A   0     -11.288   8.432  70.812  1.00  0.00    -0.290 A  
HETATM   14  C   UNK A   0     -12.139   8.214  71.897  1.00  0.00    -0.368 A  
ENDBRANCH   8   9
ENDBRANCH   7   8
ENDBRANCH   6   7
BRANCH   6  15
ATOM     15  N   ALA A   1      -9.050  11.994  66.934  1.00  0.00    -0.191 NA 
ATOM     16  H   ALA A   1      -8.774  12.496  66.090  1.00  0.00     0.000 HD 
BRANCH  15  17
ATOM     17  CA  ALA A   1      -9.061  12.903  68.099  1.00  0.00    -0.207 C  
ATOM     18  CB  ALA A   1      -7.706  12.921  68.804  1.00  0.00     0.007 C  
BRANCH  17  19
ATOM     19  C   ALA A   1      -9.534  14.344  67.724  1.00  0.00    -0.211 C  
HETATM   20  C   UNK A   2     -11.892  15.276  70.484  1.00  0.00    -0.324 C  
ATOM     21  O   ALA A   1      -9.216  14.911  66.677  1.00  0.00    -0.245 OA 
HETATM   22  C   UNK A   2     -11.753  16.585  69.705  1.00  0.00     0.268 C  
HETATM   23  N   UNK A   2     -10.335  15.004  68.656  1.00  0.00    -0.230 N  
HETATM   24  S   UNK A   2     -11.218  15.436  72.187  1.00  0.00    -0.011 SA 
HETATM   25  C   UNK A   2     -12.737  15.051  73.093  1.00  0.00    -0.486 C  
HETATM   26  C   UNK A   2     -11.094  16.232  68.352  1.00  0.00    -0.362 C  
HETATM   27  C   UNK A   2     -11.048  14.263  69.699  1.00  0.00    -0.175 C  
HETATM   28  C   UNK A   2     -10.441  17.532  67.823  1.00  0.00    -0.381 C  
HETATM   29  C   UNK A   2     -13.572  14.095  72.268  1.00  0.00    -0.500 C  
HETATM   30  S   UNK A   2     -13.640  14.747  70.582  1.00  0.00     0.170 SA 
HETATM   31  O   UNK A   2      -9.317  17.387  67.099  1.00  0.00    -0.237 OA 
HETATM   32  O   UNK A   2     -10.960  18.636  67.955  1.00  0.00    -0.284 OA 
ENDBRANCH  17  19
ENDBRANCH  15  17
ENDBRANCH   6  15
ENDBRANCH   4   6
ENDBRANCH   3   4
ENDBRANCH   2   3
TORSDOF 9
ENDMDL
MODEL       59
REMARK 921   NORMALIZED FREE ENERGY PREDICTED BY IDOCK:   -5.61 KCAL/MOL
REMARK 922        TOTAL FREE ENERGY PREDICTED BY IDOCK:   -9.91 KCAL/MOL
REMARK 923 INTER-LIGAND FREE ENERGY PREDICTED BY IDOCK:   -8.94 KCAL/MOL
REMARK 924 INTRA-LIGAND FREE ENERGY PREDICTED BY IDOCK:   -0.96 KCAL/MOL
REMARK 927      BINDING AFFINITY PREDICTED BY RF-SCORE:    0.00 PKD
ROOT
HETATM    1  C   UNK A   0      -8.038   7.146  68.697  1.00  0.00    -0.124 C  
HETATM    2  C   UNK A   0      -7.857   7.998  69.940  1.00  0.00    -0.102 C  
ENDROOT
BRANCH   2   3
HETATM    3  O   UNK A   0      -8.899   8.983  70.030  1.00  0.00    -0.148 OA 
BRANCH   3   4
HETATM    4  C   UNK A   0      -9.571   9.041  71.217  1.00  0.00    -0.291 C  
HETATM    5  O   UNK A   0      -9.059   8.938  72.326  1.00  0.00    -0.381 OA 
BRANCH   4   6
HETATM    6  C   UNK A   0     -11.074   9.271  70.973  1.00  0.00    -0.326 C  
BRANCH   6   7
HETATM    7  C   UNK A   0     -11.760   7.931  70.651  1.00  0.00    -0.169 C  
BRANCH   7   8
HETATM    8  C   UNK A   0     -12.178   7.100  71.868  1.00  0.00    -0.358 C  
BRANCH   8   9
HETATM    9  C   UNK A   0     -11.288   5.879  71.954  1.00  0.00    -0.307 A  
HETATM   10  C   UNK A   0     -11.345   5.026  73.066  1.00  0.00    -0.374 A  
HETATM   11  C   UNK A   0     -10.595   3.848  73.095  1.00  0.00    -0.267 A  
HETATM   12  C   UNK A   0      -9.783   3.510  72.013  1.00  0.00    -0.232 A  
HETATM   13  C   UNK A   0     -10.467   5.528  70.872  1.00  0.00    -0.319 A  
HETATM   14  C   UNK A   0      -9.718   4.351  70.904  1.00  0.00    -0.267 A  
ENDBRANCH   8   9
ENDBRANCH   7   8
ENDBRANCH   6   7
BRANCH   6  15
ATOM     15  N   ALA A   1     -11.217  10.263  69.864  1.00  0.00    -0.279 NA 
ATOM     16  H   ALA A   1     -11.301   9.786  68.966  1.00  0.00     0.000 HD 
BRANCH  15  17
ATOM     17  CA  ALA A   1     -12.332  11.214  70.052  1.00  0.00    -0.279 C  
ATOM     18  CB  ALA A   1     -13.009  11.018  71.407  1.00  0.00    -0.517 C  
BRANCH  17  19
ATOM     19  C   ALA A   1     -11.890  12.698  69.839  1.00  0.00    -0.294 C  
HETATM   20  C   UNK A   2     -11.236  12.935  66.157  1.00  0.00    -0.292 C  
ATOM     21  O   ALA A   1     -11.729  13.496  70.765  1.00  0.00    -0.147 OA 
HETATM   22  C   UNK A   2     -11.124  14.392  66.612  1.00  0.00    -0.326 C  
HETATM   23  N   UNK A   2     -11.701  13.114  68.521  1.00  0.00    -0.331 N  
HETATM   24  S   UNK A   2     -12.651  12.702  65.006  1.00  0.00    -0.272 SA 
HETATM   25  C   UNK A   2     -11.715  12.100  63.578  1.00  0.00    -0.490 C  
HETATM   26  C   UNK A   2     -11.020  14.370  68.155  1.00  0.00    -0.254 C  
HETATM   27  C   UNK A   2     -11.497  12.142  67.444  1.00  0.00    -0.345 C  
HETATM   28  C   UNK A   2     -11.475  15.764  68.650  1.00  0.00    -0.386 C  
HETATM   29  C   UNK A   2     -10.494  11.354  64.073  1.00  0.00    -0.378 C  
HETATM   30  S   UNK A   2      -9.701  12.379  65.334  1.00  0.00    -0.038 SA 
HETATM   31  O   UNK A   2     -12.098  15.804  69.841  1.00  0.00    -0.352 OA 
HETATM   32  O   UNK A   2     -11.199  16.802  68.056  1.00  0.00    -0.295 OA 
ENDBRANCH  17  19
ENDBRANCH  15  17
ENDBRANCH   6  15
ENDBRANCH   4   6
ENDBRANCH   3   4
ENDBRANCH   2   3
TORSDOF 9
ENDMDL
MODEL       60
REMARK 921   NORMALIZED FREE ENERGY PREDICTED BY IDOCK:   -5.55 KCAL/MOL
REMARK 922        TOTAL FREE ENERGY PREDICTED BY IDOCK:   -9.82 KCAL/MOL
REMARK 923 INTER-LIGAND FREE ENERGY PREDICTED BY IDOCK:   -8.19 KCAL/MOL
REMARK 924 INTRA-LIGAND FREE ENERGY PREDICTED BY IDOCK:   -1.63 KCAL/MOL
REMARK 927      BINDING AFFINITY PREDICTED BY RF-SCORE:    0.00 PKD
ROOT
HETATM    1  C   UNK A   0     -11.474  14.518  64.661  1.00  0.00    -0.389 C  
HETATM    2  C   UNK A   0     -11.825  13.046  64.546  1.00  0.00    -0.377 C  
ENDROOT
BRANCH   2   3
HETATM    3  O   UNK A   0     -12.443  12.580  65.756  1.00  0.00    -0.626 OA 
BRANCH   3   4
HETATM    4  C   UNK A   0     -11.618  11.974  66.658  1.00  0.00    -0.319 C  
HETATM    5  O   UNK A   0     -10.707  11.204  66.379  1.00  0.00    -0.261 OA 
BRANCH   4   6
HETATM    6  C   UNK A   0     -11.982  12.404  68.092  1.00  0.00    -0.214 C  
BRANCH   6   7
HETATM    7  C   UNK A   0     -10.811  13.187  68.713  1.00  0.00    -0.278 C  
BRANCH   7   8
HETATM    8  C   UNK A   0     -11.099  14.660  69.020  1.00  0.00    -0.273 C  
BRANCH   8   9
HETATM    9  C   UNK A   0     -10.346  15.521  68.028  1.00  0.00    -0.247 A  
HETATM   10  C   UNK A   0     -10.677  16.873  67.855  1.00  0.00    -0.344 A  
HETATM   11  C   UNK A   0      -9.915  17.687  67.013  1.00  0.00    -0.320 A  
HETATM   12  C   UNK A   0      -8.815  17.158  66.339  1.00  0.00    -0.288 A  
HETATM   13  C   UNK A   0      -9.238  15.001  67.344  1.00  0.00    -0.200 A  
HETATM   14  C   UNK A   0      -8.479  15.817  66.503  1.00  0.00    -0.335 A  
ENDBRANCH   8   9
ENDBRANCH   7   8
ENDBRANCH   6   7
BRANCH   6  15
ATOM     15  N   ALA A   1     -12.320  11.175  68.872  1.00  0.00    -0.628 NA 
ATOM     16  H   ALA A   1     -11.988  10.341  68.389  1.00  0.00     0.000 HD 
BRANCH  15  17
ATOM     17  CA  ALA A   1     -11.830  11.196  70.266  1.00  0.00    -0.366 C  
ATOM     18  CB  ALA A   1     -12.864  11.806  71.210  1.00  0.00    -0.409 C  
BRANCH  17  19
ATOM     19  C   ALA A   1     -11.364   9.787  70.755  1.00  0.00    -0.342 C  
HETATM   20  C   UNK A   2      -7.869   9.475  69.440  1.00  0.00    -0.097 C  
ATOM     21  O   ALA A   1     -12.102   8.998  71.347  1.00  0.00    -0.297 OA 
HETATM   22  C   UNK A   2      -8.001   8.243  70.337  1.00  0.00    -0.098 C  
HETATM   23  N   UNK A   2     -10.033   9.448  70.515  1.00  0.00    -0.249 N  
HETATM   24  S   UNK A   2      -6.592  10.634  70.078  1.00  0.00    -0.147 SA 
HETATM   25  C   UNK A   2      -5.499  10.621  68.637  1.00  0.00    -0.040 C  
HETATM   26  C   UNK A   2      -9.506   8.077  70.647  1.00  0.00    -0.162 C  
HETATM   27  C   UNK A   2      -9.244  10.154  69.502  1.00  0.00    -0.204 C  
HETATM   28  C   UNK A   2      -9.602   7.246  71.950  1.00  0.00    -0.148 C  
HETATM   29  C   UNK A   2      -6.330  10.391  67.392  1.00  0.00    -0.058 C  
HETATM   30  S   UNK A   2      -7.440   9.003  67.726  1.00  0.00    -0.085 SA 
HETATM   31  O   UNK A   2     -10.642   7.516  72.758  1.00  0.00    -0.252 OA 
HETATM   32  O   UNK A   2      -8.842   6.316  72.201  1.00  0.00    -0.137 OA 
ENDBRANCH  17  19
ENDBRANCH  15  17
ENDBRANCH   6  15
ENDBRANCH   4   6
ENDBRANCH   3   4
ENDBRANCH   2   3
TORSDOF 9
ENDMDL
MODEL       61
REMARK 921   NORMALIZED FREE ENERGY PREDICTED BY IDOCK:   -5.54 KCAL/MOL
REMARK 922        TOTAL FREE ENERGY PREDICTED BY IDOCK:   -9.80 KCAL/MOL
REMARK 923 INTER-LIGAND FREE ENERGY PREDICTED BY IDOCK:   -8.84 KCAL/MOL
REMARK 924 INTRA-LIGAND FREE ENERGY PREDICTED BY IDOCK:   -0.96 KCAL/MOL
REMARK 927      BINDING AFFINITY PREDICTED BY RF-SCORE:    0.00 PKD
ROOT
HETATM    1  C   UNK A   0     -12.055  13.046  63.519  1.00  0.00    -0.617 C  
HETATM    2  C   UNK A   0     -12.557  13.281  64.931  1.00  0.00    -0.384 C  
ENDROOT
BRANCH   2   3
HETATM    3  O   UNK A   0     -12.243  14.616  65.360  1.00  0.00    -0.318 OA 
BRANCH   3   4
HETATM    4  C   UNK A   0     -11.058  14.773  66.019  1.00  0.00    -0.330 C  
HETATM    5  O   UNK A   0     -10.012  15.159  65.512  1.00  0.00    -0.335 OA 
BRANCH   4   6
HETATM    6  C   UNK A   0     -11.219  14.410  67.507  1.00  0.00    -0.315 C  
BRANCH   6   7
HETATM    7  C   UNK A   0     -11.360  15.694  68.345  1.00  0.00    -0.365 C  
BRANCH   7   8
HETATM    8  C   UNK A   0     -10.049  16.262  68.897  1.00  0.00    -0.251 C  
BRANCH   8   9
HETATM    9  C   UNK A   0      -9.795  17.611  68.258  1.00  0.00    -0.324 A  
HETATM   10  C   UNK A   0      -8.552  18.245  68.391  1.00  0.00    -0.315 A  
HETATM   11  C   UNK A   0      -8.290  19.441  67.718  1.00  0.00    -0.340 A  
HETATM   12  C   UNK A   0      -9.267  20.012  66.904  1.00  0.00    -0.497 A  
HETATM   13  C   UNK A   0     -10.770  18.195  67.437  1.00  0.00    -0.355 A  
HETATM   14  C   UNK A   0     -10.506  19.391  66.766  1.00  0.00    -0.569 A  
ENDBRANCH   8   9
ENDBRANCH   7   8
ENDBRANCH   6   7
BRANCH   6  15
ATOM     15  N   ALA A   1     -10.036  13.593  67.915  1.00  0.00    -0.238 NA 
ATOM     16  H   ALA A   1      -9.413  14.137  68.512  1.00  0.00     0.000 HD 
BRANCH  15  17
ATOM     17  CA  ALA A   1     -10.386  12.311  68.561  1.00  0.00    -0.223 C  
ATOM     18  CB  ALA A   1     -11.896  12.176  68.747  1.00  0.00    -0.356 C  
BRANCH  17  19
ATOM     19  C   ALA A   1      -9.786  11.081  67.809  1.00  0.00    -0.170 C  
HETATM   20  C   UNK A   2     -10.089   8.271  70.270  1.00  0.00    -0.192 C  
ATOM     21  O   ALA A   1      -9.264  11.157  66.695  1.00  0.00    -0.167 OA 
HETATM   22  C   UNK A   2      -9.632   7.555  68.998  1.00  0.00    -0.153 C  
HETATM   23  N   UNK A   2      -9.885   9.845  68.448  1.00  0.00    -0.148 N  
HETATM   24  S   UNK A   2     -11.774   7.732  70.772  1.00  0.00    -0.171 SA 
HETATM   25  C   UNK A   2     -11.351   7.082  72.407  1.00  0.00    -0.269 C  
HETATM   26  C   UNK A   2      -9.133   8.648  68.025  1.00  0.00    -0.140 C  
HETATM   27  C   UNK A   2     -10.126   9.757  69.891  1.00  0.00    -0.251 C  
HETATM   28  C   UNK A   2      -9.215   8.047  66.601  1.00  0.00    -0.180 C  
HETATM   29  C   UNK A   2     -10.178   7.864  72.958  1.00  0.00    -0.327 C  
HETATM   30  S   UNK A   2      -8.930   7.969  71.652  1.00  0.00    -0.163 SA 
HETATM   31  O   UNK A   2      -9.491   8.904  65.602  1.00  0.00    -0.229 OA 
HETATM   32  O   UNK A   2      -8.943   6.874  66.359  1.00  0.00    -0.145 OA 
ENDBRANCH  17  19
ENDBRANCH  15  17
ENDBRANCH   6  15
ENDBRANCH   4   6
ENDBRANCH   3   4
ENDBRANCH   2   3
TORSDOF 9
ENDMDL
MODEL       62
REMARK 921   NORMALIZED FREE ENERGY PREDICTED BY IDOCK:   -5.54 KCAL/MOL
REMARK 922        TOTAL FREE ENERGY PREDICTED BY IDOCK:   -9.80 KCAL/MOL
REMARK 923 INTER-LIGAND FREE ENERGY PREDICTED BY IDOCK:   -8.41 KCAL/MOL
REMARK 924 INTRA-LIGAND FREE ENERGY PREDICTED BY IDOCK:   -1.39 KCAL/MOL
REMARK 927      BINDING AFFINITY PREDICTED BY RF-SCORE:    0.00 PKD
ROOT
HETATM    1  C   UNK A   0     -10.829   9.830  69.710  1.00  0.00    -0.285 C  
HETATM    2  C   UNK A   0     -10.966   9.975  68.205  1.00  0.00    -0.227 C  
ENDROOT
BRANCH   2   3
HETATM    3  O   UNK A   0     -12.036  10.877  67.882  1.00  0.00    -0.585 OA 
BRANCH   3   4
HETATM    4  C   UNK A   0     -11.696  11.975  67.145  1.00  0.00    -0.273 C  
HETATM    5  O   UNK A   0     -11.963  12.144  65.961  1.00  0.00    -0.578 OA 
BRANCH   4   6
HETATM    6  C   UNK A   0     -10.934  12.991  68.016  1.00  0.00    -0.250 C  
BRANCH   6   7
HETATM    7  C   UNK A   0     -11.822  13.439  69.191  1.00  0.00    -0.383 C  
BRANCH   7   8
HETATM    8  C   UNK A   0     -11.997  14.953  69.340  1.00  0.00    -0.336 C  
BRANCH   8   9
HETATM    9  C   UNK A   0     -12.449  15.255  70.753  1.00  0.00    -0.457 A  
HETATM   10  C   UNK A   0     -11.572  15.842  71.677  1.00  0.00    -0.537 A  
HETATM   11  C   UNK A   0     -12.023  16.209  72.948  1.00  0.00    -0.623 A  
HETATM   12  C   UNK A   0     -13.354  15.997  73.304  1.00  0.00    -0.625 A  
HETATM   13  C   UNK A   0     -13.785  15.046  71.125  1.00  0.00    -0.484 A  
HETATM   14  C   UNK A   0     -14.233  15.414  72.395  1.00  0.00    -0.584 A  
ENDBRANCH   8   9
ENDBRANCH   7   8
ENDBRANCH   6   7
BRANCH   6  15
ATOM     15  N   ALA A   1     -10.527  14.135  67.145  1.00  0.00    -0.269 NA 
ATOM     16  H   ALA A   1     -10.917  15.010  67.496  1.00  0.00     0.000 HD 
BRANCH  15  17
ATOM     17  CA  ALA A   1      -9.066  14.257  66.959  1.00  0.00    -0.233 C  
ATOM     18  CB  ALA A   1      -8.659  15.703  66.678  1.00  0.00    -0.330 C  
BRANCH  17  19
ATOM     19  C   ALA A   1      -8.261  13.655  68.155  1.00  0.00    -0.158 C  
HETATM   20  C   UNK A   2      -6.839  10.470  66.785  1.00  0.00    -0.103 C  
ATOM     21  O   ALA A   1      -8.251  14.151  69.283  1.00  0.00     0.076 OA 
HETATM   22  C   UNK A   2      -6.154  10.584  68.148  1.00  0.00    -0.043 C  
HETATM   23  N   UNK A   2      -7.507  12.511  67.891  1.00  0.00    -0.107 N  
HETATM   24  S   UNK A   2      -5.619  10.581  65.413  1.00  0.00    -0.136 SA 
HETATM   25  C   UNK A   2      -5.936   8.964  64.665  1.00  0.00    -0.065 C  
HETATM   26  C   UNK A   2      -6.927  11.659  68.946  1.00  0.00    -0.109 C  
HETATM   27  C   UNK A   2      -7.784  11.677  66.719  1.00  0.00    -0.116 C  
HETATM   28  C   UNK A   2      -5.959  12.186  70.034  1.00  0.00    -0.156 C  
HETATM   29  C   UNK A   2      -7.387   8.595  64.892  1.00  0.00    -0.090 C  
HETATM   30  S   UNK A   2      -7.760   8.898  66.636  1.00  0.00    -0.100 SA 
HETATM   31  O   UNK A   2      -6.093  13.478  70.383  1.00  0.00    -0.151 OA 
HETATM   32  O   UNK A   2      -5.175  11.456  70.634  1.00  0.00    -0.094 OA 
ENDBRANCH  17  19
ENDBRANCH  15  17
ENDBRANCH   6  15
ENDBRANCH   4   6
ENDBRANCH   3   4
ENDBRANCH   2   3
TORSDOF 9
ENDMDL
MODEL       63
REMARK 921   NORMALIZED FREE ENERGY PREDICTED BY IDOCK:   -5.52 KCAL/MOL
REMARK 922        TOTAL FREE ENERGY PREDICTED BY IDOCK:   -9.77 KCAL/MOL
REMARK 923 INTER-LIGAND FREE ENERGY PREDICTED BY IDOCK:   -8.83 KCAL/MOL
REMARK 924 INTRA-LIGAND FREE ENERGY PREDICTED BY IDOCK:   -0.94 KCAL/MOL
REMARK 927      BINDING AFFINITY PREDICTED BY RF-SCORE:    0.00 PKD
ROOT
HETATM    1  C   UNK A   0     -12.184  13.973  64.477  1.00  0.00    -0.463 C  
HETATM    2  C   UNK A   0     -12.099  12.465  64.618  1.00  0.00    -0.415 C  
ENDROOT
BRANCH   2   3
HETATM    3  O   UNK A   0     -12.179  12.084  66.001  1.00  0.00    -0.546 OA 
BRANCH   3   4
HETATM    4  C   UNK A   0     -10.998  12.049  66.685  1.00  0.00    -0.287 C  
HETATM    5  O   UNK A   0      -9.894  11.873  66.182  1.00  0.00    -0.220 OA 
BRANCH   4   6
HETATM    6  C   UNK A   0     -11.241  12.277  68.188  1.00  0.00    -0.269 C  
BRANCH   6   7
HETATM    7  C   UNK A   0     -11.830  13.681  68.414  1.00  0.00    -0.407 C  
BRANCH   7   8
HETATM    8  C   UNK A   0     -10.918  14.662  69.156  1.00  0.00    -0.277 C  
BRANCH   8   9
HETATM    9  C   UNK A   0     -10.493  15.754  68.196  1.00  0.00    -0.263 A  
HETATM   10  C   UNK A   0      -9.955  15.437  66.941  1.00  0.00    -0.247 A  
HETATM   11  C   UNK A   0      -9.658  16.446  66.021  1.00  0.00    -0.352 A  
HETATM   12  C   UNK A   0      -9.898  17.780  66.347  1.00  0.00    -0.328 A  
HETATM   13  C   UNK A   0     -10.730  17.100  68.513  1.00  0.00    -0.326 A  
HETATM   14  C   UNK A   0     -10.431  18.106  67.592  1.00  0.00    -0.432 A  
ENDBRANCH   8   9
ENDBRANCH   7   8
ENDBRANCH   6   7
BRANCH   6  15
ATOM     15  N   ALA A   1      -9.941  12.085  68.902  1.00  0.00    -0.414 NA 
ATOM     16  H   ALA A   1      -9.990  12.471  69.844  1.00  0.00     0.000 HD 
BRANCH  15  17
ATOM     17  CA  ALA A   1      -9.479  10.683  68.939  1.00  0.00    -0.192 C  
ATOM     18  CB  ALA A   1      -8.018  10.590  69.377  1.00  0.00    -0.146 C  
BRANCH  17  19
ATOM     19  C   ALA A   1     -10.401   9.774  69.814  1.00  0.00    -0.246 C  
HETATM   20  C   UNK A   2      -9.936   6.347  68.372  1.00  0.00    -0.141 C  
ATOM     21  O   ALA A   1     -11.149  10.212  70.690  1.00  0.00    -0.307 OA 
HETATM   22  C   UNK A   2     -10.768   6.073  69.626  1.00  0.00    -0.405 C  
HETATM   23  N   UNK A   2     -10.331   8.401  69.581  1.00  0.00    -0.214 N  
HETATM   24  S   UNK A   2      -8.273   5.571  68.490  1.00  0.00    -0.098 SA 
HETATM   25  C   UNK A   2      -8.396   4.494  67.041  1.00  0.00    -0.105 C  
HETATM   26  C   UNK A   2     -11.319   7.437  70.102  1.00  0.00    -0.177 C  
HETATM   27  C   UNK A   2      -9.780   7.873  68.331  1.00  0.00    -0.160 C  
HETATM   28  C   UNK A   2     -11.651   7.282  71.606  1.00  0.00    -0.274 C  
HETATM   29  C   UNK A   2      -9.291   5.155  66.014  1.00  0.00    -0.158 C  
HETATM   30  S   UNK A   2     -10.777   5.726  66.871  1.00  0.00    -0.259 SA 
HETATM   31  O   UNK A   2     -11.495   8.376  72.371  1.00  0.00    -0.367 OA 
HETATM   32  O   UNK A   2     -12.132   6.255  72.077  1.00  0.00    -0.337 OA 
ENDBRANCH  17  19
ENDBRANCH  15  17
ENDBRANCH   6  15
ENDBRANCH   4   6
ENDBRANCH   3   4
ENDBRANCH   2   3
TORSDOF 9
ENDMDL
MODEL       64
REMARK 921   NORMALIZED FREE ENERGY PREDICTED BY IDOCK:   -5.48 KCAL/MOL
REMARK 922        TOTAL FREE ENERGY PREDICTED BY IDOCK:   -9.72 KCAL/MOL
REMARK 923 INTER-LIGAND FREE ENERGY PREDICTED BY IDOCK:   -8.51 KCAL/MOL
REMARK 924 INTRA-LIGAND FREE ENERGY PREDICTED BY IDOCK:   -1.21 KCAL/MOL
REMARK 927      BINDING AFFINITY PREDICTED BY RF-SCORE:    0.00 PKD
ROOT
HETATM    1  C   UNK A   0     -13.348  14.564  72.401  1.00  0.00    -0.526 C  
HETATM    2  C   UNK A   0     -13.561  13.062  72.432  1.00  0.00    -0.529 C  
ENDROOT
BRANCH   2   3
HETATM    3  O   UNK A   0     -13.069  12.459  71.225  1.00  0.00    -0.274 OA 
BRANCH   3   4
HETATM    4  C   UNK A   0     -12.785  11.126  71.291  1.00  0.00    -0.426 C  
HETATM    5  O   UNK A   0     -13.277  10.336  72.088  1.00  0.00    -0.452 OA 
BRANCH   4   6
HETATM    6  C   UNK A   0     -11.762  10.740  70.207  1.00  0.00    -0.352 C  
BRANCH   6   7
HETATM    7  C   UNK A   0     -12.101  11.461  68.890  1.00  0.00    -0.285 C  
BRANCH   7   8
HETATM    8  C   UNK A   0     -11.128  11.208  67.735  1.00  0.00    -0.344 C  
BRANCH   8   9
HETATM    9  C   UNK A   0     -11.330  12.278  66.683  1.00  0.00    -0.398 A  
HETATM   10  C   UNK A   0     -11.404  11.943  65.324  1.00  0.00    -0.333 A  
HETATM   11  C   UNK A   0     -11.691  12.920  64.367  1.00  0.00    -0.427 A  
HETATM   12  C   UNK A   0     -11.908  14.240  64.761  1.00  0.00    -0.436 A  
HETATM   13  C   UNK A   0     -11.550  13.609  67.066  1.00  0.00    -0.389 A  
HETATM   14  C   UNK A   0     -11.836  14.584  66.108  1.00  0.00    -0.344 A  
ENDBRANCH   8   9
ENDBRANCH   7   8
ENDBRANCH   6   7
BRANCH   6  15
ATOM     15  N   ALA A   1     -11.780   9.252  70.060  1.00  0.00    -0.456 NA 
ATOM     16  H   ALA A   1     -12.204   8.985  69.172  1.00  0.00     0.000 HD 
BRANCH  15  17
ATOM     17  CA  ALA A   1     -10.455   8.618  70.215  1.00  0.00    -0.210 C  
ATOM     18  CB  ALA A   1     -10.043   8.539  71.684  1.00  0.00    -0.338 C  
BRANCH  17  19
ATOM     19  C   ALA A   1     -10.378   7.222  69.519  1.00  0.00    -0.225 C  
HETATM   20  C   UNK A   2      -7.948   7.734  66.712  1.00  0.00    -0.107 C  
ATOM     21  O   ALA A   1     -11.082   6.264  69.844  1.00  0.00    -0.329 OA 
HETATM   22  C   UNK A   2      -8.177   6.221  66.686  1.00  0.00    -0.111 C  
HETATM   23  N   UNK A   2      -9.437   7.079  68.499  1.00  0.00    -0.135 N  
HETATM   24  S   UNK A   2      -6.205   8.139  67.133  1.00  0.00    -0.057 SA 
HETATM   25  C   UNK A   2      -5.786   9.042  65.621  1.00  0.00    -0.050 C  
HETATM   26  C   UNK A   2      -9.423   5.944  67.558  1.00  0.00    -0.110 C  
HETATM   27  C   UNK A   2      -8.870   8.250  67.825  1.00  0.00    -0.137 C  
HETATM   28  C   UNK A   2      -9.332   4.464  68.005  1.00  0.00    -0.146 C  
HETATM   29  C   UNK A   2      -7.033   9.718  65.093  1.00  0.00    -0.117 C  
HETATM   30  S   UNK A   2      -8.364   8.494  65.101  1.00  0.00    -0.165 SA 
HETATM   31  O   UNK A   2      -9.842   4.170  69.214  1.00  0.00    -0.180 OA 
HETATM   32  O   UNK A   2      -8.917   3.573  67.269  1.00  0.00    -0.121 OA 
ENDBRANCH  17  19
ENDBRANCH  15  17
ENDBRANCH   6  15
ENDBRANCH   4   6
ENDBRANCH   3   4
ENDBRANCH   2   3
TORSDOF 9
ENDMDL
MODEL       65
REMARK 921   NORMALIZED FREE ENERGY PREDICTED BY IDOCK:   -5.47 KCAL/MOL
REMARK 922        TOTAL FREE ENERGY PREDICTED BY IDOCK:   -9.70 KCAL/MOL
REMARK 923 INTER-LIGAND FREE ENERGY PREDICTED BY IDOCK:   -7.86 KCAL/MOL
REMARK 924 INTRA-LIGAND FREE ENERGY PREDICTED BY IDOCK:   -1.84 KCAL/MOL
REMARK 927      BINDING AFFINITY PREDICTED BY RF-SCORE:    0.00 PKD
ROOT
HETATM    1  C   UNK A   0      -7.152   7.051  71.314  1.00  0.00    -0.073 C  
HETATM    2  C   UNK A   0      -6.895   8.407  71.944  1.00  0.00    -0.087 C  
ENDROOT
BRANCH   2   3
HETATM    3  O   UNK A   0      -7.808   9.386  71.422  1.00  0.00    -0.325 OA 
BRANCH   3   4
HETATM    4  C   UNK A   0      -7.477   9.936  70.217  1.00  0.00    -0.162 C  
HETATM    5  O   UNK A   0      -6.336  10.094  69.801  1.00  0.00    -0.049 OA 
BRANCH   4   6
HETATM    6  C   UNK A   0      -8.747  10.322  69.436  1.00  0.00    -0.156 C  
BRANCH   6   7
HETATM    7  C   UNK A   0      -9.991   9.784  70.165  1.00  0.00    -0.315 C  
BRANCH   7   8
HETATM    8  C   UNK A   0     -10.643   8.554  69.527  1.00  0.00    -0.215 C  
BRANCH   8   9
HETATM    9  C   UNK A   0     -10.717   7.450  70.560  1.00  0.00    -0.247 A  
HETATM   10  C   UNK A   0     -10.438   6.121  70.210  1.00  0.00    -0.288 A  
HETATM   11  C   UNK A   0     -10.410   5.122  71.187  1.00  0.00    -0.276 A  
HETATM   12  C   UNK A   0     -10.658   5.443  72.521  1.00  0.00    -0.277 A  
HETATM   13  C   UNK A   0     -10.966   7.760  71.905  1.00  0.00    -0.294 A  
HETATM   14  C   UNK A   0     -10.938   6.760  72.878  1.00  0.00    -0.297 A  
ENDBRANCH   8   9
ENDBRANCH   7   8
ENDBRANCH   6   7
BRANCH   6  15
ATOM     15  N   ALA A   1      -8.622   9.778  68.050  1.00  0.00    -0.122 NA 
ATOM     16  H   ALA A   1      -9.412   9.171  67.830  1.00  0.00     0.000 HD 
BRANCH  15  17
ATOM     17  CA  ALA A   1      -8.461  10.816  67.010  1.00  0.00    -0.128 C  
ATOM     18  CB  ALA A   1      -7.300  10.489  66.073  1.00  0.00    -0.137 C  
BRANCH  17  19
ATOM     19  C   ALA A   1      -9.783  11.077  66.220  1.00  0.00    -0.207 C  
HETATM   20  C   UNK A   2     -10.994  14.372  67.531  1.00  0.00    -0.293 C  
ATOM     21  O   ALA A   1     -10.276  10.262  65.437  1.00  0.00    -0.297 OA 
HETATM   22  C   UNK A   2     -11.950  14.102  66.367  1.00  0.00    -0.457 C  
HETATM   23  N   UNK A   2     -10.397  12.314  66.414  1.00  0.00    -0.222 N  
HETATM   24  S   UNK A   2      -9.965  15.863  67.220  1.00  0.00    -0.243 SA 
HETATM   25  C   UNK A   2     -10.496  16.836  68.652  1.00  0.00    -0.333 C  
HETATM   26  C   UNK A   2     -11.774  12.616  65.981  1.00  0.00    -0.417 C  
HETATM   27  C   UNK A   2     -10.088  13.135  67.588  1.00  0.00    -0.221 C  
HETATM   28  C   UNK A   2     -12.259  12.476  64.517  1.00  0.00    -0.453 C  
HETATM   29  C   UNK A   2     -10.849  15.892  69.782  1.00  0.00    -0.328 C  
HETATM   30  S   UNK A   2     -11.909  14.595  69.099  1.00  0.00    -0.304 SA 
HETATM   31  O   UNK A   2     -11.636  11.554  63.763  1.00  0.00    -0.383 OA 
HETATM   32  O   UNK A   2     -13.229  13.089  64.079  1.00  0.00    -0.254 OA 
ENDBRANCH  17  19
ENDBRANCH  15  17
ENDBRANCH   6  15
ENDBRANCH   4   6
ENDBRANCH   3   4
ENDBRANCH   2   3
TORSDOF 9
ENDMDL
MODEL       66
REMARK 921   NORMALIZED FREE ENERGY PREDICTED BY IDOCK:   -5.46 KCAL/MOL
REMARK 922        TOTAL FREE ENERGY PREDICTED BY IDOCK:   -9.67 KCAL/MOL
REMARK 923 INTER-LIGAND FREE ENERGY PREDICTED BY IDOCK:   -8.66 KCAL/MOL
REMARK 924 INTRA-LIGAND FREE ENERGY PREDICTED BY IDOCK:   -1.01 KCAL/MOL
REMARK 927      BINDING AFFINITY PREDICTED BY RF-SCORE:    0.00 PKD
ROOT
HETATM    1  C   UNK A   0      -7.018  12.657  68.895  1.00  0.00    -0.086 C  
HETATM    2  C   UNK A   0      -7.583  11.341  68.392  1.00  0.00    -0.120 C  
ENDROOT
BRANCH   2   3
HETATM    3  O   UNK A   0      -8.916  11.144  68.890  1.00  0.00    -0.156 OA 
BRANCH   3   4
HETATM    4  C   UNK A   0      -9.202   9.898  69.368  1.00  0.00    -0.214 C  
HETATM    5  O   UNK A   0      -8.576   8.877  69.104  1.00  0.00    -0.130 OA 
BRANCH   4   6
HETATM    6  C   UNK A   0     -10.421   9.949  70.307  1.00  0.00    -0.291 C  
BRANCH   6   7
HETATM    7  C   UNK A   0     -10.404   8.731  71.249  1.00  0.00    -0.331 C  
BRANCH   7   8
HETATM    8  C   UNK A   0     -11.538   7.724  71.036  1.00  0.00    -0.301 C  
BRANCH   8   9
HETATM    9  C   UNK A   0     -10.950   6.433  70.507  1.00  0.00    -0.364 A  
HETATM   10  C   UNK A   0     -10.704   6.266  69.136  1.00  0.00    -0.362 A  
HETATM   11  C   UNK A   0     -10.070   5.113  68.665  1.00  0.00    -0.220 A  
HETATM   12  C   UNK A   0      -9.675   4.119  69.559  1.00  0.00    -0.254 A  
HETATM   13  C   UNK A   0     -10.548   5.426  71.396  1.00  0.00    -0.282 A  
HETATM   14  C   UNK A   0      -9.915   4.275  70.922  1.00  0.00    -0.225 A  
ENDBRANCH   8   9
ENDBRANCH   7   8
ENDBRANCH   6   7
BRANCH   6  15
ATOM     15  N   ALA A   1     -11.654   9.997  69.464  1.00  0.00    -0.446 NA 
ATOM     16  H   ALA A   1     -12.111   9.085  69.444  1.00  0.00     0.000 HD 
BRANCH  15  17
ATOM     17  CA  ALA A   1     -12.612  11.049  69.862  1.00  0.00    -0.136 C  
ATOM     18  CB  ALA A   1     -13.161  10.799  71.266  1.00  0.00    -0.427 C  
BRANCH  17  19
ATOM     19  C   ALA A   1     -12.011  12.484  69.727  1.00  0.00    -0.289 C  
HETATM   20  C   UNK A   2     -11.152  12.773  66.090  1.00  0.00    -0.290 C  
ATOM     21  O   ALA A   1     -11.816  13.230  70.688  1.00  0.00    -0.240 OA 
HETATM   22  C   UNK A   2     -10.915  14.194  66.605  1.00  0.00    -0.303 C  
HETATM   23  N   UNK A   2     -11.715  12.921  68.436  1.00  0.00    -0.326 N  
HETATM   24  S   UNK A   2     -12.524  12.726  64.866  1.00  0.00    -0.457 SA 
HETATM   25  C   UNK A   2     -11.583  12.077  63.463  1.00  0.00    -0.461 C  
HETATM   26  C   UNK A   2     -10.892  14.111  68.148  1.00  0.00    -0.248 C  
HETATM   27  C   UNK A   2     -11.557  11.969  67.333  1.00  0.00    -0.318 C  
HETATM   28  C   UNK A   2     -11.226  15.529  68.675  1.00  0.00    -0.325 C  
HETATM   29  C   UNK A   2     -10.471  11.192  63.985  1.00  0.00    -0.383 C  
HETATM   30  S   UNK A   2      -9.642  12.087  65.320  1.00  0.00    -0.025 SA 
HETATM   31  O   UNK A   2     -11.901  15.594  69.836  1.00  0.00    -0.327 OA 
HETATM   32  O   UNK A   2     -10.816  16.551  68.133  1.00  0.00    -0.328 OA 
ENDBRANCH  17  19
ENDBRANCH  15  17
ENDBRANCH   6  15
ENDBRANCH   4   6
ENDBRANCH   3   4
ENDBRANCH   2   3
TORSDOF 9
ENDMDL
MODEL       67
REMARK 921   NORMALIZED FREE ENERGY PREDICTED BY IDOCK:   -5.45 KCAL/MOL
REMARK 922        TOTAL FREE ENERGY PREDICTED BY IDOCK:   -9.66 KCAL/MOL
REMARK 923 INTER-LIGAND FREE ENERGY PREDICTED BY IDOCK:   -8.54 KCAL/MOL
REMARK 924 INTRA-LIGAND FREE ENERGY PREDICTED BY IDOCK:   -1.12 KCAL/MOL
REMARK 927      BINDING AFFINITY PREDICTED BY RF-SCORE:    0.00 PKD
ROOT
HETATM    1  C   UNK A   0     -13.170  14.559  72.633  1.00  0.00    -0.571 C  
HETATM    2  C   UNK A   0     -13.350  13.140  72.125  1.00  0.00    -0.524 C  
ENDROOT
BRANCH   2   3
HETATM    3  O   UNK A   0     -12.606  12.942  70.913  1.00  0.00    -0.343 OA 
BRANCH   3   4
HETATM    4  C   UNK A   0     -12.231  11.658  70.640  1.00  0.00    -0.366 C  
HETATM    5  O   UNK A   0     -12.496  10.681  71.331  1.00  0.00    -0.368 OA 
BRANCH   4   6
HETATM    6  C   UNK A   0     -11.433  11.599  69.324  1.00  0.00    -0.300 C  
BRANCH   6   7
HETATM    7  C   UNK A   0     -11.906  12.718  68.378  1.00  0.00    -0.353 C  
BRANCH   7   8
HETATM    8  C   UNK A   0     -10.953  13.046  67.225  1.00  0.00    -0.288 C  
BRANCH   8   9
HETATM    9  C   UNK A   0     -10.665  14.532  67.239  1.00  0.00    -0.287 A  
HETATM   10  C   UNK A   0     -10.108  15.165  66.118  1.00  0.00    -0.314 A  
HETATM   11  C   UNK A   0      -9.937  16.552  66.100  1.00  0.00    -0.363 A  
HETATM   12  C   UNK A   0     -10.322  17.318  67.200  1.00  0.00    -0.321 A  
HETATM   13  C   UNK A   0     -11.047  15.313  68.339  1.00  0.00    -0.289 A  
HETATM   14  C   UNK A   0     -10.874  16.698  68.319  1.00  0.00    -0.356 A  
ENDBRANCH   8   9
ENDBRANCH   7   8
ENDBRANCH   6   7
BRANCH   6  15
ATOM     15  N   ALA A   1     -11.616  10.239  68.732  1.00  0.00    -0.512 NA 
ATOM     16  H   ALA A   1     -11.965  10.309  67.776  1.00  0.00     0.000 HD 
BRANCH  15  17
ATOM     17  CA  ALA A   1     -10.403   9.396  68.781  1.00  0.00    -0.209 C  
ATOM     18  CB  ALA A   1      -9.196  10.187  69.282  1.00  0.00    -0.220 C  
BRANCH  17  19
ATOM     19  C   ALA A   1     -10.620   8.089  69.609  1.00  0.00    -0.223 C  
HETATM   20  C   UNK A   2      -9.199   5.388  67.435  1.00  0.00    -0.111 C  
ATOM     21  O   ALA A   1     -11.226   8.060  70.681  1.00  0.00    -0.262 OA 
HETATM   22  C   UNK A   2      -9.495   4.647  68.740  1.00  0.00    -0.214 C  
HETATM   23  N   UNK A   2     -10.063   6.920  69.091  1.00  0.00    -0.169 N  
HETATM   24  S   UNK A   2      -7.396   5.418  67.077  1.00  0.00    -0.084 SA 
HETATM   25  C   UNK A   2      -7.442   4.554  65.487  1.00  0.00    -0.081 C  
HETATM   26  C   UNK A   2     -10.406   5.571  69.580  1.00  0.00    -0.289 C  
HETATM   27  C   UNK A   2      -9.689   6.821  67.678  1.00  0.00    -0.126 C  
HETATM   28  C   UNK A   2     -10.246   5.131  71.056  1.00  0.00    -0.225 C  
HETATM   29  C   UNK A   2      -8.760   4.854  64.804  1.00  0.00    -0.154 C  
HETATM   30  S   UNK A   2     -10.073   4.619  66.025  1.00  0.00    -0.272 SA 
HETATM   31  O   UNK A   2     -10.354   6.096  71.986  1.00  0.00    -0.193 OA 
HETATM   32  O   UNK A   2     -10.132   3.954  71.389  1.00  0.00    -0.157 OA 
ENDBRANCH  17  19
ENDBRANCH  15  17
ENDBRANCH   6  15
ENDBRANCH   4   6
ENDBRANCH   3   4
ENDBRANCH   2   3
TORSDOF 9
ENDMDL
MODEL       68
REMARK 921   NORMALIZED FREE ENERGY PREDICTED BY IDOCK:   -5.39 KCAL/MOL
REMARK 922        TOTAL FREE ENERGY PREDICTED BY IDOCK:   -9.57 KCAL/MOL
REMARK 923 INTER-LIGAND FREE ENERGY PREDICTED BY IDOCK:   -8.08 KCAL/MOL
REMARK 924 INTRA-LIGAND FREE ENERGY PREDICTED BY IDOCK:   -1.49 KCAL/MOL
REMARK 927      BINDING AFFINITY PREDICTED BY RF-SCORE:    0.00 PKD
ROOT
HETATM    1  C   UNK A   0      -6.587  10.798  66.836  1.00  0.00    -0.091 C  
HETATM    2  C   UNK A   0      -8.037  11.014  67.229  1.00  0.00    -0.126 C  
ENDROOT
BRANCH   2   3
HETATM    3  O   UNK A   0      -8.760  11.642  66.158  1.00  0.00    -0.174 OA 
BRANCH   3   4
HETATM    4  C   UNK A   0      -9.717  10.881  65.552  1.00  0.00    -0.233 C  
HETATM    5  O   UNK A   0     -10.065   9.762  65.912  1.00  0.00    -0.282 OA 
BRANCH   4   6
HETATM    6  C   UNK A   0     -10.319  11.631  64.350  1.00  0.00    -0.313 C  
BRANCH   6   7
HETATM    7  C   UNK A   0      -9.878  10.954  63.039  1.00  0.00    -0.358 C  
BRANCH   7   8
HETATM    8  C   UNK A   0      -8.460  11.293  62.572  1.00  0.00    -0.161 C  
BRANCH   8   9
HETATM    9  C   UNK A   0      -7.600  10.051  62.680  1.00  0.00    -0.136 A  
HETATM   10  C   UNK A   0      -8.185   8.784  62.810  1.00  0.00    -0.195 A  
HETATM   11  C   UNK A   0      -7.391   7.634  62.810  1.00  0.00    -0.095 A  
HETATM   12  C   UNK A   0      -6.007   7.741  62.677  1.00  0.00    -0.068 A  
HETATM   13  C   UNK A   0      -6.207  10.146  62.549  1.00  0.00    -0.124 A  
HETATM   14  C   UNK A   0      -5.416   8.996  62.549  1.00  0.00    -0.082 A  
ENDBRANCH   8   9
ENDBRANCH   7   8
ENDBRANCH   6   7
BRANCH   6  15
ATOM     15  N   ALA A   1      -9.879  13.058  64.427  1.00  0.00    -0.608 NA 
ATOM     16  H   ALA A   1      -9.433  13.343  63.554  1.00  0.00     0.000 HD 
BRANCH  15  17
ATOM     17  CA  ALA A   1     -10.957  13.999  64.790  1.00  0.00    -0.402 C  
ATOM     18  CB  ALA A   1     -12.285  13.599  64.149  1.00  0.00    -0.450 C  
BRANCH  17  19
ATOM     19  C   ALA A   1     -11.096  14.179  66.336  1.00  0.00    -0.320 C  
HETATM   20  C   UNK A   2      -9.504  17.503  67.014  1.00  0.00    -0.268 C  
ATOM     21  O   ALA A   1     -11.552  13.309  67.080  1.00  0.00    -0.319 OA 
HETATM   22  C   UNK A   2     -10.120  17.143  68.368  1.00  0.00    -0.314 C  
HETATM   23  N   UNK A   2     -10.696  15.406  66.864  1.00  0.00    -0.311 N  
HETATM   24  S   UNK A   2     -10.289  19.005  66.300  1.00  0.00    -0.469 SA 
HETATM   25  C   UNK A   2      -8.806  20.038  66.199  1.00  0.00    -0.258 C  
HETATM   26  C   UNK A   2     -10.490  15.644  68.305  1.00  0.00    -0.252 C  
HETATM   27  C   UNK A   2      -9.808  16.298  66.114  1.00  0.00    -0.334 C  
HETATM   28  C   UNK A   2     -11.585  15.411  69.374  1.00  0.00    -0.340 C  
HETATM   29  C   UNK A   2      -7.603  19.147  65.974  1.00  0.00    -0.260 C  
HETATM   30  S   UNK A   2      -7.703  17.784  67.160  1.00  0.00    -0.211 SA 
HETATM   31  O   UNK A   2     -12.503  14.468  69.098  1.00  0.00    -0.175 OA 
HETATM   32  O   UNK A   2     -11.575  15.970  70.467  1.00  0.00    -0.354 OA 
ENDBRANCH  17  19
ENDBRANCH  15  17
ENDBRANCH   6  15
ENDBRANCH   4   6
ENDBRANCH   3   4
ENDBRANCH   2   3
TORSDOF 9
ENDMDL
MODEL       69
REMARK 921   NORMALIZED FREE ENERGY PREDICTED BY IDOCK:   -5.37 KCAL/MOL
REMARK 922        TOTAL FREE ENERGY PREDICTED BY IDOCK:   -9.55 KCAL/MOL
REMARK 923 INTER-LIGAND FREE ENERGY PREDICTED BY IDOCK:   -8.91 KCAL/MOL
REMARK 924 INTRA-LIGAND FREE ENERGY PREDICTED BY IDOCK:   -0.64 KCAL/MOL
REMARK 927      BINDING AFFINITY PREDICTED BY RF-SCORE:    0.00 PKD
ROOT
HETATM    1  C   UNK A   0     -14.294   7.482  71.513  1.00  0.00    -0.603 C  
HETATM    2  C   UNK A   0     -13.829   8.642  72.374  1.00  0.00    -0.360 C  
ENDROOT
BRANCH   2   3
HETATM    3  O   UNK A   0     -12.585   9.166  71.881  1.00  0.00    -0.336 OA 
BRANCH   3   4
HETATM    4  C   UNK A   0     -12.602  10.468  71.471  1.00  0.00    -0.424 C  
HETATM    5  O   UNK A   0     -13.272  11.361  71.975  1.00  0.00    -0.503 OA 
BRANCH   4   6
HETATM    6  C   UNK A   0     -11.642  10.668  70.283  1.00  0.00    -0.336 C  
BRANCH   6   7
HETATM    7  C   UNK A   0     -12.276  11.624  69.256  1.00  0.00    -0.228 C  
BRANCH   7   8
HETATM    8  C   UNK A   0     -11.406  12.815  68.846  1.00  0.00    -0.344 C  
BRANCH   8   9
HETATM    9  C   UNK A   0     -11.532  13.018  67.350  1.00  0.00    -0.380 A  
HETATM   10  C   UNK A   0     -11.136  12.016  66.454  1.00  0.00    -0.365 A  
HETATM   11  C   UNK A   0     -11.347  12.168  65.081  1.00  0.00    -0.379 A  
HETATM   12  C   UNK A   0     -11.958  13.323  64.593  1.00  0.00    -0.440 A  
HETATM   13  C   UNK A   0     -12.145  14.175  66.847  1.00  0.00    -0.466 A  
HETATM   14  C   UNK A   0     -12.354  14.325  65.475  1.00  0.00    -0.417 A  
ENDBRANCH   8   9
ENDBRANCH   7   8
ENDBRANCH   6   7
BRANCH   6  15
ATOM     15  N   ALA A   1     -11.340   9.326  69.699  1.00  0.00    -0.437 NA 
ATOM     16  H   ALA A   1     -12.151   8.963  69.197  1.00  0.00     0.000 HD 
BRANCH  15  17
ATOM     17  CA  ALA A   1     -10.142   9.304  68.835  1.00  0.00    -0.195 C  
ATOM     18  CB  ALA A   1      -8.930   9.901  69.548  1.00  0.00    -0.224 C  
BRANCH  17  19
ATOM     19  C   ALA A   1      -9.836   7.877  68.277  1.00  0.00    -0.169 C  
HETATM   20  C   UNK A   2      -9.633   5.726  71.339  1.00  0.00    -0.158 C  
ATOM     21  O   ALA A   1      -9.627   7.646  67.085  1.00  0.00    -0.144 OA 
HETATM   22  C   UNK A   2      -9.573   4.701  70.205  1.00  0.00    -0.270 C  
HETATM   23  N   UNK A   2      -9.832   6.831  69.199  1.00  0.00    -0.156 N  
HETATM   24  S   UNK A   2     -11.151   5.512  72.354  1.00  0.00    -0.236 SA 
HETATM   25  C   UNK A   2     -10.346   5.188  73.943  1.00  0.00    -0.253 C  
HETATM   26  C   UNK A   2      -9.290   5.490  68.906  1.00  0.00    -0.125 C  
HETATM   27  C   UNK A   2      -9.685   7.088  70.634  1.00  0.00    -0.172 C  
HETATM   28  C   UNK A   2      -9.783   4.607  67.733  1.00  0.00    -0.155 C  
HETATM   29  C   UNK A   2      -9.025   5.928  73.983  1.00  0.00    -0.126 C  
HETATM   30  S   UNK A   2      -8.167   5.598  72.425  1.00  0.00    -0.110 SA 
HETATM   31  O   UNK A   2     -10.265   5.253  66.657  1.00  0.00    -0.199 OA 
HETATM   32  O   UNK A   2      -9.653   3.387  67.722  1.00  0.00    -0.200 OA 
ENDBRANCH  17  19
ENDBRANCH  15  17
ENDBRANCH   6  15
ENDBRANCH   4   6
ENDBRANCH   3   4
ENDBRANCH   2   3
TORSDOF 9
ENDMDL
MODEL       70
REMARK 921   NORMALIZED FREE ENERGY PREDICTED BY IDOCK:   -5.36 KCAL/MOL
REMARK 922        TOTAL FREE ENERGY PREDICTED BY IDOCK:   -9.53 KCAL/MOL
REMARK 923 INTER-LIGAND FREE ENERGY PREDICTED BY IDOCK:   -9.34 KCAL/MOL
REMARK 924 INTRA-LIGAND FREE ENERGY PREDICTED BY IDOCK:   -0.19 KCAL/MOL
REMARK 927      BINDING AFFINITY PREDICTED BY RF-SCORE:    0.00 PKD
ROOT
HETATM    1  C   UNK A   0      -9.269  11.079  62.703  1.00  0.00    -0.363 C  
HETATM    2  C   UNK A   0     -10.373  11.600  63.603  1.00  0.00    -0.419 C  
ENDROOT
BRANCH   2   3
HETATM    3  O   UNK A   0     -10.034  11.397  64.984  1.00  0.00    -0.242 OA 
BRANCH   3   4
HETATM    4  C   UNK A   0     -11.060  11.504  65.878  1.00  0.00    -0.214 C  
HETATM    5  O   UNK A   0     -12.071  12.178  65.718  1.00  0.00    -0.572 OA 
BRANCH   4   6
HETATM    6  C   UNK A   0     -10.780  10.642  67.123  1.00  0.00    -0.272 C  
BRANCH   6   7
HETATM    7  C   UNK A   0     -10.622   9.167  66.710  1.00  0.00    -0.207 C  
BRANCH   7   8
HETATM    8  C   UNK A   0      -9.265   8.537  67.040  1.00  0.00    -0.187 C  
BRANCH   8   9
HETATM    9  C   UNK A   0      -9.476   7.427  68.048  1.00  0.00    -0.146 A  
HETATM   10  C   UNK A   0      -8.396   6.897  68.768  1.00  0.00    -0.121 A  
HETATM   11  C   UNK A   0      -8.609   5.943  69.766  1.00  0.00    -0.129 A  
HETATM   12  C   UNK A   0      -9.903   5.513  70.056  1.00  0.00    -0.262 A  
HETATM   13  C   UNK A   0     -10.773   6.985  68.348  1.00  0.00    -0.224 A  
HETATM   14  C   UNK A   0     -10.983   6.031  69.345  1.00  0.00    -0.455 A  
ENDBRANCH   8   9
ENDBRANCH   7   8
ENDBRANCH   6   7
BRANCH   6  15
ATOM     15  N   ALA A   1     -11.903  10.843  68.088  1.00  0.00    -0.753 NA 
ATOM     16  H   ALA A   1     -12.689  10.237  67.855  1.00  0.00     0.000 HD 
BRANCH  15  17
ATOM     17  CA  ALA A   1     -11.516  10.669  69.503  1.00  0.00    -0.291 C  
ATOM     18  CB  ALA A   1     -10.004  10.502  69.650  1.00  0.00    -0.149 C  
BRANCH  17  19
ATOM     19  C   ALA A   1     -12.059  11.815  70.415  1.00  0.00    -0.352 C  
HETATM   20  C   UNK A   2     -10.664  14.938  68.885  1.00  0.00    -0.245 C  
ATOM     21  O   ALA A   1     -12.709  11.612  71.443  1.00  0.00    -0.388 OA 
HETATM   22  C   UNK A   2     -11.623  15.484  69.944  1.00  0.00    -0.348 C  
HETATM   23  N   UNK A   2     -11.799  13.122  70.004  1.00  0.00    -0.464 N  
HETATM   24  S   UNK A   2     -11.210  15.395  67.190  1.00  0.00    -0.196 SA 
HETATM   25  C   UNK A   2      -9.740  16.330  66.697  1.00  0.00    -0.250 C  
HETATM   26  C   UNK A   2     -11.982  14.300  70.872  1.00  0.00    -0.320 C  
HETATM   27  C   UNK A   2     -10.731  13.413  69.043  1.00  0.00    -0.127 C  
HETATM   28  C   UNK A   2     -13.326  14.660  71.551  1.00  0.00    -0.364 C  
HETATM   29  C   UNK A   2      -8.532  15.752  67.404  1.00  0.00    -0.171 C  
HETATM   30  S   UNK A   2      -8.963  15.557  69.150  1.00  0.00    -0.268 SA 
HETATM   31  O   UNK A   2     -14.149  13.635  71.834  1.00  0.00    -0.384 OA 
HETATM   32  O   UNK A   2     -13.601  15.800  71.916  1.00  0.00    -0.455 OA 
ENDBRANCH  17  19
ENDBRANCH  15  17
ENDBRANCH   6  15
ENDBRANCH   4   6
ENDBRANCH   3   4
ENDBRANCH   2   3
TORSDOF 9
ENDMDL
MODEL       71
REMARK 921   NORMALIZED FREE ENERGY PREDICTED BY IDOCK:   -5.36 KCAL/MOL
REMARK 922        TOTAL FREE ENERGY PREDICTED BY IDOCK:   -9.53 KCAL/MOL
REMARK 923 INTER-LIGAND FREE ENERGY PREDICTED BY IDOCK:   -8.54 KCAL/MOL
REMARK 924 INTRA-LIGAND FREE ENERGY PREDICTED BY IDOCK:   -0.99 KCAL/MOL
REMARK 927      BINDING AFFINITY PREDICTED BY RF-SCORE:    0.00 PKD
ROOT
HETATM    1  C   UNK A   0      -7.754  17.378  68.545  1.00  0.00    -0.267 C  
HETATM    2  C   UNK A   0      -7.626  15.876  68.715  1.00  0.00    -0.178 C  
ENDROOT
BRANCH   2   3
HETATM    3  O   UNK A   0      -7.765  15.212  67.449  1.00  0.00    -0.165 OA 
BRANCH   3   4
HETATM    4  C   UNK A   0      -8.774  14.298  67.356  1.00  0.00    -0.209 C  
HETATM    5  O   UNK A   0      -8.884  13.292  68.048  1.00  0.00    -0.175 OA 
BRANCH   4   6
HETATM    6  C   UNK A   0      -9.775  14.711  66.261  1.00  0.00    -0.307 C  
BRANCH   6   7
HETATM    7  C   UNK A   0     -11.168  14.920  66.881  1.00  0.00    -0.343 C  
BRANCH   7   8
HETATM    8  C   UNK A   0     -11.277  16.088  67.866  1.00  0.00    -0.276 C  
BRANCH   8   9
HETATM    9  C   UNK A   0     -11.540  15.536  69.251  1.00  0.00    -0.369 A  
HETATM   10  C   UNK A   0     -11.271  16.304  70.392  1.00  0.00    -0.336 A  
HETATM   11  C   UNK A   0     -11.608  15.828  71.662  1.00  0.00    -0.537 A  
HETATM   12  C   UNK A   0     -12.218  14.582  71.802  1.00  0.00    -0.385 A  
HETATM   13  C   UNK A   0     -12.153  14.284  69.404  1.00  0.00    -0.361 A  
HETATM   14  C   UNK A   0     -12.488  13.811  70.674  1.00  0.00    -0.429 A  
ENDBRANCH   8   9
ENDBRANCH   7   8
ENDBRANCH   6   7
BRANCH   6  15
ATOM     15  N   ALA A   1      -9.776  13.649  65.209  1.00  0.00    -0.556 NA 
ATOM     16  H   ALA A   1      -8.998  13.004  65.350  1.00  0.00     0.000 HD 
BRANCH  15  17
ATOM     17  CA  ALA A   1     -11.050  12.910  65.105  1.00  0.00    -0.292 C  
ATOM     18  CB  ALA A   1     -11.266  12.369  63.692  1.00  0.00    -0.544 C  
BRANCH  17  19
ATOM     19  C   ALA A   1     -11.174  11.781  66.178  1.00  0.00    -0.306 C  
HETATM   20  C   UNK A   2      -8.168   9.624  65.583  1.00  0.00    -0.120 C  
ATOM     21  O   ALA A   1     -12.142  11.667  66.932  1.00  0.00    -0.512 OA 
HETATM   22  C   UNK A   2      -8.748   9.043  66.874  1.00  0.00    -0.132 C  
HETATM   23  N   UNK A   2     -10.107  10.889  66.276  1.00  0.00    -0.226 N  
HETATM   24  S   UNK A   2      -6.504  10.354  65.866  1.00  0.00    -0.131 SA 
HETATM   25  C   UNK A   2      -5.575   9.313  64.714  1.00  0.00    -0.062 C  
HETATM   26  C   UNK A   2     -10.176   9.616  67.019  1.00  0.00    -0.244 C  
HETATM   27  C   UNK A   2      -9.145  10.737  65.181  1.00  0.00    -0.203 C  
HETATM   28  C   UNK A   2     -10.542   9.522  68.520  1.00  0.00    -0.212 C  
HETATM   29  C   UNK A   2      -6.483   8.919  63.568  1.00  0.00    -0.089 C  
HETATM   30  S   UNK A   2      -8.044   8.347  64.279  1.00  0.00    -0.128 SA 
HETATM   31  O   UNK A   2     -11.347  10.485  69.003  1.00  0.00    -0.249 OA 
HETATM   32  O   UNK A   2     -10.214   8.572  69.225  1.00  0.00    -0.198 OA 
ENDBRANCH  17  19
ENDBRANCH  15  17
ENDBRANCH   6  15
ENDBRANCH   4   6
ENDBRANCH   3   4
ENDBRANCH   2   3
TORSDOF 9
ENDMDL
MODEL       72
REMARK 921   NORMALIZED FREE ENERGY PREDICTED BY IDOCK:   -5.36 KCAL/MOL
REMARK 922        TOTAL FREE ENERGY PREDICTED BY IDOCK:   -9.52 KCAL/MOL
REMARK 923 INTER-LIGAND FREE ENERGY PREDICTED BY IDOCK:   -8.66 KCAL/MOL
REMARK 924 INTRA-LIGAND FREE ENERGY PREDICTED BY IDOCK:   -0.86 KCAL/MOL
REMARK 927      BINDING AFFINITY PREDICTED BY RF-SCORE:    0.00 PKD
ROOT
HETATM    1  C   UNK A   0     -12.485  12.886  65.217  1.00  0.00    -0.552 C  
HETATM    2  C   UNK A   0     -11.439  12.222  66.093  1.00  0.00    -0.374 C  
ENDROOT
BRANCH   2   3
HETATM    3  O   UNK A   0     -11.983  11.925  67.389  1.00  0.00    -0.603 OA 
BRANCH   3   4
HETATM    4  C   UNK A   0     -11.543  10.775  67.978  1.00  0.00    -0.163 C  
HETATM    5  O   UNK A   0     -11.009   9.840  67.392  1.00  0.00    -0.259 OA 
BRANCH   4   6
HETATM    6  C   UNK A   0     -11.797  10.817  69.496  1.00  0.00    -0.308 C  
BRANCH   6   7
HETATM    7  C   UNK A   0     -11.846  12.279  69.976  1.00  0.00    -0.372 C  
BRANCH   7   8
HETATM    8  C   UNK A   0     -12.885  12.577  71.061  1.00  0.00    -0.246 C  
BRANCH   8   9
HETATM    9  C   UNK A   0     -12.615  13.954  71.629  1.00  0.00    -0.387 A  
HETATM   10  C   UNK A   0     -12.982  14.272  72.944  1.00  0.00    -0.548 A  
HETATM   11  C   UNK A   0     -12.641  15.510  73.496  1.00  0.00    -0.672 A  
HETATM   12  C   UNK A   0     -11.928  16.439  72.739  1.00  0.00    -0.585 A  
HETATM   13  C   UNK A   0     -11.898  14.898  70.878  1.00  0.00    -0.375 A  
HETATM   14  C   UNK A   0     -11.560  16.134  71.432  1.00  0.00    -0.495 A  
ENDBRANCH   8   9
ENDBRANCH   7   8
ENDBRANCH   6   7
BRANCH   6  15
ATOM     15  N   ALA A   1     -10.716  10.034  70.169  1.00  0.00    -0.288 NA 
ATOM     16  H   ALA A   1     -10.020  10.660  70.573  1.00  0.00     0.000 HD 
BRANCH  15  17
ATOM     17  CA  ALA A   1     -11.209   9.081  71.184  1.00  0.00    -0.305 C  
ATOM     18  CB  ALA A   1     -12.735   9.082  71.254  1.00  0.00    -0.316 C  
BRANCH  17  19
ATOM     19  C   ALA A   1     -10.644   7.640  70.971  1.00  0.00    -0.217 C  
HETATM   20  C   UNK A   2      -7.276   7.730  72.612  1.00  0.00    -0.085 C  
ATOM     21  O   ALA A   1     -11.221   6.777  70.307  1.00  0.00    -0.287 OA 
HETATM   22  C   UNK A   2      -7.444   6.248  72.272  1.00  0.00    -0.094 C  
HETATM   23  N   UNK A   2      -9.435   7.341  71.599  1.00  0.00    -0.152 N  
HETATM   24  S   UNK A   2      -7.201   7.995  74.430  1.00  0.00    -0.182 SA 
HETATM   25  C   UNK A   2      -5.558   8.751  74.504  1.00  0.00    -0.117 C  
HETATM   26  C   UNK A   2      -8.626   6.149  71.281  1.00  0.00    -0.129 C  
HETATM   27  C   UNK A   2      -8.537   8.405  72.055  1.00  0.00    -0.191 C  
HETATM   28  C   UNK A   2      -9.165   4.701  71.375  1.00  0.00    -0.142 C  
HETATM   29  C   UNK A   2      -5.306   9.506  73.216  1.00  0.00    -0.011 C  
HETATM   30  S   UNK A   2      -5.763   8.417  71.847  1.00  0.00    -0.048 SA 
HETATM   31  O   UNK A   2     -10.486   4.537  71.180  1.00  0.00    -0.084 OA 
HETATM   32  O   UNK A   2      -8.431   3.727  71.516  1.00  0.00    -0.078 OA 
ENDBRANCH  17  19
ENDBRANCH  15  17
ENDBRANCH   6  15
ENDBRANCH   4   6
ENDBRANCH   3   4
ENDBRANCH   2   3
TORSDOF 9
ENDMDL
MODEL       73
REMARK 921   NORMALIZED FREE ENERGY PREDICTED BY IDOCK:   -5.36 KCAL/MOL
REMARK 922        TOTAL FREE ENERGY PREDICTED BY IDOCK:   -9.52 KCAL/MOL
REMARK 923 INTER-LIGAND FREE ENERGY PREDICTED BY IDOCK:   -7.70 KCAL/MOL
REMARK 924 INTRA-LIGAND FREE ENERGY PREDICTED BY IDOCK:   -1.82 KCAL/MOL
REMARK 927      BINDING AFFINITY PREDICTED BY RF-SCORE:    0.00 PKD
ROOT
HETATM    1  C   UNK A   0     -11.492  16.044  64.618  1.00  0.00    -0.252 C  
HETATM    2  C   UNK A   0     -12.126  14.690  64.358  1.00  0.00    -0.462 C  
ENDROOT
BRANCH   2   3
HETATM    3  O   UNK A   0     -11.122  13.719  64.026  1.00  0.00    -0.252 OA 
BRANCH   3   4
HETATM    4  C   UNK A   0     -11.481  12.409  64.163  1.00  0.00    -0.381 C  
HETATM    5  O   UNK A   0     -12.347  11.840  63.509  1.00  0.00    -0.509 OA 
BRANCH   4   6
HETATM    6  C   UNK A   0     -10.633  11.731  65.255  1.00  0.00    -0.278 C  
BRANCH   6   7
HETATM    7  C   UNK A   0     -10.158  10.352  64.764  1.00  0.00    -0.387 C  
BRANCH   7   8
HETATM    8  C   UNK A   0      -8.693  10.284  64.322  1.00  0.00    -0.217 C  
BRANCH   8   9
HETATM    9  C   UNK A   0      -7.844   9.882  65.509  1.00  0.00    -0.126 A  
HETATM   10  C   UNK A   0      -6.820  10.718  65.975  1.00  0.00    -0.107 A  
HETATM   11  C   UNK A   0      -6.105  10.389  67.130  1.00  0.00    -0.055 A  
HETATM   12  C   UNK A   0      -6.410   9.223  67.831  1.00  0.00    -0.058 A  
HETATM   13  C   UNK A   0      -8.140   8.711  66.222  1.00  0.00    -0.103 A  
HETATM   14  C   UNK A   0      -7.425   8.384  67.376  1.00  0.00    -0.093 A  
ENDBRANCH   8   9
ENDBRANCH   7   8
ENDBRANCH   6   7
BRANCH   6  15
ATOM     15  N   ALA A   1     -11.463  11.637  66.495  1.00  0.00    -0.447 NA 
ATOM     16  H   ALA A   1     -12.300  11.079  66.325  1.00  0.00     0.000 HD 
BRANCH  15  17
ATOM     17  CA  ALA A   1     -10.729  11.126  67.670  1.00  0.00    -0.230 C  
ATOM     18  CB  ALA A   1      -9.604  12.075  68.080  1.00  0.00    -0.200 C  
BRANCH  17  19
ATOM     19  C   ALA A   1     -11.676  10.804  68.870  1.00  0.00    -0.267 C  
HETATM   20  C   UNK A   2     -10.417   7.522  70.169  1.00  0.00    -0.222 C  
ATOM     21  O   ALA A   1     -12.651  11.496  69.169  1.00  0.00    -0.185 OA 
HETATM   22  C   UNK A   2     -11.452   7.924  71.222  1.00  0.00    -0.293 C  
HETATM   23  N   UNK A   2     -11.359   9.682  69.637  1.00  0.00    -0.415 N  
HETATM   24  S   UNK A   2      -8.724   7.461  70.884  1.00  0.00    -0.144 SA 
HETATM   25  C   UNK A   2      -8.373   5.718  70.547  1.00  0.00    -0.119 C  
HETATM   26  C   UNK A   2     -12.284   9.075  70.611  1.00  0.00     0.021 C  
HETATM   27  C   UNK A   2     -10.480   8.633  69.114  1.00  0.00    -0.211 C  
HETATM   28  C   UNK A   2     -12.907   9.851  71.797  1.00  0.00    -0.442 C  
HETATM   29  C   UNK A   2      -9.111   5.303  69.292  1.00  0.00    -0.108 C  
HETATM   30  S   UNK A   2     -10.815   5.892  69.441  1.00  0.00    -0.334 SA 
HETATM   31  O   UNK A   2     -13.081  11.173  71.624  1.00  0.00    -0.449 OA 
HETATM   32  O   UNK A   2     -13.323   9.295  72.809  1.00  0.00    -0.373 OA 
ENDBRANCH  17  19
ENDBRANCH  15  17
ENDBRANCH   6  15
ENDBRANCH   4   6
ENDBRANCH   3   4
ENDBRANCH   2   3
TORSDOF 9
ENDMDL
MODEL       74
REMARK 921   NORMALIZED FREE ENERGY PREDICTED BY IDOCK:   -5.35 KCAL/MOL
REMARK 922        TOTAL FREE ENERGY PREDICTED BY IDOCK:   -9.51 KCAL/MOL
REMARK 923 INTER-LIGAND FREE ENERGY PREDICTED BY IDOCK:   -8.20 KCAL/MOL
REMARK 924 INTRA-LIGAND FREE ENERGY PREDICTED BY IDOCK:   -1.31 KCAL/MOL
REMARK 927      BINDING AFFINITY PREDICTED BY RF-SCORE:    0.00 PKD
ROOT
HETATM    1  C   UNK A   0     -13.743   9.144  71.850  1.00  0.00    -0.485 C  
HETATM    2  C   UNK A   0     -13.320  10.549  71.462  1.00  0.00    -0.290 C  
ENDROOT
BRANCH   2   3
HETATM    3  O   UNK A   0     -11.944  10.565  71.050  1.00  0.00    -0.343 OA 
BRANCH   3   4
HETATM    4  C   UNK A   0     -11.718  10.651  69.707  1.00  0.00    -0.310 C  
HETATM    5  O   UNK A   0     -12.371  11.328  68.921  1.00  0.00    -0.485 OA 
BRANCH   4   6
HETATM    6  C   UNK A   0     -10.510   9.783  69.309  1.00  0.00    -0.219 C  
BRANCH   6   7
HETATM    7  C   UNK A   0     -10.422   8.557  70.235  1.00  0.00    -0.233 C  
BRANCH   7   8
HETATM    8  C   UNK A   0      -9.127   7.746  70.126  1.00  0.00    -0.153 C  
BRANCH   8   9
HETATM    9  C   UNK A   0      -8.371   7.858  71.434  1.00  0.00    -0.119 A  
HETATM   10  C   UNK A   0      -9.033   7.707  72.660  1.00  0.00    -0.205 A  
HETATM   11  C   UNK A   0      -8.315   7.711  73.859  1.00  0.00    -0.256 A  
HETATM   12  C   UNK A   0      -6.929   7.863  73.842  1.00  0.00    -0.139 A  
HETATM   13  C   UNK A   0      -6.977   8.011  71.430  1.00  0.00    -0.054 A  
HETATM   14  C   UNK A   0      -6.262   8.015  72.629  1.00  0.00    -0.066 A  
ENDBRANCH   8   9
ENDBRANCH   7   8
ENDBRANCH   6   7
BRANCH   6  15
ATOM     15  N   ALA A   1      -9.284  10.636  69.378  1.00  0.00    -0.395 NA 
ATOM     16  H   ALA A   1      -8.600  10.228  70.016  1.00  0.00     0.000 HD 
BRANCH  15  17
ATOM     17  CA  ALA A   1      -8.669  10.910  68.063  1.00  0.00    -0.132 C  
ATOM     18  CB  ALA A   1      -7.717   9.790  67.650  1.00  0.00    -0.094 C  
BRANCH  17  19
ATOM     19  C   ALA A   1      -9.734  11.199  66.957  1.00  0.00    -0.186 C  
HETATM   20  C   UNK A   2     -10.570  14.823  67.419  1.00  0.00    -0.268 C  
ATOM     21  O   ALA A   1     -10.197  10.327  66.219  1.00  0.00    -0.231 OA 
HETATM   22  C   UNK A   2     -11.302  14.472  66.122  1.00  0.00    -0.348 C  
HETATM   23  N   UNK A   2     -10.140  12.525  66.808  1.00  0.00    -0.221 N  
HETATM   24  S   UNK A   2      -9.246  16.065  67.126  1.00  0.00    -0.213 SA 
HETATM   25  C   UNK A   2      -9.872  17.360  68.225  1.00  0.00    -0.310 C  
HETATM   26  C   UNK A   2     -11.323  12.930  66.025  1.00  0.00    -0.317 C  
HETATM   27  C   UNK A   2      -9.932  13.504  67.877  1.00  0.00    -0.245 C  
HETATM   28  C   UNK A   2     -11.519  12.581  64.529  1.00  0.00    -0.337 C  
HETATM   29  C   UNK A   2     -10.611  16.712  69.376  1.00  0.00    -0.333 C  
HETATM   30  S   UNK A   2     -11.727  15.471  68.678  1.00  0.00    -0.298 SA 
HETATM   31  O   UNK A   2     -10.932  11.452  64.094  1.00  0.00    -0.357 OA 
HETATM   32  O   UNK A   2     -12.252  13.229  63.788  1.00  0.00    -0.561 OA 
ENDBRANCH  17  19
ENDBRANCH  15  17
ENDBRANCH   6  15
ENDBRANCH   4   6
ENDBRANCH   3   4
ENDBRANCH   2   3
TORSDOF 9
ENDMDL
MODEL       75
REMARK 921   NORMALIZED FREE ENERGY PREDICTED BY IDOCK:   -5.34 KCAL/MOL
REMARK 922        TOTAL FREE ENERGY PREDICTED BY IDOCK:   -9.49 KCAL/MOL
REMARK 923 INTER-LIGAND FREE ENERGY PREDICTED BY IDOCK:   -8.13 KCAL/MOL
REMARK 924 INTRA-LIGAND FREE ENERGY PREDICTED BY IDOCK:   -1.36 KCAL/MOL
REMARK 927      BINDING AFFINITY PREDICTED BY RF-SCORE:    0.00 PKD
ROOT
HETATM    1  C   UNK A   0     -11.884  14.782  64.207  1.00  0.00    -0.335 C  
HETATM    2  C   UNK A   0     -11.031  15.871  64.830  1.00  0.00    -0.375 C  
ENDROOT
BRANCH   2   3
HETATM    3  O   UNK A   0     -10.223  15.334  65.889  1.00  0.00    -0.287 OA 
BRANCH   3   4
HETATM    4  C   UNK A   0     -10.718  15.472  67.153  1.00  0.00    -0.315 C  
HETATM    5  O   UNK A   0     -10.983  16.537  67.697  1.00  0.00    -0.301 OA 
BRANCH   4   6
HETATM    6  C   UNK A   0     -10.914  14.091  67.807  1.00  0.00    -0.258 C  
BRANCH   6   7
HETATM    7  C   UNK A   0     -12.255  14.058  68.561  1.00  0.00    -0.210 C  
BRANCH   7   8
HETATM    8  C   UNK A   0     -12.241  13.294  69.888  1.00  0.00    -0.313 C  
BRANCH   8   9
HETATM    9  C   UNK A   0     -12.508  14.270  71.015  1.00  0.00    -0.432 A  
HETATM   10  C   UNK A   0     -11.458  14.984  71.610  1.00  0.00    -0.377 A  
HETATM   11  C   UNK A   0     -11.721  15.955  72.580  1.00  0.00    -0.564 A  
HETATM   12  C   UNK A   0     -13.035  16.223  72.961  1.00  0.00    -0.362 A  
HETATM   13  C   UNK A   0     -13.826  14.548  71.408  1.00  0.00    -0.441 A  
HETATM   14  C   UNK A   0     -14.085  15.518  72.378  1.00  0.00    -0.627 A  
ENDBRANCH   8   9
ENDBRANCH   7   8
ENDBRANCH   6   7
BRANCH   6  15
ATOM     15  N   ALA A   1      -9.749  13.835  68.708  1.00  0.00    -0.400 NA 
ATOM     16  H   ALA A   1     -10.069  13.538  69.630  1.00  0.00     0.000 HD 
BRANCH  15  17
ATOM     17  CA  ALA A   1      -8.769  12.874  68.164  1.00  0.00    -0.190 C  
ATOM     18  CB  ALA A   1      -7.412  13.012  68.852  1.00  0.00     0.014 C  
BRANCH  17  19
ATOM     19  C   ALA A   1      -9.291  11.402  68.210  1.00  0.00    -0.187 C  
HETATM   20  C   UNK A   2      -8.312   9.984  64.881  1.00  0.00    -0.157 C  
ATOM     21  O   ALA A   1      -9.953  10.947  69.144  1.00  0.00    -0.210 OA 
HETATM   22  C   UNK A   2      -8.827   8.754  65.632  1.00  0.00    -0.239 C  
HETATM   23  N   UNK A   2      -8.950  10.581  67.134  1.00  0.00    -0.140 N  
HETATM   24  S   UNK A   2      -6.522   9.831  64.494  1.00  0.00    -0.119 SA 
HETATM   25  C   UNK A   2      -6.646   9.938  62.691  1.00  0.00    -0.114 C  
HETATM   26  C   UNK A   2      -9.583   9.274  66.875  1.00  0.00    -0.174 C  
HETATM   27  C   UNK A   2      -8.520  11.152  65.855  1.00  0.00    -0.105 C  
HETATM   28  C   UNK A   2      -9.601   8.115  67.902  1.00  0.00    -0.155 C  
HETATM   29  C   UNK A   2      -7.835  10.805  62.333  1.00  0.00    -0.151 C  
HETATM   30  S   UNK A   2      -9.239  10.245  63.326  1.00  0.00    -0.314 SA 
HETATM   31  O   UNK A   2      -9.569   8.463  69.201  1.00  0.00    -0.161 OA 
HETATM   32  O   UNK A   2      -9.744   6.941  67.574  1.00  0.00    -0.128 OA 
ENDBRANCH  17  19
ENDBRANCH  15  17
ENDBRANCH   6  15
ENDBRANCH   4   6
ENDBRANCH   3   4
ENDBRANCH   2   3
TORSDOF 9
ENDMDL
MODEL       76
REMARK 921   NORMALIZED FREE ENERGY PREDICTED BY IDOCK:   -5.31 KCAL/MOL
REMARK 922        TOTAL FREE ENERGY PREDICTED BY IDOCK:   -9.45 KCAL/MOL
REMARK 923 INTER-LIGAND FREE ENERGY PREDICTED BY IDOCK:   -9.52 KCAL/MOL
REMARK 924 INTRA-LIGAND FREE ENERGY PREDICTED BY IDOCK:    0.07 KCAL/MOL
REMARK 927      BINDING AFFINITY PREDICTED BY RF-SCORE:    0.00 PKD
ROOT
HETATM    1  C   UNK A   0     -12.275  12.675  63.597  1.00  0.00    -0.624 C  
HETATM    2  C   UNK A   0     -12.349  13.150  65.036  1.00  0.00    -0.459 C  
ENDROOT
BRANCH   2   3
HETATM    3  O   UNK A   0     -12.181  14.575  65.105  1.00  0.00    -0.386 OA 
BRANCH   3   4
HETATM    4  C   UNK A   0     -11.070  15.019  65.761  1.00  0.00    -0.346 C  
HETATM    5  O   UNK A   0     -10.059  15.458  65.225  1.00  0.00    -0.349 OA 
BRANCH   4   6
HETATM    6  C   UNK A   0     -11.265  14.907  67.284  1.00  0.00    -0.345 C  
BRANCH   6   7
HETATM    7  C   UNK A   0     -11.652  16.281  67.862  1.00  0.00     0.059 C  
BRANCH   7   8
HETATM    8  C   UNK A   0     -10.700  16.835  68.926  1.00  0.00    -0.333 C  
BRANCH   8   9
HETATM    9  C   UNK A   0     -10.071  18.108  68.402  1.00  0.00    -0.401 A  
HETATM   10  C   UNK A   0      -8.771  18.474  68.780  1.00  0.00    -0.268 A  
HETATM   11  C   UNK A   0      -8.158  19.596  68.216  1.00  0.00    -0.357 A  
HETATM   12  C   UNK A   0      -8.838  20.360  67.268  1.00  0.00    -0.444 A  
HETATM   13  C   UNK A   0     -10.744  18.885  67.449  1.00  0.00    -0.519 A  
HETATM   14  C   UNK A   0     -10.130  20.006  66.887  1.00  0.00    -0.601 A  
ENDBRANCH   8   9
ENDBRANCH   7   8
ENDBRANCH   6   7
BRANCH   6  15
ATOM     15  N   ALA A   1      -9.999  14.379  67.877  1.00  0.00    -0.225 NA 
ATOM     16  H   ALA A   1      -9.795  14.844  68.761  1.00  0.00     0.000 HD 
BRANCH  15  17
ATOM     17  CA  ALA A   1      -9.983  12.911  68.047  1.00  0.00    -0.236 C  
ATOM     18  CB  ALA A   1      -8.596  12.412  68.449  1.00  0.00    -0.129 C  
BRANCH  17  19
ATOM     19  C   ALA A   1     -11.083  12.415  69.039  1.00  0.00    -0.235 C  
HETATM   20  C   UNK A   2     -10.226   8.814  69.624  1.00  0.00    -0.210 C  
ATOM     21  O   ALA A   1     -12.033  13.113  69.402  1.00  0.00    -0.307 OA 
HETATM   22  C   UNK A   2     -11.343   9.063  70.641  1.00  0.00    -0.311 C  
HETATM   23  N   UNK A   2     -10.940  11.121  69.540  1.00  0.00    -0.346 N  
HETATM   24  S   UNK A   2      -8.636   8.423  70.461  1.00  0.00    -0.142 SA 
HETATM   25  C   UNK A   2      -8.377   6.780  69.749  1.00  0.00    -0.132 C  
HETATM   26  C   UNK A   2     -12.014  10.399  70.248  1.00  0.00    -0.302 C  
HETATM   27  C   UNK A   2     -10.085  10.141  68.866  1.00  0.00    -0.200 C  
HETATM   28  C   UNK A   2     -12.710  10.938  71.522  1.00  0.00    -0.428 C  
HETATM   29  C   UNK A   2      -8.995   6.741  68.366  1.00  0.00    -0.124 C  
HETATM   30  S   UNK A   2     -10.656   7.445  68.491  1.00  0.00    -0.108 SA 
HETATM   31  O   UNK A   2     -12.765  12.275  71.656  1.00  0.00    -0.296 OA 
HETATM   32  O   UNK A   2     -13.280  10.206  72.326  1.00  0.00    -0.415 OA 
ENDBRANCH  17  19
ENDBRANCH  15  17
ENDBRANCH   6  15
ENDBRANCH   4   6
ENDBRANCH   3   4
ENDBRANCH   2   3
TORSDOF 9
ENDMDL
MODEL       77
REMARK 921   NORMALIZED FREE ENERGY PREDICTED BY IDOCK:   -5.31 KCAL/MOL
REMARK 922        TOTAL FREE ENERGY PREDICTED BY IDOCK:   -9.45 KCAL/MOL
REMARK 923 INTER-LIGAND FREE ENERGY PREDICTED BY IDOCK:   -9.09 KCAL/MOL
REMARK 924 INTRA-LIGAND FREE ENERGY PREDICTED BY IDOCK:   -0.36 KCAL/MOL
REMARK 927      BINDING AFFINITY PREDICTED BY RF-SCORE:    0.00 PKD
ROOT
HETATM    1  C   UNK A   0      -6.564   8.698  71.554  1.00  0.00    -0.075 C  
HETATM    2  C   UNK A   0      -6.867   9.574  70.353  1.00  0.00    -0.101 C  
ENDROOT
BRANCH   2   3
HETATM    3  O   UNK A   0      -8.285   9.678  70.151  1.00  0.00    -0.161 OA 
BRANCH   3   4
HETATM    4  C   UNK A   0      -8.816   8.876  69.183  1.00  0.00    -0.136 C  
HETATM    5  O   UNK A   0      -8.189   8.057  68.520  1.00  0.00    -0.123 OA 
BRANCH   4   6
HETATM    6  C   UNK A   0     -10.328   9.130  69.044  1.00  0.00    -0.215 C  
BRANCH   6   7
HETATM    7  C   UNK A   0     -10.690   9.319  67.560  1.00  0.00    -0.272 C  
BRANCH   7   8
HETATM    8  C   UNK A   0     -10.795  10.774  67.092  1.00  0.00    -0.335 C  
BRANCH   8   9
HETATM    9  C   UNK A   0     -10.350  10.855  65.647  1.00  0.00    -0.305 A  
HETATM   10  C   UNK A   0      -9.564   9.841  65.080  1.00  0.00    -0.356 A  
HETATM   11  C   UNK A   0      -9.241   9.871  63.721  1.00  0.00    -0.289 A  
HETATM   12  C   UNK A   0      -9.702  10.912  62.916  1.00  0.00    -0.349 A  
HETATM   13  C   UNK A   0     -10.808  11.897  64.827  1.00  0.00    -0.359 A  
HETATM   14  C   UNK A   0     -10.483  11.924  63.470  1.00  0.00    -0.505 A  
ENDBRANCH   8   9
ENDBRANCH   7   8
ENDBRANCH   6   7
BRANCH   6  15
ATOM     15  N   ALA A   1     -10.675  10.326  69.870  1.00  0.00    -0.280 NA 
ATOM     16  H   ALA A   1     -10.445  11.185  69.371  1.00  0.00     0.000 HD 
BRANCH  15  17
ATOM     17  CA  ALA A   1     -12.080  10.352  70.326  1.00  0.00    -0.286 C  
ATOM     18  CB  ALA A   1     -12.423   9.107  71.143  1.00  0.00    -0.315 C  
BRANCH  17  19
ATOM     19  C   ALA A   1     -12.430  11.663  71.101  1.00  0.00    -0.307 C  
HETATM   20  C   UNK A   2     -11.140  14.400  68.890  1.00  0.00    -0.259 C  
ATOM     21  O   ALA A   1     -12.929  11.671  72.228  1.00  0.00    -0.285 OA 
HETATM   22  C   UNK A   2     -11.906  15.171  69.966  1.00  0.00    -0.361 C  
HETATM   23  N   UNK A   2     -12.176  12.867  70.444  1.00  0.00    -0.367 N  
HETATM   24  S   UNK A   2     -11.911  14.618  67.235  1.00  0.00    -0.276 SA 
HETATM   25  C   UNK A   2     -10.491  15.360  66.393  1.00  0.00    -0.303 C  
HETATM   26  C   UNK A   2     -12.176  14.178  71.120  1.00  0.00    -0.358 C  
HETATM   27  C   UNK A   2     -11.251  12.928  69.309  1.00  0.00    -0.190 C  
HETATM   28  C   UNK A   2     -13.387  14.732  71.909  1.00  0.00    -0.359 C  
HETATM   29  C   UNK A   2      -9.218  14.821  67.012  1.00  0.00    -0.233 C  
HETATM   30  S   UNK A   2      -9.393  14.936  68.808  1.00  0.00    -0.201 SA 
HETATM   31  O   UNK A   2     -14.203  13.824  72.472  1.00  0.00    -0.706 OA 
HETATM   32  O   UNK A   2     -13.553  15.932  72.113  1.00  0.00    -0.418 OA 
ENDBRANCH  17  19
ENDBRANCH  15  17
ENDBRANCH   6  15
ENDBRANCH   4   6
ENDBRANCH   3   4
ENDBRANCH   2   3
TORSDOF 9
ENDMDL
MODEL       78
REMARK 921   NORMALIZED FREE ENERGY PREDICTED BY IDOCK:   -5.31 KCAL/MOL
REMARK 922        TOTAL FREE ENERGY PREDICTED BY IDOCK:   -9.45 KCAL/MOL
REMARK 923 INTER-LIGAND FREE ENERGY PREDICTED BY IDOCK:   -8.91 KCAL/MOL
REMARK 924 INTRA-LIGAND FREE ENERGY PREDICTED BY IDOCK:   -0.54 KCAL/MOL
REMARK 927      BINDING AFFINITY PREDICTED BY RF-SCORE:    0.00 PKD
ROOT
HETATM    1  C   UNK A   0     -12.038  12.665  63.668  1.00  0.00    -0.632 C  
HETATM    2  C   UNK A   0     -11.810  13.712  64.743  1.00  0.00    -0.387 C  
ENDROOT
BRANCH   2   3
HETATM    3  O   UNK A   0     -10.530  13.522  65.367  1.00  0.00    -0.294 OA 
BRANCH   3   4
HETATM    4  C   UNK A   0     -10.437  13.896  66.676  1.00  0.00    -0.272 C  
HETATM    5  O   UNK A   0     -10.361  15.051  67.079  1.00  0.00    -0.261 OA 
BRANCH   4   6
HETATM    6  C   UNK A   0     -10.456  12.657  67.591  1.00  0.00    -0.219 C  
BRANCH   6   7
HETATM    7  C   UNK A   0     -11.813  12.563  68.312  1.00  0.00    -0.361 C  
BRANCH   7   8
HETATM    8  C   UNK A   0     -11.740  12.199  69.798  1.00  0.00    -0.381 C  
BRANCH   8   9
HETATM    9  C   UNK A   0     -12.479  13.253  70.595  1.00  0.00    -0.373 A  
HETATM   10  C   UNK A   0     -13.156  12.917  71.775  1.00  0.00    -0.458 A  
HETATM   11  C   UNK A   0     -13.751  13.910  72.559  1.00  0.00    -0.665 A  
HETATM   12  C   UNK A   0     -13.672  15.246  72.170  1.00  0.00    -0.598 A  
HETATM   13  C   UNK A   0     -12.407  14.601  70.214  1.00  0.00    -0.406 A  
HETATM   14  C   UNK A   0     -13.003  15.591  70.998  1.00  0.00    -0.550 A  
ENDBRANCH   8   9
ENDBRANCH   7   8
ENDBRANCH   6   7
BRANCH   6  15
ATOM     15  N   ALA A   1      -9.312  12.769  68.546  1.00  0.00    -0.382 NA 
ATOM     16  H   ALA A   1      -9.526  12.288  69.420  1.00  0.00     0.000 HD 
BRANCH  15  17
ATOM     17  CA  ALA A   1      -8.024  12.298  67.998  1.00  0.00    -0.150 C  
ATOM     18  CB  ALA A   1      -6.925  12.321  69.059  1.00  0.00    -0.078 C  
BRANCH  17  19
ATOM     19  C   ALA A   1      -8.142  10.895  67.322  1.00  0.00    -0.123 C  
HETATM   20  C   UNK A   2      -9.220   8.630  70.106  1.00  0.00    -0.159 C  
ATOM     21  O   ALA A   1      -7.826  10.679  66.150  1.00  0.00    -0.142 OA 
HETATM   22  C   UNK A   2      -9.328   7.725  68.876  1.00  0.00    -0.146 C  
HETATM   23  N   UNK A   2      -8.657   9.862  68.105  1.00  0.00    -0.118 N  
HETATM   24  S   UNK A   2     -10.866   8.916  70.872  1.00  0.00    -0.270 SA 
HETATM   25  C   UNK A   2     -10.506   8.225  72.505  1.00  0.00    -0.336 C  
HETATM   26  C   UNK A   2      -8.573   8.438  67.731  1.00  0.00    -0.130 C  
HETATM   27  C   UNK A   2      -8.676   9.960  69.567  1.00  0.00    -0.190 C  
HETATM   28  C   UNK A   2      -9.135   7.868  66.406  1.00  0.00    -0.179 C  
HETATM   29  C   UNK A   2      -9.038   8.433  72.812  1.00  0.00    -0.229 C  
HETATM   30  S   UNK A   2      -8.096   7.913  71.358  1.00  0.00    -0.108 SA 
HETATM   31  O   UNK A   2      -9.173   8.710  65.358  1.00  0.00    -0.154 OA 
HETATM   32  O   UNK A   2      -9.436   6.686  66.267  1.00  0.00    -0.154 OA 
ENDBRANCH  17  19
ENDBRANCH  15  17
ENDBRANCH   6  15
ENDBRANCH   4   6
ENDBRANCH   3   4
ENDBRANCH   2   3
TORSDOF 9
ENDMDL
MODEL       79
REMARK 921   NORMALIZED FREE ENERGY PREDICTED BY IDOCK:   -5.29 KCAL/MOL
REMARK 922        TOTAL FREE ENERGY PREDICTED BY IDOCK:   -9.42 KCAL/MOL
REMARK 923 INTER-LIGAND FREE ENERGY PREDICTED BY IDOCK:   -8.53 KCAL/MOL
REMARK 924 INTRA-LIGAND FREE ENERGY PREDICTED BY IDOCK:   -0.89 KCAL/MOL
REMARK 927      BINDING AFFINITY PREDICTED BY RF-SCORE:    0.00 PKD
ROOT
HETATM    1  C   UNK A   0      -5.148   9.660  70.850  1.00  0.00    -0.041 C  
HETATM    2  C   UNK A   0      -6.351   8.984  70.218  1.00  0.00    -0.044 C  
ENDROOT
BRANCH   2   3
HETATM    3  O   UNK A   0      -6.711   9.642  68.993  1.00  0.00    -0.049 OA 
BRANCH   3   4
HETATM    4  C   UNK A   0      -7.412  10.806  69.119  1.00  0.00    -0.123 C  
HETATM    5  O   UNK A   0      -6.944  11.879  69.482  1.00  0.00    -0.060 OA 
BRANCH   4   6
HETATM    6  C   UNK A   0      -8.885  10.592  68.724  1.00  0.00    -0.158 C  
BRANCH   6   7
HETATM    7  C   UNK A   0      -9.598   9.760  69.805  1.00  0.00    -0.256 C  
BRANCH   7   8
HETATM    8  C   UNK A   0     -10.866  10.391  70.386  1.00  0.00    -0.257 C  
BRANCH   8   9
HETATM    9  C   UNK A   0     -11.776   9.288  70.885  1.00  0.00    -0.360 A  
HETATM   10  C   UNK A   0     -13.009   9.589  71.480  1.00  0.00    -0.471 A  
HETATM   11  C   UNK A   0     -13.888   8.566  71.846  1.00  0.00    -0.473 A  
HETATM   12  C   UNK A   0     -13.542   7.234  71.620  1.00  0.00    -0.435 A  
HETATM   13  C   UNK A   0     -11.440   7.944  70.662  1.00  0.00    -0.247 A  
HETATM   14  C   UNK A   0     -12.319   6.924  71.030  1.00  0.00    -0.401 A  
ENDBRANCH   8   9
ENDBRANCH   7   8
ENDBRANCH   6   7
BRANCH   6  15
ATOM     15  N   ALA A   1      -8.914   9.928  67.385  1.00  0.00    -0.135 NA 
ATOM     16  H   ALA A   1      -9.829   9.513  67.211  1.00  0.00     0.000 HD 
BRANCH  15  17
ATOM     17  CA  ALA A   1      -8.524  10.813  66.268  1.00  0.00    -0.161 C  
ATOM     18  CB  ALA A   1      -7.583  10.101  65.297  1.00  0.00    -0.144 C  
BRANCH  17  19
ATOM     19  C   ALA A   1      -9.759  11.422  65.531  1.00  0.00    -0.230 C  
HETATM   20  C   UNK A   2      -9.906  14.957  66.766  1.00  0.00    -0.246 C  
ATOM     21  O   ALA A   1     -10.507  10.763  64.806  1.00  0.00    -0.326 OA 
HETATM   22  C   UNK A   2     -10.963  14.944  65.660  1.00  0.00    -0.347 C  
HETATM   23  N   UNK A   2      -9.983  12.787  65.705  1.00  0.00    -0.338 N  
HETATM   24  S   UNK A   2      -8.515  16.083  66.348  1.00  0.00    -0.303 SA 
HETATM   25  C   UNK A   2      -8.665  17.202  67.762  1.00  0.00    -0.220 C  
HETATM   26  C   UNK A   2     -11.240  13.460  65.326  1.00  0.00    -0.289 C  
HETATM   27  C   UNK A   2      -9.388  13.514  66.829  1.00  0.00    -0.257 C  
HETATM   28  C   UNK A   2     -11.827  13.429  63.893  1.00  0.00    -0.439 C  
HETATM   29  C   UNK A   2      -9.207  16.427  68.945  1.00  0.00    -0.259 C  
HETATM   30  S   UNK A   2     -10.629  15.471  68.365  1.00  0.00    -0.261 SA 
HETATM   31  O   UNK A   2     -11.535  12.348  63.148  1.00  0.00    -0.389 OA 
HETATM   32  O   UNK A   2     -12.606  14.282  63.477  1.00  0.00    -0.814 OA 
ENDBRANCH  17  19
ENDBRANCH  15  17
ENDBRANCH   6  15
ENDBRANCH   4   6
ENDBRANCH   3   4
ENDBRANCH   2   3
TORSDOF 9
ENDMDL
MODEL       80
REMARK 921   NORMALIZED FREE ENERGY PREDICTED BY IDOCK:   -5.29 KCAL/MOL
REMARK 922        TOTAL FREE ENERGY PREDICTED BY IDOCK:   -9.42 KCAL/MOL
REMARK 923 INTER-LIGAND FREE ENERGY PREDICTED BY IDOCK:   -8.02 KCAL/MOL
REMARK 924 INTRA-LIGAND FREE ENERGY PREDICTED BY IDOCK:   -1.40 KCAL/MOL
REMARK 927      BINDING AFFINITY PREDICTED BY RF-SCORE:    0.00 PKD
ROOT
HETATM    1  C   UNK A   0     -13.690   9.196  71.624  1.00  0.00    -0.433 C  
HETATM    2  C   UNK A   0     -12.798  10.407  71.421  1.00  0.00    -0.452 C  
ENDROOT
BRANCH   2   3
HETATM    3  O   UNK A   0     -12.064  10.290  70.192  1.00  0.00    -0.254 OA 
BRANCH   3   4
HETATM    4  C   UNK A   0     -10.771   9.868  70.301  1.00  0.00    -0.310 C  
HETATM    5  O   UNK A   0     -10.268   9.380  71.307  1.00  0.00    -0.315 OA 
BRANCH   4   6
HETATM    6  C   UNK A   0     -10.023  10.075  68.971  1.00  0.00    -0.196 C  
BRANCH   6   7
HETATM    7  C   UNK A   0      -8.836  11.032  69.184  1.00  0.00    -0.003 C  
BRANCH   7   8
HETATM    8  C   UNK A   0      -7.477  10.355  69.382  1.00  0.00    -0.135 C  
BRANCH   8   9
HETATM    9  C   UNK A   0      -7.212   9.440  68.204  1.00  0.00    -0.078 A  
HETATM   10  C   UNK A   0      -6.372   9.845  67.157  1.00  0.00    -0.068 A  
HETATM   11  C   UNK A   0      -6.051   8.961  66.124  1.00  0.00    -0.056 A  
HETATM   12  C   UNK A   0      -6.565   7.665  66.129  1.00  0.00    -0.049 A  
HETATM   13  C   UNK A   0      -7.723   8.134  68.198  1.00  0.00    -0.110 A  
HETATM   14  C   UNK A   0      -7.401   7.253  67.164  1.00  0.00    -0.094 A  
ENDBRANCH   8   9
ENDBRANCH   7   8
ENDBRANCH   6   7
BRANCH   6  15
ATOM     15  N   ALA A   1     -11.000  10.597  67.967  1.00  0.00    -0.260 NA 
ATOM     16  H   ALA A   1     -11.582  11.326  68.379  1.00  0.00     0.000 HD 
BRANCH  15  17
ATOM     17  CA  ALA A   1     -10.376  11.076  66.716  1.00  0.00    -0.238 C  
ATOM     18  CB  ALA A   1     -10.029   9.914  65.787  1.00  0.00    -0.347 C  
BRANCH  17  19
ATOM     19  C   ALA A   1     -11.246  12.153  65.991  1.00  0.00    -0.336 C  
HETATM   20  C   UNK A   2      -9.793  15.415  67.127  1.00  0.00    -0.221 C  
ATOM     21  O   ALA A   1     -12.230  11.877  65.303  1.00  0.00    -0.357 OA 
HETATM   22  C   UNK A   2     -10.786  15.848  66.047  1.00  0.00    -0.289 C  
HETATM   23  N   UNK A   2     -10.845  13.481  66.131  1.00  0.00    -0.281 N  
HETATM   24  S   UNK A   2      -8.064  15.812  66.645  1.00  0.00    -0.190 SA 
HETATM   25  C   UNK A   2      -7.663  16.906  68.030  1.00  0.00    -0.177 C  
HETATM   26  C   UNK A   2     -11.694  14.630  65.762  1.00  0.00    -0.302 C  
HETATM   27  C   UNK A   2      -9.954  13.892  67.219  1.00  0.00    -0.242 C  
HETATM   28  C   UNK A   2     -12.284  14.837  64.345  1.00  0.00    -0.428 C  
HETATM   29  C   UNK A   2      -8.449  16.465  69.246  1.00  0.00    -0.092 C  
HETATM   30  S   UNK A   2     -10.164  16.218  68.728  1.00  0.00    -0.266 SA 
HETATM   31  O   UNK A   2     -12.518  13.726  63.625  1.00  0.00    -0.718 OA 
HETATM   32  O   UNK A   2     -12.624  15.938  63.923  1.00  0.00    -0.719 OA 
ENDBRANCH  17  19
ENDBRANCH  15  17
ENDBRANCH   6  15
ENDBRANCH   4   6
ENDBRANCH   3   4
ENDBRANCH   2   3
TORSDOF 9
ENDMDL
MODEL       81
REMARK 921   NORMALIZED FREE ENERGY PREDICTED BY IDOCK:   -5.29 KCAL/MOL
REMARK 922        TOTAL FREE ENERGY PREDICTED BY IDOCK:   -9.42 KCAL/MOL
REMARK 923 INTER-LIGAND FREE ENERGY PREDICTED BY IDOCK:   -8.66 KCAL/MOL
REMARK 924 INTRA-LIGAND FREE ENERGY PREDICTED BY IDOCK:   -0.76 KCAL/MOL
REMARK 927      BINDING AFFINITY PREDICTED BY RF-SCORE:    0.00 PKD
ROOT
HETATM    1  C   UNK A   0     -12.095  12.694  63.604  1.00  0.00    -0.632 C  
HETATM    2  C   UNK A   0     -12.526  12.775  65.056  1.00  0.00    -0.506 C  
ENDROOT
BRANCH   2   3
HETATM    3  O   UNK A   0     -12.472  14.133  65.522  1.00  0.00    -0.457 OA 
BRANCH   3   4
HETATM    4  C   UNK A   0     -11.290  14.533  66.074  1.00  0.00    -0.341 C  
HETATM    5  O   UNK A   0     -10.636  15.507  65.718  1.00  0.00    -0.318 OA 
BRANCH   4   6
HETATM    6  C   UNK A   0     -10.891  13.595  67.228  1.00  0.00    -0.284 C  
BRANCH   6   7
HETATM    7  C   UNK A   0     -10.708  14.408  68.522  1.00  0.00    -0.258 C  
BRANCH   7   8
HETATM    8  C   UNK A   0     -11.909  15.266  68.931  1.00  0.00    -0.344 C  
BRANCH   8   9
HETATM    9  C   UNK A   0     -12.478  14.723  70.225  1.00  0.00    -0.393 A  
HETATM   10  C   UNK A   0     -13.088  15.577  71.155  1.00  0.00    -0.573 A  
HETATM   11  C   UNK A   0     -13.698  15.059  72.300  1.00  0.00    -0.574 A  
HETATM   12  C   UNK A   0     -13.707  13.683  72.524  1.00  0.00    -0.663 A  
HETATM   13  C   UNK A   0     -12.492  13.341  70.463  1.00  0.00    -0.332 A  
HETATM   14  C   UNK A   0     -13.103  12.826  71.608  1.00  0.00    -0.428 A  
ENDBRANCH   8   9
ENDBRANCH   7   8
ENDBRANCH   6   7
BRANCH   6  15
ATOM     15  N   ALA A   1      -9.643  12.875  66.829  1.00  0.00    -0.240 NA 
ATOM     16  H   ALA A   1      -8.824  13.322  67.241  1.00  0.00     0.000 HD 
BRANCH  15  17
ATOM     17  CA  ALA A   1      -9.658  11.431  67.142  1.00  0.00    -0.179 C  
ATOM     18  CB  ALA A   1     -11.062  10.956  67.509  1.00  0.00    -0.375 C  
BRANCH  17  19
ATOM     19  C   ALA A   1      -9.038  10.567  65.997  1.00  0.00    -0.168 C  
HETATM   20  C   UNK A   2      -8.487   7.216  67.581  1.00  0.00    -0.120 C  
ATOM     21  O   ALA A   1      -8.745  11.021  64.890  1.00  0.00    -0.121 OA 
HETATM   22  C   UNK A   2      -8.174   6.946  66.108  1.00  0.00    -0.121 C  
HETATM   23  N   UNK A   2      -8.843   9.213  66.269  1.00  0.00    -0.141 N  
HETATM   24  S   UNK A   2      -9.958   6.264  68.137  1.00  0.00    -0.149 SA 
HETATM   25  C   UNK A   2      -9.156   5.307  69.448  1.00  0.00    -0.104 C  
HETATM   26  C   UNK A   2      -8.021   8.325  65.425  1.00  0.00    -0.127 C  
HETATM   27  C   UNK A   2      -8.802   8.716  67.646  1.00  0.00    -0.136 C  
HETATM   28  C   UNK A   2      -8.277   8.103  63.914  1.00  0.00    -0.064 C  
HETATM   29  C   UNK A   2      -8.024   6.127  70.030  1.00  0.00    -0.111 C  
HETATM   30  S   UNK A   2      -7.064   6.791  68.649  1.00  0.00    -0.085 SA 
HETATM   31  O   UNK A   2      -8.848   9.121  63.247  1.00  0.00    -0.192 OA 
HETATM   32  O   UNK A   2      -7.891   7.103  63.316  1.00  0.00    -0.124 OA 
ENDBRANCH  17  19
ENDBRANCH  15  17
ENDBRANCH   6  15
ENDBRANCH   4   6
ENDBRANCH   3   4
ENDBRANCH   2   3
TORSDOF 9
ENDMDL
MODEL       82
REMARK 921   NORMALIZED FREE ENERGY PREDICTED BY IDOCK:   -5.29 KCAL/MOL
REMARK 922        TOTAL FREE ENERGY PREDICTED BY IDOCK:   -9.42 KCAL/MOL
REMARK 923 INTER-LIGAND FREE ENERGY PREDICTED BY IDOCK:   -7.85 KCAL/MOL
REMARK 924 INTRA-LIGAND FREE ENERGY PREDICTED BY IDOCK:   -1.56 KCAL/MOL
REMARK 927      BINDING AFFINITY PREDICTED BY RF-SCORE:    0.00 PKD
ROOT
HETATM    1  C   UNK A   0     -11.084   5.797  72.488  1.00  0.00    -0.327 C  
HETATM    2  C   UNK A   0     -10.859   7.087  73.255  1.00  0.00    -0.311 C  
ENDROOT
BRANCH   2   3
HETATM    3  O   UNK A   0     -11.265   8.218  72.469  1.00  0.00    -0.363 OA 
BRANCH   3   4
HETATM    4  C   UNK A   0     -10.294   8.803  71.710  1.00  0.00    -0.343 C  
HETATM    5  O   UNK A   0      -9.148   9.031  72.079  1.00  0.00    -0.375 OA 
BRANCH   4   6
HETATM    6  C   UNK A   0     -10.833   9.130  70.305  1.00  0.00    -0.246 C  
BRANCH   6   7
HETATM    7  C   UNK A   0     -10.180   8.201  69.267  1.00  0.00    -0.216 C  
BRANCH   7   8
HETATM    8  C   UNK A   0     -10.639   8.410  67.821  1.00  0.00    -0.238 C  
BRANCH   8   9
HETATM    9  C   UNK A   0      -9.461   8.894  67.001  1.00  0.00    -0.215 A  
HETATM   10  C   UNK A   0      -8.223   9.152  67.606  1.00  0.00    -0.108 A  
HETATM   11  C   UNK A   0      -7.115   9.502  66.831  1.00  0.00    -0.086 A  
HETATM   12  C   UNK A   0      -7.233   9.594  65.445  1.00  0.00    -0.104 A  
HETATM   13  C   UNK A   0      -9.567   8.990  65.606  1.00  0.00    -0.237 A  
HETATM   14  C   UNK A   0      -8.458   9.341  64.834  1.00  0.00    -0.182 A  
ENDBRANCH   8   9
ENDBRANCH   7   8
ENDBRANCH   6   7
BRANCH   6  15
ATOM     15  N   ALA A   1     -10.559  10.573  70.028  1.00  0.00    -0.439 NA 
ATOM     16  H   ALA A   1      -9.847  10.670  69.304  1.00  0.00     0.000 HD 
BRANCH  15  17
ATOM     17  CA  ALA A   1     -11.762  11.356  69.678  1.00  0.00    -0.345 C  
ATOM     18  CB  ALA A   1     -12.869  11.167  70.714  1.00  0.00    -0.322 C  
BRANCH  17  19
ATOM     19  C   ALA A   1     -11.443  12.867  69.446  1.00  0.00    -0.260 C  
HETATM   20  C   UNK A   2     -11.404  13.228  65.716  1.00  0.00    -0.307 C  
ATOM     21  O   ALA A   1     -11.180  13.652  70.359  1.00  0.00     0.109 OA 
HETATM   22  C   UNK A   2     -11.300  14.678  66.194  1.00  0.00    -0.350 C  
HETATM   23  N   UNK A   2     -11.492  13.324  68.128  1.00  0.00    -0.291 N  
HETATM   24  S   UNK A   2     -12.970  12.938  64.797  1.00  0.00     0.072 SA 
HETATM   25  C   UNK A   2     -12.244  12.425  63.221  1.00  0.00    -0.418 C  
HETATM   26  C   UNK A   2     -10.949  14.626  67.699  1.00  0.00    -0.293 C  
HETATM   27  C   UNK A   2     -11.410  12.391  67.002  1.00  0.00    -0.327 C  
HETATM   28  C   UNK A   2     -11.394  15.980  68.305  1.00  0.00    -0.326 C  
HETATM   29  C   UNK A   2     -10.920  11.742  63.490  1.00  0.00    -0.424 C  
HETATM   30  S   UNK A   2      -9.992  12.783  64.642  1.00  0.00    -0.061 SA 
HETATM   31  O   UNK A   2     -11.819  15.955  69.581  1.00  0.00    -0.333 OA 
HETATM   32  O   UNK A   2     -11.275  17.045  67.708  1.00  0.00    -0.186 OA 
ENDBRANCH  17  19
ENDBRANCH  15  17
ENDBRANCH   6  15
ENDBRANCH   4   6
ENDBRANCH   3   4
ENDBRANCH   2   3
TORSDOF 9
ENDMDL
MODEL       83
REMARK 921   NORMALIZED FREE ENERGY PREDICTED BY IDOCK:   -5.28 KCAL/MOL
REMARK 922        TOTAL FREE ENERGY PREDICTED BY IDOCK:   -9.40 KCAL/MOL
REMARK 923 INTER-LIGAND FREE ENERGY PREDICTED BY IDOCK:  -10.08 KCAL/MOL
REMARK 924 INTRA-LIGAND FREE ENERGY PREDICTED BY IDOCK:    0.68 KCAL/MOL
REMARK 927      BINDING AFFINITY PREDICTED BY RF-SCORE:    0.00 PKD
ROOT
HETATM    1  C   UNK A   0     -10.973  11.899  63.512  1.00  0.00    -0.505 C  
HETATM    2  C   UNK A   0     -12.472  12.119  63.592  1.00  0.00    -0.549 C  
ENDROOT
BRANCH   2   3
HETATM    3  O   UNK A   0     -12.844  12.576  64.902  1.00  0.00    -0.758 OA 
BRANCH   3   4
HETATM    4  C   UNK A   0     -12.564  13.881  65.187  1.00  0.00    -0.434 C  
HETATM    5  O   UNK A   0     -12.715  14.822  64.417  1.00  0.00    -0.604 OA 
BRANCH   4   6
HETATM    6  C   UNK A   0     -12.039  14.015  66.629  1.00  0.00    -0.456 C  
BRANCH   6   7
HETATM    7  C   UNK A   0     -10.986  15.136  66.697  1.00  0.00    -0.318 C  
BRANCH   7   8
HETATM    8  C   UNK A   0     -10.972  15.943  67.998  1.00  0.00    -0.336 C  
BRANCH   8   9
HETATM    9  C   UNK A   0     -10.546  17.362  67.688  1.00  0.00    -0.350 A  
HETATM   10  C   UNK A   0     -10.603  17.858  66.378  1.00  0.00    -0.238 A  
HETATM   11  C   UNK A   0     -10.304  19.197  66.113  1.00  0.00    -0.561 A  
HETATM   12  C   UNK A   0      -9.948  20.052  67.155  1.00  0.00    -0.580 A  
HETATM   13  C   UNK A   0     -10.186  18.232  68.727  1.00  0.00    -0.342 A  
HETATM   14  C   UNK A   0      -9.887  19.569  68.460  1.00  0.00    -0.518 A  
ENDBRANCH   8   9
ENDBRANCH   7   8
ENDBRANCH   6   7
BRANCH   6  15
ATOM     15  N   ALA A   1     -11.486  12.691  67.046  1.00  0.00    -0.326 NA 
ATOM     16  H   ALA A   1     -10.734  12.403  66.419  1.00  0.00     0.000 HD 
BRANCH  15  17
ATOM     17  CA  ALA A   1     -11.035  12.645  68.452  1.00  0.00    -0.257 C  
ATOM     18  CB  ALA A   1     -11.994  11.830  69.318  1.00  0.00    -0.354 C  
BRANCH  17  19
ATOM     19  C   ALA A   1      -9.563  12.139  68.590  1.00  0.00    -0.060 C  
HETATM   20  C   UNK A   2      -9.900   8.807  70.272  1.00  0.00    -0.175 C  
ATOM     21  O   ALA A   1      -8.582  12.814  68.274  1.00  0.00    -0.177 OA 
HETATM   22  C   UNK A   2      -8.415   8.850  69.907  1.00  0.00    -0.135 C  
HETATM   23  N   UNK A   2      -9.389  10.843  69.076  1.00  0.00    -0.329 N  
HETATM   24  S   UNK A   2     -10.771   7.462  69.371  1.00  0.00    -0.173 SA 
HETATM   25  C   UNK A   2     -11.347   6.529  70.811  1.00  0.00    -0.342 C  
HETATM   26  C   UNK A   2      -8.090  10.315  69.534  1.00  0.00    -0.162 C  
HETATM   27  C   UNK A   2     -10.455  10.163  69.815  1.00  0.00    -0.263 C  
HETATM   28  C   UNK A   2      -6.822  10.276  68.646  1.00  0.00    -0.057 C  
HETATM   29  C   UNK A   2     -11.581   7.491  71.957  1.00  0.00    -0.287 C  
HETATM   30  S   UNK A   2     -10.132   8.568  72.070  1.00  0.00    -0.329 SA 
HETATM   31  O   UNK A   2      -6.726  11.221  67.694  1.00  0.00    -0.067 OA 
HETATM   32  O   UNK A   2      -5.893   9.499  68.849  1.00  0.00    -0.039 OA 
ENDBRANCH  17  19
ENDBRANCH  15  17
ENDBRANCH   6  15
ENDBRANCH   4   6
ENDBRANCH   3   4
ENDBRANCH   2   3
TORSDOF 9
ENDMDL
MODEL       84
REMARK 921   NORMALIZED FREE ENERGY PREDICTED BY IDOCK:   -5.27 KCAL/MOL
REMARK 922        TOTAL FREE ENERGY PREDICTED BY IDOCK:   -9.39 KCAL/MOL
REMARK 923 INTER-LIGAND FREE ENERGY PREDICTED BY IDOCK:   -8.27 KCAL/MOL
REMARK 924 INTRA-LIGAND FREE ENERGY PREDICTED BY IDOCK:   -1.12 KCAL/MOL
REMARK 927      BINDING AFFINITY PREDICTED BY RF-SCORE:    0.00 PKD
ROOT
HETATM    1  C   UNK A   0      -9.919  19.333  68.286  1.00  0.00    -0.497 C  
HETATM    2  C   UNK A   0      -8.722  18.480  67.905  1.00  0.00    -0.284 C  
ENDROOT
BRANCH   2   3
HETATM    3  O   UNK A   0      -9.149  17.179  67.471  1.00  0.00    -0.222 OA 
BRANCH   3   4
HETATM    4  C   UNK A   0      -8.896  16.146  68.326  1.00  0.00    -0.188 C  
HETATM    5  O   UNK A   0      -7.983  16.111  69.143  1.00  0.00    -0.227 OA 
BRANCH   4   6
HETATM    6  C   UNK A   0      -9.932  15.023  68.134  1.00  0.00    -0.220 C  
BRANCH   6   7
HETATM    7  C   UNK A   0     -11.326  15.524  68.554  1.00  0.00    -0.356 C  
BRANCH   7   8
HETATM    8  C   UNK A   0     -11.355  16.409  69.802  1.00  0.00    -0.176 C  
BRANCH   8   9
HETATM    9  C   UNK A   0     -12.099  15.679  70.901  1.00  0.00    -0.452 A  
HETATM   10  C   UNK A   0     -13.237  14.914  70.610  1.00  0.00    -0.319 A  
HETATM   11  C   UNK A   0     -13.860  14.163  71.610  1.00  0.00    -0.442 A  
HETATM   12  C   UNK A   0     -13.350  14.167  72.908  1.00  0.00    -0.532 A  
HETATM   13  C   UNK A   0     -11.595  15.676  72.210  1.00  0.00    -0.534 A  
HETATM   14  C   UNK A   0     -12.220  14.925  73.207  1.00  0.00    -0.439 A  
ENDBRANCH   8   9
ENDBRANCH   7   8
ENDBRANCH   6   7
BRANCH   6  15
ATOM     15  N   ALA A   1      -9.489  13.841  68.934  1.00  0.00    -0.408 NA 
ATOM     16  H   ALA A   1     -10.276  13.435  69.439  1.00  0.00     0.000 HD 
BRANCH  15  17
ATOM     17  CA  ALA A   1      -8.791  12.808  68.142  1.00  0.00    -0.194 C  
ATOM     18  CB  ALA A   1      -7.349  12.624  68.614  1.00  0.00    -0.101 C  
BRANCH  17  19
ATOM     19  C   ALA A   1      -9.565  11.452  68.117  1.00  0.00    -0.190 C  
HETATM   20  C   UNK A   2      -8.615   9.919  64.832  1.00  0.00    -0.169 C  
ATOM     21  O   ALA A   1     -10.364  11.112  68.992  1.00  0.00    -0.210 OA 
HETATM   22  C   UNK A   2      -9.391   8.792  65.516  1.00  0.00    -0.165 C  
HETATM   23  N   UNK A   2      -9.298  10.596  67.049  1.00  0.00    -0.155 N  
HETATM   24  S   UNK A   2      -6.856   9.454  64.566  1.00  0.00    -0.097 SA 
HETATM   25  C   UNK A   2      -6.829   9.602  62.762  1.00  0.00    -0.102 C  
HETATM   26  C   UNK A   2     -10.132   9.425  66.716  1.00  0.00    -0.256 C  
HETATM   27  C   UNK A   2      -8.683  11.095  65.816  1.00  0.00    -0.150 C  
HETATM   28  C   UNK A   2     -10.428   8.277  67.712  1.00  0.00    -0.215 C  
HETATM   29  C   UNK A   2      -7.817  10.670  62.343  1.00  0.00    -0.168 C  
HETATM   30  S   UNK A   2      -9.365  10.357  63.223  1.00  0.00    -0.323 SA 
HETATM   31  O   UNK A   2     -10.429   8.599  69.017  1.00  0.00    -0.216 OA 
HETATM   32  O   UNK A   2     -10.752   7.150  67.347  1.00  0.00    -0.265 OA 
ENDBRANCH  17  19
ENDBRANCH  15  17
ENDBRANCH   6  15
ENDBRANCH   4   6
ENDBRANCH   3   4
ENDBRANCH   2   3
TORSDOF 9
ENDMDL
MODEL       85
REMARK 921   NORMALIZED FREE ENERGY PREDICTED BY IDOCK:   -5.25 KCAL/MOL
REMARK 922        TOTAL FREE ENERGY PREDICTED BY IDOCK:   -9.35 KCAL/MOL
REMARK 923 INTER-LIGAND FREE ENERGY PREDICTED BY IDOCK:   -8.19 KCAL/MOL
REMARK 924 INTRA-LIGAND FREE ENERGY PREDICTED BY IDOCK:   -1.16 KCAL/MOL
REMARK 927      BINDING AFFINITY PREDICTED BY RF-SCORE:    0.00 PKD
ROOT
HETATM    1  C   UNK A   0     -13.595   9.583  71.998  1.00  0.00    -0.492 C  
HETATM    2  C   UNK A   0     -12.895  10.830  71.490  1.00  0.00    -0.462 C  
ENDROOT
BRANCH   2   3
HETATM    3  O   UNK A   0     -12.262  10.573  70.227  1.00  0.00    -0.294 OA 
BRANCH   3   4
HETATM    4  C   UNK A   0     -11.035   9.976  70.278  1.00  0.00    -0.316 C  
HETATM    5  O   UNK A   0     -10.569   9.401  71.255  1.00  0.00    -0.313 OA 
BRANCH   4   6
HETATM    6  C   UNK A   0     -10.314  10.112  68.925  1.00  0.00    -0.206 C  
BRANCH   6   7
HETATM    7  C   UNK A   0      -8.950  10.796  69.127  1.00  0.00    -0.100 C  
BRANCH   7   8
HETATM    8  C   UNK A   0      -7.730   9.941  68.773  1.00  0.00    -0.086 C  
BRANCH   8   9
HETATM    9  C   UNK A   0      -7.379   9.076  69.965  1.00  0.00    -0.060 A  
HETATM   10  C   UNK A   0      -7.698   7.711  69.979  1.00  0.00    -0.092 A  
HETATM   11  C   UNK A   0      -7.283   6.897  71.037  1.00  0.00    -0.076 A  
HETATM   12  C   UNK A   0      -6.544   7.439  72.087  1.00  0.00    -0.051 A  
HETATM   13  C   UNK A   0      -6.635   9.610  71.027  1.00  0.00    -0.035 A  
HETATM   14  C   UNK A   0      -6.222   8.795  72.083  1.00  0.00    -0.069 A  
ENDBRANCH   8   9
ENDBRANCH   7   8
ENDBRANCH   6   7
BRANCH   6  15
ATOM     15  N   ALA A   1     -11.203  10.880  68.001  1.00  0.00    -0.294 NA 
ATOM     16  H   ALA A   1     -11.576  11.707  68.468  1.00  0.00     0.000 HD 
BRANCH  15  17
ATOM     17  CA  ALA A   1     -10.562  11.251  66.722  1.00  0.00    -0.260 C  
ATOM     18  CB  ALA A   1     -10.350  10.028  65.831  1.00  0.00    -0.202 C  
BRANCH  17  19
ATOM     19  C   ALA A   1     -11.338  12.381  65.973  1.00  0.00    -0.353 C  
HETATM   20  C   UNK A   2      -9.639  15.535  67.075  1.00  0.00    -0.224 C  
ATOM     21  O   ALA A   1     -12.335  12.174  65.280  1.00  0.00    -0.513 OA 
HETATM   22  C   UNK A   2     -10.586  16.029  65.979  1.00  0.00    -0.324 C  
HETATM   23  N   UNK A   2     -10.834  13.676  66.097  1.00  0.00    -0.278 N  
HETATM   24  S   UNK A   2      -7.880  15.787  66.603  1.00  0.00    -0.053 SA 
HETATM   25  C   UNK A   2      -7.405  16.866  67.975  1.00  0.00    -0.171 C  
HETATM   26  C   UNK A   2     -11.586  14.883  65.704  1.00  0.00    -0.245 C  
HETATM   27  C   UNK A   2      -9.922  14.031  67.188  1.00  0.00    -0.252 C  
HETATM   28  C   UNK A   2     -12.145  15.114  64.278  1.00  0.00    -0.261 C  
HETATM   29  C   UNK A   2      -8.234  16.508  69.191  1.00  0.00    -0.159 C  
HETATM   30  S   UNK A   2      -9.959  16.390  68.660  1.00  0.00    -0.247 SA 
HETATM   31  O   UNK A   2     -12.461  14.014  63.572  1.00  0.00    -0.826 OA 
HETATM   32  O   UNK A   2     -12.394  16.232  63.837  1.00  0.00    -0.874 OA 
ENDBRANCH  17  19
ENDBRANCH  15  17
ENDBRANCH   6  15
ENDBRANCH   4   6
ENDBRANCH   3   4
ENDBRANCH   2   3
TORSDOF 9
ENDMDL
MODEL       86
REMARK 921   NORMALIZED FREE ENERGY PREDICTED BY IDOCK:   -5.23 KCAL/MOL
REMARK 922        TOTAL FREE ENERGY PREDICTED BY IDOCK:   -9.33 KCAL/MOL
REMARK 923 INTER-LIGAND FREE ENERGY PREDICTED BY IDOCK:   -9.79 KCAL/MOL
REMARK 924 INTRA-LIGAND FREE ENERGY PREDICTED BY IDOCK:    0.46 KCAL/MOL
REMARK 927      BINDING AFFINITY PREDICTED BY RF-SCORE:    0.00 PKD
ROOT
HETATM    1  C   UNK A   0     -12.065  16.554  73.965  1.00  0.00    -0.400 C  
HETATM    2  C   UNK A   0     -11.823  15.132  73.491  1.00  0.00    -0.270 C  
ENDROOT
BRANCH   2   3
HETATM    3  O   UNK A   0     -13.034  14.563  72.969  1.00  0.00    -0.481 OA 
BRANCH   3   4
HETATM    4  C   UNK A   0     -13.327  14.861  71.669  1.00  0.00    -0.375 C  
HETATM    5  O   UNK A   0     -14.382  15.344  71.274  1.00  0.00    -0.501 OA 
BRANCH   4   6
HETATM    6  C   UNK A   0     -12.134  14.518  70.757  1.00  0.00    -0.329 C  
BRANCH   6   7
HETATM    7  C   UNK A   0     -11.870  15.683  69.786  1.00  0.00    -0.376 C  
BRANCH   7   8
HETATM    8  C   UNK A   0     -10.526  16.393  69.966  1.00  0.00    -0.131 C  
BRANCH   8   9
HETATM    9  C   UNK A   0     -10.394  17.464  68.903  1.00  0.00    -0.340 A  
HETATM   10  C   UNK A   0     -10.645  17.171  67.555  1.00  0.00    -0.323 A  
HETATM   11  C   UNK A   0     -10.619  18.184  66.592  1.00  0.00    -0.296 A  
HETATM   12  C   UNK A   0     -10.344  19.497  66.969  1.00  0.00    -0.568 A  
HETATM   13  C   UNK A   0     -10.118  18.789  69.269  1.00  0.00    -0.072 A  
HETATM   14  C   UNK A   0     -10.092  19.799  68.305  1.00  0.00    -0.575 A  
ENDBRANCH   8   9
ENDBRANCH   7   8
ENDBRANCH   6   7
BRANCH   6  15
ATOM     15  N   ALA A   1     -12.448  13.243  70.043  1.00  0.00    -0.168 NA 
ATOM     16  H   ALA A   1     -12.017  13.235  69.119  1.00  0.00     0.000 HD 
BRANCH  15  17
ATOM     17  CA  ALA A   1     -12.082  12.028  70.798  1.00  0.00    -0.198 C  
ATOM     18  CB  ALA A   1     -13.198  11.609  71.754  1.00  0.00    -0.438 C  
BRANCH  17  19
ATOM     19  C   ALA A   1     -11.655  10.852  69.863  1.00  0.00    -0.331 C  
HETATM   20  C   UNK A   2     -11.021  12.500  66.558  1.00  0.00    -0.266 C  
ATOM     21  O   ALA A   1     -11.660   9.671  70.214  1.00  0.00    -0.252 OA 
HETATM   22  C   UNK A   2     -10.528  11.072  66.320  1.00  0.00    -0.310 C  
HETATM   23  N   UNK A   2     -11.228  11.194  68.579  1.00  0.00    -0.234 N  
HETATM   24  S   UNK A   2      -9.643  13.712  66.440  1.00  0.00    -0.238 SA 
HETATM   25  C   UNK A   2     -10.300  14.706  65.078  1.00  0.00    -0.402 C  
HETATM   26  C   UNK A   2     -11.065  10.214  67.488  1.00  0.00    -0.181 C  
HETATM   27  C   UNK A   2     -11.566  12.493  67.992  1.00  0.00    -0.342 C  
HETATM   28  C   UNK A   2     -10.148   8.971  67.586  1.00  0.00    -0.216 C  
HETATM   29  C   UNK A   2     -11.813  14.681  65.138  1.00  0.00    -0.351 C  
HETATM   30  S   UNK A   2     -12.322  12.960  65.357  1.00  0.00    -0.445 SA 
HETATM   31  O   UNK A   2      -9.956   8.461  68.816  1.00  0.00    -0.176 OA 
HETATM   32  O   UNK A   2      -9.694   8.402  66.598  1.00  0.00    -0.208 OA 
ENDBRANCH  17  19
ENDBRANCH  15  17
ENDBRANCH   6  15
ENDBRANCH   4   6
ENDBRANCH   3   4
ENDBRANCH   2   3
TORSDOF 9
ENDMDL
MODEL       87
REMARK 921   NORMALIZED FREE ENERGY PREDICTED BY IDOCK:   -5.22 KCAL/MOL
REMARK 922        TOTAL FREE ENERGY PREDICTED BY IDOCK:   -9.32 KCAL/MOL
REMARK 923 INTER-LIGAND FREE ENERGY PREDICTED BY IDOCK:   -8.04 KCAL/MOL
REMARK 924 INTRA-LIGAND FREE ENERGY PREDICTED BY IDOCK:   -1.28 KCAL/MOL
REMARK 927      BINDING AFFINITY PREDICTED BY RF-SCORE:    0.00 PKD
ROOT
HETATM    1  C   UNK A   0     -14.342   6.849  71.686  1.00  0.00    -0.382 C  
HETATM    2  C   UNK A   0     -12.844   6.981  71.888  1.00  0.00    -0.259 C  
ENDROOT
BRANCH   2   3
HETATM    3  O   UNK A   0     -12.396   8.289  71.497  1.00  0.00    -0.293 OA 
BRANCH   3   4
HETATM    4  C   UNK A   0     -11.047   8.452  71.377  1.00  0.00    -0.255 C  
HETATM    5  O   UNK A   0     -10.240   8.379  72.297  1.00  0.00    -0.278 OA 
BRANCH   4   6
HETATM    6  C   UNK A   0     -10.667   8.728  69.911  1.00  0.00    -0.223 C  
BRANCH   6   7
HETATM    7  C   UNK A   0      -9.873   7.537  69.345  1.00  0.00    -0.166 C  
BRANCH   7   8
HETATM    8  C   UNK A   0     -10.718   6.340  68.899  1.00  0.00    -0.357 C  
BRANCH   8   9
HETATM    9  C   UNK A   0     -10.107   5.075  69.465  1.00  0.00    -0.301 A  
HETATM   10  C   UNK A   0     -10.076   4.850  70.849  1.00  0.00    -0.292 A  
HETATM   11  C   UNK A   0      -9.603   3.639  71.360  1.00  0.00    -0.237 A  
HETATM   12  C   UNK A   0      -9.160   2.641  70.493  1.00  0.00    -0.185 A  
HETATM   13  C   UNK A   0      -9.658   4.064  68.604  1.00  0.00    -0.190 A  
HETATM   14  C   UNK A   0      -9.185   2.854  69.117  1.00  0.00    -0.220 A  
ENDBRANCH   8   9
ENDBRANCH   7   8
ENDBRANCH   6   7
BRANCH   6  15
ATOM     15  N   ALA A   1      -9.888  10.003  69.866  1.00  0.00    -0.307 NA 
ATOM     16  H   ALA A   1      -8.926   9.824  69.578  1.00  0.00     0.000 HD 
BRANCH  15  17
ATOM     17  CA  ALA A   1     -10.497  11.049  69.020  1.00  0.00    -0.216 C  
ATOM     18  CB  ALA A   1     -11.346  10.439  67.906  1.00  0.00    -0.248 C  
BRANCH  17  19
ATOM     19  C   ALA A   1     -11.307  12.093  69.854  1.00  0.00    -0.031 C  
HETATM   20  C   UNK A   2     -10.207  15.403  68.485  1.00  0.00    -0.219 C  
ATOM     21  O   ALA A   1     -12.038  11.786  70.797  1.00  0.00    -0.360 OA 
HETATM   22  C   UNK A   2     -11.355  15.792  69.419  1.00  0.00    -0.348 C  
HETATM   23  N   UNK A   2     -11.191  13.429  69.469  1.00  0.00    -0.449 N  
HETATM   24  S   UNK A   2     -10.607  15.797  66.734  1.00  0.00    -0.291 SA 
HETATM   25  C   UNK A   2      -9.241  16.941  66.416  1.00  0.00    -0.279 C  
HETATM   26  C   UNK A   2     -11.646  14.557  70.303  1.00  0.00    -0.268 C  
HETATM   27  C   UNK A   2     -10.071  13.883  68.642  1.00  0.00    -0.203 C  
HETATM   28  C   UNK A   2     -13.100  14.711  70.814  1.00  0.00    -0.323 C  
HETATM   29  C   UNK A   2      -8.055  16.536  67.266  1.00  0.00    -0.168 C  
HETATM   30  S   UNK A   2      -8.658  16.259  68.948  1.00  0.00    -0.257 SA 
HETATM   31  O   UNK A   2     -13.793  13.574  71.002  1.00  0.00     0.135 OA 
HETATM   32  O   UNK A   2     -13.579  15.794  71.137  1.00  0.00    -0.576 OA 
ENDBRANCH  17  19
ENDBRANCH  15  17
ENDBRANCH   6  15
ENDBRANCH   4   6
ENDBRANCH   3   4
ENDBRANCH   2   3
TORSDOF 9
ENDMDL
MODEL       88
REMARK 921   NORMALIZED FREE ENERGY PREDICTED BY IDOCK:   -5.22 KCAL/MOL
REMARK 922        TOTAL FREE ENERGY PREDICTED BY IDOCK:   -9.31 KCAL/MOL
REMARK 923 INTER-LIGAND FREE ENERGY PREDICTED BY IDOCK:   -7.66 KCAL/MOL
REMARK 924 INTRA-LIGAND FREE ENERGY PREDICTED BY IDOCK:   -1.65 KCAL/MOL
REMARK 927      BINDING AFFINITY PREDICTED BY RF-SCORE:    0.00 PKD
ROOT
HETATM    1  C   UNK A   0     -13.598   8.906  71.742  1.00  0.00    -0.461 C  
HETATM    2  C   UNK A   0     -12.844  10.220  71.820  1.00  0.00    -0.460 C  
ENDROOT
BRANCH   2   3
HETATM    3  O   UNK A   0     -11.798  10.259  70.836  1.00  0.00    -0.320 OA 
BRANCH   3   4
HETATM    4  C   UNK A   0     -10.806   9.333  70.975  1.00  0.00    -0.314 C  
HETATM    5  O   UNK A   0     -10.297   8.995  72.037  1.00  0.00    -0.339 OA 
BRANCH   4   6
HETATM    6  C   UNK A   0     -10.418   8.751  69.603  1.00  0.00    -0.220 C  
BRANCH   6   7
HETATM    7  C   UNK A   0     -11.016   7.341  69.446  1.00  0.00    -0.157 C  
BRANCH   7   8
HETATM    8  C   UNK A   0     -10.022   6.188  69.607  1.00  0.00    -0.210 C  
BRANCH   8   9
HETATM    9  C   UNK A   0     -10.130   5.645  71.017  1.00  0.00    -0.266 A  
HETATM   10  C   UNK A   0      -8.983   5.265  71.729  1.00  0.00    -0.147 A  
HETATM   11  C   UNK A   0      -9.078   4.859  73.062  1.00  0.00    -0.122 A  
HETATM   12  C   UNK A   0     -10.320   4.832  73.697  1.00  0.00    -0.254 A  
HETATM   13  C   UNK A   0     -11.372   5.612  71.666  1.00  0.00    -0.150 A  
HETATM   14  C   UNK A   0     -11.465   5.206  72.998  1.00  0.00    -0.349 A  
ENDBRANCH   8   9
ENDBRANCH   7   8
ENDBRANCH   6   7
BRANCH   6  15
ATOM     15  N   ALA A   1      -8.927   8.749  69.505  1.00  0.00    -0.143 NA 
ATOM     16  H   ALA A   1      -8.589   7.838  69.195  1.00  0.00     0.000 HD 
BRANCH  15  17
ATOM     17  CA  ALA A   1      -8.380   9.823  68.650  1.00  0.00    -0.111 C  
ATOM     18  CB  ALA A   1      -6.853   9.832  68.675  1.00  0.00    -0.051 C  
BRANCH  17  19
ATOM     19  C   ALA A   1      -8.931   9.759  67.189  1.00  0.00    -0.135 C  
HETATM   20  C   UNK A   2     -10.363  13.172  66.605  1.00  0.00    -0.265 C  
ATOM     21  O   ALA A   1      -8.932   8.731  66.510  1.00  0.00    -0.133 OA 
HETATM   22  C   UNK A   2     -10.450  12.531  65.219  1.00  0.00    -0.313 C  
HETATM   23  N   UNK A   2      -9.416  10.950  66.649  1.00  0.00    -0.176 N  
HETATM   24  S   UNK A   2      -9.216  14.609  66.607  1.00  0.00    -0.257 SA 
HETATM   25  C   UNK A   2     -10.403  15.876  67.120  1.00  0.00    -0.300 C  
HETATM   26  C   UNK A   2     -10.222  11.014  65.415  1.00  0.00    -0.274 C  
HETATM   27  C   UNK A   2      -9.796  12.072  67.511  1.00  0.00    -0.186 C  
HETATM   28  C   UNK A   2      -9.743  10.457  64.052  1.00  0.00    -0.311 C  
HETATM   29  C   UNK A   2     -11.452  15.236  68.004  1.00  0.00    -0.341 C  
HETATM   30  S   UNK A   2     -12.009  13.723  67.183  1.00  0.00    -0.388 SA 
HETATM   31  O   UNK A   2      -8.884   9.424  64.094  1.00  0.00    -0.214 OA 
HETATM   32  O   UNK A   2     -10.191  10.853  62.979  1.00  0.00    -0.292 OA 
ENDBRANCH  17  19
ENDBRANCH  15  17
ENDBRANCH   6  15
ENDBRANCH   4   6
ENDBRANCH   3   4
ENDBRANCH   2   3
TORSDOF 9
ENDMDL
MODEL       89
REMARK 921   NORMALIZED FREE ENERGY PREDICTED BY IDOCK:   -5.19 KCAL/MOL
REMARK 922        TOTAL FREE ENERGY PREDICTED BY IDOCK:   -9.27 KCAL/MOL
REMARK 923 INTER-LIGAND FREE ENERGY PREDICTED BY IDOCK:   -8.79 KCAL/MOL
REMARK 924 INTRA-LIGAND FREE ENERGY PREDICTED BY IDOCK:   -0.48 KCAL/MOL
REMARK 927      BINDING AFFINITY PREDICTED BY RF-SCORE:    0.00 PKD
ROOT
HETATM    1  C   UNK A   0     -14.217   8.016  71.546  1.00  0.00    -0.513 C  
HETATM    2  C   UNK A   0     -14.158   9.155  72.546  1.00  0.00    -0.311 C  
ENDROOT
BRANCH   2   3
HETATM    3  O   UNK A   0     -13.258  10.178  72.091  1.00  0.00    -0.444 OA 
BRANCH   3   4
HETATM    4  C   UNK A   0     -12.001   9.766  71.753  1.00  0.00    -0.311 C  
HETATM    5  O   UNK A   0     -11.309   8.995  72.407  1.00  0.00    -0.237 OA 
BRANCH   4   6
HETATM    6  C   UNK A   0     -11.571  10.398  70.416  1.00  0.00    -0.337 C  
BRANCH   6   7
HETATM    7  C   UNK A   0     -12.515  11.560  70.061  1.00  0.00    -0.192 C  
BRANCH   7   8
HETATM    8  C   UNK A   0     -11.824  12.883  69.718  1.00  0.00    -0.380 C  
BRANCH   8   9
HETATM    9  C   UNK A   0     -12.247  13.930  70.727  1.00  0.00    -0.441 A  
HETATM   10  C   UNK A   0     -13.326  13.699  71.591  1.00  0.00    -0.424 A  
HETATM   11  C   UNK A   0     -13.649  14.626  72.586  1.00  0.00    -0.571 A  
HETATM   12  C   UNK A   0     -12.895  15.790  72.727  1.00  0.00    -0.569 A  
HETATM   13  C   UNK A   0     -11.496  15.105  70.879  1.00  0.00    -0.363 A  
HETATM   14  C   UNK A   0     -11.821  16.029  71.873  1.00  0.00    -0.619 A  
ENDBRANCH   8   9
ENDBRANCH   7   8
ENDBRANCH   6   7
BRANCH   6  15
ATOM     15  N   ALA A   1     -11.575   9.325  69.375  1.00  0.00    -0.303 NA 
ATOM     16  H   ALA A   1     -12.454   9.331  68.858  1.00  0.00     0.000 HD 
BRANCH  15  17
ATOM     17  CA  ALA A   1     -10.427   9.387  68.446  1.00  0.00    -0.218 C  
ATOM     18  CB  ALA A   1      -9.200  10.000  69.118  1.00  0.00    -0.196 C  
BRANCH  17  19
ATOM     19  C   ALA A   1     -10.101   7.999  67.809  1.00  0.00    -0.195 C  
HETATM   20  C   UNK A   2      -9.013   5.895  70.713  1.00  0.00    -0.149 C  
ATOM     21  O   ALA A   1     -10.133   7.786  66.595  1.00  0.00    -0.253 OA 
HETATM   22  C   UNK A   2      -9.093   4.878  69.573  1.00  0.00    -0.149 C  
HETATM   23  N   UNK A   2      -9.787   6.963  68.688  1.00  0.00    -0.143 N  
HETATM   24  S   UNK A   2     -10.243   5.525  72.028  1.00  0.00    -0.205 SA 
HETATM   25  C   UNK A   2      -9.083   5.296  73.398  1.00  0.00    -0.128 C  
HETATM   26  C   UNK A   2      -9.184   5.687  68.259  1.00  0.00    -0.110 C  
HETATM   27  C   UNK A   2      -9.359   7.241  70.061  1.00  0.00    -0.154 C  
HETATM   28  C   UNK A   2      -9.824   4.751  67.204  1.00  0.00    -0.193 C  
HETATM   29  C   UNK A   2      -7.870   6.172  73.165  1.00  0.00    -0.104 C  
HETATM   30  S   UNK A   2      -7.341   5.929  71.453  1.00  0.00    -0.086 SA 
HETATM   31  O   UNK A   2     -10.594   5.337  66.271  1.00  0.00    -0.283 OA 
HETATM   32  O   UNK A   2      -9.572   3.551  67.142  1.00  0.00    -0.207 OA 
ENDBRANCH  17  19
ENDBRANCH  15  17
ENDBRANCH   6  15
ENDBRANCH   4   6
ENDBRANCH   3   4
ENDBRANCH   2   3
TORSDOF 9
ENDMDL
MODEL       90
REMARK 921   NORMALIZED FREE ENERGY PREDICTED BY IDOCK:   -5.19 KCAL/MOL
REMARK 922        TOTAL FREE ENERGY PREDICTED BY IDOCK:   -9.26 KCAL/MOL
REMARK 923 INTER-LIGAND FREE ENERGY PREDICTED BY IDOCK:   -8.54 KCAL/MOL
REMARK 924 INTRA-LIGAND FREE ENERGY PREDICTED BY IDOCK:   -0.72 KCAL/MOL
REMARK 927      BINDING AFFINITY PREDICTED BY RF-SCORE:    0.00 PKD
ROOT
HETATM    1  C   UNK A   0     -13.889  13.412  72.395  1.00  0.00    -0.665 C  
HETATM    2  C   UNK A   0     -13.368  14.605  71.616  1.00  0.00    -0.355 C  
ENDROOT
BRANCH   2   3
HETATM    3  O   UNK A   0     -12.733  14.175  70.402  1.00  0.00    -0.342 OA 
BRANCH   3   4
HETATM    4  C   UNK A   0     -11.458  14.618  70.200  1.00  0.00    -0.259 C  
HETATM    5  O   UNK A   0     -10.825  15.329  70.971  1.00  0.00    -0.295 OA 
BRANCH   4   6
HETATM    6  C   UNK A   0     -10.909  14.085  68.863  1.00  0.00    -0.258 C  
BRANCH   6   7
HETATM    7  C   UNK A   0     -10.962  15.196  67.799  1.00  0.00    -0.306 C  
BRANCH   7   8
HETATM    8  C   UNK A   0     -11.391  16.574  68.312  1.00  0.00    -0.180 C  
BRANCH   8   9
HETATM    9  C   UNK A   0     -10.348  17.592  67.903  1.00  0.00    -0.371 A  
HETATM   10  C   UNK A   0     -10.648  18.589  66.963  1.00  0.00    -0.421 A  
HETATM   11  C   UNK A   0      -9.715  19.585  66.664  1.00  0.00    -0.470 A  
HETATM   12  C   UNK A   0      -8.475  19.595  67.303  1.00  0.00    -0.348 A  
HETATM   13  C   UNK A   0      -9.097  17.613  68.538  1.00  0.00    -0.279 A  
HETATM   14  C   UNK A   0      -8.167  18.609  68.236  1.00  0.00    -0.349 A  
ENDBRANCH   8   9
ENDBRANCH   7   8
ENDBRANCH   6   7
BRANCH   6  15
ATOM     15  N   ALA A   1     -11.716  12.888  68.475  1.00  0.00    -0.320 NA 
ATOM     16  H   ALA A   1     -12.157  13.032  67.566  1.00  0.00     0.000 HD 
BRANCH  15  17
ATOM     17  CA  ALA A   1     -10.955  11.622  68.487  1.00  0.00    -0.220 C  
ATOM     18  CB  ALA A   1      -9.455  11.876  68.633  1.00  0.00    -0.087 C  
BRANCH  17  19
ATOM     19  C   ALA A   1     -11.477  10.623  69.568  1.00  0.00    -0.291 C  
HETATM   20  C   UNK A   2     -10.234   7.286  68.402  1.00  0.00    -0.180 C  
ATOM     21  O   ALA A   1     -12.212  10.956  70.499  1.00  0.00    -0.305 OA 
HETATM   22  C   UNK A   2     -10.806   6.966  69.784  1.00  0.00    -0.295 C  
HETATM   23  N   UNK A   2     -11.050   9.300  69.458  1.00  0.00    -0.413 N  
HETATM   24  S   UNK A   2      -8.418   7.004  68.348  1.00  0.00    -0.123 SA 
HETATM   25  C   UNK A   2      -8.397   5.754  67.039  1.00  0.00    -0.108 C  
HETATM   26  C   UNK A   2     -11.660   8.184  70.206  1.00  0.00     0.013 C  
HETATM   27  C   UNK A   2     -10.520   8.779  68.195  1.00  0.00    -0.191 C  
HETATM   28  C   UNK A   2     -11.759   8.144  71.750  1.00  0.00    -0.296 C  
HETATM   29  C   UNK A   2      -9.554   6.012  66.097  1.00  0.00    -0.055 C  
HETATM   30  S   UNK A   2     -11.033   6.273  67.105  1.00  0.00    -0.319 SA 
HETATM   31  O   UNK A   2     -11.831   9.330  72.378  1.00  0.00    -0.194 OA 
HETATM   32  O   UNK A   2     -11.874   7.096  72.381  1.00  0.00    -0.259 OA 
ENDBRANCH  17  19
ENDBRANCH  15  17
ENDBRANCH   6  15
ENDBRANCH   4   6
ENDBRANCH   3   4
ENDBRANCH   2   3
TORSDOF 9
ENDMDL
MODEL       91
REMARK 921   NORMALIZED FREE ENERGY PREDICTED BY IDOCK:   -5.18 KCAL/MOL
REMARK 922        TOTAL FREE ENERGY PREDICTED BY IDOCK:   -9.25 KCAL/MOL
REMARK 923 INTER-LIGAND FREE ENERGY PREDICTED BY IDOCK:   -8.81 KCAL/MOL
REMARK 924 INTRA-LIGAND FREE ENERGY PREDICTED BY IDOCK:   -0.44 KCAL/MOL
REMARK 927      BINDING AFFINITY PREDICTED BY RF-SCORE:    0.00 PKD
ROOT
HETATM    1  C   UNK A   0      -5.378  15.575  67.986  1.00  0.00    -0.135 C  
HETATM    2  C   UNK A   0      -6.844  15.945  68.120  1.00  0.00    -0.121 C  
ENDROOT
BRANCH   2   3
HETATM    3  O   UNK A   0      -7.533  15.726  66.879  1.00  0.00    -0.216 OA 
BRANCH   3   4
HETATM    4  C   UNK A   0      -8.506  14.769  66.891  1.00  0.00    -0.198 C  
HETATM    5  O   UNK A   0      -8.548  13.812  67.655  1.00  0.00    -0.163 OA 
BRANCH   4   6
HETATM    6  C   UNK A   0      -9.565  15.066  65.813  1.00  0.00    -0.292 C  
BRANCH   6   7
HETATM    7  C   UNK A   0     -10.869  15.540  66.481  1.00  0.00    -0.284 C  
BRANCH   7   8
HETATM    8  C   UNK A   0     -10.692  16.293  67.802  1.00  0.00    -0.325 C  
BRANCH   8   9
HETATM    9  C   UNK A   0     -10.427  17.753  67.499  1.00  0.00    -0.376 A  
HETATM   10  C   UNK A   0      -9.875  18.599  68.472  1.00  0.00    -0.427 A  
HETATM   11  C   UNK A   0      -9.541  19.918  68.157  1.00  0.00    -0.463 A  
HETATM   12  C   UNK A   0      -9.753  20.403  66.867  1.00  0.00    -0.567 A  
HETATM   13  C   UNK A   0     -10.636  18.252  66.206  1.00  0.00    -0.320 A  
HETATM   14  C   UNK A   0     -10.302  19.571  65.894  1.00  0.00    -0.562 A  
ENDBRANCH   8   9
ENDBRANCH   7   8
ENDBRANCH   6   7
BRANCH   6  15
ATOM     15  N   ALA A   1      -9.761  13.825  65.002  1.00  0.00    -0.573 NA 
ATOM     16  H   ALA A   1      -9.101  13.103  65.288  1.00  0.00     0.000 HD 
BRANCH  15  17
ATOM     17  CA  ALA A   1     -11.143  13.305  65.028  1.00  0.00    -0.309 C  
ATOM     18  CB  ALA A   1     -11.563  12.774  63.658  1.00  0.00    -0.572 C  
BRANCH  17  19
ATOM     19  C   ALA A   1     -11.358  12.238  66.149  1.00  0.00    -0.353 C  
HETATM   20  C   UNK A   2      -8.360  10.007  65.870  1.00  0.00    -0.127 C  
ATOM     21  O   ALA A   1     -12.374  12.180  66.843  1.00  0.00    -0.402 OA 
HETATM   22  C   UNK A   2      -9.033   9.505  67.149  1.00  0.00    -0.148 C  
HETATM   23  N   UNK A   2     -10.316  11.336  66.365  1.00  0.00    -0.237 N  
HETATM   24  S   UNK A   2      -6.705  10.726  66.223  1.00  0.00    -0.124 SA 
HETATM   25  C   UNK A   2      -5.722   9.610  65.191  1.00  0.00    -0.066 C  
HETATM   26  C   UNK A   2     -10.457  10.107  67.168  1.00  0.00    -0.246 C  
HETATM   27  C   UNK A   2      -9.288  11.111  65.345  1.00  0.00    -0.219 C  
HETATM   28  C   UNK A   2     -10.922  10.101  68.645  1.00  0.00    -0.230 C  
HETATM   29  C   UNK A   2      -6.561   9.168  64.010  1.00  0.00    -0.089 C  
HETATM   30  S   UNK A   2      -8.175   8.659  64.647  1.00  0.00    -0.156 SA 
HETATM   31  O   UNK A   2     -11.738  11.101  69.022  1.00  0.00    -0.287 OA 
HETATM   32  O   UNK A   2     -10.658   9.185  69.419  1.00  0.00    -0.222 OA 
ENDBRANCH  17  19
ENDBRANCH  15  17
ENDBRANCH   6  15
ENDBRANCH   4   6
ENDBRANCH   3   4
ENDBRANCH   2   3
TORSDOF 9
ENDMDL
MODEL       92
REMARK 921   NORMALIZED FREE ENERGY PREDICTED BY IDOCK:   -5.15 KCAL/MOL
REMARK 922        TOTAL FREE ENERGY PREDICTED BY IDOCK:   -9.21 KCAL/MOL
REMARK 923 INTER-LIGAND FREE ENERGY PREDICTED BY IDOCK:   -7.96 KCAL/MOL
REMARK 924 INTRA-LIGAND FREE ENERGY PREDICTED BY IDOCK:   -1.25 KCAL/MOL
REMARK 927      BINDING AFFINITY PREDICTED BY RF-SCORE:    0.00 PKD
ROOT
HETATM    1  C   UNK A   0     -12.624  11.919  63.444  1.00  0.00    -0.555 C  
HETATM    2  C   UNK A   0     -11.470  12.854  63.753  1.00  0.00    -0.459 C  
ENDROOT
BRANCH   2   3
HETATM    3  O   UNK A   0     -11.516  13.272  65.127  1.00  0.00    -0.289 OA 
BRANCH   3   4
HETATM    4  C   UNK A   0     -10.788  14.383  65.442  1.00  0.00    -0.344 C  
HETATM    5  O   UNK A   0     -10.703  15.393  64.753  1.00  0.00    -0.415 OA 
BRANCH   4   6
HETATM    6  C   UNK A   0     -10.091  14.200  66.803  1.00  0.00    -0.262 C  
BRANCH   6   7
HETATM    7  C   UNK A   0      -8.653  13.693  66.587  1.00  0.00     0.053 C  
BRANCH   7   8
HETATM    8  C   UNK A   0      -8.297  12.402  67.329  1.00  0.00    -0.184 C  
BRANCH   8   9
HETATM    9  C   UNK A   0      -8.212  11.270  66.326  1.00  0.00    -0.126 A  
HETATM   10  C   UNK A   0      -6.971  10.731  65.958  1.00  0.00    -0.104 A  
HETATM   11  C   UNK A   0      -6.905   9.623  65.109  1.00  0.00    -0.098 A  
HETATM   12  C   UNK A   0      -8.076   9.043  64.624  1.00  0.00    -0.144 A  
HETATM   13  C   UNK A   0      -9.383  10.679  65.831  1.00  0.00    -0.224 A  
HETATM   14  C   UNK A   0      -9.313   9.573  64.983  1.00  0.00    -0.294 A  
ENDBRANCH   8   9
ENDBRANCH   7   8
ENDBRANCH   6   7
BRANCH   6  15
ATOM     15  N   ALA A   1     -10.910  13.255  67.620  1.00  0.00    -0.254 NA 
ATOM     16  H   ALA A   1     -10.667  12.289  67.401  1.00  0.00     0.000 HD 
BRANCH  15  17
ATOM     17  CA  ALA A   1     -10.827  13.493  69.076  1.00  0.00    -0.192 C  
ATOM     18  CB  ALA A   1     -11.008  14.973  69.409  1.00  0.00    -0.275 C  
BRANCH  17  19
ATOM     19  C   ALA A   1     -11.818  12.596  69.884  1.00  0.00    -0.294 C  
HETATM   20  C   UNK A   2     -10.203   9.214  69.873  1.00  0.00    -0.205 C  
ATOM     21  O   ALA A   1     -12.907  12.995  70.299  1.00  0.00     0.026 OA 
HETATM   22  C   UNK A   2     -11.376   9.023  70.837  1.00  0.00    -0.351 C  
HETATM   23  N   UNK A   2     -11.406  11.291  70.154  1.00  0.00    -0.480 N  
HETATM   24  S   UNK A   2      -8.590   9.017  70.734  1.00  0.00    -0.229 SA 
HETATM   25  C   UNK A   2      -7.954   7.632  69.758  1.00  0.00    -0.116 C  
HETATM   26  C   UNK A   2     -12.313  10.237  70.644  1.00  0.00    -0.325 C  
HETATM   27  C   UNK A   2     -10.337  10.660  69.376  1.00  0.00    -0.208 C  
HETATM   28  C   UNK A   2     -13.148  10.364  71.943  1.00  0.00    -0.458 C  
HETATM   29  C   UNK A   2      -8.508   7.727  68.352  1.00  0.00    -0.125 C  
HETATM   30  S   UNK A   2     -10.286   8.026  68.485  1.00  0.00    -0.173 SA 
HETATM   31  O   UNK A   2     -13.501  11.608  72.310  1.00  0.00    -0.397 OA 
HETATM   32  O   UNK A   2     -13.565   9.388  72.561  1.00  0.00    -0.459 OA 
ENDBRANCH  17  19
ENDBRANCH  15  17
ENDBRANCH   6  15
ENDBRANCH   4   6
ENDBRANCH   3   4
ENDBRANCH   2   3
TORSDOF 9
ENDMDL
MODEL       93
REMARK 921   NORMALIZED FREE ENERGY PREDICTED BY IDOCK:   -5.13 KCAL/MOL
REMARK 922        TOTAL FREE ENERGY PREDICTED BY IDOCK:   -9.17 KCAL/MOL
REMARK 923 INTER-LIGAND FREE ENERGY PREDICTED BY IDOCK:   -8.43 KCAL/MOL
REMARK 924 INTRA-LIGAND FREE ENERGY PREDICTED BY IDOCK:   -0.74 KCAL/MOL
REMARK 927      BINDING AFFINITY PREDICTED BY RF-SCORE:    0.00 PKD
ROOT
HETATM    1  C   UNK A   0      -6.902   8.326  64.060  1.00  0.00    -0.074 C  
HETATM    2  C   UNK A   0      -7.657   8.980  65.202  1.00  0.00    -0.098 C  
ENDROOT
BRANCH   2   3
HETATM    3  O   UNK A   0      -9.054   8.654  65.135  1.00  0.00    -0.124 OA 
BRANCH   3   4
HETATM    4  C   UNK A   0      -9.884   9.395  65.924  1.00  0.00    -0.291 C  
HETATM    5  O   UNK A   0     -10.352  10.489  65.628  1.00  0.00    -0.256 OA 
BRANCH   4   6
HETATM    6  C   UNK A   0     -10.170   8.659  67.246  1.00  0.00    -0.268 C  
BRANCH   6   7
HETATM    7  C   UNK A   0     -10.897   7.333  66.957  1.00  0.00    -0.350 C  
BRANCH   7   8
HETATM    8  C   UNK A   0     -10.178   6.072  67.446  1.00  0.00    -0.230 C  
BRANCH   8   9
HETATM    9  C   UNK A   0     -10.180   6.067  68.961  1.00  0.00    -0.245 A  
HETATM   10  C   UNK A   0     -11.369   6.262  69.677  1.00  0.00    -0.492 A  
HETATM   11  C   UNK A   0     -11.382   6.157  71.071  1.00  0.00    -0.348 A  
HETATM   12  C   UNK A   0     -10.208   5.855  71.759  1.00  0.00    -0.248 A  
HETATM   13  C   UNK A   0      -9.005   5.765  69.665  1.00  0.00    -0.135 A  
HETATM   14  C   UNK A   0      -9.021   5.661  71.057  1.00  0.00    -0.151 A  
ENDBRANCH   8   9
ENDBRANCH   7   8
ENDBRANCH   6   7
BRANCH   6  15
ATOM     15  N   ALA A   1     -10.973   9.568  68.119  1.00  0.00    -0.479 NA 
ATOM     16  H   ALA A   1     -11.969   9.371  68.021  1.00  0.00     0.000 HD 
BRANCH  15  17
ATOM     17  CA  ALA A   1     -10.575   9.538  69.542  1.00  0.00    -0.221 C  
ATOM     18  CB  ALA A   1      -9.057   9.608  69.697  1.00  0.00    -0.224 C  
BRANCH  17  19
ATOM     19  C   ALA A   1     -11.292  10.641  70.384  1.00  0.00    -0.304 C  
HETATM   20  C   UNK A   2     -11.089  13.704  68.233  1.00  0.00    -0.256 C  
ATOM     21  O   ALA A   1     -11.703  10.458  71.531  1.00  0.00    -0.261 OA 
HETATM   22  C   UNK A   2     -12.005  14.154  69.373  1.00  0.00    -0.382 C  
HETATM   23  N   UNK A   2     -11.481  11.878  69.767  1.00  0.00    -0.462 N  
HETATM   24  S   UNK A   2     -11.979  13.697  66.624  1.00  0.00    -0.413 SA 
HETATM   25  C   UNK A   2     -10.927  14.885  65.753  1.00  0.00    -0.345 C  
HETATM   26  C   UNK A   2     -11.872  13.099  70.495  1.00  0.00    -0.101 C  
HETATM   27  C   UNK A   2     -10.691  12.267  68.596  1.00  0.00    -0.233 C  
HETATM   28  C   UNK A   2     -13.153  13.206  71.360  1.00  0.00    -0.266 C  
HETATM   29  C   UNK A   2      -9.517  14.779  66.292  1.00  0.00    -0.303 C  
HETATM   30  S   UNK A   2      -9.621  14.785  68.098  1.00  0.00    -0.215 SA 
HETATM   31  O   UNK A   2     -13.596  12.066  71.919  1.00  0.00    -0.288 OA 
HETATM   32  O   UNK A   2     -13.690  14.278  71.620  1.00  0.00    -0.362 OA 
ENDBRANCH  17  19
ENDBRANCH  15  17
ENDBRANCH   6  15
ENDBRANCH   4   6
ENDBRANCH   3   4
ENDBRANCH   2   3
TORSDOF 9
ENDMDL
MODEL       94
REMARK 921   NORMALIZED FREE ENERGY PREDICTED BY IDOCK:   -5.11 KCAL/MOL
REMARK 922        TOTAL FREE ENERGY PREDICTED BY IDOCK:   -9.14 KCAL/MOL
REMARK 923 INTER-LIGAND FREE ENERGY PREDICTED BY IDOCK:   -7.83 KCAL/MOL
REMARK 924 INTRA-LIGAND FREE ENERGY PREDICTED BY IDOCK:   -1.31 KCAL/MOL
REMARK 927      BINDING AFFINITY PREDICTED BY RF-SCORE:    0.00 PKD
ROOT
HETATM    1  C   UNK A   0     -13.365   9.430  72.166  1.00  0.00    -0.545 C  
HETATM    2  C   UNK A   0     -12.157   8.512  72.147  1.00  0.00    -0.383 C  
ENDROOT
BRANCH   2   3
HETATM    3  O   UNK A   0     -11.456   8.629  70.899  1.00  0.00    -0.271 OA 
BRANCH   3   4
HETATM    4  C   UNK A   0     -10.141   8.986  70.978  1.00  0.00    -0.282 C  
HETATM    5  O   UNK A   0      -9.509   9.131  72.018  1.00  0.00    -0.323 OA 
BRANCH   4   6
HETATM    6  C   UNK A   0      -9.548   9.170  69.569  1.00  0.00    -0.168 C  
BRANCH   6   7
HETATM    7  C   UNK A   0      -8.264   8.332  69.430  1.00  0.00    -0.117 C  
BRANCH   7   8
HETATM    8  C   UNK A   0      -8.157   7.506  68.146  1.00  0.00    -0.124 C  
BRANCH   8   9
HETATM    9  C   UNK A   0      -8.179   8.446  66.958  1.00  0.00    -0.107 A  
HETATM   10  C   UNK A   0      -9.330   8.578  66.169  1.00  0.00    -0.279 A  
HETATM   11  C   UNK A   0      -9.378   9.519  65.137  1.00  0.00    -0.316 A  
HETATM   12  C   UNK A   0      -8.277  10.337  64.886  1.00  0.00    -0.157 A  
HETATM   13  C   UNK A   0      -7.078   9.274  66.696  1.00  0.00    -0.082 A  
HETATM   14  C   UNK A   0      -7.128  10.212  65.664  1.00  0.00    -0.133 A  
ENDBRANCH   8   9
ENDBRANCH   7   8
ENDBRANCH   6   7
BRANCH   6  15
ATOM     15  N   ALA A   1      -9.300  10.629  69.358  1.00  0.00    -0.392 NA 
ATOM     16  H   ALA A   1      -8.409  10.776  68.884  1.00  0.00     0.000 HD 
BRANCH  15  17
ATOM     17  CA  ALA A   1     -10.389  11.325  68.642  1.00  0.00    -0.201 C  
ATOM     18  CB  ALA A   1     -11.327  10.333  67.956  1.00  0.00    -0.219 C  
BRANCH  17  19
ATOM     19  C   ALA A   1     -11.171  12.314  69.563  1.00  0.00    -0.115 C  
HETATM   20  C   UNK A   2     -10.084  15.704  68.392  1.00  0.00    -0.214 C  
ATOM     21  O   ALA A   1     -11.881  11.948  70.501  1.00  0.00    -0.320 OA 
HETATM   22  C   UNK A   2     -11.207  16.034  69.378  1.00  0.00    -0.349 C  
HETATM   23  N   UNK A   2     -11.057  13.672  69.266  1.00  0.00    -0.378 N  
HETATM   24  S   UNK A   2     -10.525  16.216  66.682  1.00  0.00    -0.277 SA 
HETATM   25  C   UNK A   2      -9.160  17.372  66.408  1.00  0.00    -0.248 C  
HETATM   26  C   UNK A   2     -11.485  14.744  70.185  1.00  0.00    -0.266 C  
HETATM   27  C   UNK A   2      -9.954  14.176  68.444  1.00  0.00    -0.235 C  
HETATM   28  C   UNK A   2     -12.924  14.869  70.741  1.00  0.00    -0.365 C  
HETATM   29  C   UNK A   2      -7.956  16.906  67.200  1.00  0.00    -0.182 C  
HETATM   30  S   UNK A   2      -8.520  16.520  68.874  1.00  0.00    -0.209 SA 
HETATM   31  O   UNK A   2     -13.620  13.726  70.869  1.00  0.00    -0.059 OA 
HETATM   32  O   UNK A   2     -13.388  15.931  71.147  1.00  0.00    -0.516 OA 
ENDBRANCH  17  19
ENDBRANCH  15  17
ENDBRANCH   6  15
ENDBRANCH   4   6
ENDBRANCH   3   4
ENDBRANCH   2   3
TORSDOF 9
ENDMDL
MODEL       95
REMARK 921   NORMALIZED FREE ENERGY PREDICTED BY IDOCK:   -5.09 KCAL/MOL
REMARK 922        TOTAL FREE ENERGY PREDICTED BY IDOCK:   -9.12 KCAL/MOL
REMARK 923 INTER-LIGAND FREE ENERGY PREDICTED BY IDOCK:   -7.52 KCAL/MOL
REMARK 924 INTRA-LIGAND FREE ENERGY PREDICTED BY IDOCK:   -1.60 KCAL/MOL
REMARK 927      BINDING AFFINITY PREDICTED BY RF-SCORE:    0.00 PKD
ROOT
HETATM    1  C   UNK A   0      -7.997   8.083  62.550  1.00  0.00    -0.154 C  
HETATM    2  C   UNK A   0      -8.762   9.379  62.358  1.00  0.00    -0.231 C  
ENDROOT
BRANCH   2   3
HETATM    3  O   UNK A   0      -8.379  10.341  63.353  1.00  0.00    -0.158 OA 
BRANCH   3   4
HETATM    4  C   UNK A   0      -9.346  10.700  64.247  1.00  0.00    -0.258 C  
HETATM    5  O   UNK A   0     -10.518  10.929  63.968  1.00  0.00    -0.364 OA 
BRANCH   4   6
HETATM    6  C   UNK A   0      -8.765  10.766  65.671  1.00  0.00    -0.190 C  
BRANCH   6   7
HETATM    7  C   UNK A   0      -8.667   9.347  66.260  1.00  0.00    -0.157 C  
BRANCH   7   8
HETATM    8  C   UNK A   0      -9.999   8.604  66.402  1.00  0.00    -0.331 C  
BRANCH   8   9
HETATM    9  C   UNK A   0      -9.719   7.173  66.809  1.00  0.00    -0.252 A  
HETATM   10  C   UNK A   0      -8.556   6.844  67.521  1.00  0.00    -0.121 A  
HETATM   11  C   UNK A   0      -8.351   5.541  67.980  1.00  0.00    -0.099 A  
HETATM   12  C   UNK A   0      -9.306   4.556  67.734  1.00  0.00    -0.180 A  
HETATM   13  C   UNK A   0     -10.672   6.173  66.567  1.00  0.00    -0.207 A  
HETATM   14  C   UNK A   0     -10.464   4.871  67.027  1.00  0.00    -0.164 A  
ENDBRANCH   8   9
ENDBRANCH   7   8
ENDBRANCH   6   7
BRANCH   6  15
ATOM     15  N   ALA A   1      -9.640  11.660  66.488  1.00  0.00    -0.203 NA 
ATOM     16  H   ALA A   1     -10.623  11.432  66.341  1.00  0.00     0.000 HD 
BRANCH  15  17
ATOM     17  CA  ALA A   1      -9.318  11.659  67.930  1.00  0.00    -0.174 C  
ATOM     18  CB  ALA A   1      -8.211  12.661  68.254  1.00  0.00    -0.164 C  
BRANCH  17  19
ATOM     19  C   ALA A   1     -10.580  11.888  68.822  1.00  0.00    -0.206 C  
HETATM   20  C   UNK A   2     -10.726   8.838  70.995  1.00  0.00    -0.229 C  
ATOM     21  O   ALA A   1     -11.342  12.846  68.684  1.00  0.00    -0.249 OA 
HETATM   22  C   UNK A   2     -11.814   9.730  71.596  1.00  0.00    -0.429 C  
HETATM   23  N   UNK A   2     -10.812  10.954  69.832  1.00  0.00    -0.446 N  
HETATM   24  S   UNK A   2      -9.357   8.555  72.190  1.00  0.00    -0.278 SA 
HETATM   25  C   UNK A   2      -9.477   6.752  72.285  1.00  0.00    -0.141 C  
HETATM   26  C   UNK A   2     -12.086  10.854  70.569  1.00  0.00    -0.371 C  
HETATM   27  C   UNK A   2     -10.191   9.628  69.793  1.00  0.00    -0.237 C  
HETATM   28  C   UNK A   2     -12.714  12.031  71.355  1.00  0.00    -0.275 C  
HETATM   29  C   UNK A   2      -9.978   6.223  70.957  1.00  0.00    -0.182 C  
HETATM   30  S   UNK A   2     -11.407   7.222  70.476  1.00  0.00    -0.266 SA 
HETATM   31  O   UNK A   2     -12.433  13.268  70.910  1.00  0.00    -0.362 OA 
HETATM   32  O   UNK A   2     -13.512  11.865  72.273  1.00  0.00    -0.442 OA 
ENDBRANCH  17  19
ENDBRANCH  15  17
ENDBRANCH   6  15
ENDBRANCH   4   6
ENDBRANCH   3   4
ENDBRANCH   2   3
TORSDOF 9
ENDMDL
MODEL       96
REMARK 921   NORMALIZED FREE ENERGY PREDICTED BY IDOCK:   -5.09 KCAL/MOL
REMARK 922        TOTAL FREE ENERGY PREDICTED BY IDOCK:   -9.11 KCAL/MOL
REMARK 923 INTER-LIGAND FREE ENERGY PREDICTED BY IDOCK:   -7.38 KCAL/MOL
REMARK 924 INTRA-LIGAND FREE ENERGY PREDICTED BY IDOCK:   -1.73 KCAL/MOL
REMARK 927      BINDING AFFINITY PREDICTED BY RF-SCORE:    0.00 PKD
ROOT
HETATM    1  C   UNK A   0      -6.439   9.196  71.004  1.00  0.00    -0.081 C  
HETATM    2  C   UNK A   0      -5.838  10.431  70.358  1.00  0.00    -0.094 C  
ENDROOT
BRANCH   2   3
HETATM    3  O   UNK A   0      -6.818  11.101  69.548  1.00  0.00    -0.114 OA 
BRANCH   3   4
HETATM    4  C   UNK A   0      -6.875  10.723  68.238  1.00  0.00    -0.067 C  
HETATM    5  O   UNK A   0      -5.914  10.394  67.553  1.00  0.00    -0.052 OA 
BRANCH   4   6
HETATM    6  C   UNK A   0      -8.330  10.754  67.733  1.00  0.00    -0.113 C  
BRANCH   6   7
HETATM    7  C   UNK A   0      -8.454  11.743  66.561  1.00  0.00    -0.125 C  
BRANCH   7   8
HETATM    8  C   UNK A   0      -8.918  11.133  65.235  1.00  0.00    -0.134 C  
BRANCH   8   9
HETATM    9  C   UNK A   0     -10.137  11.889  64.751  1.00  0.00    -0.295 A  
HETATM   10  C   UNK A   0     -10.353  13.222  65.131  1.00  0.00    -0.336 A  
HETATM   11  C   UNK A   0     -11.424  13.945  64.602  1.00  0.00    -0.386 A  
HETATM   12  C   UNK A   0     -12.288  13.345  63.687  1.00  0.00    -0.422 A  
HETATM   13  C   UNK A   0     -11.013  11.297  63.830  1.00  0.00    -0.381 A  
HETATM   14  C   UNK A   0     -12.083  12.022  63.303  1.00  0.00    -0.509 A  
ENDBRANCH   8   9
ENDBRANCH   7   8
ENDBRANCH   6   7
BRANCH   6  15
ATOM     15  N   ALA A   1      -9.211  11.122  68.883  1.00  0.00    -0.336 NA 
ATOM     16  H   ALA A   1      -8.764  11.830  69.465  1.00  0.00     0.000 HD 
BRANCH  15  17
ATOM     17  CA  ALA A   1     -10.565  11.560  68.484  1.00  0.00    -0.210 C  
ATOM     18  CB  ALA A   1     -11.446  10.370  68.106  1.00  0.00    -0.194 C  
BRANCH  17  19
ATOM     19  C   ALA A   1     -11.244  12.458  69.567  1.00  0.00    -0.100 C  
HETATM   20  C   UNK A   2     -10.087  15.924  68.735  1.00  0.00    -0.221 C  
ATOM     21  O   ALA A   1     -11.909  12.006  70.501  1.00  0.00    -0.302 OA 
HETATM   22  C   UNK A   2     -11.130  16.171  69.826  1.00  0.00    -0.350 C  
HETATM   23  N   UNK A   2     -11.090  13.837  69.426  1.00  0.00    -0.398 N  
HETATM   24  S   UNK A   2     -10.611  16.654  67.131  1.00  0.00    -0.213 SA 
HETATM   25  C   UNK A   2      -9.217  17.786  66.904  1.00  0.00    -0.258 C  
HETATM   26  C   UNK A   2     -11.412  14.805  70.491  1.00  0.00    -0.249 C  
HETATM   27  C   UNK A   2     -10.020  14.397  68.596  1.00  0.00    -0.241 C  
HETATM   28  C   UNK A   2     -12.808  14.913  71.154  1.00  0.00    -0.359 C  
HETATM   29  C   UNK A   2      -7.988  17.185  67.552  1.00  0.00    -0.176 C  
HETATM   30  S   UNK A   2      -8.462  16.619  69.203  1.00  0.00    -0.024 SA 
HETATM   31  O   UNK A   2     -13.542  13.787  71.193  1.00  0.00    -0.188 OA 
HETATM   32  O   UNK A   2     -13.199  15.933  71.714  1.00  0.00    -0.451 OA 
ENDBRANCH  17  19
ENDBRANCH  15  17
ENDBRANCH   6  15
ENDBRANCH   4   6
ENDBRANCH   3   4
ENDBRANCH   2   3
TORSDOF 9
ENDMDL
MODEL       97
REMARK 921   NORMALIZED FREE ENERGY PREDICTED BY IDOCK:   -5.08 KCAL/MOL
REMARK 922        TOTAL FREE ENERGY PREDICTED BY IDOCK:   -9.10 KCAL/MOL
REMARK 923 INTER-LIGAND FREE ENERGY PREDICTED BY IDOCK:   -9.07 KCAL/MOL
REMARK 924 INTRA-LIGAND FREE ENERGY PREDICTED BY IDOCK:   -0.03 KCAL/MOL
REMARK 927      BINDING AFFINITY PREDICTED BY RF-SCORE:    0.00 PKD
ROOT
HETATM    1  C   UNK A   0     -13.406  13.522  72.452  1.00  0.00    -0.641 C  
HETATM    2  C   UNK A   0     -13.179  14.619  71.428  1.00  0.00    -0.357 C  
ENDROOT
BRANCH   2   3
HETATM    3  O   UNK A   0     -11.932  14.419  70.745  1.00  0.00    -0.301 OA 
BRANCH   3   4
HETATM    4  C   UNK A   0     -11.825  14.986  69.508  1.00  0.00    -0.330 C  
HETATM    5  O   UNK A   0     -12.654  15.731  68.997  1.00  0.00     0.087 OA 
BRANCH   4   6
HETATM    6  C   UNK A   0     -10.502  14.571  68.838  1.00  0.00    -0.246 C  
BRANCH   6   7
HETATM    7  C   UNK A   0     -10.496  15.030  67.369  1.00  0.00    -0.257 C  
BRANCH   7   8
HETATM    8  C   UNK A   0      -9.329  15.939  66.973  1.00  0.00    -0.230 C  
BRANCH   8   9
HETATM    9  C   UNK A   0      -9.720  17.378  67.235  1.00  0.00    -0.267 A  
HETATM   10  C   UNK A   0      -9.424  17.990  68.461  1.00  0.00    -0.326 A  
HETATM   11  C   UNK A   0      -9.698  19.346  68.661  1.00  0.00    -0.504 A  
HETATM   12  C   UNK A   0     -10.268  20.101  67.638  1.00  0.00    -0.516 A  
HETATM   13  C   UNK A   0     -10.295  18.148  66.214  1.00  0.00    -0.407 A  
HETATM   14  C   UNK A   0     -10.568  19.502  66.417  1.00  0.00    -0.571 A  
ENDBRANCH   8   9
ENDBRANCH   7   8
ENDBRANCH   6   7
BRANCH   6  15
ATOM     15  N   ALA A   1     -10.361  13.089  68.970  1.00  0.00    -0.436 NA 
ATOM     16  H   ALA A   1     -10.079  12.839  69.918  1.00  0.00     0.000 HD 
BRANCH  15  17
ATOM     17  CA  ALA A   1     -11.567  12.334  68.572  1.00  0.00    -0.310 C  
ATOM     18  CB  ALA A   1     -11.441  11.797  67.147  1.00  0.00    -0.366 C  
BRANCH  17  19
ATOM     19  C   ALA A   1     -11.921  11.198  69.585  1.00  0.00    -0.359 C  
HETATM   20  C   UNK A   2      -8.844   9.060  69.669  1.00  0.00    -0.145 C  
ATOM     21  O   ALA A   1     -13.032  11.075  70.103  1.00  0.00    -0.133 OA 
HETATM   22  C   UNK A   2      -9.695   8.468  70.795  1.00  0.00    -0.221 C  
HETATM   23  N   UNK A   2     -10.897  10.311  69.916  1.00  0.00    -0.283 N  
HETATM   24  S   UNK A   2      -7.291   9.796  70.321  1.00  0.00    -0.152 SA 
HETATM   25  C   UNK A   2      -6.121   8.766  69.401  1.00  0.00    -0.041 C  
HETATM   26  C   UNK A   2     -11.123   9.034  70.619  1.00  0.00    -0.265 C  
HETATM   27  C   UNK A   2      -9.714  10.170  69.063  1.00  0.00    -0.206 C  
HETATM   28  C   UNK A   2     -11.815   8.930  72.000  1.00  0.00    -0.368 C  
HETATM   29  C   UNK A   2      -6.747   8.375  68.079  1.00  0.00    -0.065 C  
HETATM   30  S   UNK A   2      -8.424   7.791  68.421  1.00  0.00    -0.124 SA 
HETATM   31  O   UNK A   2     -12.713   9.886  72.295  1.00  0.00    -0.325 OA 
HETATM   32  O   UNK A   2     -11.647   7.977  72.756  1.00  0.00    -0.405 OA 
ENDBRANCH  17  19
ENDBRANCH  15  17
ENDBRANCH   6  15
ENDBRANCH   4   6
ENDBRANCH   3   4
ENDBRANCH   2   3
TORSDOF 9
ENDMDL
MODEL       98
REMARK 921   NORMALIZED FREE ENERGY PREDICTED BY IDOCK:   -5.08 KCAL/MOL
REMARK 922        TOTAL FREE ENERGY PREDICTED BY IDOCK:   -9.09 KCAL/MOL
REMARK 923 INTER-LIGAND FREE ENERGY PREDICTED BY IDOCK:   -7.49 KCAL/MOL
REMARK 924 INTRA-LIGAND FREE ENERGY PREDICTED BY IDOCK:   -1.61 KCAL/MOL
REMARK 927      BINDING AFFINITY PREDICTED BY RF-SCORE:    0.00 PKD
ROOT
HETATM    1  C   UNK A   0     -10.850  18.193  67.815  1.00  0.00    -0.250 C  
HETATM    2  C   UNK A   0      -9.491  17.886  67.216  1.00  0.00    -0.263 C  
ENDROOT
BRANCH   2   3
HETATM    3  O   UNK A   0      -9.324  16.469  67.047  1.00  0.00    -0.221 OA 
BRANCH   3   4
HETATM    4  C   UNK A   0      -8.750  15.802  68.090  1.00  0.00    -0.173 C  
HETATM    5  O   UNK A   0      -8.096  16.320  68.988  1.00  0.00    -0.224 OA 
BRANCH   4   6
HETATM    6  C   UNK A   0      -9.050  14.295  67.994  1.00  0.00    -0.191 C  
BRANCH   6   7
HETATM    7  C   UNK A   0     -10.571  14.062  68.052  1.00  0.00    -0.250 C  
BRANCH   7   8
HETATM    8  C   UNK A   0     -11.271  14.617  69.295  1.00  0.00    -0.306 C  
BRANCH   8   9
HETATM    9  C   UNK A   0     -11.806  13.459  70.112  1.00  0.00    -0.342 A  
HETATM   10  C   UNK A   0     -12.615  13.686  71.234  1.00  0.00    -0.435 A  
HETATM   11  C   UNK A   0     -13.186  12.613  71.924  1.00  0.00    -0.504 A  
HETATM   12  C   UNK A   0     -12.956  11.306  71.497  1.00  0.00    -0.520 A  
HETATM   13  C   UNK A   0     -11.581  12.140  69.692  1.00  0.00    -0.361 A  
HETATM   14  C   UNK A   0     -12.153  11.070  70.384  1.00  0.00    -0.463 A  
ENDBRANCH   8   9
ENDBRANCH   7   8
ENDBRANCH   6   7
BRANCH   6  15
ATOM     15  N   ALA A   1      -8.328  13.607  69.107  1.00  0.00    -0.293 NA 
ATOM     16  H   ALA A   1      -8.980  13.332  69.841  1.00  0.00     0.000 HD 
BRANCH  15  17
ATOM     17  CA  ALA A   1      -7.519  12.450  68.672  1.00  0.00    -0.095 C  
ATOM     18  CB  ALA A   1      -6.167  12.416  69.383  1.00  0.00    -0.114 C  
BRANCH  17  19
ATOM     19  C   ALA A   1      -8.284  11.096  68.827  1.00  0.00    -0.135 C  
HETATM   20  C   UNK A   2      -9.693  10.451  65.415  1.00  0.00    -0.265 C  
ATOM     21  O   ALA A   1      -8.415  10.512  69.903  1.00  0.00    -0.009 OA 
HETATM   22  C   UNK A   2     -10.004   9.150  66.158  1.00  0.00    -0.338 C  
HETATM   23  N   UNK A   2      -8.812  10.537  67.663  1.00  0.00    -0.131 N  
HETATM   24  S   UNK A   2      -8.520  10.165  64.029  1.00  0.00    -0.194 SA 
HETATM   25  C   UNK A   2      -9.580  10.741  62.680  1.00  0.00    -0.261 C  
HETATM   26  C   UNK A   2      -9.792   9.434  67.662  1.00  0.00    -0.174 C  
HETATM   27  C   UNK A   2      -9.027  11.351  66.464  1.00  0.00    -0.189 C  
HETATM   28  C   UNK A   2      -9.538   8.066  68.341  1.00  0.00    -0.150 C  
HETATM   29  C   UNK A   2     -10.502  11.820  63.208  1.00  0.00    -0.388 C  
HETATM   30  S   UNK A   2     -11.218  11.217  64.756  1.00  0.00     0.044 SA 
HETATM   31  O   UNK A   2      -8.711   8.066  69.401  1.00  0.00    -0.135 OA 
HETATM   32  O   UNK A   2     -10.131   7.043  68.013  1.00  0.00    -0.155 OA 
ENDBRANCH  17  19
ENDBRANCH  15  17
ENDBRANCH   6  15
ENDBRANCH   4   6
ENDBRANCH   3   4
ENDBRANCH   2   3
TORSDOF 9
ENDMDL
MODEL       99
REMARK 921   NORMALIZED FREE ENERGY PREDICTED BY IDOCK:   -5.04 KCAL/MOL
REMARK 922        TOTAL FREE ENERGY PREDICTED BY IDOCK:   -9.03 KCAL/MOL
REMARK 923 INTER-LIGAND FREE ENERGY PREDICTED BY IDOCK:   -8.17 KCAL/MOL
REMARK 924 INTRA-LIGAND FREE ENERGY PREDICTED BY IDOCK:   -0.87 KCAL/MOL
REMARK 927      BINDING AFFINITY PREDICTED BY RF-SCORE:    0.00 PKD
ROOT
HETATM    1  C   UNK A   0      -9.819   4.335  65.294  1.00  0.00    -0.214 C  
HETATM    2  C   UNK A   0      -8.501   5.061  65.488  1.00  0.00    -0.134 C  
ENDROOT
BRANCH   2   3
HETATM    3  O   UNK A   0      -8.730   6.414  65.913  1.00  0.00    -0.149 OA 
BRANCH   3   4
HETATM    4  C   UNK A   0      -8.393   6.704  67.203  1.00  0.00    -0.113 C  
HETATM    5  O   UNK A   0      -7.610   6.062  67.893  1.00  0.00    -0.093 OA 
BRANCH   4   6
HETATM    6  C   UNK A   0      -9.128   7.972  67.678  1.00  0.00    -0.137 C  
BRANCH   6   7
HETATM    7  C   UNK A   0     -10.639   7.692  67.777  1.00  0.00    -0.265 C  
BRANCH   7   8
HETATM    8  C   UNK A   0     -11.015   6.254  68.147  1.00  0.00    -0.412 C  
BRANCH   8   9
HETATM    9  C   UNK A   0     -11.102   6.146  69.655  1.00  0.00    -0.489 A  
HETATM   10  C   UNK A   0     -12.031   6.910  70.376  1.00  0.00    -0.312 A  
HETATM   11  C   UNK A   0     -12.176   6.734  71.755  1.00  0.00    -0.402 A  
HETATM   12  C   UNK A   0     -11.396   5.791  72.424  1.00  0.00    -0.348 A  
HETATM   13  C   UNK A   0     -10.324   5.201  70.340  1.00  0.00    -0.326 A  
HETATM   14  C   UNK A   0     -10.470   5.028  71.717  1.00  0.00    -0.246 A  
ENDBRANCH   8   9
ENDBRANCH   7   8
ENDBRANCH   6   7
BRANCH   6  15
ATOM     15  N   ALA A   1      -8.817   9.075  66.718  1.00  0.00    -0.125 NA 
ATOM     16  H   ALA A   1      -9.283   8.915  65.825  1.00  0.00     0.000 HD 
BRANCH  15  17
ATOM     17  CA  ALA A   1      -9.131  10.423  67.233  1.00  0.00    -0.135 C  
ATOM     18  CB  ALA A   1      -7.867  11.266  67.393  1.00  0.00    -0.128 C  
BRANCH  17  19
ATOM     19  C   ALA A   1     -10.205  11.156  66.367  1.00  0.00    -0.233 C  
HETATM   20  C   UNK A   2     -11.354  13.984  68.541  1.00  0.00    -0.277 C  
ATOM     21  O   ALA A   1     -10.585  10.746  65.269  1.00  0.00    -0.249 OA 
HETATM   22  C   UNK A   2     -12.040  14.286  67.208  1.00  0.00    -0.390 C  
HETATM   23  N   UNK A   2     -10.723  12.345  66.883  1.00  0.00    -0.236 N  
HETATM   24  S   UNK A   2     -10.140  15.293  68.980  1.00  0.00    -0.250 SA 
HETATM   25  C   UNK A   2     -10.884  15.810  70.546  1.00  0.00    -0.301 C  
HETATM   26  C   UNK A   2     -11.929  13.006  66.349  1.00  0.00    -0.402 C  
HETATM   27  C   UNK A   2     -10.610  12.662  68.308  1.00  0.00    -0.237 C  
HETATM   28  C   UNK A   2     -12.079  13.447  64.872  1.00  0.00    -0.392 C  
HETATM   29  C   UNK A   2     -11.577  14.620  71.176  1.00  0.00    -0.220 C  
HETATM   30  S   UNK A   2     -12.576  13.828  69.894  1.00  0.00     0.046 SA 
HETATM   31  O   UNK A   2     -11.393  12.735  63.961  1.00  0.00    -0.360 OA 
HETATM   32  O   UNK A   2     -12.857  14.327  64.519  1.00  0.00    -0.637 OA 
ENDBRANCH  17  19
ENDBRANCH  15  17
ENDBRANCH   6  15
ENDBRANCH   4   6
ENDBRANCH   3   4
ENDBRANCH   2   3
TORSDOF 9
ENDMDL
MODEL      100
REMARK 921   NORMALIZED FREE ENERGY PREDICTED BY IDOCK:   -5.03 KCAL/MOL
REMARK 922        TOTAL FREE ENERGY PREDICTED BY IDOCK:   -9.02 KCAL/MOL
REMARK 923 INTER-LIGAND FREE ENERGY PREDICTED BY IDOCK:   -8.88 KCAL/MOL
REMARK 924 INTRA-LIGAND FREE ENERGY PREDICTED BY IDOCK:   -0.14 KCAL/MOL
REMARK 927      BINDING AFFINITY PREDICTED BY RF-SCORE:    0.00 PKD
ROOT
HETATM    1  C   UNK A   0     -11.320  11.617  63.896  1.00  0.00    -0.457 C  
HETATM    2  C   UNK A   0     -11.024  12.391  65.168  1.00  0.00    -0.302 C  
ENDROOT
BRANCH   2   3
HETATM    3  O   UNK A   0     -11.743  11.830  66.277  1.00  0.00    -0.482 OA 
BRANCH   3   4
HETATM    4  C   UNK A   0     -10.996  11.160  67.202  1.00  0.00    -0.291 C  
HETATM    5  O   UNK A   0      -9.861  10.734  67.021  1.00  0.00    -0.179 OA 
BRANCH   4   6
HETATM    6  C   UNK A   0     -11.774  11.021  68.523  1.00  0.00    -0.278 C  
BRANCH   6   7
HETATM    7  C   UNK A   0     -11.397  12.171  69.473  1.00  0.00    -0.277 C  
BRANCH   7   8
HETATM    8  C   UNK A   0     -12.065  13.516  69.171  1.00  0.00    -0.331 C  
BRANCH   8   9
HETATM    9  C   UNK A   0     -12.388  14.205  70.480  1.00  0.00    -0.434 A  
HETATM   10  C   UNK A   0     -13.141  13.554  71.467  1.00  0.00    -0.427 A  
HETATM   11  C   UNK A   0     -13.351  14.156  72.710  1.00  0.00    -0.618 A  
HETATM   12  C   UNK A   0     -12.809  15.412  72.979  1.00  0.00    -0.572 A  
HETATM   13  C   UNK A   0     -11.848  15.468  70.762  1.00  0.00    -0.406 A  
HETATM   14  C   UNK A   0     -12.060  16.068  72.005  1.00  0.00    -0.606 A  
ENDBRANCH   8   9
ENDBRANCH   7   8
ENDBRANCH   6   7
BRANCH   6  15
ATOM     15  N   ALA A   1     -11.464   9.679  69.105  1.00  0.00    -0.454 NA 
ATOM     16  H   ALA A   1     -10.601   9.307  68.707  1.00  0.00     0.000 HD 
BRANCH  15  17
ATOM     17  CA  ALA A   1     -11.402   9.666  70.581  1.00  0.00    -0.312 C  
ATOM     18  CB  ALA A   1     -12.657   9.037  71.185  1.00  0.00    -0.263 C  
BRANCH  17  19
ATOM     19  C   ALA A   1     -10.103   8.984  71.117  1.00  0.00    -0.295 C  
HETATM   20  C   UNK A   2      -9.124   6.612  68.386  1.00  0.00    -0.124 C  
ATOM     21  O   ALA A   1      -9.649   9.184  72.245  1.00  0.00    -0.210 OA 
HETATM   22  C   UNK A   2      -7.928   6.541  69.336  1.00  0.00    -0.114 C  
HETATM   23  N   UNK A   2      -9.434   8.130  70.240  1.00  0.00    -0.169 N  
HETATM   24  S   UNK A   2      -8.642   7.314  66.756  1.00  0.00    -0.132 SA 
HETATM   25  C   UNK A   2      -9.098   5.896  65.728  1.00  0.00    -0.087 C  
HETATM   26  C   UNK A   2      -8.373   7.197  70.663  1.00  0.00    -0.126 C  
HETATM   27  C   UNK A   2     -10.113   7.563  69.072  1.00  0.00    -0.192 C  
HETATM   28  C   UNK A   2      -7.083   7.645  71.393  1.00  0.00    -0.058 C  
HETATM   29  C   UNK A   2     -10.262   5.175  66.376  1.00  0.00    -0.266 C  
HETATM   30  S   UNK A   2      -9.864   4.960  68.128  1.00  0.00    -0.112 SA 
HETATM   31  O   UNK A   2      -7.174   8.753  72.149  1.00  0.00    -0.264 OA 
HETATM   32  O   UNK A   2      -6.050   6.981  71.380  1.00  0.00    -0.036 OA 
ENDBRANCH  17  19
ENDBRANCH  15  17
ENDBRANCH   6  15
ENDBRANCH   4   6
ENDBRANCH   3   4
ENDBRANCH   2   3
TORSDOF 9
ENDMDL
MODEL      101
REMARK 921   NORMALIZED FREE ENERGY PREDICTED BY IDOCK:   -5.02 KCAL/MOL
REMARK 922        TOTAL FREE ENERGY PREDICTED BY IDOCK:   -9.00 KCAL/MOL
REMARK 923 INTER-LIGAND FREE ENERGY PREDICTED BY IDOCK:   -7.81 KCAL/MOL
REMARK 924 INTRA-LIGAND FREE ENERGY PREDICTED BY IDOCK:   -1.19 KCAL/MOL
REMARK 927      BINDING AFFINITY PREDICTED BY RF-SCORE:    0.00 PKD
ROOT
HETATM    1  C   UNK A   0      -6.892   8.773  63.879  1.00  0.00    -0.087 C  
HETATM    2  C   UNK A   0      -7.753   7.795  64.656  1.00  0.00    -0.121 C  
ENDROOT
BRANCH   2   3
HETATM    3  O   UNK A   0      -8.393   8.455  65.760  1.00  0.00    -0.128 OA 
BRANCH   3   4
HETATM    4  C   UNK A   0      -8.094   7.976  67.003  1.00  0.00    -0.116 C  
HETATM    5  O   UNK A   0      -8.112   6.795  67.330  1.00  0.00    -0.115 OA 
BRANCH   4   6
HETATM    6  C   UNK A   0      -7.714   9.132  67.946  1.00  0.00    -0.093 C  
BRANCH   6   7
HETATM    7  C   UNK A   0      -8.881   9.426  68.906  1.00  0.00    -0.136 C  
BRANCH   7   8
HETATM    8  C   UNK A   0      -8.529   9.388  70.396  1.00  0.00    -0.247 C  
BRANCH   8   9
HETATM    9  C   UNK A   0      -9.740   8.912  71.171  1.00  0.00    -0.344 A  
HETATM   10  C   UNK A   0     -11.028   9.022  70.627  1.00  0.00    -0.308 A  
HETATM   11  C   UNK A   0     -12.130   8.491  71.303  1.00  0.00    -0.323 A  
HETATM   12  C   UNK A   0     -11.954   7.845  72.526  1.00  0.00    -0.349 A  
HETATM   13  C   UNK A   0      -9.577   8.261  72.402  1.00  0.00    -0.364 A  
HETATM   14  C   UNK A   0     -10.679   7.732  73.075  1.00  0.00    -0.446 A  
ENDBRANCH   8   9
ENDBRANCH   7   8
ENDBRANCH   6   7
BRANCH   6  15
ATOM     15  N   ALA A   1      -7.356  10.317  67.108  1.00  0.00    -0.090 NA 
ATOM     16  H   ALA A   1      -7.560  10.134  66.125  1.00  0.00     0.000 HD 
BRANCH  15  17
ATOM     17  CA  ALA A   1      -7.994  11.575  67.545  1.00  0.00    -0.133 C  
ATOM     18  CB  ALA A   1      -6.962  12.688  67.727  1.00  0.00    -0.125 C  
BRANCH  17  19
ATOM     19  C   ALA A   1      -9.154  12.016  66.597  1.00  0.00    -0.205 C  
HETATM   20  C   UNK A   2     -11.292  14.227  68.738  1.00  0.00    -0.275 C  
ATOM     21  O   ALA A   1      -9.291  11.588  65.449  1.00  0.00    -0.217 OA 
HETATM   22  C   UNK A   2     -11.912  14.404  67.350  1.00  0.00    -0.407 C  
HETATM   23  N   UNK A   2     -10.049  12.962  67.097  1.00  0.00    -0.240 N  
HETATM   24  S   UNK A   2     -10.571  15.803  69.353  1.00  0.00    -0.281 SA 
HETATM   25  C   UNK A   2     -11.577  15.971  70.848  1.00  0.00    -0.418 C  
HETATM   26  C   UNK A   2     -11.343  13.274  66.461  1.00  0.00    -0.322 C  
HETATM   27  C   UNK A   2     -10.168  13.202  68.537  1.00  0.00    -0.215 C  
HETATM   28  C   UNK A   2     -11.482  13.749  64.994  1.00  0.00    -0.332 C  
HETATM   29  C   UNK A   2     -11.936  14.591  71.355  1.00  0.00    -0.315 C  
HETATM   30  S   UNK A   2     -12.529  13.628  69.944  1.00  0.00    -0.074 SA 
HETATM   31  O   UNK A   2     -10.534  13.334  64.136  1.00  0.00    -0.414 OA 
HETATM   32  O   UNK A   2     -12.453  14.384  64.592  1.00  0.00    -0.566 OA 
ENDBRANCH  17  19
ENDBRANCH  15  17
ENDBRANCH   6  15
ENDBRANCH   4   6
ENDBRANCH   3   4
ENDBRANCH   2   3
TORSDOF 9
ENDMDL
MODEL      102
REMARK 921   NORMALIZED FREE ENERGY PREDICTED BY IDOCK:   -5.01 KCAL/MOL
REMARK 922        TOTAL FREE ENERGY PREDICTED BY IDOCK:   -8.99 KCAL/MOL
REMARK 923 INTER-LIGAND FREE ENERGY PREDICTED BY IDOCK:   -8.75 KCAL/MOL
REMARK 924 INTRA-LIGAND FREE ENERGY PREDICTED BY IDOCK:   -0.24 KCAL/MOL
REMARK 927      BINDING AFFINITY PREDICTED BY RF-SCORE:    0.00 PKD
ROOT
HETATM    1  C   UNK A   0     -13.944  14.906  72.250  1.00  0.00    -0.602 C  
HETATM    2  C   UNK A   0     -13.639  13.421  72.328  1.00  0.00    -0.605 C  
ENDROOT
BRANCH   2   3
HETATM    3  O   UNK A   0     -13.408  12.885  71.016  1.00  0.00     0.014 OA 
BRANCH   3   4
HETATM    4  C   UNK A   0     -12.632  11.764  70.951  1.00  0.00    -0.289 C  
HETATM    5  O   UNK A   0     -12.694  10.815  71.724  1.00  0.00    -0.413 OA 
BRANCH   4   6
HETATM    6  C   UNK A   0     -11.667  11.847  69.755  1.00  0.00    -0.331 C  
BRANCH   6   7
HETATM    7  C   UNK A   0     -12.109  12.976  68.806  1.00  0.00    -0.197 C  
BRANCH   7   8
HETATM    8  C   UNK A   0     -11.113  14.129  68.653  1.00  0.00    -0.283 C  
BRANCH   8   9
HETATM    9  C   UNK A   0     -11.197  14.662  67.238  1.00  0.00    -0.344 A  
HETATM   10  C   UNK A   0     -10.537  15.844  66.876  1.00  0.00    -0.309 A  
HETATM   11  C   UNK A   0     -10.535  16.277  65.547  1.00  0.00    -0.383 A  
HETATM   12  C   UNK A   0     -11.190  15.530  64.569  1.00  0.00    -0.327 A  
HETATM   13  C   UNK A   0     -11.853  13.920  66.245  1.00  0.00    -0.431 A  
HETATM   14  C   UNK A   0     -11.851  14.355  64.918  1.00  0.00    -0.419 A  
ENDBRANCH   8   9
ENDBRANCH   7   8
ENDBRANCH   6   7
BRANCH   6  15
ATOM     15  N   ALA A   1     -11.649  10.513  69.080  1.00  0.00    -0.423 NA 
ATOM     16  H   ALA A   1     -12.570  10.289  68.704  1.00  0.00     0.000 HD 
BRANCH  15  17
ATOM     17  CA  ALA A   1     -10.616  10.385  68.032  1.00  0.00    -0.221 C  
ATOM     18  CB  ALA A   1      -9.342  11.138  68.411  1.00  0.00    -0.185 C  
BRANCH  17  19
ATOM     19  C   ALA A   1     -10.318   8.895  67.668  1.00  0.00    -0.251 C  
HETATM   20  C   UNK A   2      -9.955   7.202  70.992  1.00  0.00    -0.188 C  
ATOM     21  O   ALA A   1     -10.157   8.499  66.513  1.00  0.00    -0.274 OA 
HETATM   22  C   UNK A   2      -9.933   6.026  70.012  1.00  0.00    -0.227 C  
HETATM   23  N   UNK A   2     -10.260   7.990  68.728  1.00  0.00    -0.203 N  
HETATM   24  S   UNK A   2     -11.425   7.125  72.094  1.00  0.00    -0.277 SA 
HETATM   25  C   UNK A   2     -10.548   7.034  73.674  1.00  0.00    -0.345 C  
HETATM   26  C   UNK A   2      -9.716   6.625  68.603  1.00  0.00    -0.129 C  
HETATM   27  C   UNK A   2     -10.054   8.449  70.104  1.00  0.00    -0.191 C  
HETATM   28  C   UNK A   2     -10.249   5.582  67.590  1.00  0.00    -0.193 C  
HETATM   29  C   UNK A   2      -9.236   7.779  73.550  1.00  0.00    -0.290 C  
HETATM   30  S   UNK A   2      -8.442   7.236  72.018  1.00  0.00    -0.107 SA 
HETATM   31  O   UNK A   2     -10.785   6.066  66.456  1.00  0.00    -0.246 OA 
HETATM   32  O   UNK A   2     -10.105   4.373  67.746  1.00  0.00    -0.084 OA 
ENDBRANCH  17  19
ENDBRANCH  15  17
ENDBRANCH   6  15
ENDBRANCH   4   6
ENDBRANCH   3   4
ENDBRANCH   2   3
TORSDOF 9
ENDMDL
MODEL      103
REMARK 921   NORMALIZED FREE ENERGY PREDICTED BY IDOCK:   -5.00 KCAL/MOL
REMARK 922        TOTAL FREE ENERGY PREDICTED BY IDOCK:   -8.98 KCAL/MOL
REMARK 923 INTER-LIGAND FREE ENERGY PREDICTED BY IDOCK:   -7.74 KCAL/MOL
REMARK 924 INTRA-LIGAND FREE ENERGY PREDICTED BY IDOCK:   -1.24 KCAL/MOL
REMARK 927      BINDING AFFINITY PREDICTED BY RF-SCORE:    0.00 PKD
ROOT
HETATM    1  C   UNK A   0     -12.733  10.179  71.487  1.00  0.00    -0.541 C  
HETATM    2  C   UNK A   0     -12.058  11.102  70.490  1.00  0.00    -0.381 C  
ENDROOT
BRANCH   2   3
HETATM    3  O   UNK A   0     -11.091  10.380  69.711  1.00  0.00    -0.254 OA 
BRANCH   3   4
HETATM    4  C   UNK A   0     -11.148  10.565  68.360  1.00  0.00    -0.281 C  
HETATM    5  O   UNK A   0     -12.053  11.134  67.760  1.00  0.00    -0.606 OA 
BRANCH   4   6
HETATM    6  C   UNK A   0      -9.900   9.967  67.683  1.00  0.00    -0.162 C  
BRANCH   6   7
HETATM    7  C   UNK A   0      -9.248  11.021  66.770  1.00  0.00    -0.174 C  
BRANCH   7   8
HETATM    8  C   UNK A   0      -9.506  10.839  65.272  1.00  0.00    -0.263 C  
BRANCH   8   9
HETATM    9  C   UNK A   0     -10.351  11.994  64.778  1.00  0.00    -0.318 A  
HETATM   10  C   UNK A   0     -11.263  11.818  63.727  1.00  0.00    -0.518 A  
HETATM   11  C   UNK A   0     -12.111  12.860  63.343  1.00  0.00    -0.610 A  
HETATM   12  C   UNK A   0     -12.057  14.085  64.006  1.00  0.00    -0.413 A  
HETATM   13  C   UNK A   0     -10.306  13.231  65.437  1.00  0.00    -0.316 A  
HETATM   14  C   UNK A   0     -11.154  14.271  65.050  1.00  0.00    -0.377 A  
ENDBRANCH   8   9
ENDBRANCH   7   8
ENDBRANCH   6   7
BRANCH   6  15
ATOM     15  N   ALA A   1     -10.321   8.747  66.930  1.00  0.00    -0.282 NA 
ATOM     16  H   ALA A   1      -9.784   8.655  66.067  1.00  0.00     0.000 HD 
BRANCH  15  17
ATOM     17  CA  ALA A   1     -10.249   7.500  67.720  1.00  0.00    -0.201 C  
ATOM     18  CB  ALA A   1     -10.927   6.340  66.992  1.00  0.00    -0.442 C  
BRANCH  17  19
ATOM     19  C   ALA A   1      -8.786   7.142  68.136  1.00  0.00    -0.126 C  
HETATM   20  C   UNK A   2      -9.135   5.781  71.610  1.00  0.00    -0.143 C  
ATOM     21  O   ALA A   1      -7.803   7.391  67.436  1.00  0.00    -0.108 OA 
HETATM   22  C   UNK A   2      -7.666   5.500  71.285  1.00  0.00    -0.108 C  
HETATM   23  N   UNK A   2      -8.624   6.487  69.356  1.00  0.00    -0.133 N  
HETATM   24  S   UNK A   2     -10.079   4.221  71.842  1.00  0.00    -0.133 SA 
HETATM   25  C   UNK A   2     -10.615   4.505  73.547  1.00  0.00    -0.235 C  
HETATM   26  C   UNK A   2      -7.320   6.333  70.029  1.00  0.00    -0.082 C  
HETATM   27  C   UNK A   2      -9.674   6.519  70.377  1.00  0.00    -0.172 C  
HETATM   28  C   UNK A   2      -6.094   5.655  69.371  1.00  0.00    -0.024 C  
HETATM   29  C   UNK A   2     -10.774   5.994  73.770  1.00  0.00    -0.178 C  
HETATM   30  S   UNK A   2      -9.295   6.804  73.117  1.00  0.00    -0.137 SA 
HETATM   31  O   UNK A   2      -6.015   5.727  68.031  1.00  0.00    -0.016 OA 
HETATM   32  O   UNK A   2      -5.177   5.164  70.024  1.00  0.00    -0.003 OA 
ENDBRANCH  17  19
ENDBRANCH  15  17
ENDBRANCH   6  15
ENDBRANCH   4   6
ENDBRANCH   3   4
ENDBRANCH   2   3
TORSDOF 9
ENDMDL
MODEL      104
REMARK 921   NORMALIZED FREE ENERGY PREDICTED BY IDOCK:   -4.98 KCAL/MOL
REMARK 922        TOTAL FREE ENERGY PREDICTED BY IDOCK:   -8.95 KCAL/MOL
REMARK 923 INTER-LIGAND FREE ENERGY PREDICTED BY IDOCK:   -8.38 KCAL/MOL
REMARK 924 INTRA-LIGAND FREE ENERGY PREDICTED BY IDOCK:   -0.57 KCAL/MOL
REMARK 927      BINDING AFFINITY PREDICTED BY RF-SCORE:    0.00 PKD
ROOT
HETATM    1  C   UNK A   0      -5.890  11.900  69.883  1.00  0.00    -0.137 C  
HETATM    2  C   UNK A   0      -6.475  13.227  69.436  1.00  0.00    -0.097 C  
ENDROOT
BRANCH   2   3
HETATM    3  O   UNK A   0      -7.650  13.016  68.637  1.00  0.00    -0.129 OA 
BRANCH   3   4
HETATM    4  C   UNK A   0      -8.392  14.125  68.353  1.00  0.00    -0.161 C  
HETATM    5  O   UNK A   0      -8.881  14.882  69.183  1.00  0.00    -0.193 OA 
BRANCH   4   6
HETATM    6  C   UNK A   0      -8.520  14.309  66.829  1.00  0.00    -0.020 C  
BRANCH   6   7
HETATM    7  C   UNK A   0      -9.282  15.611  66.524  1.00  0.00    -0.325 C  
BRANCH   7   8
HETATM    8  C   UNK A   0      -8.408  16.800  66.114  1.00  0.00    -0.301 C  
BRANCH   8   9
HETATM    9  C   UNK A   0      -8.916  18.043  66.813  1.00  0.00    -0.279 A  
HETATM   10  C   UNK A   0      -9.875  18.866  66.206  1.00  0.00    -0.401 A  
HETATM   11  C   UNK A   0     -10.414  19.955  66.896  1.00  0.00    -0.577 A  
HETATM   12  C   UNK A   0     -10.001  20.230  68.199  1.00  0.00    -0.421 A  
HETATM   13  C   UNK A   0      -8.508  18.330  68.124  1.00  0.00    -0.290 A  
HETATM   14  C   UNK A   0      -9.048  19.420  68.811  1.00  0.00    -0.411 A  
ENDBRANCH   8   9
ENDBRANCH   7   8
ENDBRANCH   6   7
BRANCH   6  15
ATOM     15  N   ALA A   1      -9.210  13.105  66.274  1.00  0.00    -0.456 NA 
ATOM     16  H   ALA A   1      -8.953  12.270  66.800  1.00  0.00     0.000 HD 
BRANCH  15  17
ATOM     17  CA  ALA A   1     -10.679  13.238  66.196  1.00  0.00    -0.279 C  
ATOM     18  CB  ALA A   1     -11.233  12.561  64.943  1.00  0.00    -0.344 C  
BRANCH  17  19
ATOM     19  C   ALA A   1     -11.393  12.729  67.489  1.00  0.00    -0.312 C  
HETATM   20  C   UNK A   2      -9.968   9.305  68.029  1.00  0.00    -0.182 C  
ATOM     21  O   ALA A   1     -12.284  13.357  68.062  1.00  0.00    -0.289 OA 
HETATM   22  C   UNK A   2     -10.784   9.534  69.303  1.00  0.00    -0.240 C  
HETATM   23  N   UNK A   2     -10.957  11.509  68.007  1.00  0.00    -0.215 N  
HETATM   24  S   UNK A   2      -8.174   9.158  68.400  1.00  0.00    -0.116 SA 
HETATM   25  C   UNK A   2      -7.919   7.489  67.748  1.00  0.00    -0.118 C  
HETATM   26  C   UNK A   2     -11.697  10.752  69.035  1.00  0.00    -0.286 C  
HETATM   27  C   UNK A   2     -10.207  10.561  67.180  1.00  0.00    -0.223 C  
HETATM   28  C   UNK A   2     -12.076  11.336  70.418  1.00  0.00    -0.384 C  
HETATM   29  C   UNK A   2      -8.883   7.258  66.604  1.00  0.00    -0.139 C  
HETATM   30  S   UNK A   2     -10.520   7.798  67.152  1.00  0.00    -0.331 SA 
HETATM   31  O   UNK A   2     -12.258  12.667  70.479  1.00  0.00    -0.365 OA 
HETATM   32  O   UNK A   2     -12.307  10.629  71.395  1.00  0.00    -0.362 OA 
ENDBRANCH  17  19
ENDBRANCH  15  17
ENDBRANCH   6  15
ENDBRANCH   4   6
ENDBRANCH   3   4
ENDBRANCH   2   3
TORSDOF 9
ENDMDL
MODEL      105
REMARK 921   NORMALIZED FREE ENERGY PREDICTED BY IDOCK:   -4.97 KCAL/MOL
REMARK 922        TOTAL FREE ENERGY PREDICTED BY IDOCK:   -8.94 KCAL/MOL
REMARK 923 INTER-LIGAND FREE ENERGY PREDICTED BY IDOCK:   -8.37 KCAL/MOL
REMARK 924 INTRA-LIGAND FREE ENERGY PREDICTED BY IDOCK:   -0.57 KCAL/MOL
REMARK 927      BINDING AFFINITY PREDICTED BY RF-SCORE:    0.00 PKD
ROOT
HETATM    1  C   UNK A   0     -14.362  14.272  71.949  1.00  0.00    -0.597 C  
HETATM    2  C   UNK A   0     -13.170  13.377  72.237  1.00  0.00    -0.472 C  
ENDROOT
BRANCH   2   3
HETATM    3  O   UNK A   0     -12.874  12.552  71.099  1.00  0.00    -0.320 OA 
BRANCH   3   4
HETATM    4  C   UNK A   0     -12.654  11.230  71.354  1.00  0.00    -0.351 C  
HETATM    5  O   UNK A   0     -13.101  10.610  72.313  1.00  0.00    -0.392 OA 
BRANCH   4   6
HETATM    6  C   UNK A   0     -11.770  10.610  70.257  1.00  0.00    -0.344 C  
BRANCH   6   7
HETATM    7  C   UNK A   0     -11.966  11.376  68.936  1.00  0.00    -0.371 C  
BRANCH   7   8
HETATM    8  C   UNK A   0     -10.681  11.899  68.286  1.00  0.00    -0.253 C  
BRANCH   8   9
HETATM    9  C   UNK A   0     -11.019  12.459  66.920  1.00  0.00    -0.307 A  
HETATM   10  C   UNK A   0     -11.988  13.461  66.775  1.00  0.00    -0.447 A  
HETATM   11  C   UNK A   0     -12.224  14.044  65.527  1.00  0.00    -0.455 A  
HETATM   12  C   UNK A   0     -11.492  13.630  64.414  1.00  0.00    -0.410 A  
HETATM   13  C   UNK A   0     -10.290  12.051  65.793  1.00  0.00    -0.289 A  
HETATM   14  C   UNK A   0     -10.528  12.634  64.547  1.00  0.00    -0.379 A  
ENDBRANCH   8   9
ENDBRANCH   7   8
ENDBRANCH   6   7
BRANCH   6  15
ATOM     15  N   ALA A   1     -12.130   9.165  70.133  1.00  0.00    -0.358 NA 
ATOM     16  H   ALA A   1     -12.791   9.024  69.369  1.00  0.00     0.000 HD 
BRANCH  15  17
ATOM     17  CA  ALA A   1     -10.965   8.268  69.982  1.00  0.00    -0.197 C  
ATOM     18  CB  ALA A   1     -10.367   8.364  68.580  1.00  0.00    -0.232 C  
BRANCH  17  19
ATOM     19  C   ALA A   1      -9.885   8.503  71.086  1.00  0.00    -0.206 C  
HETATM   20  C   UNK A   2      -9.469   5.140  72.686  1.00  0.00    -0.140 C  
ATOM     21  O   ALA A   1      -9.418   9.612  71.351  1.00  0.00    -0.123 OA 
HETATM   22  C   UNK A   2      -8.346   5.958  73.327  1.00  0.00    -0.116 C  
HETATM   23  N   UNK A   2      -9.431   7.376  71.770  1.00  0.00    -0.149 N  
HETATM   24  S   UNK A   2      -8.797   3.768  71.663  1.00  0.00    -0.103 SA 
HETATM   25  C   UNK A   2      -9.569   2.393  72.551  1.00  0.00    -0.103 C  
HETATM   26  C   UNK A   2      -8.642   7.443  73.015  1.00  0.00    -0.129 C  
HETATM   27  C   UNK A   2     -10.206   6.133  71.777  1.00  0.00    -0.202 C  
HETATM   28  C   UNK A   2      -7.295   8.198  73.133  1.00  0.00    -0.124 C  
HETATM   29  C   UNK A   2     -10.886   2.862  73.131  1.00  0.00    -0.134 C  
HETATM   30  S   UNK A   2     -10.588   4.445  73.954  1.00  0.00    -0.281 SA 
HETATM   31  O   UNK A   2      -7.125   9.253  72.317  1.00  0.00    -0.300 OA 
HETATM   32  O   UNK A   2      -6.458   7.931  73.990  1.00  0.00    -0.089 OA 
ENDBRANCH  17  19
ENDBRANCH  15  17
ENDBRANCH   6  15
ENDBRANCH   4   6
ENDBRANCH   3   4
ENDBRANCH   2   3
TORSDOF 9
ENDMDL
MODEL      106
REMARK 921   NORMALIZED FREE ENERGY PREDICTED BY IDOCK:   -4.96 KCAL/MOL
REMARK 922        TOTAL FREE ENERGY PREDICTED BY IDOCK:   -8.92 KCAL/MOL
REMARK 923 INTER-LIGAND FREE ENERGY PREDICTED BY IDOCK:   -7.67 KCAL/MOL
REMARK 924 INTRA-LIGAND FREE ENERGY PREDICTED BY IDOCK:   -1.25 KCAL/MOL
REMARK 927      BINDING AFFINITY PREDICTED BY RF-SCORE:    0.00 PKD
ROOT
HETATM    1  C   UNK A   0      -7.301  20.329  67.357  1.00  0.00    -0.343 C  
HETATM    2  C   UNK A   0      -8.696  19.791  67.096  1.00  0.00    -0.323 C  
ENDROOT
BRANCH   2   3
HETATM    3  O   UNK A   0      -8.719  18.362  67.238  1.00  0.00    -0.254 OA 
BRANCH   3   4
HETATM    4  C   UNK A   0      -9.924  17.809  67.561  1.00  0.00    -0.324 C  
HETATM    5  O   UNK A   0     -11.001  18.393  67.536  1.00  0.00    -0.354 OA 
BRANCH   4   6
HETATM    6  C   UNK A   0      -9.749  16.329  67.951  1.00  0.00    -0.233 C  
BRANCH   6   7
HETATM    7  C   UNK A   0     -10.930  15.879  68.830  1.00  0.00    -0.301 C  
BRANCH   7   8
HETATM    8  C   UNK A   0     -10.597  15.654  70.307  1.00  0.00    -0.329 C  
BRANCH   8   9
HETATM    9  C   UNK A   0     -11.815  15.079  70.999  1.00  0.00    -0.373 A  
HETATM   10  C   UNK A   0     -12.651  15.894  71.775  1.00  0.00    -0.489 A  
HETATM   11  C   UNK A   0     -13.827  15.381  72.329  1.00  0.00    -0.649 A  
HETATM   12  C   UNK A   0     -14.179  14.050  72.110  1.00  0.00    -0.628 A  
HETATM   13  C   UNK A   0     -12.180  13.741  70.787  1.00  0.00    -0.437 A  
HETATM   14  C   UNK A   0     -13.355  13.231  71.342  1.00  0.00    -0.241 A  
ENDBRANCH   8   9
ENDBRANCH   7   8
ENDBRANCH   6   7
BRANCH   6  15
ATOM     15  N   ALA A   1      -8.435  16.187  68.649  1.00  0.00    -0.204 NA 
ATOM     16  H   ALA A   1      -8.575  15.943  69.629  1.00  0.00     0.000 HD 
BRANCH  15  17
ATOM     17  CA  ALA A   1      -7.514  15.230  68.003  1.00  0.00    -0.121 C  
ATOM     18  CB  ALA A   1      -6.285  15.938  67.434  1.00  0.00    -0.171 C  
BRANCH  17  19
ATOM     19  C   ALA A   1      -7.113  14.055  68.951  1.00  0.00    -0.111 C  
HETATM   20  C   UNK A   2      -8.262  10.985  67.136  1.00  0.00    -0.133 C  
ATOM     21  O   ALA A   1      -6.625  14.225  70.070  1.00  0.00    -0.142 OA 
HETATM   22  C   UNK A   2      -7.473  10.404  68.311  1.00  0.00    -0.090 C  
HETATM   23  N   UNK A   2      -7.308  12.762  68.466  1.00  0.00    -0.112 N  
HETATM   24  S   UNK A   2      -7.468  10.575  65.530  1.00  0.00    -0.066 SA 
HETATM   25  C   UNK A   2      -8.847   9.662  64.795  1.00  0.00    -0.207 C  
HETATM   26  C   UNK A   2      -7.257  11.558  69.317  1.00  0.00    -0.048 C  
HETATM   27  C   UNK A   2      -8.219  12.504  67.349  1.00  0.00    -0.183 C  
HETATM   28  C   UNK A   2      -6.030  11.172  70.179  1.00  0.00    -0.136 C  
HETATM   29  C   UNK A   2     -10.147  10.223  65.329  1.00  0.00    -0.289 C  
HETATM   30  S   UNK A   2      -9.983  10.365  67.125  1.00  0.00    -0.204 SA 
HETATM   31  O   UNK A   2      -5.259  12.185  70.613  1.00  0.00    -0.110 OA 
HETATM   32  O   UNK A   2      -5.814  10.021  70.547  1.00  0.00    -0.065 OA 
ENDBRANCH  17  19
ENDBRANCH  15  17
ENDBRANCH   6  15
ENDBRANCH   4   6
ENDBRANCH   3   4
ENDBRANCH   2   3
TORSDOF 9
ENDMDL
MODEL      107
REMARK 921   NORMALIZED FREE ENERGY PREDICTED BY IDOCK:   -4.95 KCAL/MOL
REMARK 922        TOTAL FREE ENERGY PREDICTED BY IDOCK:   -8.91 KCAL/MOL
REMARK 923 INTER-LIGAND FREE ENERGY PREDICTED BY IDOCK:   -7.71 KCAL/MOL
REMARK 924 INTRA-LIGAND FREE ENERGY PREDICTED BY IDOCK:   -1.19 KCAL/MOL
REMARK 927      BINDING AFFINITY PREDICTED BY RF-SCORE:    0.00 PKD
ROOT
HETATM    1  C   UNK A   0     -11.625  12.678  64.351  1.00  0.00    -0.415 C  
HETATM    2  C   UNK A   0     -10.615  13.461  65.170  1.00  0.00    -0.343 C  
ENDROOT
BRANCH   2   3
HETATM    3  O   UNK A   0      -9.735  12.567  65.870  1.00  0.00    -0.256 OA 
BRANCH   3   4
HETATM    4  C   UNK A   0      -9.666  12.729  67.224  1.00  0.00    -0.206 C  
HETATM    5  O   UNK A   0      -9.038  13.609  67.801  1.00  0.00    -0.181 OA 
BRANCH   4   6
HETATM    6  C   UNK A   0     -10.505  11.652  67.936  1.00  0.00    -0.192 C  
BRANCH   6   7
HETATM    7  C   UNK A   0     -11.869  12.239  68.344  1.00  0.00    -0.358 C  
BRANCH   7   8
HETATM    8  C   UNK A   0     -11.871  13.740  68.646  1.00  0.00    -0.409 C  
BRANCH   8   9
HETATM    9  C   UNK A   0     -12.402  13.955  70.047  1.00  0.00    -0.378 A  
HETATM   10  C   UNK A   0     -12.794  15.230  70.479  1.00  0.00    -0.421 A  
HETATM   11  C   UNK A   0     -13.377  15.405  71.737  1.00  0.00    -0.567 A  
HETATM   12  C   UNK A   0     -13.574  14.307  72.573  1.00  0.00    -0.620 A  
HETATM   13  C   UNK A   0     -12.606  12.859  70.898  1.00  0.00    -0.355 A  
HETATM   14  C   UNK A   0     -13.187  13.037  72.155  1.00  0.00    -0.558 A  
ENDBRANCH   8   9
ENDBRANCH   7   8
ENDBRANCH   6   7
BRANCH   6  15
ATOM     15  N   ALA A   1      -9.725  11.160  69.112  1.00  0.00    -0.407 NA 
ATOM     16  H   ALA A   1     -10.337  10.681  69.773  1.00  0.00     0.000 HD 
BRANCH  15  17
ATOM     17  CA  ALA A   1      -8.576  10.303  68.754  1.00  0.00    -0.139 C  
ATOM     18  CB  ALA A   1      -7.555  10.237  69.888  1.00  0.00    -0.153 C  
BRANCH  17  19
ATOM     19  C   ALA A   1      -9.018   8.876  68.294  1.00  0.00    -0.137 C  
HETATM   20  C   UNK A   2      -7.775   8.630  64.767  1.00  0.00    -0.108 C  
ATOM     21  O   ALA A   1      -9.707   8.125  68.986  1.00  0.00    -0.159 OA 
HETATM   22  C   UNK A   2      -8.263   7.208  65.051  1.00  0.00    -0.095 C  
HETATM   23  N   UNK A   2      -8.572   8.455  67.041  1.00  0.00    -0.121 N  
HETATM   24  S   UNK A   2      -5.959   8.669  64.480  1.00  0.00    -0.066 SA 
HETATM   25  C   UNK A   2      -5.986   9.343  62.801  1.00  0.00    -0.093 C  
HETATM   26  C   UNK A   2      -9.117   7.278  66.337  1.00  0.00    -0.158 C  
HETATM   27  C   UNK A   2      -8.101   9.418  66.043  1.00  0.00    -0.111 C  
HETATM   28  C   UNK A   2      -9.130   5.852  66.940  1.00  0.00    -0.120 C  
HETATM   29  C   UNK A   2      -7.198  10.239  62.651  1.00  0.00    -0.142 C  
HETATM   30  S   UNK A   2      -8.623   9.343  63.312  1.00  0.00    -0.201 SA 
HETATM   31  O   UNK A   2      -9.191   5.768  68.281  1.00  0.00    -0.117 OA 
HETATM   32  O   UNK A   2      -9.189   4.840  66.248  1.00  0.00    -0.129 OA 
ENDBRANCH  17  19
ENDBRANCH  15  17
ENDBRANCH   6  15
ENDBRANCH   4   6
ENDBRANCH   3   4
ENDBRANCH   2   3
TORSDOF 9
ENDMDL
MODEL      108
REMARK 921   NORMALIZED FREE ENERGY PREDICTED BY IDOCK:   -4.95 KCAL/MOL
REMARK 922        TOTAL FREE ENERGY PREDICTED BY IDOCK:   -8.89 KCAL/MOL
REMARK 923 INTER-LIGAND FREE ENERGY PREDICTED BY IDOCK:   -8.45 KCAL/MOL
REMARK 924 INTRA-LIGAND FREE ENERGY PREDICTED BY IDOCK:   -0.45 KCAL/MOL
REMARK 927      BINDING AFFINITY PREDICTED BY RF-SCORE:    0.00 PKD
ROOT
HETATM    1  C   UNK A   0      -9.244  11.128  65.498  1.00  0.00    -0.236 C  
HETATM    2  C   UNK A   0      -8.008  10.999  66.369  1.00  0.00    -0.161 C  
ENDROOT
BRANCH   2   3
HETATM    3  O   UNK A   0      -7.346  12.267  66.495  1.00  0.00     0.166 OA 
BRANCH   3   4
HETATM    4  C   UNK A   0      -7.442  12.878  67.712  1.00  0.00    -0.136 C  
HETATM    5  O   UNK A   0      -6.735  12.635  68.683  1.00  0.00    -0.076 OA 
BRANCH   4   6
HETATM    6  C   UNK A   0      -8.561  13.935  67.697  1.00  0.00    -0.190 C  
BRANCH   6   7
HETATM    7  C   UNK A   0      -7.945  15.346  67.712  1.00  0.00    -0.159 C  
BRANCH   7   8
HETATM    8  C   UNK A   0      -8.316  16.234  66.521  1.00  0.00    -0.343 C  
BRANCH   8   9
HETATM    9  C   UNK A   0      -8.922  17.520  67.042  1.00  0.00    -0.250 A  
HETATM   10  C   UNK A   0     -10.027  18.101  66.405  1.00  0.00    -0.376 A  
HETATM   11  C   UNK A   0     -10.644  19.232  66.947  1.00  0.00    -0.557 A  
HETATM   12  C   UNK A   0     -10.163  19.790  68.131  1.00  0.00    -0.577 A  
HETATM   13  C   UNK A   0      -8.447  18.090  68.232  1.00  0.00    -0.293 A  
HETATM   14  C   UNK A   0      -9.065  19.220  68.771  1.00  0.00    -0.409 A  
ENDBRANCH   8   9
ENDBRANCH   7   8
ENDBRANCH   6   7
BRANCH   6  15
ATOM     15  N   ALA A   1      -9.447  13.689  68.876  1.00  0.00    -0.408 NA 
ATOM     16  H   ALA A   1      -9.089  14.173  69.699  1.00  0.00     0.000 HD 
BRANCH  15  17
ATOM     17  CA  ALA A   1     -10.863  14.037  68.644  1.00  0.00    -0.258 C  
ATOM     18  CB  ALA A   1     -11.227  13.933  67.164  1.00  0.00    -0.328 C  
BRANCH  17  19
ATOM     19  C   ALA A   1     -11.836  13.201  69.536  1.00  0.00    -0.322 C  
HETATM   20  C   UNK A   2     -10.361   9.756  69.511  1.00  0.00    -0.230 C  
ATOM     21  O   ALA A   1     -12.880  13.654  70.008  1.00  0.00    -0.086 OA 
HETATM   22  C   UNK A   2     -11.477   9.636  70.551  1.00  0.00    -0.352 C  
HETATM   23  N   UNK A   2     -11.460  11.887  69.813  1.00  0.00    -0.462 N  
HETATM   24  S   UNK A   2      -8.706   9.513  70.274  1.00  0.00    -0.215 SA 
HETATM   25  C   UNK A   2      -8.189   8.080  69.297  1.00  0.00    -0.127 C  
HETATM   26  C   UNK A   2     -12.376  10.883  70.387  1.00  0.00    -0.351 C  
HETATM   27  C   UNK A   2     -10.469  11.194  68.986  1.00  0.00    -0.206 C  
HETATM   28  C   UNK A   2     -13.120  11.074  71.731  1.00  0.00    -0.449 C  
HETATM   29  C   UNK A   2      -8.827   8.165  67.926  1.00  0.00    -0.131 C  
HETATM   30  S   UNK A   2     -10.580   8.540  68.163  1.00  0.00    -0.063 SA 
HETATM   31  O   UNK A   2     -13.399  12.340  72.088  1.00  0.00    -0.526 OA 
HETATM   32  O   UNK A   2     -13.535  10.132  72.400  1.00  0.00    -0.338 OA 
ENDBRANCH  17  19
ENDBRANCH  15  17
ENDBRANCH   6  15
ENDBRANCH   4   6
ENDBRANCH   3   4
ENDBRANCH   2   3
TORSDOF 9
ENDMDL
MODEL      109
REMARK 921   NORMALIZED FREE ENERGY PREDICTED BY IDOCK:   -4.94 KCAL/MOL
REMARK 922        TOTAL FREE ENERGY PREDICTED BY IDOCK:   -8.89 KCAL/MOL
REMARK 923 INTER-LIGAND FREE ENERGY PREDICTED BY IDOCK:   -7.38 KCAL/MOL
REMARK 924 INTRA-LIGAND FREE ENERGY PREDICTED BY IDOCK:   -1.51 KCAL/MOL
REMARK 927      BINDING AFFINITY PREDICTED BY RF-SCORE:    0.00 PKD
ROOT
HETATM    1  C   UNK A   0      -9.160   2.689  69.606  1.00  0.00    -0.186 C  
HETATM    2  C   UNK A   0      -9.638   4.098  69.907  1.00  0.00    -0.211 C  
ENDROOT
BRANCH   2   3
HETATM    3  O   UNK A   0      -8.669   5.062  69.466  1.00  0.00    -0.090 OA 
BRANCH   3   4
HETATM    4  C   UNK A   0      -7.982   5.718  70.446  1.00  0.00    -0.105 C  
HETATM    5  O   UNK A   0      -7.364   5.181  71.358  1.00  0.00    -0.079 OA 
BRANCH   4   6
HETATM    6  C   UNK A   0      -8.078   7.241  70.243  1.00  0.00    -0.121 C  
BRANCH   6   7
HETATM    7  C   UNK A   0      -9.004   7.852  71.310  1.00  0.00    -0.155 C  
BRANCH   7   8
HETATM    8  C   UNK A   0     -10.450   7.348  71.288  1.00  0.00    -0.221 C  
BRANCH   8   9
HETATM    9  C   UNK A   0     -11.382   8.536  71.404  1.00  0.00    -0.330 A  
HETATM   10  C   UNK A   0     -11.098   9.738  70.742  1.00  0.00    -0.415 A  
HETATM   11  C   UNK A   0     -12.010  10.796  70.771  1.00  0.00    -0.464 A  
HETATM   12  C   UNK A   0     -13.214  10.661  71.461  1.00  0.00    -0.460 A  
HETATM   13  C   UNK A   0     -12.596   8.412  72.096  1.00  0.00    -0.412 A  
HETATM   14  C   UNK A   0     -13.505   9.471  72.124  1.00  0.00    -0.535 A  
ENDBRANCH   8   9
ENDBRANCH   7   8
ENDBRANCH   6   7
BRANCH   6  15
ATOM     15  N   ALA A   1      -8.570   7.493  68.854  1.00  0.00    -0.129 NA 
ATOM     16  H   ALA A   1      -9.576   7.336  68.796  1.00  0.00     0.000 HD 
BRANCH  15  17
ATOM     17  CA  ALA A   1      -8.221   8.829  68.328  1.00  0.00    -0.118 C  
ATOM     18  CB  ALA A   1      -6.709   9.050  68.326  1.00  0.00    -0.061 C  
BRANCH  17  19
ATOM     19  C   ALA A   1      -8.843   9.095  66.919  1.00  0.00    -0.123 C  
HETATM   20  C   UNK A   2     -10.013  12.651  67.098  1.00  0.00    -0.217 C  
ATOM     21  O   ALA A   1      -8.961   8.225  66.055  1.00  0.00    -0.168 OA 
HETATM   22  C   UNK A   2     -10.218  12.304  65.622  1.00  0.00    -0.287 C  
HETATM   23  N   UNK A   2      -9.253  10.401  66.651  1.00  0.00    -0.154 N  
HETATM   24  S   UNK A   2      -8.752  13.972  67.306  1.00  0.00    -0.221 SA 
HETATM   25  C   UNK A   2      -9.804  15.195  68.128  1.00  0.00    -0.218 C  
HETATM   26  C   UNK A   2     -10.107  10.767  65.506  1.00  0.00    -0.274 C  
HETATM   27  C   UNK A   2      -9.497  11.355  67.737  1.00  0.00    -0.165 C  
HETATM   28  C   UNK A   2      -9.740  10.458  64.033  1.00  0.00    -0.311 C  
HETATM   29  C   UNK A   2     -10.860  14.470  68.935  1.00  0.00    -0.253 C  
HETATM   30  S   UNK A   2     -11.579  13.194  67.873  1.00  0.00    -0.355 SA 
HETATM   31  O   UNK A   2      -8.969   9.377  63.821  1.00  0.00    -0.213 OA 
HETATM   32  O   UNK A   2     -10.204  11.089  63.088  1.00  0.00    -0.328 OA 
ENDBRANCH  17  19
ENDBRANCH  15  17
ENDBRANCH   6  15
ENDBRANCH   4   6
ENDBRANCH   3   4
ENDBRANCH   2   3
TORSDOF 9
ENDMDL
MODEL      110
REMARK 921   NORMALIZED FREE ENERGY PREDICTED BY IDOCK:   -4.93 KCAL/MOL
REMARK 922        TOTAL FREE ENERGY PREDICTED BY IDOCK:   -8.87 KCAL/MOL
REMARK 923 INTER-LIGAND FREE ENERGY PREDICTED BY IDOCK:   -8.07 KCAL/MOL
REMARK 924 INTRA-LIGAND FREE ENERGY PREDICTED BY IDOCK:   -0.80 KCAL/MOL
REMARK 927      BINDING AFFINITY PREDICTED BY RF-SCORE:    0.00 PKD
ROOT
HETATM    1  C   UNK A   0     -13.395  11.913  72.033  1.00  0.00    -0.425 C  
HETATM    2  C   UNK A   0     -12.701  10.987  71.052  1.00  0.00    -0.386 C  
ENDROOT
BRANCH   2   3
HETATM    3  O   UNK A   0     -11.587  11.652  70.435  1.00  0.00    -0.257 OA 
BRANCH   3   4
HETATM    4  C   UNK A   0     -11.626  11.756  69.075  1.00  0.00    -0.311 C  
HETATM    5  O   UNK A   0     -12.399  11.151  68.340  1.00  0.00    -0.556 OA 
BRANCH   4   6
HETATM    6  C   UNK A   0     -10.567  12.759  68.582  1.00  0.00    -0.233 C  
BRANCH   6   7
HETATM    7  C   UNK A   0     -11.150  14.183  68.597  1.00  0.00    -0.283 C  
BRANCH   7   8
HETATM    8  C   UNK A   0     -10.630  15.092  69.715  1.00  0.00    -0.232 C  
BRANCH   8   9
HETATM    9  C   UNK A   0     -11.736  15.302  70.727  1.00  0.00    -0.377 A  
HETATM   10  C   UNK A   0     -13.082  15.247  70.340  1.00  0.00    -0.240 A  
HETATM   11  C   UNK A   0     -14.099  15.342  71.295  1.00  0.00    -0.527 A  
HETATM   12  C   UNK A   0     -13.778  15.490  72.643  1.00  0.00    -0.667 A  
HETATM   13  C   UNK A   0     -11.426  15.451  72.087  1.00  0.00    -0.525 A  
HETATM   14  C   UNK A   0     -12.444  15.547  73.038  1.00  0.00    -0.553 A  
ENDBRANCH   8   9
ENDBRANCH   7   8
ENDBRANCH   6   7
BRANCH   6  15
ATOM     15  N   ALA A   1     -10.131  12.339  67.215  1.00  0.00    -0.203 NA 
ATOM     16  H   ALA A   1     -10.457  13.005  66.515  1.00  0.00     0.000 HD 
BRANCH  15  17
ATOM     17  CA  ALA A   1      -8.675  12.124  67.089  1.00  0.00    -0.190 C  
ATOM     18  CB  ALA A   1      -7.969  12.296  68.433  1.00  0.00    -0.152 C  
BRANCH  17  19
ATOM     19  C   ALA A   1      -8.331  10.750  66.430  1.00  0.00    -0.153 C  
HETATM   20  C   UNK A   2      -8.974   8.250  69.147  1.00  0.00    -0.147 C  
ATOM     21  O   ALA A   1      -7.862  10.641  65.296  1.00  0.00    -0.131 OA 
HETATM   22  C   UNK A   2      -8.710   7.361  67.929  1.00  0.00    -0.123 C  
HETATM   23  N   UNK A   2      -8.602   9.607  67.183  1.00  0.00    -0.131 N  
HETATM   24  S   UNK A   2     -10.696   8.053  69.758  1.00  0.00    -0.197 SA 
HETATM   25  C   UNK A   2     -10.305   7.478  71.429  1.00  0.00    -0.194 C  
HETATM   26  C   UNK A   2      -8.086   8.268  66.843  1.00  0.00    -0.103 C  
HETATM   27  C   UNK A   2      -8.780   9.683  68.635  1.00  0.00    -0.124 C  
HETATM   28  C   UNK A   2      -8.342   7.573  65.483  1.00  0.00    -0.133 C  
HETATM   29  C   UNK A   2      -8.990   8.090  71.862  1.00  0.00    -0.149 C  
HETATM   30  S   UNK A   2      -7.812   7.869  70.507  1.00  0.00    -0.097 SA 
HETATM   31  O   UNK A   2      -8.521   8.378  64.422  1.00  0.00    -0.139 OA 
HETATM   32  O   UNK A   2      -8.284   6.355  65.340  1.00  0.00    -0.133 OA 
ENDBRANCH  17  19
ENDBRANCH  15  17
ENDBRANCH   6  15
ENDBRANCH   4   6
ENDBRANCH   3   4
ENDBRANCH   2   3
TORSDOF 9
ENDMDL
MODEL      111
REMARK 921   NORMALIZED FREE ENERGY PREDICTED BY IDOCK:   -4.92 KCAL/MOL
REMARK 922        TOTAL FREE ENERGY PREDICTED BY IDOCK:   -8.86 KCAL/MOL
REMARK 923 INTER-LIGAND FREE ENERGY PREDICTED BY IDOCK:   -7.66 KCAL/MOL
REMARK 924 INTRA-LIGAND FREE ENERGY PREDICTED BY IDOCK:   -1.20 KCAL/MOL
REMARK 927      BINDING AFFINITY PREDICTED BY RF-SCORE:    0.00 PKD
ROOT
HETATM    1  C   UNK A   0     -13.915   8.955  72.231  1.00  0.00    -0.531 C  
HETATM    2  C   UNK A   0     -12.546   8.319  72.075  1.00  0.00    -0.349 C  
ENDROOT
BRANCH   2   3
HETATM    3  O   UNK A   0     -12.082   8.451  70.722  1.00  0.00    -0.203 OA 
BRANCH   3   4
HETATM    4  C   UNK A   0     -10.786   8.849  70.567  1.00  0.00    -0.230 C  
HETATM    5  O   UNK A   0      -9.961   8.943  71.469  1.00  0.00    -0.267 OA 
BRANCH   4   6
HETATM    6  C   UNK A   0     -10.491   9.155  69.087  1.00  0.00    -0.217 C  
BRANCH   6   7
HETATM    7  C   UNK A   0      -9.685   8.000  68.466  1.00  0.00    -0.166 C  
BRANCH   7   8
HETATM    8  C   UNK A   0      -9.331   8.170  66.986  1.00  0.00    -0.197 C  
BRANCH   8   9
HETATM    9  C   UNK A   0      -9.394   6.816  66.311  1.00  0.00    -0.141 A  
HETATM   10  C   UNK A   0      -8.356   6.383  65.474  1.00  0.00    -0.147 A  
HETATM   11  C   UNK A   0      -8.371   5.095  64.933  1.00  0.00    -0.145 A  
HETATM   12  C   UNK A   0      -9.422   4.227  65.227  1.00  0.00    -0.173 A  
HETATM   13  C   UNK A   0     -10.446   5.934  66.598  1.00  0.00    -0.310 A  
HETATM   14  C   UNK A   0     -10.459   4.648  66.057  1.00  0.00    -0.303 A  
ENDBRANCH   8   9
ENDBRANCH   7   8
ENDBRANCH   6   7
BRANCH   6  15
ATOM     15  N   ALA A   1      -9.760  10.457  69.019  1.00  0.00    -0.197 NA 
ATOM     16  H   ALA A   1      -8.887  10.351  68.504  1.00  0.00     0.000 HD 
BRANCH  15  17
ATOM     17  CA  ALA A   1     -10.561  11.566  68.460  1.00  0.00    -0.210 C  
ATOM     18  CB  ALA A   1     -11.642  11.049  67.512  1.00  0.00    -0.166 C  
BRANCH  17  19
ATOM     19  C   ALA A   1     -11.161  12.486  69.571  1.00  0.00    -0.093 C  
HETATM   20  C   UNK A   2      -9.941  15.914  68.672  1.00  0.00    -0.214 C  
ATOM     21  O   ALA A   1     -11.795  12.057  70.536  1.00  0.00    -0.302 OA 
HETATM   22  C   UNK A   2     -10.924  16.195  69.811  1.00  0.00    -0.349 C  
HETATM   23  N   UNK A   2     -10.973  13.860  69.417  1.00  0.00    -0.407 N  
HETATM   24  S   UNK A   2     -10.518  16.656  67.092  1.00  0.00    -0.268 SA 
HETATM   25  C   UNK A   2      -9.103  17.745  66.796  1.00  0.00    -0.262 C  
HETATM   26  C   UNK A   2     -11.216  14.839  70.493  1.00  0.00    -0.148 C  
HETATM   27  C   UNK A   2      -9.927  14.385  68.537  1.00  0.00    -0.237 C  
HETATM   28  C   UNK A   2     -12.574  14.990  71.220  1.00  0.00    -0.339 C  
HETATM   29  C   UNK A   2      -7.863  17.109  67.388  1.00  0.00    -0.172 C  
HETATM   30  S   UNK A   2      -8.275  16.561  69.061  1.00  0.00    -0.162 SA 
HETATM   31  O   UNK A   2     -13.340  13.888  71.298  1.00  0.00    -0.312 OA 
HETATM   32  O   UNK A   2     -12.908  16.023  71.794  1.00  0.00    -0.444 OA 
ENDBRANCH  17  19
ENDBRANCH  15  17
ENDBRANCH   6  15
ENDBRANCH   4   6
ENDBRANCH   3   4
ENDBRANCH   2   3
TORSDOF 9
ENDMDL
MODEL      112
REMARK 921   NORMALIZED FREE ENERGY PREDICTED BY IDOCK:   -4.91 KCAL/MOL
REMARK 922        TOTAL FREE ENERGY PREDICTED BY IDOCK:   -8.84 KCAL/MOL
REMARK 923 INTER-LIGAND FREE ENERGY PREDICTED BY IDOCK:   -7.96 KCAL/MOL
REMARK 924 INTRA-LIGAND FREE ENERGY PREDICTED BY IDOCK:   -0.88 KCAL/MOL
REMARK 927      BINDING AFFINITY PREDICTED BY RF-SCORE:    0.00 PKD
ROOT
HETATM    1  C   UNK A   0     -12.744  11.878  63.448  1.00  0.00    -0.496 C  
HETATM    2  C   UNK A   0     -11.753  12.148  64.564  1.00  0.00    -0.338 C  
ENDROOT
BRANCH   2   3
HETATM    3  O   UNK A   0     -12.440  12.533  65.765  1.00  0.00    -0.626 OA 
BRANCH   3   4
HETATM    4  C   UNK A   0     -12.648  13.871  65.937  1.00  0.00    -0.456 C  
HETATM    5  O   UNK A   0     -13.362  14.573  65.231  1.00  0.00    -0.464 OA 
BRANCH   4   6
HETATM    6  C   UNK A   0     -11.866  14.383  67.160  1.00  0.00    -0.410 C  
BRANCH   6   7
HETATM    7  C   UNK A   0     -10.729  15.314  66.700  1.00  0.00    -0.309 C  
BRANCH   7   8
HETATM    8  C   UNK A   0     -10.035  16.101  67.815  1.00  0.00    -0.237 C  
BRANCH   8   9
HETATM    9  C   UNK A   0      -8.757  15.383  68.196  1.00  0.00    -0.161 A  
HETATM   10  C   UNK A   0      -8.047  15.745  69.349  1.00  0.00    -0.209 A  
HETATM   11  C   UNK A   0      -6.925  15.015  69.749  1.00  0.00    -0.182 A  
HETATM   12  C   UNK A   0      -6.504  13.916  69.002  1.00  0.00    -0.103 A  
HETATM   13  C   UNK A   0      -8.324  14.275  67.452  1.00  0.00    -0.212 A  
HETATM   14  C   UNK A   0      -7.202  13.548  67.854  1.00  0.00    -0.139 A  
ENDBRANCH   8   9
ENDBRANCH   7   8
ENDBRANCH   6   7
BRANCH   6  15
ATOM     15  N   ALA A   1     -11.358  13.198  67.916  1.00  0.00    -0.269 NA 
ATOM     16  H   ALA A   1     -10.371  13.039  67.712  1.00  0.00     0.000 HD 
BRANCH  15  17
ATOM     17  CA  ALA A   1     -11.581  13.275  69.374  1.00  0.00    -0.305 C  
ATOM     18  CB  ALA A   1     -12.659  14.302  69.718  1.00  0.00    -0.152 C  
BRANCH  17  19
ATOM     19  C   ALA A   1     -11.894  11.880  70.003  1.00  0.00    -0.328 C  
HETATM   20  C   UNK A   2      -8.858   9.827  69.222  1.00  0.00    -0.169 C  
ATOM     21  O   ALA A   1     -12.973  11.599  70.527  1.00  0.00    -0.038 OA 
HETATM   22  C   UNK A   2      -9.649   8.912  70.159  1.00  0.00    -0.199 C  
HETATM   23  N   UNK A   2     -10.868  10.935  69.976  1.00  0.00    -0.465 N  
HETATM   24  S   UNK A   2      -7.254  10.325  69.970  1.00  0.00    -0.124 SA 
HETATM   25  C   UNK A   2      -6.162   9.635  68.703  1.00  0.00    -0.043 C  
HETATM   26  C   UNK A   2     -11.074   9.502  70.259  1.00  0.00    -0.271 C  
HETATM   27  C   UNK A   2      -9.742  11.068  69.048  1.00  0.00    -0.134 C  
HETATM   28  C   UNK A   2     -11.684   8.971  71.580  1.00  0.00    -0.345 C  
HETATM   29  C   UNK A   2      -6.874   9.674  67.367  1.00  0.00    -0.083 C  
HETATM   30  S   UNK A   2      -8.538   9.011  67.616  1.00  0.00    -0.120 SA 
HETATM   31  O   UNK A   2     -12.544   9.786  72.214  1.00  0.00    -0.313 OA 
HETATM   32  O   UNK A   2     -11.487   7.830  71.989  1.00  0.00    -0.262 OA 
ENDBRANCH  17  19
ENDBRANCH  15  17
ENDBRANCH   6  15
ENDBRANCH   4   6
ENDBRANCH   3   4
ENDBRANCH   2   3
TORSDOF 9
ENDMDL
MODEL      113
REMARK 921   NORMALIZED FREE ENERGY PREDICTED BY IDOCK:   -4.91 KCAL/MOL
REMARK 922        TOTAL FREE ENERGY PREDICTED BY IDOCK:   -8.84 KCAL/MOL
REMARK 923 INTER-LIGAND FREE ENERGY PREDICTED BY IDOCK:   -7.79 KCAL/MOL
REMARK 924 INTRA-LIGAND FREE ENERGY PREDICTED BY IDOCK:   -1.05 KCAL/MOL
REMARK 927      BINDING AFFINITY PREDICTED BY RF-SCORE:    0.00 PKD
ROOT
HETATM    1  C   UNK A   0     -13.382  10.760  71.873  1.00  0.00    -0.445 C  
HETATM    2  C   UNK A   0     -12.863  11.890  71.003  1.00  0.00    -0.198 C  
ENDROOT
BRANCH   2   3
HETATM    3  O   UNK A   0     -11.677  11.482  70.303  1.00  0.00    -0.327 OA 
BRANCH   3   4
HETATM    4  C   UNK A   0     -11.619  11.804  68.978  1.00  0.00    -0.311 C  
HETATM    5  O   UNK A   0     -12.123  11.154  68.069  1.00  0.00    -0.635 OA 
BRANCH   4   6
HETATM    6  C   UNK A   0     -10.839  13.117  68.778  1.00  0.00    -0.246 C  
BRANCH   6   7
HETATM    7  C   UNK A   0     -11.605  14.034  67.807  1.00  0.00    -0.378 C  
BRANCH   7   8
HETATM    8  C   UNK A   0     -10.846  14.418  66.533  1.00  0.00    -0.310 C  
BRANCH   8   9
HETATM    9  C   UNK A   0     -11.267  13.487  65.415  1.00  0.00    -0.301 A  
HETATM   10  C   UNK A   0     -12.606  13.098  65.273  1.00  0.00    -0.531 A  
HETATM   11  C   UNK A   0     -13.007  12.321  64.183  1.00  0.00    -0.276 A  
HETATM   12  C   UNK A   0     -12.073  11.929  63.225  1.00  0.00    -0.466 A  
HETATM   13  C   UNK A   0     -10.337  13.087  64.445  1.00  0.00    -0.397 A  
HETATM   14  C   UNK A   0     -10.740  12.310  63.357  1.00  0.00    -0.438 A  
ENDBRANCH   8   9
ENDBRANCH   7   8
ENDBRANCH   6   7
BRANCH   6  15
ATOM     15  N   ALA A   1      -9.474  12.772  68.276  1.00  0.00    -0.242 NA 
ATOM     16  H   ALA A   1      -8.760  13.249  68.826  1.00  0.00     0.000 HD 
BRANCH  15  17
ATOM     17  CA  ALA A   1      -9.204  11.321  68.221  1.00  0.00    -0.176 C  
ATOM     18  CB  ALA A   1      -8.956  10.855  66.787  1.00  0.00    -0.158 C  
BRANCH  17  19
ATOM     19  C   ALA A   1      -8.041  10.895  69.173  1.00  0.00    -0.100 C  
HETATM   20  C   UNK A   2      -9.370   7.868  70.938  1.00  0.00    -0.153 C  
ATOM     21  O   ALA A   1      -7.002  11.545  69.306  1.00  0.00    -0.110 OA 
HETATM   22  C   UNK A   2      -7.907   7.903  71.387  1.00  0.00    -0.092 C  
HETATM   23  N   UNK A   2      -8.209   9.702  69.875  1.00  0.00    -0.156 N  
HETATM   24  S   UNK A   2      -9.726   6.366  69.940  1.00  0.00    -0.167 SA 
HETATM   25  C   UNK A   2     -11.008   5.658  71.003  1.00  0.00    -0.177 C  
HETATM   26  C   UNK A   2      -7.359   9.299  71.012  1.00  0.00    -0.069 C  
HETATM   27  C   UNK A   2      -9.538   9.112  70.056  1.00  0.00    -0.197 C  
HETATM   28  C   UNK A   2      -5.820   9.162  70.921  1.00  0.00    -0.046 C  
HETATM   29  C   UNK A   2     -11.745   6.783  71.699  1.00  0.00    -0.314 C  
HETATM   30  S   UNK A   2     -10.504   7.913  72.372  1.00  0.00    -0.304 SA 
HETATM   31  O   UNK A   2      -5.199   9.945  70.021  1.00  0.00    -0.036 OA 
HETATM   32  O   UNK A   2      -5.170   8.462  71.691  1.00  0.00    -0.033 OA 
ENDBRANCH  17  19
ENDBRANCH  15  17
ENDBRANCH   6  15
ENDBRANCH   4   6
ENDBRANCH   3   4
ENDBRANCH   2   3
TORSDOF 9
ENDMDL
MODEL      114
REMARK 921   NORMALIZED FREE ENERGY PREDICTED BY IDOCK:   -4.87 KCAL/MOL
REMARK 922        TOTAL FREE ENERGY PREDICTED BY IDOCK:   -8.78 KCAL/MOL
REMARK 923 INTER-LIGAND FREE ENERGY PREDICTED BY IDOCK:   -8.71 KCAL/MOL
REMARK 924 INTRA-LIGAND FREE ENERGY PREDICTED BY IDOCK:   -0.07 KCAL/MOL
REMARK 927      BINDING AFFINITY PREDICTED BY RF-SCORE:    0.00 PKD
ROOT
HETATM    1  C   UNK A   0      -9.509   8.889  71.670  1.00  0.00    -0.351 C  
HETATM    2  C   UNK A   0      -9.156   8.719  70.204  1.00  0.00    -0.167 C  
ENDROOT
BRANCH   2   3
HETATM    3  O   UNK A   0     -10.347   8.635  69.406  1.00  0.00    -0.210 OA 
BRANCH   3   4
HETATM    4  C   UNK A   0     -10.479   9.571  68.421  1.00  0.00    -0.224 C  
HETATM    5  O   UNK A   0     -10.655   9.329  67.233  1.00  0.00    -0.264 OA 
BRANCH   4   6
HETATM    6  C   UNK A   0     -10.390  10.990  69.013  1.00  0.00    -0.209 C  
BRANCH   6   7
HETATM    7  C   UNK A   0     -11.806  11.530  69.284  1.00  0.00    -0.414 C  
BRANCH   7   8
HETATM    8  C   UNK A   0     -12.246  11.507  70.751  1.00  0.00    -0.463 C  
BRANCH   8   9
HETATM    9  C   UNK A   0     -12.602  12.916  71.176  1.00  0.00    -0.373 A  
HETATM   10  C   UNK A   0     -12.211  14.019  70.403  1.00  0.00    -0.433 A  
HETATM   11  C   UNK A   0     -12.626  15.308  70.746  1.00  0.00    -0.474 A  
HETATM   12  C   UNK A   0     -13.437  15.506  71.862  1.00  0.00    -0.576 A  
HETATM   13  C   UNK A   0     -13.417  13.129  72.297  1.00  0.00    -0.665 A  
HETATM   14  C   UNK A   0     -13.830  14.418  72.638  1.00  0.00    -0.480 A  
ENDBRANCH   8   9
ENDBRANCH   7   8
ENDBRANCH   6   7
BRANCH   6  15
ATOM     15  N   ALA A   1      -9.630  11.846  68.053  1.00  0.00    -0.187 NA 
ATOM     16  H   ALA A   1     -10.259  12.261  67.367  1.00  0.00     0.000 HD 
BRANCH  15  17
ATOM     17  CA  ALA A   1      -8.809  12.890  68.701  1.00  0.00     0.066 C  
ATOM     18  CB  ALA A   1      -7.354  12.446  68.842  1.00  0.00    -0.031 C  
BRANCH  17  19
ATOM     19  C   ALA A   1      -8.922  14.270  67.979  1.00  0.00    -0.183 C  
HETATM   20  C   UNK A   2     -10.979  13.540  64.933  1.00  0.00    -0.352 C  
ATOM     21  O   ALA A   1      -8.337  15.285  68.363  1.00  0.00    -0.140 OA 
HETATM   22  C   UNK A   2     -10.872  15.066  64.908  1.00  0.00    -0.430 C  
HETATM   23  N   UNK A   2      -9.754  14.328  66.861  1.00  0.00    -0.255 N  
HETATM   24  S   UNK A   2     -12.720  12.996  65.169  1.00  0.00    -0.246 SA 
HETATM   25  C   UNK A   2     -12.896  12.051  63.636  1.00  0.00    -0.346 C  
HETATM   26  C   UNK A   2      -9.756  15.452  65.905  1.00  0.00    -0.357 C  
HETATM   27  C   UNK A   2     -10.146  13.110  66.148  1.00  0.00    -0.291 C  
HETATM   28  C   UNK A   2     -10.015  16.922  66.316  1.00  0.00    -0.309 C  
HETATM   29  C   UNK A   2     -11.548  11.476  63.256  1.00  0.00    -0.037 C  
HETATM   30  S   UNK A   2     -10.329  12.806  63.390  1.00  0.00     0.592 SA 
HETATM   31  O   UNK A   2      -9.666  17.266  67.568  1.00  0.00    -0.255 OA 
HETATM   32  O   UNK A   2     -10.418  17.770  65.526  1.00  0.00    -0.646 OA 
ENDBRANCH  17  19
ENDBRANCH  15  17
ENDBRANCH   6  15
ENDBRANCH   4   6
ENDBRANCH   3   4
ENDBRANCH   2   3
TORSDOF 9
ENDMDL
MODEL      115
REMARK 921   NORMALIZED FREE ENERGY PREDICTED BY IDOCK:   -4.87 KCAL/MOL
REMARK 922        TOTAL FREE ENERGY PREDICTED BY IDOCK:   -8.78 KCAL/MOL
REMARK 923 INTER-LIGAND FREE ENERGY PREDICTED BY IDOCK:   -7.29 KCAL/MOL
REMARK 924 INTRA-LIGAND FREE ENERGY PREDICTED BY IDOCK:   -1.49 KCAL/MOL
REMARK 927      BINDING AFFINITY PREDICTED BY RF-SCORE:    0.00 PKD
ROOT
HETATM    1  C   UNK A   0     -11.165   4.788  73.400  1.00  0.00    -0.425 C  
HETATM    2  C   UNK A   0     -11.053   6.151  72.743  1.00  0.00    -0.259 C  
ENDROOT
BRANCH   2   3
HETATM    3  O   UNK A   0     -11.665   6.136  71.443  1.00  0.00    -0.284 OA 
BRANCH   3   4
HETATM    4  C   UNK A   0     -10.843   5.839  70.395  1.00  0.00    -0.290 C  
HETATM    5  O   UNK A   0     -10.210   4.798  70.265  1.00  0.00    -0.247 OA 
BRANCH   4   6
HETATM    6  C   UNK A   0     -10.829   6.996  69.379  1.00  0.00    -0.227 C  
BRANCH   6   7
HETATM    7  C   UNK A   0     -10.619   6.440  67.959  1.00  0.00    -0.315 C  
BRANCH   7   8
HETATM    8  C   UNK A   0     -10.629   7.484  66.839  1.00  0.00    -0.367 C  
BRANCH   8   9
HETATM    9  C   UNK A   0      -9.210   7.687  66.350  1.00  0.00    -0.223 A  
HETATM   10  C   UNK A   0      -8.865   8.821  65.601  1.00  0.00    -0.239 A  
HETATM   11  C   UNK A   0      -7.536   9.054  65.238  1.00  0.00    -0.098 A  
HETATM   12  C   UNK A   0      -6.541   8.156  65.621  1.00  0.00    -0.049 A  
HETATM   13  C   UNK A   0      -8.200   6.791  66.729  1.00  0.00    -0.114 A  
HETATM   14  C   UNK A   0      -6.873   7.026  66.363  1.00  0.00    -0.061 A  
ENDBRANCH   8   9
ENDBRANCH   7   8
ENDBRANCH   6   7
BRANCH   6  15
ATOM     15  N   ALA A   1      -9.751   7.951  69.780  1.00  0.00    -0.175 NA 
ATOM     16  H   ALA A   1      -8.896   7.767  69.255  1.00  0.00     0.000 HD 
BRANCH  15  17
ATOM     17  CA  ALA A   1     -10.136   9.373  69.662  1.00  0.00    -0.206 C  
ATOM     18  CB  ALA A   1     -10.801   9.877  70.941  1.00  0.00    -0.357 C  
BRANCH  17  19
ATOM     19  C   ALA A   1      -8.938  10.281  69.239  1.00  0.00    -0.179 C  
HETATM   20  C   UNK A   2     -10.416  12.628  66.719  1.00  0.00    -0.240 C  
ATOM     21  O   ALA A   1      -7.784  10.108  69.636  1.00  0.00    -0.132 OA 
HETATM   22  C   UNK A   2      -9.015  13.204  66.932  1.00  0.00    -0.213 C  
HETATM   23  N   UNK A   2      -9.228  11.348  68.389  1.00  0.00    -0.179 N  
HETATM   24  S   UNK A   2     -11.714  13.802  67.281  1.00  0.00    -0.403 SA 
HETATM   25  C   UNK A   2     -12.571  14.003  65.699  1.00  0.00    -0.512 C  
HETATM   26  C   UNK A   2      -8.196  12.122  67.673  1.00  0.00    -0.163 C  
HETATM   27  C   UNK A   2     -10.460  11.370  67.596  1.00  0.00    -0.194 C  
HETATM   28  C   UNK A   2      -7.031  12.855  68.383  1.00  0.00    -0.096 C  
HETATM   29  C   UNK A   2     -12.440  12.721  64.904  1.00  0.00    -0.497 C  
HETATM   30  S   UNK A   2     -10.703  12.219  64.960  1.00  0.00    -0.311 SA 
HETATM   31  O   UNK A   2      -6.615  12.332  69.550  1.00  0.00    -0.108 OA 
HETATM   32  O   UNK A   2      -6.435  13.800  67.875  1.00  0.00    -0.129 OA 
ENDBRANCH  17  19
ENDBRANCH  15  17
ENDBRANCH   6  15
ENDBRANCH   4   6
ENDBRANCH   3   4
ENDBRANCH   2   3
TORSDOF 9
ENDMDL
MODEL      116
REMARK 921   NORMALIZED FREE ENERGY PREDICTED BY IDOCK:   -4.85 KCAL/MOL
REMARK 922        TOTAL FREE ENERGY PREDICTED BY IDOCK:   -8.75 KCAL/MOL
REMARK 923 INTER-LIGAND FREE ENERGY PREDICTED BY IDOCK:   -8.34 KCAL/MOL
REMARK 924 INTRA-LIGAND FREE ENERGY PREDICTED BY IDOCK:   -0.41 KCAL/MOL
REMARK 927      BINDING AFFINITY PREDICTED BY RF-SCORE:    0.00 PKD
ROOT
HETATM    1  C   UNK A   0      -8.948  10.821  64.828  1.00  0.00    -0.194 C  
HETATM    2  C   UNK A   0      -8.962  11.192  66.300  1.00  0.00    -0.193 C  
ENDROOT
BRANCH   2   3
HETATM    3  O   UNK A   0      -9.041  12.617  66.458  1.00  0.00    -0.223 OA 
BRANCH   3   4
HETATM    4  C   UNK A   0      -8.944  13.087  67.736  1.00  0.00    -0.191 C  
HETATM    5  O   UNK A   0      -7.906  13.171  68.382  1.00  0.00    -0.133 OA 
BRANCH   4   6
HETATM    6  C   UNK A   0     -10.328  13.515  68.258  1.00  0.00    -0.252 C  
BRANCH   6   7
HETATM    7  C   UNK A   0     -10.287  14.990  68.694  1.00  0.00    -0.236 C  
BRANCH   7   8
HETATM    8  C   UNK A   0     -11.648  15.690  68.764  1.00  0.00    -0.393 C  
BRANCH   8   9
HETATM    9  C   UNK A   0     -12.196  15.551  70.168  1.00  0.00    -0.404 A  
HETATM   10  C   UNK A   0     -11.437  15.951  71.277  1.00  0.00    -0.489 A  
HETATM   11  C   UNK A   0     -11.985  15.913  72.562  1.00  0.00    -0.622 A  
HETATM   12  C   UNK A   0     -13.296  15.480  72.749  1.00  0.00    -0.621 A  
HETATM   13  C   UNK A   0     -13.514  15.116  70.370  1.00  0.00     0.020 A  
HETATM   14  C   UNK A   0     -14.059  15.079  71.654  1.00  0.00    -0.619 A  
ENDBRANCH   8   9
ENDBRANCH   7   8
ENDBRANCH   6   7
BRANCH   6  15
ATOM     15  N   ALA A   1     -10.703  12.601  69.381  1.00  0.00    -0.432 NA 
ATOM     16  H   ALA A   1     -10.778  13.121  70.255  1.00  0.00     0.000 HD 
BRANCH  15  17
ATOM     17  CA  ALA A   1     -11.932  11.820  69.134  1.00  0.00    -0.293 C  
ATOM     18  CB  ALA A   1     -12.032  11.388  67.672  1.00  0.00     0.002 C  
BRANCH  17  19
ATOM     19  C   ALA A   1     -12.070  10.604  70.104  1.00  0.00    -0.333 C  
HETATM   20  C   UNK A   2      -8.786   8.824  69.808  1.00  0.00    -0.133 C  
ATOM     21  O   ALA A   1     -13.111  10.331  70.704  1.00  0.00    -0.365 OA 
HETATM   22  C   UNK A   2      -9.464   8.086  70.963  1.00  0.00    -0.179 C  
HETATM   23  N   UNK A   2     -10.931   9.822  70.296  1.00  0.00    -0.275 N  
HETATM   24  S   UNK A   2      -7.269   9.697  70.371  1.00  0.00    -0.136 SA 
HETATM   25  C   UNK A   2      -6.081   8.852  69.299  1.00  0.00    -0.041 C  
HETATM   26  C   UNK A   2     -10.955   8.495  70.939  1.00  0.00    -0.251 C  
HETATM   27  C   UNK A   2      -9.820   9.857  69.342  1.00  0.00    -0.217 C  
HETATM   28  C   UNK A   2     -11.507   8.245  72.364  1.00  0.00    -0.394 C  
HETATM   29  C   UNK A   2      -6.776   8.458  68.012  1.00  0.00    -0.065 C  
HETATM   30  S   UNK A   2      -8.343   7.674  68.456  1.00  0.00    -0.129 SA 
HETATM   31  O   UNK A   2     -12.473   9.079  72.788  1.00  0.00    -0.238 OA 
HETATM   32  O   UNK A   2     -11.171   7.281  73.046  1.00  0.00    -0.311 OA 
ENDBRANCH  17  19
ENDBRANCH  15  17
ENDBRANCH   6  15
ENDBRANCH   4   6
ENDBRANCH   3   4
ENDBRANCH   2   3
TORSDOF 9
ENDMDL
MODEL      117
REMARK 921   NORMALIZED FREE ENERGY PREDICTED BY IDOCK:   -4.84 KCAL/MOL
REMARK 922        TOTAL FREE ENERGY PREDICTED BY IDOCK:   -8.73 KCAL/MOL
REMARK 923 INTER-LIGAND FREE ENERGY PREDICTED BY IDOCK:   -7.52 KCAL/MOL
REMARK 924 INTRA-LIGAND FREE ENERGY PREDICTED BY IDOCK:   -1.21 KCAL/MOL
REMARK 927      BINDING AFFINITY PREDICTED BY RF-SCORE:    0.00 PKD
ROOT
HETATM    1  C   UNK A   0      -9.760   5.083  70.598  1.00  0.00    -0.266 C  
HETATM    2  C   UNK A   0     -10.595   5.699  69.491  1.00  0.00    -0.314 C  
ENDROOT
BRANCH   2   3
HETATM    3  O   UNK A   0      -9.752   6.353  68.530  1.00  0.00    -0.131 OA 
BRANCH   3   4
HETATM    4  C   UNK A   0     -10.391   7.036  67.536  1.00  0.00    -0.225 C  
HETATM    5  O   UNK A   0     -11.209   6.557  66.759  1.00  0.00    -0.334 OA 
BRANCH   4   6
HETATM    6  C   UNK A   0      -9.951   8.512  67.530  1.00  0.00    -0.200 C  
BRANCH   6   7
HETATM    7  C   UNK A   0     -10.703   9.284  68.629  1.00  0.00    -0.180 C  
BRANCH   7   8
HETATM    8  C   UNK A   0      -9.823   9.866  69.739  1.00  0.00    -0.268 C  
BRANCH   8   9
HETATM    9  C   UNK A   0     -10.120   9.133  71.031  1.00  0.00    -0.373 A  
HETATM   10  C   UNK A   0     -11.433   8.777  71.369  1.00  0.00    -0.366 A  
HETATM   11  C   UNK A   0     -11.690   8.015  72.511  1.00  0.00    -0.446 A  
HETATM   12  C   UNK A   0     -10.636   7.599  73.324  1.00  0.00    -0.411 A  
HETATM   13  C   UNK A   0      -9.069   8.709  71.857  1.00  0.00    -0.326 A  
HETATM   14  C   UNK A   0      -9.328   7.948  72.998  1.00  0.00    -0.329 A  
ENDBRANCH   8   9
ENDBRANCH   7   8
ENDBRANCH   6   7
BRANCH   6  15
ATOM     15  N   ALA A   1     -10.211   9.068  66.167  1.00  0.00    -0.339 NA 
ATOM     16  H   ALA A   1     -10.809   9.891  66.224  1.00  0.00     0.000 HD 
BRANCH  15  17
ATOM     17  CA  ALA A   1      -8.985   9.370  65.399  1.00  0.00    -0.206 C  
ATOM     18  CB  ALA A   1      -9.303  10.168  64.136  1.00  0.00    -0.340 C  
BRANCH  17  19
ATOM     19  C   ALA A   1      -7.897  10.077  66.268  1.00  0.00    -0.111 C  
HETATM   20  C   UNK A   2      -9.511  13.293  67.313  1.00  0.00    -0.233 C  
ATOM     21  O   ALA A   1      -6.759   9.630  66.424  1.00  0.00    -0.073 OA 
HETATM   22  C   UNK A   2      -8.219  13.285  68.131  1.00  0.00    -0.160 C  
HETATM   23  N   UNK A   2      -8.273  11.259  66.906  1.00  0.00    -0.147 N  
HETATM   24  S   UNK A   2     -10.992  13.211  68.400  1.00  0.00    -0.274 SA 
HETATM   25  C   UNK A   2     -11.761  14.768  67.893  1.00  0.00    -0.341 C  
HETATM   26  C   UNK A   2      -7.311  12.193  67.521  1.00  0.00    -0.135 C  
HETATM   27  C   UNK A   2      -9.441  12.021  66.458  1.00  0.00    -0.228 C  
HETATM   28  C   UNK A   2      -6.307  11.782  68.625  1.00  0.00    -0.057 C  
HETATM   29  C   UNK A   2     -11.404  15.044  66.448  1.00  0.00    -0.275 C  
HETATM   30  S   UNK A   2      -9.623  14.789  66.267  1.00  0.00    -0.313 SA 
HETATM   31  O   UNK A   2      -5.901  10.500  68.621  1.00  0.00    -0.041 OA 
HETATM   32  O   UNK A   2      -5.813  12.589  69.407  1.00  0.00    -0.079 OA 
ENDBRANCH  17  19
ENDBRANCH  15  17
ENDBRANCH   6  15
ENDBRANCH   4   6
ENDBRANCH   3   4
ENDBRANCH   2   3
TORSDOF 9
ENDMDL
MODEL      118
REMARK 921   NORMALIZED FREE ENERGY PREDICTED BY IDOCK:   -4.83 KCAL/MOL
REMARK 922        TOTAL FREE ENERGY PREDICTED BY IDOCK:   -8.72 KCAL/MOL
REMARK 923 INTER-LIGAND FREE ENERGY PREDICTED BY IDOCK:   -8.38 KCAL/MOL
REMARK 924 INTRA-LIGAND FREE ENERGY PREDICTED BY IDOCK:   -0.35 KCAL/MOL
REMARK 927      BINDING AFFINITY PREDICTED BY RF-SCORE:    0.00 PKD
ROOT
HETATM    1  C   UNK A   0      -9.958  18.208  67.969  1.00  0.00    -0.353 C  
HETATM    2  C   UNK A   0      -8.771  17.299  67.707  1.00  0.00    -0.226 C  
ENDROOT
BRANCH   2   3
HETATM    3  O   UNK A   0      -9.208  15.945  67.514  1.00  0.00    -0.205 OA 
BRANCH   3   4
HETATM    4  C   UNK A   0      -9.177  15.140  68.616  1.00  0.00    -0.196 C  
HETATM    5  O   UNK A   0      -8.609  15.404  69.670  1.00  0.00    -0.249 OA 
BRANCH   4   6
HETATM    6  C   UNK A   0      -9.973  13.847  68.360  1.00  0.00    -0.233 C  
BRANCH   6   7
HETATM    7  C   UNK A   0     -11.373  13.964  68.991  1.00  0.00    -0.324 C  
BRANCH   7   8
HETATM    8  C   UNK A   0     -11.917  15.389  69.118  1.00  0.00    -0.324 C  
BRANCH   8   9
HETATM    9  C   UNK A   0     -12.411  15.599  70.534  1.00  0.00    -0.443 A  
HETATM   10  C   UNK A   0     -13.632  15.053  70.956  1.00  0.00    -0.442 A  
HETATM   11  C   UNK A   0     -14.035  15.165  72.289  1.00  0.00    -0.631 A  
HETATM   12  C   UNK A   0     -13.221  15.819  73.212  1.00  0.00    -0.687 A  
HETATM   13  C   UNK A   0     -11.601  16.256  71.472  1.00  0.00    -0.435 A  
HETATM   14  C   UNK A   0     -12.007  16.366  72.803  1.00  0.00    -0.585 A  
ENDBRANCH   8   9
ENDBRANCH   7   8
ENDBRANCH   6   7
BRANCH   6  15
ATOM     15  N   ALA A   1      -9.192  12.703  68.920  1.00  0.00    -0.374 NA 
ATOM     16  H   ALA A   1      -9.808  11.920  69.137  1.00  0.00     0.000 HD 
BRANCH  15  17
ATOM     17  CA  ALA A   1      -8.075  12.261  68.060  1.00  0.00    -0.156 C  
ATOM     18  CB  ALA A   1      -6.754  12.243  68.827  1.00  0.00    -0.089 C  
BRANCH  17  19
ATOM     19  C   ALA A   1      -8.360  10.888  67.372  1.00  0.00    -0.117 C  
HETATM   20  C   UNK A   2      -9.423   8.660  70.192  1.00  0.00    -0.164 C  
ATOM     21  O   ALA A   1      -8.148  10.671  66.178  1.00  0.00    -0.143 OA 
HETATM   22  C   UNK A   2      -9.695   7.795  68.960  1.00  0.00    -0.157 C  
HETATM   23  N   UNK A   2      -8.903   9.885  68.175  1.00  0.00    -0.118 N  
HETATM   24  S   UNK A   2     -10.981   9.066  71.081  1.00  0.00    -0.332 SA 
HETATM   25  C   UNK A   2     -10.564   8.312  72.672  1.00  0.00    -0.308 C  
HETATM   26  C   UNK A   2      -8.967   8.467  67.774  1.00  0.00    -0.136 C  
HETATM   27  C   UNK A   2      -8.809   9.951  69.635  1.00  0.00    -0.208 C  
HETATM   28  C   UNK A   2      -9.669   7.974  66.484  1.00  0.00    -0.227 C  
HETATM   29  C   UNK A   2      -9.065   8.390  72.875  1.00  0.00    -0.212 C  
HETATM   30  S   UNK A   2      -8.278   7.825  71.347  1.00  0.00    -0.104 SA 
HETATM   31  O   UNK A   2      -9.710   8.839  65.456  1.00  0.00    -0.089 OA 
HETATM   32  O   UNK A   2     -10.079   6.825  66.350  1.00  0.00    -0.109 OA 
ENDBRANCH  17  19
ENDBRANCH  15  17
ENDBRANCH   6  15
ENDBRANCH   4   6
ENDBRANCH   3   4
ENDBRANCH   2   3
TORSDOF 9
ENDMDL
MODEL      119
REMARK 921   NORMALIZED FREE ENERGY PREDICTED BY IDOCK:   -4.81 KCAL/MOL
REMARK 922        TOTAL FREE ENERGY PREDICTED BY IDOCK:   -8.69 KCAL/MOL
REMARK 923 INTER-LIGAND FREE ENERGY PREDICTED BY IDOCK:   -7.41 KCAL/MOL
REMARK 924 INTRA-LIGAND FREE ENERGY PREDICTED BY IDOCK:   -1.28 KCAL/MOL
REMARK 927      BINDING AFFINITY PREDICTED BY RF-SCORE:    0.00 PKD
ROOT
HETATM    1  C   UNK A   0     -10.312   5.401  70.451  1.00  0.00    -0.353 C  
HETATM    2  C   UNK A   0     -11.282   6.319  69.730  1.00  0.00    -0.430 C  
ENDROOT
BRANCH   2   3
HETATM    3  O   UNK A   0     -10.597   7.476  69.225  1.00  0.00    -0.223 OA 
BRANCH   3   4
HETATM    4  C   UNK A   0     -10.341   7.486  67.884  1.00  0.00    -0.210 C  
HETATM    5  O   UNK A   0     -11.090   7.053  67.017  1.00  0.00    -0.373 OA 
BRANCH   4   6
HETATM    6  C   UNK A   0      -8.973   8.135  67.603  1.00  0.00    -0.132 C  
BRANCH   6   7
HETATM    7  C   UNK A   0      -7.846   7.209  68.096  1.00  0.00    -0.118 C  
BRANCH   7   8
HETATM    8  C   UNK A   0      -6.943   6.635  67.000  1.00  0.00    -0.071 C  
BRANCH   8   9
HETATM    9  C   UNK A   0      -7.576   5.370  66.460  1.00  0.00    -0.088 A  
HETATM   10  C   UNK A   0      -7.429   5.014  65.112  1.00  0.00    -0.076 A  
HETATM   11  C   UNK A   0      -7.930   3.797  64.642  1.00  0.00    -0.086 A  
HETATM   12  C   UNK A   0      -8.578   2.924  65.515  1.00  0.00    -0.115 A  
HETATM   13  C   UNK A   0      -8.230   4.484  67.328  1.00  0.00    -0.101 A  
HETATM   14  C   UNK A   0      -8.729   3.269  66.856  1.00  0.00    -0.134 A  
ENDBRANCH   8   9
ENDBRANCH   7   8
ENDBRANCH   6   7
BRANCH   6  15
ATOM     15  N   ALA A   1      -8.946   9.469  68.276  1.00  0.00    -0.124 NA 
ATOM     16  H   ALA A   1      -8.300   9.460  69.065  1.00  0.00     0.000 HD 
BRANCH  15  17
ATOM     17  CA  ALA A   1      -8.639  10.593  67.367  1.00  0.00    -0.122 C  
ATOM     18  CB  ALA A   1      -7.360  10.332  66.572  1.00  0.00    -0.113 C  
BRANCH  17  19
ATOM     19  C   ALA A   1      -9.837  10.945  66.429  1.00  0.00    -0.207 C  
HETATM   20  C   UNK A   2     -10.710  14.471  67.352  1.00  0.00    -0.282 C  
ATOM     21  O   ALA A   1     -10.362  10.132  65.667  1.00  0.00    -0.240 OA 
HETATM   22  C   UNK A   2     -11.585  14.220  66.122  1.00  0.00    -0.374 C  
HETATM   23  N   UNK A   2     -10.295  12.262  66.464  1.00  0.00    -0.224 N  
HETATM   24  S   UNK A   2      -9.467  15.787  67.032  1.00  0.00    -0.230 SA 
HETATM   25  C   UNK A   2      -9.989  16.943  68.322  1.00  0.00    -0.282 C  
HETATM   26  C   UNK A   2     -11.575  12.694  65.872  1.00  0.00    -0.396 C  
HETATM   27  C   UNK A   2      -9.986  13.140  67.596  1.00  0.00    -0.219 C  
HETATM   28  C   UNK A   2     -11.942  12.485  64.383  1.00  0.00    -0.404 C  
HETATM   29  C   UNK A   2     -10.566  16.157  69.481  1.00  0.00    -0.306 C  
HETATM   30  S   UNK A   2     -11.724  14.948  68.798  1.00  0.00    -0.313 SA 
HETATM   31  O   UNK A   2     -11.381  11.428  63.769  1.00  0.00    -0.382 OA 
HETATM   32  O   UNK A   2     -12.777  13.172  63.802  1.00  0.00    -0.688 OA 
ENDBRANCH  17  19
ENDBRANCH  15  17
ENDBRANCH   6  15
ENDBRANCH   4   6
ENDBRANCH   3   4
ENDBRANCH   2   3
TORSDOF 9
ENDMDL
MODEL      120
REMARK 921   NORMALIZED FREE ENERGY PREDICTED BY IDOCK:   -4.81 KCAL/MOL
REMARK 922        TOTAL FREE ENERGY PREDICTED BY IDOCK:   -8.69 KCAL/MOL
REMARK 923 INTER-LIGAND FREE ENERGY PREDICTED BY IDOCK:   -7.81 KCAL/MOL
REMARK 924 INTRA-LIGAND FREE ENERGY PREDICTED BY IDOCK:   -0.87 KCAL/MOL
REMARK 927      BINDING AFFINITY PREDICTED BY RF-SCORE:    0.00 PKD
ROOT
HETATM    1  C   UNK A   0      -5.399  10.350  64.657  1.00  0.00    -0.140 C  
HETATM    2  C   UNK A   0      -5.945  10.754  66.014  1.00  0.00    -0.138 C  
ENDROOT
BRANCH   2   3
HETATM    3  O   UNK A   0      -5.303  11.952  66.479  1.00  0.00    -0.308 OA 
BRANCH   3   4
HETATM    4  C   UNK A   0      -5.800  12.494  67.628  1.00  0.00    -0.134 C  
HETATM    5  O   UNK A   0      -5.147  12.740  68.636  1.00  0.00    -0.056 OA 
BRANCH   4   6
HETATM    6  C   UNK A   0      -7.308  12.773  67.482  1.00  0.00    -0.153 C  
BRANCH   6   7
HETATM    7  C   UNK A   0      -7.561  14.291  67.497  1.00  0.00    -0.202 C  
BRANCH   7   8
HETATM    8  C   UNK A   0      -8.690  14.776  66.584  1.00  0.00    -0.229 C  
BRANCH   8   9
HETATM    9  C   UNK A   0      -8.847  16.272  66.754  1.00  0.00    -0.263 A  
HETATM   10  C   UNK A   0      -9.965  16.940  66.235  1.00  0.00    -0.324 A  
HETATM   11  C   UNK A   0     -10.154  18.302  66.480  1.00  0.00    -0.396 A  
HETATM   12  C   UNK A   0      -9.229  19.008  67.248  1.00  0.00    -0.321 A  
HETATM   13  C   UNK A   0      -7.923  16.993  67.524  1.00  0.00    -0.189 A  
HETATM   14  C   UNK A   0      -8.114  18.355  67.767  1.00  0.00    -0.264 A  
ENDBRANCH   8   9
ENDBRANCH   7   8
ENDBRANCH   6   7
BRANCH   6  15
ATOM     15  N   ALA A   1      -8.019  12.067  68.591  1.00  0.00    -0.266 NA 
ATOM     16  H   ALA A   1      -8.516  12.736  69.180  1.00  0.00     0.000 HD 
BRANCH  15  17
ATOM     17  CA  ALA A   1      -8.932  10.999  68.135  1.00  0.00    -0.152 C  
ATOM     18  CB  ALA A   1      -9.458  10.177  69.310  1.00  0.00    -0.231 C  
BRANCH  17  19
ATOM     19  C   ALA A   1     -10.096  11.548  67.250  1.00  0.00    -0.199 C  
HETATM   20  C   UNK A   2     -11.698  14.181  69.382  1.00  0.00    -0.313 C  
ATOM     21  O   ALA A   1     -10.393  11.075  66.152  1.00  0.00    -0.239 OA 
HETATM   22  C   UNK A   2     -12.407  14.361  68.038  1.00  0.00     0.001 C  
HETATM   23  N   UNK A   2     -10.799  12.646  67.747  1.00  0.00    -0.216 N  
HETATM   24  S   UNK A   2     -10.708  15.667  69.821  1.00  0.00    -0.332 SA 
HETATM   25  C   UNK A   2     -11.544  16.075  71.373  1.00  0.00    -0.455 C  
HETATM   26  C   UNK A   2     -12.086  13.107  67.193  1.00  0.00    -0.286 C  
HETATM   27  C   UNK A   2     -10.755  12.989  69.171  1.00  0.00    -0.022 C  
HETATM   28  C   UNK A   2     -12.284  13.506  65.711  1.00  0.00    -0.461 C  
HETATM   29  C   UNK A   2     -12.051  14.797  72.008  1.00  0.00    -0.325 C  
HETATM   30  S   UNK A   2     -12.898  13.847  70.722  1.00  0.00    -0.212 SA 
HETATM   31  O   UNK A   2     -11.485  12.902  64.814  1.00  0.00    -0.302 OA 
HETATM   32  O   UNK A   2     -13.186  14.252  65.340  1.00  0.00    -0.688 OA 
ENDBRANCH  17  19
ENDBRANCH  15  17
ENDBRANCH   6  15
ENDBRANCH   4   6
ENDBRANCH   3   4
ENDBRANCH   2   3
TORSDOF 9
ENDMDL
MODEL      121
REMARK 921   NORMALIZED FREE ENERGY PREDICTED BY IDOCK:   -4.79 KCAL/MOL
REMARK 922        TOTAL FREE ENERGY PREDICTED BY IDOCK:   -8.66 KCAL/MOL
REMARK 923 INTER-LIGAND FREE ENERGY PREDICTED BY IDOCK:   -6.86 KCAL/MOL
REMARK 924 INTRA-LIGAND FREE ENERGY PREDICTED BY IDOCK:   -1.80 KCAL/MOL
REMARK 927      BINDING AFFINITY PREDICTED BY RF-SCORE:    0.00 PKD
ROOT
HETATM    1  C   UNK A   0      -8.670   7.914  73.363  1.00  0.00    -0.309 C  
HETATM    2  C   UNK A   0      -7.365   7.892  72.590  1.00  0.00    -0.097 C  
ENDROOT
BRANCH   2   3
HETATM    3  O   UNK A   0      -7.382   6.849  71.603  1.00  0.00    -0.082 OA 
BRANCH   3   4
HETATM    4  C   UNK A   0      -7.035   7.214  70.335  1.00  0.00    -0.058 C  
HETATM    5  O   UNK A   0      -5.888   7.286  69.908  1.00  0.00    -0.023 OA 
BRANCH   4   6
HETATM    6  C   UNK A   0      -8.292   7.515  69.498  1.00  0.00    -0.131 C  
BRANCH   6   7
HETATM    7  C   UNK A   0      -8.737   6.244  68.752  1.00  0.00    -0.121 C  
BRANCH   7   8
HETATM    8  C   UNK A   0     -10.232   5.925  68.836  1.00  0.00    -0.254 C  
BRANCH   8   9
HETATM    9  C   UNK A   0     -10.609   5.739  70.291  1.00  0.00    -0.369 A  
HETATM   10  C   UNK A   0     -11.652   6.482  70.863  1.00  0.00    -0.417 A  
HETATM   11  C   UNK A   0     -12.061   6.235  72.176  1.00  0.00    -0.304 A  
HETATM   12  C   UNK A   0     -11.434   5.242  72.928  1.00  0.00    -0.339 A  
HETATM   13  C   UNK A   0      -9.986   4.743  71.058  1.00  0.00    -0.279 A  
HETATM   14  C   UNK A   0     -10.396   4.499  72.369  1.00  0.00    -0.256 A  
ENDBRANCH   8   9
ENDBRANCH   7   8
ENDBRANCH   6   7
BRANCH   6  15
ATOM     15  N   ALA A   1      -7.971   8.638  68.566  1.00  0.00    -0.114 NA 
ATOM     16  H   ALA A   1      -7.955   8.309  67.601  1.00  0.00     0.000 HD 
BRANCH  15  17
ATOM     17  CA  ALA A   1      -8.867   9.805  68.701  1.00  0.00    -0.126 C  
ATOM     18  CB  ALA A   1      -9.647   9.758  70.014  1.00  0.00    -0.282 C  
BRANCH  17  19
ATOM     19  C   ALA A   1      -8.109  11.161  68.531  1.00  0.00    -0.146 C  
HETATM   20  C   UNK A   2     -10.347  13.181  66.305  1.00  0.00    -0.287 C  
ATOM     21  O   ALA A   1      -6.985  11.370  68.989  1.00  0.00    -0.090 OA 
HETATM   22  C   UNK A   2      -9.282  14.198  66.722  1.00  0.00    -0.282 C  
HETATM   23  N   UNK A   2      -8.779  12.171  67.842  1.00  0.00    -0.167 N  
HETATM   24  S   UNK A   2     -12.007  13.653  66.938  1.00  0.00    -0.399 SA 
HETATM   25  C   UNK A   2     -12.851  13.794  65.343  1.00  0.00    -0.410 C  
HETATM   26  C   UNK A   2      -8.118  13.394  67.346  1.00  0.00    -0.172 C  
HETATM   27  C   UNK A   2      -9.911  11.865  66.963  1.00  0.00    -0.192 C  
HETATM   28  C   UNK A   2      -7.340  14.374  68.258  1.00  0.00    -0.122 C  
HETATM   29  C   UNK A   2     -12.222  12.823  64.367  1.00  0.00    -0.428 C  
HETATM   30  S   UNK A   2     -10.427  13.017  64.485  1.00  0.00    -0.381 SA 
HETATM   31  O   UNK A   2      -6.771  13.848  69.357  1.00  0.00    -0.116 OA 
HETATM   32  O   UNK A   2      -7.151  15.549  67.959  1.00  0.00    -0.109 OA 
ENDBRANCH  17  19
ENDBRANCH  15  17
ENDBRANCH   6  15
ENDBRANCH   4   6
ENDBRANCH   3   4
ENDBRANCH   2   3
TORSDOF 9
ENDMDL
MODEL      122
REMARK 921   NORMALIZED FREE ENERGY PREDICTED BY IDOCK:   -4.78 KCAL/MOL
REMARK 922        TOTAL FREE ENERGY PREDICTED BY IDOCK:   -8.64 KCAL/MOL
REMARK 923 INTER-LIGAND FREE ENERGY PREDICTED BY IDOCK:   -7.73 KCAL/MOL
REMARK 924 INTRA-LIGAND FREE ENERGY PREDICTED BY IDOCK:   -0.92 KCAL/MOL
REMARK 927      BINDING AFFINITY PREDICTED BY RF-SCORE:    0.00 PKD
ROOT
HETATM    1  C   UNK A   0     -10.365   4.608  65.343  1.00  0.00    -0.173 C  
HETATM    2  C   UNK A   0      -9.270   5.126  66.256  1.00  0.00    -0.146 C  
ENDROOT
BRANCH   2   3
HETATM    3  O   UNK A   0      -9.679   6.348  66.890  1.00  0.00    -0.141 OA 
BRANCH   3   4
HETATM    4  C   UNK A   0      -9.060   7.486  66.461  1.00  0.00    -0.166 C  
HETATM    5  O   UNK A   0      -7.989   7.528  65.867  1.00  0.00    -0.104 OA 
BRANCH   4   6
HETATM    6  C   UNK A   0      -9.905   8.724  66.814  1.00  0.00    -0.247 C  
BRANCH   6   7
HETATM    7  C   UNK A   0      -9.376   9.951  66.050  1.00  0.00    -0.240 C  
BRANCH   7   8
HETATM    8  C   UNK A   0      -9.926  10.126  64.632  1.00  0.00    -0.304 C  
BRANCH   8   9
HETATM    9  C   UNK A   0     -10.895  11.290  64.624  1.00  0.00    -0.335 A  
HETATM   10  C   UNK A   0     -11.298  11.894  65.823  1.00  0.00    -0.354 A  
HETATM   11  C   UNK A   0     -12.113  13.029  65.805  1.00  0.00    -0.510 A  
HETATM   12  C   UNK A   0     -12.529  13.571  64.590  1.00  0.00    -0.372 A  
HETATM   13  C   UNK A   0     -11.320  11.843  63.408  1.00  0.00    -0.465 A  
HETATM   14  C   UNK A   0     -12.135  12.977  63.393  1.00  0.00    -0.591 A  
ENDBRANCH   8   9
ENDBRANCH   7   8
ENDBRANCH   6   7
BRANCH   6  15
ATOM     15  N   ALA A   1      -9.853   8.912  68.296  1.00  0.00    -0.162 NA 
ATOM     16  H   ALA A   1      -9.018   8.474  68.684  1.00  0.00     0.000 HD 
BRANCH  15  17
ATOM     17  CA  ALA A   1      -9.945  10.323  68.725  1.00  0.00    -0.179 C  
ATOM     18  CB  ALA A   1     -10.896  10.484  69.910  1.00  0.00    -0.334 C  
BRANCH  17  19
ATOM     19  C   ALA A   1      -8.545  10.949  69.021  1.00  0.00    -0.103 C  
HETATM   20  C   UNK A   2      -8.977  14.580  68.201  1.00  0.00    -0.182 C  
ATOM     21  O   ALA A   1      -7.562  10.283  69.350  1.00  0.00    -0.108 OA 
HETATM   22  C   UNK A   2      -7.586  14.543  68.838  1.00  0.00    -0.138 C  
HETATM   23  N   UNK A   2      -8.444  12.337  68.924  1.00  0.00    -0.356 N  
HETATM   24  S   UNK A   2     -10.150  15.567  69.214  1.00  0.00    -0.273 SA 
HETATM   25  C   UNK A   2     -10.569  16.813  67.970  1.00  0.00    -0.347 C  
HETATM   26  C   UNK A   2      -7.158  13.058  68.888  1.00  0.00    -0.068 C  
HETATM   27  C   UNK A   2      -9.436  13.116  68.178  1.00  0.00    -0.222 C  
HETATM   28  C   UNK A   2      -6.083  12.943  69.996  1.00  0.00    -0.110 C  
HETATM   29  C   UNK A   2     -10.477  16.183  66.596  1.00  0.00    -0.300 C  
HETATM   30  S   UNK A   2      -8.912  15.280  66.512  1.00  0.00    -0.301 SA 
HETATM   31  O   UNK A   2      -6.044  11.784  70.677  1.00  0.00    -0.305 OA 
HETATM   32  O   UNK A   2      -5.233  13.808  70.189  1.00  0.00    -0.090 OA 
ENDBRANCH  17  19
ENDBRANCH  15  17
ENDBRANCH   6  15
ENDBRANCH   4   6
ENDBRANCH   3   4
ENDBRANCH   2   3
TORSDOF 9
ENDMDL
MODEL      123
REMARK 921   NORMALIZED FREE ENERGY PREDICTED BY IDOCK:   -4.77 KCAL/MOL
REMARK 922        TOTAL FREE ENERGY PREDICTED BY IDOCK:   -8.63 KCAL/MOL
REMARK 923 INTER-LIGAND FREE ENERGY PREDICTED BY IDOCK:   -8.34 KCAL/MOL
REMARK 924 INTRA-LIGAND FREE ENERGY PREDICTED BY IDOCK:   -0.29 KCAL/MOL
REMARK 927      BINDING AFFINITY PREDICTED BY RF-SCORE:    0.00 PKD
ROOT
HETATM    1  C   UNK A   0     -12.026  12.150  63.660  1.00  0.00    -0.628 C  
HETATM    2  C   UNK A   0     -11.392  11.889  65.014  1.00  0.00    -0.273 C  
ENDROOT
BRANCH   2   3
HETATM    3  O   UNK A   0     -12.280  12.288  66.071  1.00  0.00    -0.646 OA 
BRANCH   3   4
HETATM    4  C   UNK A   0     -12.559  13.621  66.151  1.00  0.00    -0.335 C  
HETATM    5  O   UNK A   0     -13.386  14.214  65.467  1.00  0.00    -0.656 OA 
BRANCH   4   6
HETATM    6  C   UNK A   0     -11.696  14.286  67.239  1.00  0.00    -0.395 C  
BRANCH   6   7
HETATM    7  C   UNK A   0     -10.615  15.164  66.582  1.00  0.00    -0.304 C  
BRANCH   7   8
HETATM    8  C   UNK A   0      -9.188  14.935  67.089  1.00  0.00    -0.231 C  
BRANCH   8   9
HETATM    9  C   UNK A   0      -8.412  16.229  66.961  1.00  0.00    -0.232 A  
HETATM   10  C   UNK A   0      -9.073  17.441  66.719  1.00  0.00    -0.276 A  
HETATM   11  C   UNK A   0      -8.363  18.644  66.700  1.00  0.00    -0.297 A  
HETATM   12  C   UNK A   0      -6.987  18.647  66.926  1.00  0.00    -0.212 A  
HETATM   13  C   UNK A   0      -7.028  16.244  67.186  1.00  0.00    -0.243 A  
HETATM   14  C   UNK A   0      -6.321  17.447  67.166  1.00  0.00    -0.189 A  
ENDBRANCH   8   9
ENDBRANCH   7   8
ENDBRANCH   6   7
BRANCH   6  15
ATOM     15  N   ALA A   1     -11.110  13.207  68.090  1.00  0.00    -0.243 NA 
ATOM     16  H   ALA A   1     -10.114  13.100  67.898  1.00  0.00     0.000 HD 
BRANCH  15  17
ATOM     17  CA  ALA A   1     -11.342  13.392  69.537  1.00  0.00    -0.183 C  
ATOM     18  CB  ALA A   1     -11.999  14.740  69.827  1.00  0.00    -0.368 C  
BRANCH  17  19
ATOM     19  C   ALA A   1     -12.148  12.211  70.167  1.00  0.00    -0.290 C  
HETATM   20  C   UNK A   2     -10.238   9.154  69.143  1.00  0.00    -0.207 C  
ATOM     21  O   ALA A   1     -13.217  12.363  70.762  1.00  0.00     0.136 OA 
HETATM   22  C   UNK A   2     -11.272   8.592  70.121  1.00  0.00    -0.139 C  
HETATM   23  N   UNK A   2     -11.589  10.939  70.054  1.00  0.00    -0.312 N  
HETATM   24  S   UNK A   2      -8.528   8.942  69.784  1.00  0.00    -0.139 SA 
HETATM   25  C   UNK A   2      -7.879   7.928  68.432  1.00  0.00    -0.120 C  
HETATM   26  C   UNK A   2     -12.334   9.696  70.330  1.00  0.00     0.053 C  
HETATM   27  C   UNK A   2     -10.561  10.651  69.051  1.00  0.00    -0.219 C  
HETATM   28  C   UNK A   2     -13.025   9.397  71.683  1.00  0.00    -0.391 C  
HETATM   29  C   UNK A   2      -8.594   8.302  67.151  1.00  0.00    -0.123 C  
HETATM   30  S   UNK A   2     -10.367   8.346  67.508  1.00  0.00    -0.265 SA 
HETATM   31  O   UNK A   2     -13.449  10.460  72.389  1.00  0.00    -0.282 OA 
HETATM   32  O   UNK A   2     -13.278   8.256  72.061  1.00  0.00    -0.331 OA 
ENDBRANCH  17  19
ENDBRANCH  15  17
ENDBRANCH   6  15
ENDBRANCH   4   6
ENDBRANCH   3   4
ENDBRANCH   2   3
TORSDOF 9
ENDMDL
MODEL      124
REMARK 921   NORMALIZED FREE ENERGY PREDICTED BY IDOCK:   -4.77 KCAL/MOL
REMARK 922        TOTAL FREE ENERGY PREDICTED BY IDOCK:   -8.63 KCAL/MOL
REMARK 923 INTER-LIGAND FREE ENERGY PREDICTED BY IDOCK:   -7.38 KCAL/MOL
REMARK 924 INTRA-LIGAND FREE ENERGY PREDICTED BY IDOCK:   -1.24 KCAL/MOL
REMARK 927      BINDING AFFINITY PREDICTED BY RF-SCORE:    0.00 PKD
ROOT
HETATM    1  C   UNK A   0      -7.427   6.075  65.056  1.00  0.00    -0.084 C  
HETATM    2  C   UNK A   0      -8.701   5.978  65.875  1.00  0.00    -0.154 C  
ENDROOT
BRANCH   2   3
HETATM    3  O   UNK A   0      -8.653   6.882  66.990  1.00  0.00    -0.119 OA 
BRANCH   3   4
HETATM    4  C   UNK A   0      -9.588   7.877  66.999  1.00  0.00    -0.192 C  
HETATM    5  O   UNK A   0      -9.867   8.594  66.045  1.00  0.00    -0.235 OA 
BRANCH   4   6
HETATM    6  C   UNK A   0     -10.263   7.968  68.380  1.00  0.00    -0.207 C  
BRANCH   6   7
HETATM    7  C   UNK A   0     -10.880   6.607  68.748  1.00  0.00    -0.321 C  
BRANCH   7   8
HETATM    8  C   UNK A   0     -11.786   6.612  69.983  1.00  0.00    -0.378 C  
BRANCH   8   9
HETATM    9  C   UNK A   0     -10.977   6.166  71.183  1.00  0.00    -0.343 A  
HETATM   10  C   UNK A   0      -9.869   5.321  71.027  1.00  0.00    -0.254 A  
HETATM   11  C   UNK A   0      -9.067   4.993  72.124  1.00  0.00    -0.147 A  
HETATM   12  C   UNK A   0      -9.364   5.510  73.384  1.00  0.00    -0.138 A  
HETATM   13  C   UNK A   0     -11.265   6.679  72.456  1.00  0.00    -0.302 A  
HETATM   14  C   UNK A   0     -10.463   6.349  73.550  1.00  0.00    -0.300 A  
ENDBRANCH   8   9
ENDBRANCH   7   8
ENDBRANCH   6   7
BRANCH   6  15
ATOM     15  N   ALA A   1     -11.284   9.058  68.326  1.00  0.00    -0.343 NA 
ATOM     16  H   ALA A   1     -12.205   8.699  68.573  1.00  0.00     0.000 HD 
BRANCH  15  17
ATOM     17  CA  ALA A   1     -10.947  10.236  69.152  1.00  0.00    -0.238 C  
ATOM     18  CB  ALA A   1     -11.009   9.906  70.642  1.00  0.00    -0.405 C  
BRANCH  17  19
ATOM     19  C   ALA A   1      -9.573  10.867  68.759  1.00  0.00    -0.189 C  
HETATM   20  C   UNK A   2     -10.376  13.040  65.813  1.00  0.00    -0.286 C  
ATOM     21  O   ALA A   1      -8.509  10.565  69.302  1.00  0.00    -0.157 OA 
HETATM   22  C   UNK A   2      -8.920  13.403  66.111  1.00  0.00     0.223 C  
HETATM   23  N   UNK A   2      -9.591  11.835  67.755  1.00  0.00    -0.179 N  
HETATM   24  S   UNK A   2     -11.490  14.479  66.073  1.00  0.00    -0.339 SA 
HETATM   25  C   UNK A   2     -12.151  14.590  64.391  1.00  0.00    -0.472 C  
HETATM   26  C   UNK A   2      -8.377  12.318  67.070  1.00  0.00    -0.168 C  
HETATM   27  C   UNK A   2     -10.722  11.944  66.830  1.00  0.00    -0.246 C  
HETATM   28  C   UNK A   2      -7.170  12.944  67.810  1.00  0.00    -0.134 C  
HETATM   29  C   UNK A   2     -12.179  13.204  63.783  1.00  0.00    -0.456 C  
HETATM   30  S   UNK A   2     -10.571  12.437  64.098  1.00  0.00    -0.417 SA 
HETATM   31  O   UNK A   2      -6.961  12.532  69.073  1.00  0.00    -0.102 OA 
HETATM   32  O   UNK A   2      -6.372  13.697  67.260  1.00  0.00    -0.300 OA 
ENDBRANCH  17  19
ENDBRANCH  15  17
ENDBRANCH   6  15
ENDBRANCH   4   6
ENDBRANCH   3   4
ENDBRANCH   2   3
TORSDOF 9
ENDMDL
MODEL      125
REMARK 921   NORMALIZED FREE ENERGY PREDICTED BY IDOCK:   -4.77 KCAL/MOL
REMARK 922        TOTAL FREE ENERGY PREDICTED BY IDOCK:   -8.62 KCAL/MOL
REMARK 923 INTER-LIGAND FREE ENERGY PREDICTED BY IDOCK:   -7.85 KCAL/MOL
REMARK 924 INTRA-LIGAND FREE ENERGY PREDICTED BY IDOCK:   -0.77 KCAL/MOL
REMARK 927      BINDING AFFINITY PREDICTED BY RF-SCORE:    0.00 PKD
ROOT
HETATM    1  C   UNK A   0      -7.515   4.930  67.311  1.00  0.00    -0.083 C  
HETATM    2  C   UNK A   0      -7.848   6.294  66.736  1.00  0.00    -0.104 C  
ENDROOT
BRANCH   2   3
HETATM    3  O   UNK A   0      -9.131   6.269  66.091  1.00  0.00    -0.155 OA 
BRANCH   3   4
HETATM    4  C   UNK A   0     -10.129   6.966  66.709  1.00  0.00    -0.194 C  
HETATM    5  O   UNK A   0     -11.175   6.483  67.127  1.00  0.00    -0.388 OA 
BRANCH   4   6
HETATM    6  C   UNK A   0      -9.753   8.454  66.824  1.00  0.00    -0.242 C  
BRANCH   6   7
HETATM    7  C   UNK A   0     -10.783   9.185  67.704  1.00  0.00    -0.257 C  
BRANCH   7   8
HETATM    8  C   UNK A   0     -10.192  10.056  68.817  1.00  0.00    -0.201 C  
BRANCH   8   9
HETATM    9  C   UNK A   0     -11.159  10.080  69.983  1.00  0.00    -0.350 A  
HETATM   10  C   UNK A   0     -11.887  11.239  70.287  1.00  0.00    -0.446 A  
HETATM   11  C   UNK A   0     -12.850  11.225  71.299  1.00  0.00    -0.491 A  
HETATM   12  C   UNK A   0     -13.095  10.054  72.015  1.00  0.00    -0.541 A  
HETATM   13  C   UNK A   0     -11.414   8.908  70.710  1.00  0.00    -0.319 A  
HETATM   14  C   UNK A   0     -12.376   8.898  71.722  1.00  0.00    -0.424 A  
ENDBRANCH   8   9
ENDBRANCH   7   8
ENDBRANCH   6   7
BRANCH   6  15
ATOM     15  N   ALA A   1      -9.682   9.023  65.443  1.00  0.00    -0.444 NA 
ATOM     16  H   ALA A   1     -10.356   9.780  65.333  1.00  0.00     0.000 HD 
BRANCH  15  17
ATOM     17  CA  ALA A   1      -8.331   9.468  65.047  1.00  0.00    -0.143 C  
ATOM     18  CB  ALA A   1      -8.313   9.978  63.607  1.00  0.00    -0.166 C  
BRANCH  17  19
ATOM     19  C   ALA A   1      -7.736  10.520  66.037  1.00  0.00    -0.147 C  
HETATM   20  C   UNK A   2     -10.293  13.258  66.103  1.00  0.00    -0.290 C  
ATOM     21  O   ALA A   1      -6.618  10.414  66.546  1.00  0.00    -0.081 OA 
HETATM   22  C   UNK A   2      -9.325  13.676  67.213  1.00  0.00    -0.233 C  
HETATM   23  N   UNK A   2      -8.547  11.608  66.359  1.00  0.00    -0.277 N  
HETATM   24  S   UNK A   2     -11.960  12.876  66.778  1.00  0.00    -0.278 SA 
HETATM   25  C   UNK A   2     -12.896  14.114  65.847  1.00  0.00    -0.257 C  
HETATM   26  C   UNK A   2      -8.050  12.820  67.037  1.00  0.00    -0.066 C  
HETATM   27  C   UNK A   2      -9.682  11.981  65.512  1.00  0.00    -0.202 C  
HETATM   28  C   UNK A   2      -7.337  12.798  68.412  1.00  0.00    -0.118 C  
HETATM   29  C   UNK A   2     -12.215  14.344  64.514  1.00  0.00    -0.463 C  
HETATM   30  S   UNK A   2     -10.449  14.567  64.835  1.00  0.00    -0.345 SA 
HETATM   31  O   UNK A   2      -6.657  11.679  68.718  1.00  0.00    -0.061 OA 
HETATM   32  O   UNK A   2      -7.293  13.777  69.152  1.00  0.00    -0.082 OA 
ENDBRANCH  17  19
ENDBRANCH  15  17
ENDBRANCH   6  15
ENDBRANCH   4   6
ENDBRANCH   3   4
ENDBRANCH   2   3
TORSDOF 9
ENDMDL
MODEL      126
REMARK 921   NORMALIZED FREE ENERGY PREDICTED BY IDOCK:   -4.74 KCAL/MOL
REMARK 922        TOTAL FREE ENERGY PREDICTED BY IDOCK:   -8.58 KCAL/MOL
REMARK 923 INTER-LIGAND FREE ENERGY PREDICTED BY IDOCK:   -7.68 KCAL/MOL
REMARK 924 INTRA-LIGAND FREE ENERGY PREDICTED BY IDOCK:   -0.89 KCAL/MOL
REMARK 927      BINDING AFFINITY PREDICTED BY RF-SCORE:    0.00 PKD
ROOT
HETATM    1  C   UNK A   0     -10.069  16.514  66.865  1.00  0.00    -0.281 C  
HETATM    2  C   UNK A   0      -8.917  15.719  66.280  1.00  0.00    -0.345 C  
ENDROOT
BRANCH   2   3
HETATM    3  O   UNK A   0      -9.052  14.326  66.602  1.00  0.00    -0.257 OA 
BRANCH   3   4
HETATM    4  C   UNK A   0      -8.267  13.864  67.619  1.00  0.00    -0.177 C  
HETATM    5  O   UNK A   0      -7.396  14.510  68.190  1.00  0.00    -0.106 OA 
BRANCH   4   6
HETATM    6  C   UNK A   0      -8.638  12.411  67.966  1.00  0.00    -0.180 C  
BRANCH   6   7
HETATM    7  C   UNK A   0     -10.164  12.286  68.127  1.00  0.00    -0.212 C  
BRANCH   7   8
HETATM    8  C   UNK A   0     -10.818  11.162  67.319  1.00  0.00    -0.326 C  
BRANCH   8   9
HETATM    9  C   UNK A   0     -11.278  11.722  65.989  1.00  0.00    -0.352 A  
HETATM   10  C   UNK A   0     -12.278  12.703  65.931  1.00  0.00    -0.375 A  
HETATM   11  C   UNK A   0     -12.628  13.287  64.712  1.00  0.00    -0.398 A  
HETATM   12  C   UNK A   0     -11.981  12.898  63.540  1.00  0.00    -0.629 A  
HETATM   13  C   UNK A   0     -10.635  11.338  64.803  1.00  0.00    -0.376 A  
HETATM   14  C   UNK A   0     -10.987  11.923  63.586  1.00  0.00    -0.511 A  
ENDBRANCH   8   9
ENDBRANCH   7   8
ENDBRANCH   6   7
BRANCH   6  15
ATOM     15  N   ALA A   1      -7.903  12.030  69.211  1.00  0.00    -0.317 NA 
ATOM     16  H   ALA A   1      -8.557  11.750  69.942  1.00  0.00     0.000 HD 
BRANCH  15  17
ATOM     17  CA  ALA A   1      -6.878  10.986  69.006  1.00  0.00    -0.084 C  
ATOM     18  CB  ALA A   1      -6.270  10.534  70.333  1.00  0.00    -0.128 C  
BRANCH  17  19
ATOM     19  C   ALA A   1      -7.417   9.775  68.178  1.00  0.00    -0.081 C  
HETATM   20  C   UNK A   2      -9.980   8.209  70.419  1.00  0.00    -0.188 C  
ATOM     21  O   ALA A   1      -6.955   9.443  67.085  1.00  0.00    -0.083 OA 
HETATM   22  C   UNK A   2     -10.168   7.443  69.108  1.00  0.00    -0.196 C  
HETATM   23  N   UNK A   2      -8.491   9.072  68.723  1.00  0.00    -0.129 N  
HETATM   24  S   UNK A   2     -11.479   9.187  70.842  1.00  0.00    -0.311 SA 
HETATM   25  C   UNK A   2     -11.844   8.407  72.434  1.00  0.00    -0.384 C  
HETATM   26  C   UNK A   2      -8.934   7.754  68.230  1.00  0.00    -0.131 C  
HETATM   27  C   UNK A   2      -8.812   9.167  70.149  1.00  0.00    -0.197 C  
HETATM   28  C   UNK A   2      -9.354   7.487  66.763  1.00  0.00    -0.165 C  
HETATM   29  C   UNK A   2     -10.545   7.952  73.067  1.00  0.00    -0.339 C  
HETATM   30  S   UNK A   2      -9.600   7.073  71.801  1.00  0.00    -0.153 SA 
HETATM   31  O   UNK A   2      -8.781   8.261  65.825  1.00  0.00    -0.155 OA 
HETATM   32  O   UNK A   2     -10.086   6.556  66.442  1.00  0.00    -0.113 OA 
ENDBRANCH  17  19
ENDBRANCH  15  17
ENDBRANCH   6  15
ENDBRANCH   4   6
ENDBRANCH   3   4
ENDBRANCH   2   3
TORSDOF 9
ENDMDL
MODEL      127
REMARK 921   NORMALIZED FREE ENERGY PREDICTED BY IDOCK:   -4.73 KCAL/MOL
REMARK 922        TOTAL FREE ENERGY PREDICTED BY IDOCK:   -8.56 KCAL/MOL
REMARK 923 INTER-LIGAND FREE ENERGY PREDICTED BY IDOCK:   -7.20 KCAL/MOL
REMARK 924 INTRA-LIGAND FREE ENERGY PREDICTED BY IDOCK:   -1.36 KCAL/MOL
REMARK 927      BINDING AFFINITY PREDICTED BY RF-SCORE:    0.00 PKD
ROOT
HETATM    1  C   UNK A   0     -10.941  16.554  69.617  1.00  0.00    -0.287 C  
HETATM    2  C   UNK A   0     -10.307  17.900  69.320  1.00  0.00     0.000 C  
ENDROOT
BRANCH   2   3
HETATM    3  O   UNK A   0      -8.886  17.761  69.156  1.00  0.00    -0.063 OA 
BRANCH   3   4
HETATM    4  C   UNK A   0      -8.376  18.165  67.957  1.00  0.00    -0.261 C  
HETATM    5  O   UNK A   0      -8.193  19.330  67.622  1.00  0.00    -0.281 OA 
BRANCH   4   6
HETATM    6  C   UNK A   0      -8.045  16.947  67.076  1.00  0.00    -0.198 C  
BRANCH   6   7
HETATM    7  C   UNK A   0      -6.520  16.839  66.889  1.00  0.00    -0.243 C  
BRANCH   7   8
HETATM    8  C   UNK A   0      -5.701  16.834  68.182  1.00  0.00    -0.118 C  
BRANCH   8   9
HETATM    9  C   UNK A   0      -5.671  15.425  68.735  1.00  0.00    -0.092 A  
HETATM   10  C   UNK A   0      -5.747  14.317  67.880  1.00  0.00    -0.118 A  
HETATM   11  C   UNK A   0      -5.618  13.021  68.386  1.00  0.00    -0.072 A  
HETATM   12  C   UNK A   0      -5.410  12.821  69.750  1.00  0.00    -0.084 A  
HETATM   13  C   UNK A   0      -5.462  15.211  70.106  1.00  0.00    -0.123 A  
HETATM   14  C   UNK A   0      -5.334  13.915  70.609  1.00  0.00    -0.126 A  
ENDBRANCH   8   9
ENDBRANCH   7   8
ENDBRANCH   6   7
BRANCH   6  15
ATOM     15  N   ALA A   1      -8.766  17.104  65.776  1.00  0.00    -0.494 NA 
ATOM     16  H   ALA A   1      -8.400  16.453  65.082  1.00  0.00     0.000 HD 
BRANCH  15  17
ATOM     17  CA  ALA A   1     -10.234  16.973  65.886  1.00  0.00    -0.296 C  
ATOM     18  CB  ALA A   1     -10.928  18.323  65.708  1.00  0.00     0.213 C  
BRANCH  17  19
ATOM     19  C   ALA A   1     -10.811  15.896  64.912  1.00  0.00    -0.400 C  
HETATM   20  C   UNK A   2     -10.431  12.674  66.787  1.00  0.00    -0.240 C  
ATOM     21  O   ALA A   1     -11.185  16.151  63.766  1.00  0.00    -0.497 OA 
HETATM   22  C   UNK A   2     -11.251  12.256  65.565  1.00  0.00    -0.376 C  
HETATM   23  N   UNK A   2     -10.916  14.596  65.405  1.00  0.00    -0.332 N  
HETATM   24  S   UNK A   2     -11.389  12.454  68.341  1.00  0.00    -0.311 SA 
HETATM   25  C   UNK A   2     -10.275  11.284  69.157  1.00  0.00    -0.100 C  
HETATM   26  C   UNK A   2     -11.163  13.419  64.550  1.00  0.00    -0.372 C  
HETATM   27  C   UNK A   2     -10.147  14.167  66.576  1.00  0.00    -0.280 C  
HETATM   28  C   UNK A   2     -12.389  13.286  63.614  1.00  0.00    -0.382 C  
HETATM   29  C   UNK A   2      -8.857  11.559  68.704  1.00  0.00    -0.106 C  
HETATM   30  S   UNK A   2      -8.879  11.713  66.902  1.00  0.00    -0.195 SA 
HETATM   31  O   UNK A   2     -12.907  14.432  63.136  1.00  0.00    -0.229 OA 
HETATM   32  O   UNK A   2     -12.816  12.201  63.231  1.00  0.00    -0.735 OA 
ENDBRANCH  17  19
ENDBRANCH  15  17
ENDBRANCH   6  15
ENDBRANCH   4   6
ENDBRANCH   3   4
ENDBRANCH   2   3
TORSDOF 9
ENDMDL
MODEL      128
REMARK 921   NORMALIZED FREE ENERGY PREDICTED BY IDOCK:   -4.72 KCAL/MOL
REMARK 922        TOTAL FREE ENERGY PREDICTED BY IDOCK:   -8.55 KCAL/MOL
REMARK 923 INTER-LIGAND FREE ENERGY PREDICTED BY IDOCK:   -7.18 KCAL/MOL
REMARK 924 INTRA-LIGAND FREE ENERGY PREDICTED BY IDOCK:   -1.38 KCAL/MOL
REMARK 927      BINDING AFFINITY PREDICTED BY RF-SCORE:    0.00 PKD
ROOT
HETATM    1  C   UNK A   0      -6.609   7.307  63.320  1.00  0.00    -0.053 C  
HETATM    2  C   UNK A   0      -7.553   6.755  64.372  1.00  0.00    -0.104 C  
ENDROOT
BRANCH   2   3
HETATM    3  O   UNK A   0      -8.357   7.807  64.928  1.00  0.00    -0.136 OA 
BRANCH   3   4
HETATM    4  C   UNK A   0      -7.956   8.296  66.138  1.00  0.00    -0.100 C  
HETATM    5  O   UNK A   0      -6.805   8.597  66.433  1.00  0.00    -0.069 OA 
BRANCH   4   6
HETATM    6  C   UNK A   0      -9.159   8.435  67.088  1.00  0.00    -0.138 C  
BRANCH   6   7
HETATM    7  C   UNK A   0     -10.284   7.482  66.646  1.00  0.00    -0.261 C  
BRANCH   7   8
HETATM    8  C   UNK A   0     -10.801   6.532  67.731  1.00  0.00    -0.395 C  
BRANCH   8   9
HETATM    9  C   UNK A   0     -10.195   5.162  67.508  1.00  0.00    -0.210 A  
HETATM   10  C   UNK A   0      -9.956   4.686  66.211  1.00  0.00    -0.268 A  
HETATM   11  C   UNK A   0      -9.307   3.465  66.013  1.00  0.00    -0.148 A  
HETATM   12  C   UNK A   0      -8.888   2.711  67.109  1.00  0.00    -0.158 A  
HETATM   13  C   UNK A   0      -9.770   4.395  68.602  1.00  0.00    -0.190 A  
HETATM   14  C   UNK A   0      -9.122   3.175  68.401  1.00  0.00    -0.211 A  
ENDBRANCH   8   9
ENDBRANCH   7   8
ENDBRANCH   6   7
BRANCH   6  15
ATOM     15  N   ALA A   1      -9.593   9.866  67.081  1.00  0.00    -0.158 NA 
ATOM     16  H   ALA A   1     -10.597   9.936  66.915  1.00  0.00     0.000 HD 
BRANCH  15  17
ATOM     17  CA  ALA A   1      -9.215  10.613  68.298  1.00  0.00    -0.153 C  
ATOM     18  CB  ALA A   1      -8.182  11.695  67.989  1.00  0.00    -0.146 C  
BRANCH  17  19
ATOM     19  C   ALA A   1     -10.455  11.198  69.047  1.00  0.00    -0.206 C  
HETATM   20  C   UNK A   2     -11.352   8.544  71.536  1.00  0.00    -0.283 C  
ATOM     21  O   ALA A   1     -10.995  12.261  68.735  1.00  0.00    -0.220 OA 
HETATM   22  C   UNK A   2     -12.269   9.702  71.935  1.00  0.00    -0.413 C  
HETATM   23  N   UNK A   2     -10.934  10.467  70.134  1.00  0.00    -0.383 N  
HETATM   24  S   UNK A   2     -10.146   8.157  72.868  1.00  0.00    -0.210 SA 
HETATM   25  C   UNK A   2     -10.638   6.440  73.159  1.00  0.00    -0.255 C  
HETATM   26  C   UNK A   2     -12.243  10.714  70.767  1.00  0.00    -0.375 C  
HETATM   27  C   UNK A   2     -10.596   9.051  70.301  1.00  0.00    -0.217 C  
HETATM   28  C   UNK A   2     -12.663  12.083  71.355  1.00  0.00    -0.275 C  
HETATM   29  C   UNK A   2     -11.155   5.851  71.864  1.00  0.00    -0.268 C  
HETATM   30  S   UNK A   2     -12.318   7.039  71.150  1.00  0.00    -0.345 SA 
HETATM   31  O   UNK A   2     -12.109  13.173  70.796  1.00  0.00    -0.339 OA 
HETATM   32  O   UNK A   2     -13.532  12.197  72.215  1.00  0.00    -0.491 OA 
ENDBRANCH  17  19
ENDBRANCH  15  17
ENDBRANCH   6  15
ENDBRANCH   4   6
ENDBRANCH   3   4
ENDBRANCH   2   3
TORSDOF 9
ENDMDL
MODEL      129
REMARK 921   NORMALIZED FREE ENERGY PREDICTED BY IDOCK:   -4.72 KCAL/MOL
REMARK 922        TOTAL FREE ENERGY PREDICTED BY IDOCK:   -8.55 KCAL/MOL
REMARK 923 INTER-LIGAND FREE ENERGY PREDICTED BY IDOCK:   -6.94 KCAL/MOL
REMARK 924 INTRA-LIGAND FREE ENERGY PREDICTED BY IDOCK:   -1.61 KCAL/MOL
REMARK 927      BINDING AFFINITY PREDICTED BY RF-SCORE:    0.00 PKD
ROOT
HETATM    1  C   UNK A   0     -12.488  13.749  66.175  1.00  0.00    -0.466 C  
HETATM    2  C   UNK A   0     -11.844  12.375  66.186  1.00  0.00    -0.376 C  
ENDROOT
BRANCH   2   3
HETATM    3  O   UNK A   0     -11.667  11.914  67.535  1.00  0.00    -0.483 OA 
BRANCH   3   4
HETATM    4  C   UNK A   0     -11.085  10.688  67.681  1.00  0.00    -0.319 C  
HETATM    5  O   UNK A   0     -10.971   9.849  66.795  1.00  0.00    -0.089 OA 
BRANCH   4   6
HETATM    6  C   UNK A   0     -10.573  10.504  69.121  1.00  0.00    -0.229 C  
BRANCH   6   7
HETATM    7  C   UNK A   0     -11.618  11.038  70.118  1.00  0.00    -0.421 C  
BRANCH   7   8
HETATM    8  C   UNK A   0     -12.791  10.096  70.403  1.00  0.00    -0.155 C  
BRANCH   8   9
HETATM    9  C   UNK A   0     -12.288   8.925  71.221  1.00  0.00    -0.342 A  
HETATM   10  C   UNK A   0     -12.867   7.655  71.088  1.00  0.00    -0.223 A  
HETATM   11  C   UNK A   0     -12.335   6.558  71.770  1.00  0.00    -0.340 A  
HETATM   12  C   UNK A   0     -11.219   6.720  72.589  1.00  0.00    -0.291 A  
HETATM   13  C   UNK A   0     -11.166   9.075  72.049  1.00  0.00    -0.379 A  
HETATM   14  C   UNK A   0     -10.637   7.977  72.730  1.00  0.00    -0.420 A  
ENDBRANCH   8   9
ENDBRANCH   7   8
ENDBRANCH   6   7
BRANCH   6  15
ATOM     15  N   ALA A   1      -9.262  11.212  69.241  1.00  0.00    -0.399 NA 
ATOM     16  H   ALA A   1      -9.181  11.666  70.150  1.00  0.00     0.000 HD 
BRANCH  15  17
ATOM     17  CA  ALA A   1      -8.090  10.349  68.986  1.00  0.00    -0.138 C  
ATOM     18  CB  ALA A   1      -6.816  11.176  68.816  1.00  0.00    -0.079 C  
BRANCH  17  19
ATOM     19  C   ALA A   1      -7.916   9.242  70.074  1.00  0.00    -0.121 C  
HETATM   20  C   UNK A   2      -8.705   6.055  68.268  1.00  0.00    -0.113 C  
ATOM     21  O   ALA A   1      -7.672   9.488  71.257  1.00  0.00    -0.322 OA 
HETATM   22  C   UNK A   2      -8.190   5.556  69.620  1.00  0.00    -0.101 C  
HETATM   23  N   UNK A   2      -8.025   7.919  69.647  1.00  0.00    -0.115 N  
HETATM   24  S   UNK A   2      -7.596   5.535  66.897  1.00  0.00    -0.093 SA 
HETATM   25  C   UNK A   2      -8.803   4.574  65.950  1.00  0.00    -0.121 C  
HETATM   26  C   UNK A   2      -8.173   6.777  70.568  1.00  0.00    -0.117 C  
HETATM   27  C   UNK A   2      -8.684   7.585  68.382  1.00  0.00    -0.123 C  
HETATM   28  C   UNK A   2      -7.162   6.450  71.694  1.00  0.00    -0.086 C  
HETATM   29  C   UNK A   2     -10.178   5.173  66.159  1.00  0.00    -0.222 C  
HETATM   30  S   UNK A   2     -10.394   5.438  67.935  1.00  0.00    -0.127 SA 
HETATM   31  O   UNK A   2      -6.484   7.490  72.212  1.00  0.00    -0.049 OA 
HETATM   32  O   UNK A   2      -7.045   5.327  72.176  1.00  0.00    -0.079 OA 
ENDBRANCH  17  19
ENDBRANCH  15  17
ENDBRANCH   6  15
ENDBRANCH   4   6
ENDBRANCH   3   4
ENDBRANCH   2   3
TORSDOF 9
ENDMDL
MODEL      130
REMARK 921   NORMALIZED FREE ENERGY PREDICTED BY IDOCK:   -4.71 KCAL/MOL
REMARK 922        TOTAL FREE ENERGY PREDICTED BY IDOCK:   -8.54 KCAL/MOL
REMARK 923 INTER-LIGAND FREE ENERGY PREDICTED BY IDOCK:   -7.83 KCAL/MOL
REMARK 924 INTRA-LIGAND FREE ENERGY PREDICTED BY IDOCK:   -0.70 KCAL/MOL
REMARK 927      BINDING AFFINITY PREDICTED BY RF-SCORE:    0.00 PKD
ROOT
HETATM    1  C   UNK A   0      -6.168   8.934  72.229  1.00  0.00    -0.035 C  
HETATM    2  C   UNK A   0      -6.891   9.568  71.055  1.00  0.00    -0.032 C  
ENDROOT
BRANCH   2   3
HETATM    3  O   UNK A   0      -8.305   9.329  71.146  1.00  0.00    -0.291 OA 
BRANCH   3   4
HETATM    4  C   UNK A   0      -8.786   8.282  70.415  1.00  0.00    -0.141 C  
HETATM    5  O   UNK A   0      -8.105   7.390  69.922  1.00  0.00    -0.121 OA 
BRANCH   4   6
HETATM    6  C   UNK A   0     -10.320   8.364  70.305  1.00  0.00    -0.205 C  
BRANCH   6   7
HETATM    7  C   UNK A   0     -10.767   7.902  68.906  1.00  0.00    -0.098 C  
BRANCH   7   8
HETATM    8  C   UNK A   0     -10.157   8.677  67.735  1.00  0.00    -0.266 C  
BRANCH   8   9
HETATM    9  C   UNK A   0      -9.439   7.701  66.826  1.00  0.00    -0.244 A  
HETATM   10  C   UNK A   0      -8.338   8.111  66.060  1.00  0.00    -0.132 A  
HETATM   11  C   UNK A   0      -7.619   7.184  65.301  1.00  0.00    -0.103 A  
HETATM   12  C   UNK A   0      -7.991   5.841  65.302  1.00  0.00    -0.120 A  
HETATM   13  C   UNK A   0      -9.804   6.347  66.819  1.00  0.00    -0.209 A  
HETATM   14  C   UNK A   0      -9.083   5.424  66.059  1.00  0.00    -0.159 A  
ENDBRANCH   8   9
ENDBRANCH   7   8
ENDBRANCH   6   7
BRANCH   6  15
ATOM     15  N   ALA A   1     -10.731   9.772  70.596  1.00  0.00    -0.311 NA 
ATOM     16  H   ALA A   1     -10.370  10.405  69.882  1.00  0.00     0.000 HD 
BRANCH  15  17
ATOM     17  CA  ALA A   1     -12.188   9.949  70.758  1.00  0.00    -0.291 C  
ATOM     18  CB  ALA A   1     -12.781   8.881  71.675  1.00  0.00    -0.403 C  
BRANCH  17  19
ATOM     19  C   ALA A   1     -12.564  11.389  71.234  1.00  0.00    -0.374 C  
HETATM   20  C   UNK A   2     -11.326  13.611  68.482  1.00  0.00    -0.290 C  
ATOM     21  O   ALA A   1     -13.062  11.630  72.335  1.00  0.00    -0.226 OA 
HETATM   22  C   UNK A   2     -12.107  14.582  69.371  1.00  0.00    -0.328 C  
HETATM   23  N   UNK A   2     -12.332  12.428  70.333  1.00  0.00    -0.274 N  
HETATM   24  S   UNK A   2     -12.102  13.455  66.822  1.00  0.00    -0.325 SA 
HETATM   25  C   UNK A   2     -10.696  14.025  65.835  1.00  0.00    -0.293 C  
HETATM   26  C   UNK A   2     -12.357  13.854  70.712  1.00  0.00    -0.378 C  
HETATM   27  C   UNK A   2     -11.409  12.262  69.208  1.00  0.00    -0.256 C  
HETATM   28  C   UNK A   2     -13.578  14.542  71.370  1.00  0.00    -0.381 C  
HETATM   29  C   UNK A   2      -9.413  13.656  66.549  1.00  0.00    -0.259 C  
HETATM   30  S   UNK A   2      -9.590  14.150  68.280  1.00  0.00    -0.229 SA 
HETATM   31  O   UNK A   2     -14.377  13.761  72.117  1.00  0.00    -0.500 OA 
HETATM   32  O   UNK A   2     -13.767  15.754  71.312  1.00  0.00    -0.560 OA 
ENDBRANCH  17  19
ENDBRANCH  15  17
ENDBRANCH   6  15
ENDBRANCH   4   6
ENDBRANCH   3   4
ENDBRANCH   2   3
TORSDOF 9
ENDMDL
MODEL      131
REMARK 921   NORMALIZED FREE ENERGY PREDICTED BY IDOCK:   -4.71 KCAL/MOL
REMARK 922        TOTAL FREE ENERGY PREDICTED BY IDOCK:   -8.53 KCAL/MOL
REMARK 923 INTER-LIGAND FREE ENERGY PREDICTED BY IDOCK:   -7.92 KCAL/MOL
REMARK 924 INTRA-LIGAND FREE ENERGY PREDICTED BY IDOCK:   -0.61 KCAL/MOL
REMARK 927      BINDING AFFINITY PREDICTED BY RF-SCORE:    0.00 PKD
ROOT
HETATM    1  C   UNK A   0     -14.372   8.364  72.064  1.00  0.00    -0.555 C  
HETATM    2  C   UNK A   0     -13.047   7.822  71.560  1.00  0.00    -0.320 C  
ENDROOT
BRANCH   2   3
HETATM    3  O   UNK A   0     -11.982   8.186  72.453  1.00  0.00    -0.352 OA 
BRANCH   3   4
HETATM    4  C   UNK A   0     -10.846   8.667  71.870  1.00  0.00    -0.348 C  
HETATM    5  O   UNK A   0      -9.751   8.747  72.413  1.00  0.00    -0.283 OA 
BRANCH   4   6
HETATM    6  C   UNK A   0     -11.125   9.087  70.415  1.00  0.00    -0.244 C  
BRANCH   6   7
HETATM    7  C   UNK A   0     -10.325   8.192  69.451  1.00  0.00    -0.219 C  
BRANCH   7   8
HETATM    8  C   UNK A   0     -11.160   7.221  68.613  1.00  0.00     0.057 C  
BRANCH   8   9
HETATM    9  C   UNK A   0     -10.225   6.315  67.840  1.00  0.00    -0.204 A  
HETATM   10  C   UNK A   0      -8.942   6.025  68.327  1.00  0.00    -0.113 A  
HETATM   11  C   UNK A   0      -8.122   5.111  67.661  1.00  0.00    -0.099 A  
HETATM   12  C   UNK A   0      -8.577   4.476  66.506  1.00  0.00    -0.112 A  
HETATM   13  C   UNK A   0     -10.671   5.670  66.677  1.00  0.00    -0.339 A  
HETATM   14  C   UNK A   0      -9.849   4.758  66.014  1.00  0.00    -0.229 A  
ENDBRANCH   8   9
ENDBRANCH   7   8
ENDBRANCH   6   7
BRANCH   6  15
ATOM     15  N   ALA A   1     -10.771  10.532  70.274  1.00  0.00    -0.454 NA 
ATOM     16  H   ALA A   1     -10.067  10.659  69.547  1.00  0.00     0.000 HD 
BRANCH  15  17
ATOM     17  CA  ALA A   1     -11.932  11.413  70.030  1.00  0.00    -0.363 C  
ATOM     18  CB  ALA A   1     -12.783  11.573  71.289  1.00  0.00    -0.469 C  
BRANCH  17  19
ATOM     19  C   ALA A   1     -11.516  12.797  69.438  1.00  0.00    -0.257 C  
HETATM   20  C   UNK A   2      -9.680  11.927  66.289  1.00  0.00    -0.229 C  
ATOM     21  O   ALA A   1     -11.712  13.868  70.016  1.00  0.00    -0.279 OA 
HETATM   22  C   UNK A   2      -9.796  13.450  66.200  1.00  0.00    -0.289 C  
HETATM   23  N   UNK A   2     -10.917  12.787  68.178  1.00  0.00    -0.235 N  
HETATM   24  S   UNK A   2     -10.615  11.105  64.936  1.00  0.00    -0.256 SA 
HETATM   25  C   UNK A   2      -9.228  10.232  64.168  1.00  0.00    -0.267 C  
HETATM   26  C   UNK A   2     -10.213  13.948  67.602  1.00  0.00    -0.242 C  
HETATM   27  C   UNK A   2     -10.318  11.564  67.636  1.00  0.00    -0.186 C  
HETATM   28  C   UNK A   2     -10.873  15.335  67.403  1.00  0.00    -0.304 C  
HETATM   29  C   UNK A   2      -8.209   9.896  65.236  1.00  0.00    -0.145 C  
HETATM   30  S   UNK A   2      -7.933  11.390  66.217  1.00  0.00     0.035 SA 
HETATM   31  O   UNK A   2     -11.860  15.658  68.257  1.00  0.00    -0.318 OA 
HETATM   32  O   UNK A   2     -10.464  16.153  66.585  1.00  0.00    -0.301 OA 
ENDBRANCH  17  19
ENDBRANCH  15  17
ENDBRANCH   6  15
ENDBRANCH   4   6
ENDBRANCH   3   4
ENDBRANCH   2   3
TORSDOF 9
ENDMDL
MODEL      132
REMARK 921   NORMALIZED FREE ENERGY PREDICTED BY IDOCK:   -4.70 KCAL/MOL
REMARK 922        TOTAL FREE ENERGY PREDICTED BY IDOCK:   -8.51 KCAL/MOL
REMARK 923 INTER-LIGAND FREE ENERGY PREDICTED BY IDOCK:   -7.35 KCAL/MOL
REMARK 924 INTRA-LIGAND FREE ENERGY PREDICTED BY IDOCK:   -1.17 KCAL/MOL
REMARK 927      BINDING AFFINITY PREDICTED BY RF-SCORE:    0.00 PKD
ROOT
HETATM    1  C   UNK A   0     -10.283   5.720  70.346  1.00  0.00    -0.288 C  
HETATM    2  C   UNK A   0     -11.282   6.588  69.604  1.00  0.00    -0.384 C  
ENDROOT
BRANCH   2   3
HETATM    3  O   UNK A   0     -10.635   7.750  69.061  1.00  0.00    -0.216 OA 
BRANCH   3   4
HETATM    4  C   UNK A   0     -10.353   7.714  67.727  1.00  0.00    -0.219 C  
HETATM    5  O   UNK A   0     -11.053   7.188  66.869  1.00  0.00    -0.327 OA 
BRANCH   4   6
HETATM    6  C   UNK A   0      -9.029   8.444  67.437  1.00  0.00    -0.134 C  
BRANCH   6   7
HETATM    7  C   UNK A   0      -7.856   7.662  68.057  1.00  0.00    -0.121 C  
BRANCH   7   8
HETATM    8  C   UNK A   0      -7.339   6.487  67.222  1.00  0.00    -0.087 C  
BRANCH   8   9
HETATM    9  C   UNK A   0      -6.877   7.010  65.878  1.00  0.00    -0.057 A  
HETATM   10  C   UNK A   0      -7.789   7.197  64.830  1.00  0.00    -0.126 A  
HETATM   11  C   UNK A   0      -7.376   7.773  63.625  1.00  0.00    -0.100 A  
HETATM   12  C   UNK A   0      -6.049   8.169  63.460  1.00  0.00    -0.071 A  
HETATM   13  C   UNK A   0      -5.546   7.411  65.699  1.00  0.00    -0.033 A  
HETATM   14  C   UNK A   0      -5.135   7.986  64.494  1.00  0.00    -0.036 A  
ENDBRANCH   8   9
ENDBRANCH   7   8
ENDBRANCH   6   7
BRANCH   6  15
ATOM     15  N   ALA A   1      -9.136   9.832  67.981  1.00  0.00    -0.125 NA 
ATOM     16  H   ALA A   1      -8.657   9.903  68.879  1.00  0.00     0.000 HD 
BRANCH  15  17
ATOM     17  CA  ALA A   1      -8.658  10.878  67.054  1.00  0.00    -0.136 C  
ATOM     18  CB  ALA A   1      -7.378  10.447  66.341  1.00  0.00    -0.120 C  
BRANCH  17  19
ATOM     19  C   ALA A   1      -9.760  11.323  66.040  1.00  0.00    -0.220 C  
HETATM   20  C   UNK A   2     -10.741  14.747  67.205  1.00  0.00    -0.299 C  
ATOM     21  O   ALA A   1     -10.202  10.589  65.155  1.00  0.00    -0.305 OA 
HETATM   22  C   UNK A   2     -11.487  14.619  65.875  1.00  0.00    -0.338 C  
HETATM   23  N   UNK A   2     -10.227  12.633  66.155  1.00  0.00    -0.253 N  
HETATM   24  S   UNK A   2      -9.480  16.084  67.137  1.00  0.00    -0.220 SA 
HETATM   25  C   UNK A   2     -10.134  17.113  68.474  1.00  0.00    -0.329 C  
HETATM   26  C   UNK A   2     -11.444  13.124  65.483  1.00  0.00    -0.315 C  
HETATM   27  C   UNK A   2     -10.036  13.397  67.390  1.00  0.00    -0.237 C  
HETATM   28  C   UNK A   2     -11.659  13.060  63.951  1.00  0.00    -0.449 C  
HETATM   29  C   UNK A   2     -10.818  16.222  69.489  1.00  0.00    -0.342 C  
HETATM   30  S   UNK A   2     -11.896  15.088  68.581  1.00  0.00    -0.257 SA 
HETATM   31  O   UNK A   2     -11.035  12.064  63.298  1.00  0.00    -0.388 OA 
HETATM   32  O   UNK A   2     -12.437  13.803  63.359  1.00  0.00    -0.817 OA 
ENDBRANCH  17  19
ENDBRANCH  15  17
ENDBRANCH   6  15
ENDBRANCH   4   6
ENDBRANCH   3   4
ENDBRANCH   2   3
TORSDOF 9
ENDMDL
MODEL      133
REMARK 921   NORMALIZED FREE ENERGY PREDICTED BY IDOCK:   -4.70 KCAL/MOL
REMARK 922        TOTAL FREE ENERGY PREDICTED BY IDOCK:   -8.51 KCAL/MOL
REMARK 923 INTER-LIGAND FREE ENERGY PREDICTED BY IDOCK:   -7.26 KCAL/MOL
REMARK 924 INTRA-LIGAND FREE ENERGY PREDICTED BY IDOCK:   -1.25 KCAL/MOL
REMARK 927      BINDING AFFINITY PREDICTED BY RF-SCORE:    0.00 PKD
ROOT
HETATM    1  C   UNK A   0      -9.394  10.622  62.381  1.00  0.00    -0.282 C  
HETATM    2  C   UNK A   0      -9.939  11.617  63.390  1.00  0.00    -0.425 C  
ENDROOT
BRANCH   2   3
HETATM    3  O   UNK A   0     -10.527  10.930  64.506  1.00  0.00    -0.346 OA 
BRANCH   3   4
HETATM    4  C   UNK A   0      -9.697  10.666  65.556  1.00  0.00    -0.237 C  
HETATM    5  O   UNK A   0      -8.619  11.212  65.760  1.00  0.00    -0.176 OA 
BRANCH   4   6
HETATM    6  C   UNK A   0     -10.310   9.588  66.468  1.00  0.00    -0.193 C  
BRANCH   6   7
HETATM    7  C   UNK A   0     -10.164  10.008  67.942  1.00  0.00    -0.228 C  
BRANCH   7   8
HETATM    8  C   UNK A   0     -10.876  11.309  68.325  1.00  0.00    -0.249 C  
BRANCH   8   9
HETATM    9  C   UNK A   0     -11.543  11.121  69.672  1.00  0.00    -0.398 A  
HETATM   10  C   UNK A   0     -12.326  12.140  70.233  1.00  0.00    -0.269 A  
HETATM   11  C   UNK A   0     -13.020  11.925  71.427  1.00  0.00    -0.385 A  
HETATM   12  C   UNK A   0     -12.938  10.690  72.069  1.00  0.00    -0.466 A  
HETATM   13  C   UNK A   0     -11.468   9.884  70.328  1.00  0.00    -0.349 A  
HETATM   14  C   UNK A   0     -12.161   9.672  71.521  1.00  0.00    -0.483 A  
ENDBRANCH   8   9
ENDBRANCH   7   8
ENDBRANCH   6   7
BRANCH   6  15
ATOM     15  N   ALA A   1      -9.627   8.291  66.178  1.00  0.00    -0.399 NA 
ATOM     16  H   ALA A   1      -8.633   8.441  66.004  1.00  0.00     0.000 HD 
BRANCH  15  17
ATOM     17  CA  ALA A   1      -9.821   7.264  67.222  1.00  0.00    -0.171 C  
ATOM     18  CB  ALA A   1     -10.785   6.173  66.756  1.00  0.00    -0.371 C  
BRANCH  17  19
ATOM     19  C   ALA A   1      -8.470   6.662  67.724  1.00  0.00    -0.122 C  
HETATM   20  C   UNK A   2      -8.892   6.455  71.442  1.00  0.00    -0.138 C  
ATOM     21  O   ALA A   1      -7.511   6.439  66.984  1.00  0.00    -0.081 OA 
HETATM   22  C   UNK A   2      -7.571   5.718  71.213  1.00  0.00    -0.104 C  
HETATM   23  N   UNK A   2      -8.388   6.350  69.081  1.00  0.00    -0.121 N  
HETATM   24  S   UNK A   2     -10.180   5.326  72.110  1.00  0.00    -0.205 SA 
HETATM   25  C   UNK A   2     -10.499   6.200  73.662  1.00  0.00    -0.276 C  
HETATM   26  C   UNK A   2      -7.120   6.049  69.772  1.00  0.00    -0.072 C  
HETATM   27  C   UNK A   2      -9.317   6.939  70.050  1.00  0.00    -0.158 C  
HETATM   28  C   UNK A   2      -6.157   4.917  69.336  1.00  0.00    -0.018 C  
HETATM   29  C   UNK A   2     -10.259   7.680  73.449  1.00  0.00    -0.315 C  
HETATM   30  S   UNK A   2      -8.675   7.859  72.594  1.00  0.00    -0.187 SA 
HETATM   31  O   UNK A   2      -6.163   4.594  68.031  1.00  0.00    -0.033 OA 
HETATM   32  O   UNK A   2      -5.349   4.402  70.103  1.00  0.00    -0.007 OA 
ENDBRANCH  17  19
ENDBRANCH  15  17
ENDBRANCH   6  15
ENDBRANCH   4   6
ENDBRANCH   3   4
ENDBRANCH   2   3
TORSDOF 9
ENDMDL
MODEL      134
REMARK 921   NORMALIZED FREE ENERGY PREDICTED BY IDOCK:   -4.68 KCAL/MOL
REMARK 922        TOTAL FREE ENERGY PREDICTED BY IDOCK:   -8.48 KCAL/MOL
REMARK 923 INTER-LIGAND FREE ENERGY PREDICTED BY IDOCK:   -8.34 KCAL/MOL
REMARK 924 INTRA-LIGAND FREE ENERGY PREDICTED BY IDOCK:   -0.15 KCAL/MOL
REMARK 927      BINDING AFFINITY PREDICTED BY RF-SCORE:    0.00 PKD
ROOT
HETATM    1  C   UNK A   0      -5.882   9.258  70.513  1.00  0.00    -0.044 C  
HETATM    2  C   UNK A   0      -6.140  10.740  70.314  1.00  0.00    -0.133 C  
ENDROOT
BRANCH   2   3
HETATM    3  O   UNK A   0      -7.080  10.949  69.248  1.00  0.00    -0.100 OA 
BRANCH   3   4
HETATM    4  C   UNK A   0      -6.666  10.585  68.000  1.00  0.00    -0.065 C  
HETATM    5  O   UNK A   0      -5.504  10.597  67.608  1.00  0.00    -0.043 OA 
BRANCH   4   6
HETATM    6  C   UNK A   0      -7.865  10.138  67.144  1.00  0.00    -0.099 C  
BRANCH   6   7
HETATM    7  C   UNK A   0      -8.528  11.367  66.495  1.00  0.00    -0.170 C  
BRANCH   7   8
HETATM    8  C   UNK A   0      -9.100  11.137  65.093  1.00  0.00    -0.161 C  
BRANCH   8   9
HETATM    9  C   UNK A   0     -10.262  12.084  64.880  1.00  0.00    -0.302 A  
HETATM   10  C   UNK A   0     -10.621  13.013  65.866  1.00  0.00    -0.288 A  
HETATM   11  C   UNK A   0     -11.629  13.950  65.624  1.00  0.00    -0.338 A  
HETATM   12  C   UNK A   0     -12.285  13.969  64.394  1.00  0.00    -0.457 A  
HETATM   13  C   UNK A   0     -10.930  12.112  63.646  1.00  0.00    -0.527 A  
HETATM   14  C   UNK A   0     -11.937  13.049  63.408  1.00  0.00    -0.592 A  
ENDBRANCH   8   9
ENDBRANCH   7   8
ENDBRANCH   6   7
BRANCH   6  15
ATOM     15  N   ALA A   1      -8.808   9.384  68.026  1.00  0.00    -0.124 NA 
ATOM     16  H   ALA A   1      -8.782   9.753  68.976  1.00  0.00     0.000 HD 
BRANCH  15  17
ATOM     17  CA  ALA A   1     -10.196   9.344  67.523  1.00  0.00    -0.231 C  
ATOM     18  CB  ALA A   1     -10.631   7.914  67.202  1.00  0.00    -0.383 C  
BRANCH  17  19
ATOM     19  C   ALA A   1     -11.202  10.047  68.490  1.00  0.00    -0.123 C  
HETATM   20  C   UNK A   2     -11.153   7.908  71.567  1.00  0.00    -0.241 C  
ATOM     21  O   ALA A   1     -11.880  11.024  68.168  1.00  0.00    -0.573 OA 
HETATM   22  C   UNK A   2     -11.991   9.110  72.007  1.00  0.00    -0.421 C  
HETATM   23  N   UNK A   2     -11.293   9.532  69.783  1.00  0.00    -0.418 N  
HETATM   24  S   UNK A   2      -9.588   7.796  72.524  1.00  0.00    -0.215 SA 
HETATM   25  C   UNK A   2      -9.855   6.161  73.252  1.00  0.00    -0.166 C  
HETATM   26  C   UNK A   2     -12.375   9.880  70.723  1.00  0.00    -0.273 C  
HETATM   27  C   UNK A   2     -10.825   8.178  70.092  1.00  0.00    -0.241 C  
HETATM   28  C   UNK A   2     -12.697  11.332  71.155  1.00  0.00    -0.390 C  
HETATM   29  C   UNK A   2     -10.686   5.330  72.297  1.00  0.00    -0.223 C  
HETATM   30  S   UNK A   2     -12.084   6.346  71.763  1.00  0.00    -0.218 SA 
HETATM   31  O   UNK A   2     -12.405  12.300  70.269  1.00  0.00    -0.273 OA 
HETATM   32  O   UNK A   2     -13.284  11.598  72.200  1.00  0.00    -0.504 OA 
ENDBRANCH  17  19
ENDBRANCH  15  17
ENDBRANCH   6  15
ENDBRANCH   4   6
ENDBRANCH   3   4
ENDBRANCH   2   3
TORSDOF 9
ENDMDL
MODEL      135
REMARK 921   NORMALIZED FREE ENERGY PREDICTED BY IDOCK:   -4.67 KCAL/MOL
REMARK 922        TOTAL FREE ENERGY PREDICTED BY IDOCK:   -8.48 KCAL/MOL
REMARK 923 INTER-LIGAND FREE ENERGY PREDICTED BY IDOCK:   -7.37 KCAL/MOL
REMARK 924 INTRA-LIGAND FREE ENERGY PREDICTED BY IDOCK:   -1.11 KCAL/MOL
REMARK 927      BINDING AFFINITY PREDICTED BY RF-SCORE:    0.00 PKD
ROOT
HETATM    1  C   UNK A   0     -12.351  14.642  64.389  1.00  0.00    -0.420 C  
HETATM    2  C   UNK A   0     -11.987  13.210  64.043  1.00  0.00    -0.460 C  
ENDROOT
BRANCH   2   3
HETATM    3  O   UNK A   0     -10.655  12.908  64.489  1.00  0.00    -0.337 OA 
BRANCH   3   4
HETATM    4  C   UNK A   0     -10.231  11.626  64.294  1.00  0.00    -0.311 C  
HETATM    5  O   UNK A   0     -10.400  10.973  63.270  1.00  0.00    -0.345 OA 
BRANCH   4   6
HETATM    6  C   UNK A   0      -9.490  11.109  65.540  1.00  0.00    -0.221 C  
BRANCH   6   7
HETATM    7  C   UNK A   0      -8.604   9.909  65.160  1.00  0.00    -0.166 C  
BRANCH   7   8
HETATM    8  C   UNK A   0      -8.808   8.650  66.007  1.00  0.00    -0.213 C  
BRANCH   8   9
HETATM    9  C   UNK A   0      -8.400   7.441  65.190  1.00  0.00    -0.085 A  
HETATM   10  C   UNK A   0      -8.619   6.143  65.672  1.00  0.00    -0.148 A  
HETATM   11  C   UNK A   0      -8.333   5.033  64.874  1.00  0.00    -0.142 A  
HETATM   12  C   UNK A   0      -7.828   5.210  63.586  1.00  0.00    -0.088 A  
HETATM   13  C   UNK A   0      -7.892   7.607  63.894  1.00  0.00    -0.122 A  
HETATM   14  C   UNK A   0      -7.606   6.496  63.099  1.00  0.00    -0.080 A  
ENDBRANCH   8   9
ENDBRANCH   7   8
ENDBRANCH   6   7
BRANCH   6  15
ATOM     15  N   ALA A   1     -10.511  10.756  66.573  1.00  0.00    -0.247 NA 
ATOM     16  H   ALA A   1     -10.763   9.770  66.505  1.00  0.00     0.000 HD 
BRANCH  15  17
ATOM     17  CA  ALA A   1     -10.109  11.094  67.954  1.00  0.00    -0.176 C  
ATOM     18  CB  ALA A   1      -9.698  12.561  68.070  1.00  0.00    -0.215 C  
BRANCH  17  19
ATOM     19  C   ALA A   1     -11.205  10.719  69.002  1.00  0.00    -0.262 C  
HETATM   20  C   UNK A   2      -9.682   7.900  70.945  1.00  0.00    -0.164 C  
ATOM     21  O   ALA A   1     -12.324  11.235  69.025  1.00  0.00    -0.446 OA 
HETATM   22  C   UNK A   2     -10.958   8.200  71.734  1.00  0.00    -0.322 C  
HETATM   23  N   UNK A   2     -10.858   9.767  69.960  1.00  0.00    -0.258 N  
HETATM   24  S   UNK A   2      -8.180   8.246  71.947  1.00  0.00    -0.160 SA 
HETATM   25  C   UNK A   2      -7.473   6.580  71.922  1.00  0.00    -0.092 C  
HETATM   26  C   UNK A   2     -11.839   9.095  70.832  1.00  0.00    -0.270 C  
HETATM   27  C   UNK A   2      -9.725   8.862  69.751  1.00  0.00    -0.175 C  
HETATM   28  C   UNK A   2     -12.809   9.854  71.771  1.00  0.00    -0.442 C  
HETATM   29  C   UNK A   2      -7.865   5.901  70.627  1.00  0.00    -0.105 C  
HETATM   30  S   UNK A   2      -9.640   6.157  70.392  1.00  0.00    -0.165 SA 
HETATM   31  O   UNK A   2     -13.170  11.091  71.388  1.00  0.00    -0.356 OA 
HETATM   32  O   UNK A   2     -13.315   9.334  72.762  1.00  0.00    -0.373 OA 
ENDBRANCH  17  19
ENDBRANCH  15  17
ENDBRANCH   6  15
ENDBRANCH   4   6
ENDBRANCH   3   4
ENDBRANCH   2   3
TORSDOF 9
ENDMDL
MODEL      136
REMARK 921   NORMALIZED FREE ENERGY PREDICTED BY IDOCK:   -4.66 KCAL/MOL
REMARK 922        TOTAL FREE ENERGY PREDICTED BY IDOCK:   -8.45 KCAL/MOL
REMARK 923 INTER-LIGAND FREE ENERGY PREDICTED BY IDOCK:   -7.91 KCAL/MOL
REMARK 924 INTRA-LIGAND FREE ENERGY PREDICTED BY IDOCK:   -0.55 KCAL/MOL
REMARK 927      BINDING AFFINITY PREDICTED BY RF-SCORE:    0.00 PKD
ROOT
HETATM    1  C   UNK A   0     -13.070  16.059  73.517  1.00  0.00    -0.665 C  
HETATM    2  C   UNK A   0     -12.355  14.739  73.296  1.00  0.00    -0.320 C  
ENDROOT
BRANCH   2   3
HETATM    3  O   UNK A   0     -13.121  13.893  72.423  1.00  0.00    -0.414 OA 
BRANCH   3   4
HETATM    4  C   UNK A   0     -13.292  14.342  71.146  1.00  0.00    -0.299 C  
HETATM    5  O   UNK A   0     -14.291  14.912  70.723  1.00  0.00    -0.021 OA 
BRANCH   4   6
HETATM    6  C   UNK A   0     -12.039  14.045  70.301  1.00  0.00    -0.355 C  
BRANCH   6   7
HETATM    7  C   UNK A   0     -11.689  15.272  69.440  1.00  0.00    -0.361 C  
BRANCH   7   8
HETATM    8  C   UNK A   0     -10.369  15.964  69.792  1.00  0.00    -0.290 C  
BRANCH   8   9
HETATM    9  C   UNK A   0     -10.087  17.031  68.755  1.00  0.00    -0.307 A  
HETATM   10  C   UNK A   0      -9.610  16.687  67.482  1.00  0.00    -0.242 A  
HETATM   11  C   UNK A   0      -9.446  17.666  66.498  1.00  0.00    -0.294 A  
HETATM   12  C   UNK A   0      -9.759  18.995  66.777  1.00  0.00    -0.375 A  
HETATM   13  C   UNK A   0     -10.397  18.372  69.024  1.00  0.00    -0.078 A  
HETATM   14  C   UNK A   0     -10.232  19.348  68.039  1.00  0.00    -0.531 A  
ENDBRANCH   8   9
ENDBRANCH   7   8
ENDBRANCH   6   7
BRANCH   6  15
ATOM     15  N   ALA A   1     -12.315  12.831  69.473  1.00  0.00    -0.063 NA 
ATOM     16  H   ALA A   1     -11.914  12.934  68.541  1.00  0.00     0.000 HD 
BRANCH  15  17
ATOM     17  CA  ALA A   1     -11.867  11.568  70.094  1.00  0.00    -0.356 C  
ATOM     18  CB  ALA A   1     -13.019  10.857  70.803  1.00  0.00    -0.308 C  
BRANCH  17  19
ATOM     19  C   ALA A   1     -11.148  10.626  69.077  1.00  0.00    -0.254 C  
HETATM   20  C   UNK A   2      -9.413   8.103  71.238  1.00  0.00    -0.159 C  
ATOM     21  O   ALA A   1     -11.139  10.824  67.860  1.00  0.00    -0.264 OA 
HETATM   22  C   UNK A   2      -9.204   7.540  69.831  1.00  0.00    -0.147 C  
HETATM   23  N   UNK A   2     -10.516   9.499  69.603  1.00  0.00    -0.211 N  
HETATM   24  S   UNK A   2     -10.446   6.979  72.262  1.00  0.00    -0.214 SA 
HETATM   25  C   UNK A   2      -9.243   6.663  73.577  1.00  0.00    -0.137 C  
HETATM   26  C   UNK A   2      -9.563   8.671  68.840  1.00  0.00    -0.159 C  
HETATM   27  C   UNK A   2     -10.165   9.423  71.023  1.00  0.00    -0.299 C  
HETATM   28  C   UNK A   2      -9.911   7.989  67.494  1.00  0.00    -0.172 C  
HETATM   29  C   UNK A   2      -8.358   7.882  73.735  1.00  0.00    -0.237 C  
HETATM   30  S   UNK A   2      -7.815   8.380  72.083  1.00  0.00    -0.091 SA 
HETATM   31  O   UNK A   2     -10.841   8.596  66.736  1.00  0.00    -0.145 OA 
HETATM   32  O   UNK A   2      -9.308   7.006  67.073  1.00  0.00    -0.135 OA 
ENDBRANCH  17  19
ENDBRANCH  15  17
ENDBRANCH   6  15
ENDBRANCH   4   6
ENDBRANCH   3   4
ENDBRANCH   2   3
TORSDOF 9
ENDMDL
MODEL      137
REMARK 921   NORMALIZED FREE ENERGY PREDICTED BY IDOCK:   -4.65 KCAL/MOL
REMARK 922        TOTAL FREE ENERGY PREDICTED BY IDOCK:   -8.44 KCAL/MOL
REMARK 923 INTER-LIGAND FREE ENERGY PREDICTED BY IDOCK:   -7.90 KCAL/MOL
REMARK 924 INTRA-LIGAND FREE ENERGY PREDICTED BY IDOCK:   -0.54 KCAL/MOL
REMARK 927      BINDING AFFINITY PREDICTED BY RF-SCORE:    0.00 PKD
ROOT
HETATM    1  C   UNK A   0     -12.182  15.593  70.168  1.00  0.00    -0.387 C  
HETATM    2  C   UNK A   0     -11.805  14.466  69.224  1.00  0.00    -0.325 C  
ENDROOT
BRANCH   2   3
HETATM    3  O   UNK A   0     -11.904  14.899  67.858  1.00  0.00    -0.338 OA 
BRANCH   3   4
HETATM    4  C   UNK A   0     -10.771  14.785  67.106  1.00  0.00    -0.299 C  
HETATM    5  O   UNK A   0     -10.612  15.264  65.989  1.00  0.00    -0.295 OA 
BRANCH   4   6
HETATM    6  C   UNK A   0      -9.702  13.978  67.865  1.00  0.00    -0.229 C  
BRANCH   6   7
HETATM    7  C   UNK A   0      -8.439  14.837  68.058  1.00  0.00    -0.151 C  
BRANCH   7   8
HETATM    8  C   UNK A   0      -8.657  16.167  68.785  1.00  0.00    -0.236 C  
BRANCH   8   9
HETATM    9  C   UNK A   0      -8.329  17.301  67.836  1.00  0.00    -0.220 A  
HETATM   10  C   UNK A   0      -9.002  18.528  67.924  1.00  0.00    -0.300 A  
HETATM   11  C   UNK A   0      -8.627  19.602  67.113  1.00  0.00    -0.357 A  
HETATM   12  C   UNK A   0      -7.574  19.460  66.210  1.00  0.00    -0.299 A  
HETATM   13  C   UNK A   0      -7.272  17.171  66.923  1.00  0.00    -0.237 A  
HETATM   14  C   UNK A   0      -6.899  18.246  66.114  1.00  0.00    -0.291 A  
ENDBRANCH   8   9
ENDBRANCH   7   8
ENDBRANCH   6   7
BRANCH   6  15
ATOM     15  N   ALA A   1      -9.426  12.730  67.090  1.00  0.00    -0.216 NA 
ATOM     16  H   ALA A   1      -8.730  12.158  67.567  1.00  0.00     0.000 HD 
BRANCH  15  17
ATOM     17  CA  ALA A   1     -10.633  11.933  66.787  1.00  0.00    -0.229 C  
ATOM     18  CB  ALA A   1     -10.390  10.975  65.622  1.00  0.00    -0.311 C  
BRANCH  17  19
ATOM     19  C   ALA A   1     -11.183  11.184  68.043  1.00  0.00    -0.296 C  
HETATM   20  C   UNK A   2      -8.206   9.340  69.379  1.00  0.00    -0.114 C  
ATOM     21  O   ALA A   1     -12.371  11.189  68.368  1.00  0.00    -0.556 OA 
HETATM   22  C   UNK A   2      -9.256   9.117  70.470  1.00  0.00    -0.286 C  
HETATM   23  N   UNK A   2     -10.250  10.505  68.827  1.00  0.00    -0.180 N  
HETATM   24  S   UNK A   2      -6.785  10.322  70.009  1.00  0.00    -0.149 SA 
HETATM   25  C   UNK A   2      -5.484   9.100  69.708  1.00  0.00    -0.033 C  
HETATM   26  C   UNK A   2     -10.619   9.526  69.866  1.00  0.00    -0.241 C  
HETATM   27  C   UNK A   2      -8.934  10.144  68.293  1.00  0.00    -0.120 C  
HETATM   28  C   UNK A   2     -11.552   9.854  71.057  1.00  0.00    -0.389 C  
HETATM   29  C   UNK A   2      -5.866   8.263  68.506  1.00  0.00    -0.040 C  
HETATM   30  S   UNK A   2      -7.587   7.749  68.723  1.00  0.00    -0.103 SA 
HETATM   31  O   UNK A   2     -12.474  10.811  70.852  1.00  0.00    -0.334 OA 
HETATM   32  O   UNK A   2     -11.539   9.216  72.106  1.00  0.00    -0.342 OA 
ENDBRANCH  17  19
ENDBRANCH  15  17
ENDBRANCH   6  15
ENDBRANCH   4   6
ENDBRANCH   3   4
ENDBRANCH   2   3
TORSDOF 9
ENDMDL
MODEL      138
REMARK 921   NORMALIZED FREE ENERGY PREDICTED BY IDOCK:   -4.64 KCAL/MOL
REMARK 922        TOTAL FREE ENERGY PREDICTED BY IDOCK:   -8.43 KCAL/MOL
REMARK 923 INTER-LIGAND FREE ENERGY PREDICTED BY IDOCK:   -7.57 KCAL/MOL
REMARK 924 INTRA-LIGAND FREE ENERGY PREDICTED BY IDOCK:   -0.86 KCAL/MOL
REMARK 927      BINDING AFFINITY PREDICTED BY RF-SCORE:    0.00 PKD
ROOT
HETATM    1  C   UNK A   0     -14.379  14.759  72.394  1.00  0.00    -0.388 C  
HETATM    2  C   UNK A   0     -13.321  13.743  72.006  1.00  0.00    -0.447 C  
ENDROOT
BRANCH   2   3
HETATM    3  O   UNK A   0     -13.234  13.630  70.576  1.00  0.00    -0.009 OA 
BRANCH   3   4
HETATM    4  C   UNK A   0     -12.346  14.462  69.959  1.00  0.00    -0.336 C  
HETATM    5  O   UNK A   0     -12.177  15.645  70.233  1.00  0.00    -0.385 OA 
BRANCH   4   6
HETATM    6  C   UNK A   0     -11.565  13.703  68.871  1.00  0.00    -0.322 C  
BRANCH   6   7
HETATM    7  C   UNK A   0     -11.682  14.449  67.530  1.00  0.00    -0.416 C  
BRANCH   7   8
HETATM    8  C   UNK A   0     -10.412  14.462  66.675  1.00  0.00    -0.274 C  
BRANCH   8   9
HETATM    9  C   UNK A   0     -10.559  13.440  65.567  1.00  0.00    -0.294 A  
HETATM   10  C   UNK A   0     -11.513  13.612  64.554  1.00  0.00    -0.401 A  
HETATM   11  C   UNK A   0     -11.577  12.718  63.482  1.00  0.00    -0.565 A  
HETATM   12  C   UNK A   0     -10.687  11.647  63.411  1.00  0.00    -0.460 A  
HETATM   13  C   UNK A   0      -9.670  12.359  65.485  1.00  0.00    -0.150 A  
HETATM   14  C   UNK A   0      -9.736  11.467  64.413  1.00  0.00    -0.266 A  
ENDBRANCH   8   9
ENDBRANCH   7   8
ENDBRANCH   6   7
BRANCH   6  15
ATOM     15  N   ALA A   1     -12.107  12.312  68.796  1.00  0.00    -0.210 NA 
ATOM     16  H   ALA A   1     -12.712  12.207  67.981  1.00  0.00     0.000 HD 
BRANCH  15  17
ATOM     17  CA  ALA A   1     -11.069  11.262  68.810  1.00  0.00    -0.233 C  
ATOM     18  CB  ALA A   1      -9.684  11.852  69.074  1.00  0.00     0.159 C  
BRANCH  17  19
ATOM     19  C   ALA A   1     -11.403  10.107  69.807  1.00  0.00    -0.256 C  
HETATM   20  C   UNK A   2      -8.721   7.564  69.188  1.00  0.00    -0.136 C  
ATOM     21  O   ALA A   1     -12.408  10.097  70.520  1.00  0.00    -0.281 OA 
HETATM   22  C   UNK A   2      -9.435   7.005  70.421  1.00  0.00    -0.162 C  
HETATM   23  N   UNK A   2     -10.482   9.062  69.889  1.00  0.00    -0.208 N  
HETATM   24  S   UNK A   2      -6.982   8.022  69.573  1.00  0.00    -0.051 SA 
HETATM   25  C   UNK A   2      -6.166   6.919  68.392  1.00  0.00    -0.034 C  
HETATM   26  C   UNK A   2     -10.769   7.775  70.550  1.00  0.00    -0.236 C  
HETATM   27  C   UNK A   2      -9.507   8.829  68.821  1.00  0.00    -0.142 C  
HETATM   28  C   UNK A   2     -11.210   7.655  72.030  1.00  0.00    -0.272 C  
HETATM   29  C   UNK A   2      -7.071   6.727  67.194  1.00  0.00    -0.079 C  
HETATM   30  S   UNK A   2      -8.729   6.356  67.815  1.00  0.00    -0.113 SA 
HETATM   31  O   UNK A   2     -11.885   8.699  72.542  1.00  0.00    -0.361 OA 
HETATM   32  O   UNK A   2     -11.055   6.629  72.686  1.00  0.00    -0.243 OA 
ENDBRANCH  17  19
ENDBRANCH  15  17
ENDBRANCH   6  15
ENDBRANCH   4   6
ENDBRANCH   3   4
ENDBRANCH   2   3
TORSDOF 9
ENDMDL
MODEL      139
REMARK 921   NORMALIZED FREE ENERGY PREDICTED BY IDOCK:   -4.62 KCAL/MOL
REMARK 922        TOTAL FREE ENERGY PREDICTED BY IDOCK:   -8.40 KCAL/MOL
REMARK 923 INTER-LIGAND FREE ENERGY PREDICTED BY IDOCK:   -7.42 KCAL/MOL
REMARK 924 INTRA-LIGAND FREE ENERGY PREDICTED BY IDOCK:   -0.98 KCAL/MOL
REMARK 927      BINDING AFFINITY PREDICTED BY RF-SCORE:    0.00 PKD
ROOT
HETATM    1  C   UNK A   0     -13.398   8.954  72.408  1.00  0.00    -0.488 C  
HETATM    2  C   UNK A   0     -12.120   9.375  71.707  1.00  0.00    -0.382 C  
ENDROOT
BRANCH   2   3
HETATM    3  O   UNK A   0     -10.984   8.726  72.299  1.00  0.00    -0.359 OA 
BRANCH   3   4
HETATM    4  C   UNK A   0      -9.852   8.680  71.538  1.00  0.00    -0.272 C  
HETATM    5  O   UNK A   0      -8.717   8.903  71.942  1.00  0.00    -0.343 OA 
BRANCH   4   6
HETATM    6  C   UNK A   0     -10.196   8.292  70.088  1.00  0.00    -0.199 C  
BRANCH   6   7
HETATM    7  C   UNK A   0     -10.640   6.819  70.035  1.00  0.00    -0.256 C  
BRANCH   7   8
HETATM    8  C   UNK A   0     -11.108   6.326  68.662  1.00  0.00    -0.409 C  
BRANCH   8   9
HETATM    9  C   UNK A   0     -10.288   5.114  68.274  1.00  0.00    -0.140 A  
HETATM   10  C   UNK A   0      -9.831   4.215  69.248  1.00  0.00    -0.138 A  
HETATM   11  C   UNK A   0      -9.161   3.046  68.876  1.00  0.00    -0.227 A  
HETATM   12  C   UNK A   0      -8.944   2.766  67.528  1.00  0.00    -0.190 A  
HETATM   13  C   UNK A   0     -10.062   4.821  66.922  1.00  0.00    -0.246 A  
HETATM   14  C   UNK A   0      -9.392   3.653  66.553  1.00  0.00    -0.202 A  
ENDBRANCH   8   9
ENDBRANCH   7   8
ENDBRANCH   6   7
BRANCH   6  15
ATOM     15  N   ALA A   1      -8.992   8.552  69.241  1.00  0.00    -0.145 NA 
ATOM     16  H   ALA A   1      -8.773   7.737  68.669  1.00  0.00     0.000 HD 
BRANCH  15  17
ATOM     17  CA  ALA A   1      -9.101   9.762  68.399  1.00  0.00    -0.123 C  
ATOM     18  CB  ALA A   1      -8.171  10.869  68.893  1.00  0.00    -0.141 C  
BRANCH  17  19
ATOM     19  C   ALA A   1      -8.878   9.455  66.884  1.00  0.00    -0.127 C  
HETATM   20  C   UNK A   2     -10.627  12.261  65.119  1.00  0.00    -0.285 C  
ATOM     21  O   ALA A   1      -8.323   8.434  66.474  1.00  0.00    -0.106 OA 
HETATM   22  C   UNK A   2      -9.907  11.543  63.976  1.00  0.00    -0.306 C  
HETATM   23  N   UNK A   2      -9.320  10.419  65.977  1.00  0.00    -0.171 N  
HETATM   24  S   UNK A   2      -9.983  13.968  65.348  1.00  0.00    -0.208 SA 
HETATM   25  C   UNK A   2     -11.531  14.859  65.056  1.00  0.00    -0.379 C  
HETATM   26  C   UNK A   2      -9.449  10.173  64.528  1.00  0.00    -0.303 C  
HETATM   27  C   UNK A   2     -10.306  11.428  66.368  1.00  0.00    -0.242 C  
HETATM   28  C   UNK A   2      -8.276   9.702  63.633  1.00  0.00    -0.162 C  
HETATM   29  C   UNK A   2     -12.688  13.993  65.504  1.00  0.00    -0.486 C  
HETATM   30  S   UNK A   2     -12.429  12.339  64.820  1.00  0.00    -0.168 SA 
HETATM   31  O   UNK A   2      -7.321   8.970  64.232  1.00  0.00    -0.099 OA 
HETATM   32  O   UNK A   2      -8.253   9.887  62.420  1.00  0.00    -0.121 OA 
ENDBRANCH  17  19
ENDBRANCH  15  17
ENDBRANCH   6  15
ENDBRANCH   4   6
ENDBRANCH   3   4
ENDBRANCH   2   3
TORSDOF 9
ENDMDL
MODEL      140
REMARK 921   NORMALIZED FREE ENERGY PREDICTED BY IDOCK:   -4.62 KCAL/MOL
REMARK 922        TOTAL FREE ENERGY PREDICTED BY IDOCK:   -8.39 KCAL/MOL
REMARK 923 INTER-LIGAND FREE ENERGY PREDICTED BY IDOCK:   -8.48 KCAL/MOL
REMARK 924 INTRA-LIGAND FREE ENERGY PREDICTED BY IDOCK:    0.09 KCAL/MOL
REMARK 927      BINDING AFFINITY PREDICTED BY RF-SCORE:    0.00 PKD
ROOT
HETATM    1  C   UNK A   0      -7.843   9.343  67.528  1.00  0.00    -0.099 C  
HETATM    2  C   UNK A   0      -8.509   8.543  68.632  1.00  0.00    -0.131 C  
ENDROOT
BRANCH   2   3
HETATM    3  O   UNK A   0      -9.488   9.343  69.314  1.00  0.00    -0.154 OA 
BRANCH   3   4
HETATM    4  C   UNK A   0      -9.348   9.442  70.668  1.00  0.00    -0.252 C  
HETATM    5  O   UNK A   0      -8.282   9.548  71.263  1.00  0.00    -0.276 OA 
BRANCH   4   6
HETATM    6  C   UNK A   0     -10.726   9.415  71.353  1.00  0.00    -0.337 C  
BRANCH   6   7
HETATM    7  C   UNK A   0     -10.840   8.165  72.246  1.00  0.00    -0.388 C  
BRANCH   7   8
HETATM    8  C   UNK A   0      -9.522   7.434  72.518  1.00  0.00    -0.192 C  
BRANCH   8   9
HETATM    9  C   UNK A   0      -9.673   5.986  72.102  1.00  0.00    -0.171 A  
HETATM   10  C   UNK A   0      -9.819   5.639  70.751  1.00  0.00    -0.239 A  
HETATM   11  C   UNK A   0      -9.858   4.297  70.364  1.00  0.00    -0.268 A  
HETATM   12  C   UNK A   0      -9.749   3.290  71.323  1.00  0.00    -0.222 A  
HETATM   13  C   UNK A   0      -9.565   4.964  73.057  1.00  0.00    -0.155 A  
HETATM   14  C   UNK A   0      -9.605   3.624  72.667  1.00  0.00    -0.188 A  
ENDBRANCH   8   9
ENDBRANCH   7   8
ENDBRANCH   6   7
BRANCH   6  15
ATOM     15  N   ALA A   1     -11.775   9.449  70.288  1.00  0.00    -0.450 NA 
ATOM     16  H   ALA A   1     -11.929   8.515  69.908  1.00  0.00     0.000 HD 
BRANCH  15  17
ATOM     17  CA  ALA A   1     -13.052  10.050  70.724  1.00  0.00    -0.249 C  
ATOM     18  CB  ALA A   1     -13.786   9.144  71.711  1.00  0.00    -0.465 C  
BRANCH  17  19
ATOM     19  C   ALA A   1     -12.868  11.492  71.295  1.00  0.00    -0.360 C  
HETATM   20  C   UNK A   2     -11.196  13.367  68.513  1.00  0.00    -0.283 C  
ATOM     21  O   ALA A   1     -13.153  11.804  72.452  1.00  0.00    -0.243 OA 
HETATM   22  C   UNK A   2     -11.514  14.474  69.520  1.00  0.00    -0.330 C  
HETATM   23  N   UNK A   2     -12.376  12.457  70.415  1.00  0.00    -0.274 N  
HETATM   24  S   UNK A   2     -12.123  13.603  66.943  1.00  0.00    -0.354 SA 
HETATM   25  C   UNK A   2     -10.702  13.739  65.831  1.00  0.00    -0.285 C  
HETATM   26  C   UNK A   2     -11.878  13.776  70.850  1.00  0.00    -0.063 C  
HETATM   27  C   UNK A   2     -11.670  12.074  69.190  1.00  0.00    -0.330 C  
HETATM   28  C   UNK A   2     -12.725  14.784  71.664  1.00  0.00    -0.330 C  
HETATM   29  C   UNK A   2      -9.564  12.908  66.386  1.00  0.00    -0.252 C  
HETATM   30  S   UNK A   2      -9.406  13.303  68.144  1.00  0.00    -0.214 SA 
HETATM   31  O   UNK A   2     -13.673  14.263  72.463  1.00  0.00    -0.468 OA 
HETATM   32  O   UNK A   2     -12.493  15.989  71.675  1.00  0.00    -0.461 OA 
ENDBRANCH  17  19
ENDBRANCH  15  17
ENDBRANCH   6  15
ENDBRANCH   4   6
ENDBRANCH   3   4
ENDBRANCH   2   3
TORSDOF 9
ENDMDL
MODEL      141
REMARK 921   NORMALIZED FREE ENERGY PREDICTED BY IDOCK:   -4.61 KCAL/MOL
REMARK 922        TOTAL FREE ENERGY PREDICTED BY IDOCK:   -8.39 KCAL/MOL
REMARK 923 INTER-LIGAND FREE ENERGY PREDICTED BY IDOCK:   -9.17 KCAL/MOL
REMARK 924 INTRA-LIGAND FREE ENERGY PREDICTED BY IDOCK:    0.78 KCAL/MOL
REMARK 927      BINDING AFFINITY PREDICTED BY RF-SCORE:    0.00 PKD
ROOT
HETATM    1  C   UNK A   0     -10.881  11.549  63.894  1.00  0.00    -0.469 C  
HETATM    2  C   UNK A   0     -10.635  12.710  64.839  1.00  0.00    -0.307 C  
ENDROOT
BRANCH   2   3
HETATM    3  O   UNK A   0     -11.505  12.623  65.979  1.00  0.00    -0.328 OA 
BRANCH   3   4
HETATM    4  C   UNK A   0     -10.894  12.479  67.191  1.00  0.00    -0.250 C  
HETATM    5  O   UNK A   0      -9.704  12.669  67.412  1.00  0.00    -0.194 OA 
BRANCH   4   6
HETATM    6  C   UNK A   0     -11.917  12.052  68.260  1.00  0.00    -0.179 C  
BRANCH   6   7
HETATM    7  C   UNK A   0     -11.772  12.945  69.506  1.00  0.00    -0.387 C  
BRANCH   7   8
HETATM    8  C   UNK A   0     -12.091  14.427  69.289  1.00  0.00    -0.336 C  
BRANCH   8   9
HETATM    9  C   UNK A   0     -12.525  15.030  70.609  1.00  0.00    -0.422 A  
HETATM   10  C   UNK A   0     -13.789  14.747  71.145  1.00  0.00    -0.388 A  
HETATM   11  C   UNK A   0     -14.146  15.225  72.409  1.00  0.00    -0.622 A  
HETATM   12  C   UNK A   0     -13.243  15.988  73.147  1.00  0.00    -0.633 A  
HETATM   13  C   UNK A   0     -11.626  15.800  71.361  1.00  0.00    -0.511 A  
HETATM   14  C   UNK A   0     -11.986  16.277  72.623  1.00  0.00    -0.644 A  
ENDBRANCH   8   9
ENDBRANCH   7   8
ENDBRANCH   6   7
BRANCH   6  15
ATOM     15  N   ALA A   1     -11.690  10.607  68.569  1.00  0.00    -0.663 NA 
ATOM     16  H   ALA A   1     -11.258  10.135  67.775  1.00  0.00     0.000 HD 
BRANCH  15  17
ATOM     17  CA  ALA A   1     -10.910  10.372  69.800  1.00  0.00    -0.292 C  
ATOM     18  CB  ALA A   1     -11.708   9.559  70.819  1.00  0.00    -0.370 C  
BRANCH  17  19
ATOM     19  C   ALA A   1      -9.519   9.723  69.509  1.00  0.00    -0.212 C  
HETATM   20  C   UNK A   2      -9.294   6.907  71.971  1.00  0.00    -0.140 C  
ATOM     21  O   ALA A   1      -8.714  10.183  68.697  1.00  0.00    -0.117 OA 
HETATM   22  C   UNK A   2      -8.066   6.679  71.087  1.00  0.00    -0.112 C  
HETATM   23  N   UNK A   2      -9.215   8.552  70.203  1.00  0.00    -0.153 N  
HETATM   24  S   UNK A   2     -10.493   5.522  71.820  1.00  0.00    -0.231 SA 
HETATM   25  C   UNK A   2     -10.498   5.005  73.554  1.00  0.00    -0.232 C  
HETATM   26  C   UNK A   2      -7.860   7.973  70.268  1.00  0.00    -0.088 C  
HETATM   27  C   UNK A   2      -9.934   8.191  71.428  1.00  0.00    -0.180 C  
HETATM   28  C   UNK A   2      -7.038   7.581  69.016  1.00  0.00    -0.079 C  
HETATM   29  C   UNK A   2     -10.235   6.214  74.427  1.00  0.00    -0.316 C  
HETATM   30  S   UNK A   2      -8.819   7.095  73.727  1.00  0.00    -0.199 SA 
HETATM   31  O   UNK A   2      -7.285   8.277  67.893  1.00  0.00    -0.090 OA 
HETATM   32  O   UNK A   2      -6.131   6.754  69.050  1.00  0.00    -0.024 OA 
ENDBRANCH  17  19
ENDBRANCH  15  17
ENDBRANCH   6  15
ENDBRANCH   4   6
ENDBRANCH   3   4
ENDBRANCH   2   3
TORSDOF 9
ENDMDL
MODEL      142
REMARK 921   NORMALIZED FREE ENERGY PREDICTED BY IDOCK:   -4.60 KCAL/MOL
REMARK 922        TOTAL FREE ENERGY PREDICTED BY IDOCK:   -8.37 KCAL/MOL
REMARK 923 INTER-LIGAND FREE ENERGY PREDICTED BY IDOCK:   -6.84 KCAL/MOL
REMARK 924 INTRA-LIGAND FREE ENERGY PREDICTED BY IDOCK:   -1.53 KCAL/MOL
REMARK 927      BINDING AFFINITY PREDICTED BY RF-SCORE:    0.00 PKD
ROOT
HETATM    1  C   UNK A   0     -11.362  11.008  69.043  1.00  0.00    -0.345 C  
HETATM    2  C   UNK A   0     -10.974   9.579  69.376  1.00  0.00    -0.170 C  
ENDROOT
BRANCH   2   3
HETATM    3  O   UNK A   0      -9.761   9.215  68.696  1.00  0.00    -0.151 OA 
BRANCH   3   4
HETATM    4  C   UNK A   0      -9.910   8.521  67.531  1.00  0.00    -0.177 C  
HETATM    5  O   UNK A   0     -10.902   7.875  67.213  1.00  0.00    -0.272 OA 
BRANCH   4   6
HETATM    6  C   UNK A   0      -8.654   8.671  66.652  1.00  0.00    -0.117 C  
BRANCH   6   7
HETATM    7  C   UNK A   0      -7.553   7.718  67.151  1.00  0.00    -0.100 C  
BRANCH   7   8
HETATM    8  C   UNK A   0      -7.002   6.748  66.102  1.00  0.00    -0.061 C  
BRANCH   8   9
HETATM    9  C   UNK A   0      -7.791   5.457  66.169  1.00  0.00    -0.103 A  
HETATM   10  C   UNK A   0      -7.593   4.549  67.220  1.00  0.00    -0.085 A  
HETATM   11  C   UNK A   0      -8.393   3.409  67.332  1.00  0.00    -0.095 A  
HETATM   12  C   UNK A   0      -9.399   3.168  66.397  1.00  0.00    -0.114 A  
HETATM   13  C   UNK A   0      -8.806   5.202  65.235  1.00  0.00    -0.152 A  
HETATM   14  C   UNK A   0      -9.603   4.062  65.349  1.00  0.00    -0.188 A  
ENDBRANCH   8   9
ENDBRANCH   7   8
ENDBRANCH   6   7
BRANCH   6  15
ATOM     15  N   ALA A   1      -8.227  10.103  66.694  1.00  0.00    -0.122 NA 
ATOM     16  H   ALA A   1      -7.234  10.174  66.916  1.00  0.00     0.000 HD 
BRANCH  15  17
ATOM     17  CA  ALA A   1      -8.539  10.857  65.463  1.00  0.00    -0.145 C  
ATOM     18  CB  ALA A   1      -8.279  10.017  64.214  1.00  0.00    -0.166 C  
BRANCH  17  19
ATOM     19  C   ALA A   1      -9.989  11.440  65.473  1.00  0.00    -0.239 C  
HETATM   20  C   UNK A   2      -9.615  14.789  67.113  1.00  0.00    -0.227 C  
ATOM     21  O   ALA A   1     -10.975  10.807  65.092  1.00  0.00    -0.075 OA 
HETATM   22  C   UNK A   2     -11.067  14.812  66.630  1.00  0.00    -0.333 C  
HETATM   23  N   UNK A   2     -10.134  12.754  65.918  1.00  0.00    -0.274 N  
HETATM   24  S   UNK A   2      -8.606  16.067  66.259  1.00  0.00    -0.275 SA 
HETATM   25  C   UNK A   2      -8.099  17.003  67.723  1.00  0.00    -0.190 C  
HETATM   26  C   UNK A   2     -11.436  13.357  66.260  1.00  0.00    -0.325 C  
HETATM   27  C   UNK A   2      -9.096  13.397  66.728  1.00  0.00    -0.212 C  
HETATM   28  C   UNK A   2     -12.626  13.438  65.272  1.00  0.00    -0.464 C  
HETATM   29  C   UNK A   2      -8.007  16.058  68.902  1.00  0.00    -0.212 C  
HETATM   30  S   UNK A   2      -9.514  15.057  68.919  1.00  0.00    -0.210 SA 
HETATM   31  O   UNK A   2     -12.695  12.477  64.335  1.00  0.00    -0.656 OA 
HETATM   32  O   UNK A   2     -13.527  14.265  65.385  1.00  0.00    -0.581 OA 
ENDBRANCH  17  19
ENDBRANCH  15  17
ENDBRANCH   6  15
ENDBRANCH   4   6
ENDBRANCH   3   4
ENDBRANCH   2   3
TORSDOF 9
ENDMDL
MODEL      143
REMARK 921   NORMALIZED FREE ENERGY PREDICTED BY IDOCK:   -4.59 KCAL/MOL
REMARK 922        TOTAL FREE ENERGY PREDICTED BY IDOCK:   -8.35 KCAL/MOL
REMARK 923 INTER-LIGAND FREE ENERGY PREDICTED BY IDOCK:   -7.46 KCAL/MOL
REMARK 924 INTRA-LIGAND FREE ENERGY PREDICTED BY IDOCK:   -0.88 KCAL/MOL
REMARK 927      BINDING AFFINITY PREDICTED BY RF-SCORE:    0.00 PKD
ROOT
HETATM    1  C   UNK A   0     -13.252  10.174  71.601  1.00  0.00    -0.518 C  
HETATM    2  C   UNK A   0     -12.691  11.471  71.047  1.00  0.00    -0.328 C  
ENDROOT
BRANCH   2   3
HETATM    3  O   UNK A   0     -11.446  11.232  70.372  1.00  0.00    -0.271 OA 
BRANCH   3   4
HETATM    4  C   UNK A   0     -11.504  11.152  69.011  1.00  0.00    -0.296 C  
HETATM    5  O   UNK A   0     -12.534  11.105  68.348  1.00  0.00    -0.390 OA 
BRANCH   4   6
HETATM    6  C   UNK A   0     -10.086  11.144  68.412  1.00  0.00    -0.184 C  
BRANCH   6   7
HETATM    7  C   UNK A   0     -10.003  10.099  67.284  1.00  0.00    -0.241 C  
BRANCH   7   8
HETATM    8  C   UNK A   0      -9.716  10.662  65.890  1.00  0.00    -0.273 C  
BRANCH   8   9
HETATM    9  C   UNK A   0     -10.432  11.988  65.743  1.00  0.00    -0.290 A  
HETATM   10  C   UNK A   0     -11.739  12.046  65.238  1.00  0.00    -0.312 A  
HETATM   11  C   UNK A   0     -12.430  13.260  65.198  1.00  0.00    -0.525 A  
HETATM   12  C   UNK A   0     -11.823  14.425  65.664  1.00  0.00    -0.355 A  
HETATM   13  C   UNK A   0      -9.832  13.167  66.209  1.00  0.00    -0.284 A  
HETATM   14  C   UNK A   0     -10.525  14.379  66.167  1.00  0.00    -0.295 A  
ENDBRANCH   8   9
ENDBRANCH   7   8
ENDBRANCH   6   7
BRANCH   6  15
ATOM     15  N   ALA A   1      -9.118  10.865  69.516  1.00  0.00    -0.383 NA 
ATOM     16  H   ALA A   1      -9.565  10.987  70.424  1.00  0.00     0.000 HD 
BRANCH  15  17
ATOM     17  CA  ALA A   1      -8.475   9.538  69.429  1.00  0.00    -0.146 C  
ATOM     18  CB  ALA A   1      -7.002   9.605  69.831  1.00  0.00    -0.081 C  
BRANCH  17  19
ATOM     19  C   ALA A   1      -9.244   8.449  70.243  1.00  0.00    -0.152 C  
HETATM   20  C   UNK A   2      -9.105   5.409  68.055  1.00  0.00    -0.109 C  
ATOM     21  O   ALA A   1      -9.817   8.679  71.309  1.00  0.00    -0.195 OA 
HETATM   22  C   UNK A   2      -9.707   4.862  69.351  1.00  0.00    -0.261 C  
HETATM   23  N   UNK A   2      -9.242   7.156  69.719  1.00  0.00    -0.144 N  
HETATM   24  S   UNK A   2      -7.462   4.658  67.712  1.00  0.00    -0.078 SA 
HETATM   25  C   UNK A   2      -7.859   3.907  66.114  1.00  0.00    -0.090 C  
HETATM   26  C   UNK A   2     -10.140   6.085  70.192  1.00  0.00    -0.194 C  
HETATM   27  C   UNK A   2      -8.931   6.912  68.308  1.00  0.00    -0.124 C  
HETATM   28  C   UNK A   2     -10.202   5.612  71.665  1.00  0.00    -0.208 C  
HETATM   29  C   UNK A   2      -8.909   4.751  65.423  1.00  0.00    -0.146 C  
HETATM   30  S   UNK A   2     -10.210   5.100  66.631  1.00  0.00    -0.275 SA 
HETATM   31  O   UNK A   2      -9.893   6.524  72.603  1.00  0.00    -0.168 OA 
HETATM   32  O   UNK A   2     -10.611   4.500  71.988  1.00  0.00    -0.145 OA 
ENDBRANCH  17  19
ENDBRANCH  15  17
ENDBRANCH   6  15
ENDBRANCH   4   6
ENDBRANCH   3   4
ENDBRANCH   2   3
TORSDOF 9
ENDMDL
MODEL      144
REMARK 921   NORMALIZED FREE ENERGY PREDICTED BY IDOCK:   -4.58 KCAL/MOL
REMARK 922        TOTAL FREE ENERGY PREDICTED BY IDOCK:   -8.33 KCAL/MOL
REMARK 923 INTER-LIGAND FREE ENERGY PREDICTED BY IDOCK:   -8.25 KCAL/MOL
REMARK 924 INTRA-LIGAND FREE ENERGY PREDICTED BY IDOCK:   -0.08 KCAL/MOL
REMARK 927      BINDING AFFINITY PREDICTED BY RF-SCORE:    0.00 PKD
ROOT
HETATM    1  C   UNK A   0     -14.233   7.742  71.773  1.00  0.00    -0.558 C  
HETATM    2  C   UNK A   0     -13.770   9.084  71.237  1.00  0.00    -0.190 C  
ENDROOT
BRANCH   2   3
HETATM    3  O   UNK A   0     -12.673   9.586  72.018  1.00  0.00    -0.380 OA 
BRANCH   3   4
HETATM    4  C   UNK A   0     -11.423   9.238  71.593  1.00  0.00    -0.398 C  
HETATM    5  O   UNK A   0     -10.490   8.922  72.322  1.00  0.00    -0.313 OA 
BRANCH   4   6
HETATM    6  C   UNK A   0     -11.346   9.284  70.056  1.00  0.00    -0.113 C  
BRANCH   6   7
HETATM    7  C   UNK A   0     -10.492   8.110  69.543  1.00  0.00    -0.227 C  
BRANCH   7   8
HETATM    8  C   UNK A   0     -11.056   6.715  69.831  1.00  0.00    -0.403 C  
BRANCH   8   9
HETATM    9  C   UNK A   0     -10.633   5.779  68.719  1.00  0.00    -0.321 A  
HETATM   10  C   UNK A   0     -11.005   6.028  67.390  1.00  0.00    -0.344 A  
HETATM   11  C   UNK A   0     -10.529   5.218  66.356  1.00  0.00    -0.347 A  
HETATM   12  C   UNK A   0      -9.675   4.153  66.641  1.00  0.00    -0.233 A  
HETATM   13  C   UNK A   0      -9.774   4.705  68.992  1.00  0.00    -0.242 A  
HETATM   14  C   UNK A   0      -9.300   3.896  67.957  1.00  0.00    -0.226 A  
ENDBRANCH   8   9
ENDBRANCH   7   8
ENDBRANCH   6   7
BRANCH   6  15
ATOM     15  N   ALA A   1     -10.784  10.611  69.659  1.00  0.00    -0.304 NA 
ATOM     16  H   ALA A   1     -10.088  10.499  68.922  1.00  0.00     0.000 HD 
BRANCH  15  17
ATOM     17  CA  ALA A   1     -11.807  11.600  69.261  1.00  0.00    -0.331 C  
ATOM     18  CB  ALA A   1     -11.814  12.802  70.204  1.00  0.00    -0.326 C  
BRANCH  17  19
ATOM     19  C   ALA A   1     -11.662  12.040  67.769  1.00  0.00    -0.309 C  
HETATM   20  C   UNK A   2      -8.386  10.568  66.699  1.00  0.00    -0.131 C  
ATOM     21  O   ALA A   1     -12.459  12.790  67.204  1.00  0.00    -0.239 OA 
HETATM   22  C   UNK A   2      -8.958  11.104  65.385  1.00  0.00    -0.154 C  
HETATM   23  N   UNK A   2     -10.576  11.520  67.064  1.00  0.00    -0.231 N  
HETATM   24  S   UNK A   2      -8.226   8.737  66.661  1.00  0.00    -0.108 SA 
HETATM   25  C   UNK A   2      -6.438   8.636  66.923  1.00  0.00    -0.061 C  
HETATM   26  C   UNK A   2     -10.129  12.041  65.759  1.00  0.00    -0.238 C  
HETATM   27  C   UNK A   2      -9.417  10.963  67.765  1.00  0.00    -0.157 C  
HETATM   28  C   UNK A   2     -11.045  12.126  64.513  1.00  0.00    -0.325 C  
HETATM   29  C   UNK A   2      -5.999   9.816  67.765  1.00  0.00    -0.050 C  
HETATM   30  S   UNK A   2      -6.749  11.301  67.057  1.00  0.00    -0.137 SA 
HETATM   31  O   UNK A   2     -12.361  12.278  64.745  1.00  0.00    -0.421 OA 
HETATM   32  O   UNK A   2     -10.605  12.159  63.368  1.00  0.00    -0.436 OA 
ENDBRANCH  17  19
ENDBRANCH  15  17
ENDBRANCH   6  15
ENDBRANCH   4   6
ENDBRANCH   3   4
ENDBRANCH   2   3
TORSDOF 9
ENDMDL
MODEL      145
REMARK 921   NORMALIZED FREE ENERGY PREDICTED BY IDOCK:   -4.58 KCAL/MOL
REMARK 922        TOTAL FREE ENERGY PREDICTED BY IDOCK:   -8.33 KCAL/MOL
REMARK 923 INTER-LIGAND FREE ENERGY PREDICTED BY IDOCK:   -6.93 KCAL/MOL
REMARK 924 INTRA-LIGAND FREE ENERGY PREDICTED BY IDOCK:   -1.40 KCAL/MOL
REMARK 927      BINDING AFFINITY PREDICTED BY RF-SCORE:    0.00 PKD
ROOT
HETATM    1  C   UNK A   0      -6.429   4.686  70.570  1.00  0.00    -0.030 C  
HETATM    2  C   UNK A   0      -7.147   5.090  69.297  1.00  0.00    -0.056 C  
ENDROOT
BRANCH   2   3
HETATM    3  O   UNK A   0      -8.513   5.437  69.578  1.00  0.00    -0.098 OA 
BRANCH   3   4
HETATM    4  C   UNK A   0      -8.958   6.611  69.044  1.00  0.00    -0.130 C  
HETATM    5  O   UNK A   0      -8.557   7.111  68.000  1.00  0.00    -0.127 OA 
BRANCH   4   6
HETATM    6  C   UNK A   0     -10.056   7.224  69.933  1.00  0.00    -0.194 C  
BRANCH   6   7
HETATM    7  C   UNK A   0     -10.962   6.108  70.485  1.00  0.00    -0.384 C  
BRANCH   7   8
HETATM    8  C   UNK A   0     -11.350   6.250  71.960  1.00  0.00    -0.348 C  
BRANCH   8   9
HETATM    9  C   UNK A   0     -10.728   5.110  72.739  1.00  0.00    -0.294 A  
HETATM   10  C   UNK A   0     -11.511   4.038  73.189  1.00  0.00    -0.116 A  
HETATM   11  C   UNK A   0     -10.917   2.942  73.821  1.00  0.00    -0.313 A  
HETATM   12  C   UNK A   0      -9.536   2.907  74.005  1.00  0.00    -0.112 A  
HETATM   13  C   UNK A   0      -9.340   5.064  72.931  1.00  0.00    -0.147 A  
HETATM   14  C   UNK A   0      -8.749   3.968  73.563  1.00  0.00    -0.091 A  
ENDBRANCH   8   9
ENDBRANCH   7   8
ENDBRANCH   6   7
BRANCH   6  15
ATOM     15  N   ALA A   1     -10.815   8.218  69.114  1.00  0.00    -0.416 NA 
ATOM     16  H   ALA A   1     -11.792   7.938  69.026  1.00  0.00     0.000 HD 
BRANCH  15  17
ATOM     17  CA  ALA A   1     -10.716   9.605  69.612  1.00  0.00    -0.240 C  
ATOM     18  CB  ALA A   1     -10.843   9.661  71.133  1.00  0.00    -0.404 C  
BRANCH  17  19
ATOM     19  C   ALA A   1      -9.421  10.325  69.116  1.00  0.00    -0.215 C  
HETATM   20  C   UNK A   2     -10.621  12.563  66.360  1.00  0.00    -0.247 C  
ATOM     21  O   ALA A   1      -8.295  10.061  69.541  1.00  0.00    -0.145 OA 
HETATM   22  C   UNK A   2      -9.163  12.993  66.531  1.00  0.00    -0.187 C  
HETATM   23  N   UNK A   2      -9.587  11.328  68.162  1.00  0.00    -0.180 N  
HETATM   24  S   UNK A   2     -11.776  13.927  66.788  1.00  0.00    -0.421 SA 
HETATM   25  C   UNK A   2     -12.603  14.067  65.185  1.00  0.00    -0.428 C  
HETATM   26  C   UNK A   2      -8.473  11.904  67.385  1.00  0.00    -0.166 C  
HETATM   27  C   UNK A   2     -10.808  11.411  67.356  1.00  0.00    -0.254 C  
HETATM   28  C   UNK A   2      -7.232  12.566  68.032  1.00  0.00    -0.105 C  
HETATM   29  C   UNK A   2     -12.620  12.705  64.522  1.00  0.00    -0.412 C  
HETATM   30  S   UNK A   2     -10.952  12.017  64.646  1.00  0.00    -0.332 SA 
HETATM   31  O   UNK A   2      -6.879  12.118  69.250  1.00  0.00    -0.103 OA 
HETATM   32  O   UNK A   2      -6.532  13.383  67.441  1.00  0.00    -0.239 OA 
ENDBRANCH  17  19
ENDBRANCH  15  17
ENDBRANCH   6  15
ENDBRANCH   4   6
ENDBRANCH   3   4
ENDBRANCH   2   3
TORSDOF 9
ENDMDL
MODEL      146
REMARK 921   NORMALIZED FREE ENERGY PREDICTED BY IDOCK:   -4.58 KCAL/MOL
REMARK 922        TOTAL FREE ENERGY PREDICTED BY IDOCK:   -8.33 KCAL/MOL
REMARK 923 INTER-LIGAND FREE ENERGY PREDICTED BY IDOCK:   -7.76 KCAL/MOL
REMARK 924 INTRA-LIGAND FREE ENERGY PREDICTED BY IDOCK:   -0.57 KCAL/MOL
REMARK 927      BINDING AFFINITY PREDICTED BY RF-SCORE:    0.00 PKD
ROOT
HETATM    1  C   UNK A   0     -14.295   8.229  71.974  1.00  0.00    -0.541 C  
HETATM    2  C   UNK A   0     -12.923   8.267  71.326  1.00  0.00    -0.150 C  
ENDROOT
BRANCH   2   3
HETATM    3  O   UNK A   0     -12.058   9.172  72.031  1.00  0.00    -0.367 OA 
BRANCH   3   4
HETATM    4  C   UNK A   0     -10.775   9.256  71.575  1.00  0.00    -0.355 C  
HETATM    5  O   UNK A   0      -9.773   8.992  72.230  1.00  0.00    -0.260 OA 
BRANCH   4   6
HETATM    6  C   UNK A   0     -10.755   9.718  70.107  1.00  0.00    -0.289 C  
BRANCH   6   7
HETATM    7  C   UNK A   0      -9.570   9.068  69.372  1.00  0.00    -0.160 C  
BRANCH   7   8
HETATM    8  C   UNK A   0      -8.480  10.036  68.902  1.00  0.00    -0.132 C  
BRANCH   8   9
HETATM    9  C   UNK A   0      -8.269   9.848  67.414  1.00  0.00    -0.118 A  
HETATM   10  C   UNK A   0      -7.311  10.604  66.725  1.00  0.00    -0.120 A  
HETATM   11  C   UNK A   0      -7.051  10.358  65.374  1.00  0.00    -0.117 A  
HETATM   12  C   UNK A   0      -7.745   9.352  64.702  1.00  0.00    -0.117 A  
HETATM   13  C   UNK A   0      -8.961   8.840  66.727  1.00  0.00    -0.161 A  
HETATM   14  C   UNK A   0      -8.700   8.596  65.377  1.00  0.00    -0.208 A  
ENDBRANCH   8   9
ENDBRANCH   7   8
ENDBRANCH   6   7
BRANCH   6  15
ATOM     15  N   ALA A   1     -10.682  11.211  70.092  1.00  0.00    -0.357 NA 
ATOM     16  H   ALA A   1      -9.810  11.523  69.665  1.00  0.00     0.000 HD 
BRANCH  15  17
ATOM     17  CA  ALA A   1     -11.838  11.862  69.442  1.00  0.00    -0.327 C  
ATOM     18  CB  ALA A   1     -12.183  13.188  70.118  1.00  0.00    -0.360 C  
BRANCH  17  19
ATOM     19  C   ALA A   1     -11.636  12.036  67.903  1.00  0.00    -0.337 C  
HETATM   20  C   UNK A   2      -9.626  15.184  67.598  1.00  0.00    -0.206 C  
ATOM     21  O   ALA A   1     -12.155  11.298  67.064  1.00  0.00    -0.179 OA 
HETATM   22  C   UNK A   2      -9.635  14.652  66.164  1.00  0.00    -0.336 C  
HETATM   23  N   UNK A   2     -10.801  13.075  67.493  1.00  0.00    -0.243 N  
HETATM   24  S   UNK A   2      -7.924  15.200  68.295  1.00  0.00    -0.136 SA 
HETATM   25  C   UNK A   2      -7.807  16.975  68.626  1.00  0.00    -0.257 C  
HETATM   26  C   UNK A   2     -10.726  13.558  66.101  1.00  0.00    -0.289 C  
HETATM   27  C   UNK A   2     -10.486  14.190  68.390  1.00  0.00    -0.254 C  
HETATM   28  C   UNK A   2     -10.374  12.648  64.899  1.00  0.00    -0.308 C  
HETATM   29  C   UNK A   2      -9.189  17.508  68.942  1.00  0.00    -0.153 C  
HETATM   30  S   UNK A   2     -10.320  16.874  67.681  1.00  0.00    -0.325 SA 
HETATM   31  O   UNK A   2     -10.701  11.349  65.014  1.00  0.00    -0.292 OA 
HETATM   32  O   UNK A   2      -9.917  13.085  63.847  1.00  0.00    -0.311 OA 
ENDBRANCH  17  19
ENDBRANCH  15  17
ENDBRANCH   6  15
ENDBRANCH   4   6
ENDBRANCH   3   4
ENDBRANCH   2   3
TORSDOF 9
ENDMDL
MODEL      147
REMARK 921   NORMALIZED FREE ENERGY PREDICTED BY IDOCK:   -4.57 KCAL/MOL
REMARK 922        TOTAL FREE ENERGY PREDICTED BY IDOCK:   -8.33 KCAL/MOL
REMARK 923 INTER-LIGAND FREE ENERGY PREDICTED BY IDOCK:   -8.54 KCAL/MOL
REMARK 924 INTRA-LIGAND FREE ENERGY PREDICTED BY IDOCK:    0.21 KCAL/MOL
REMARK 927      BINDING AFFINITY PREDICTED BY RF-SCORE:    0.00 PKD
ROOT
HETATM    1  C   UNK A   0      -7.824   8.587  71.666  1.00  0.00    -0.160 C  
HETATM    2  C   UNK A   0      -9.136   7.837  71.802  1.00  0.00    -0.137 C  
ENDROOT
BRANCH   2   3
HETATM    3  O   UNK A   0     -10.247   8.730  71.625  1.00  0.00    -0.265 OA 
BRANCH   3   4
HETATM    4  C   UNK A   0     -11.100   8.434  70.602  1.00  0.00    -0.256 C  
HETATM    5  O   UNK A   0     -11.922   7.525  70.606  1.00  0.00    -0.241 OA 
BRANCH   4   6
HETATM    6  C   UNK A   0     -10.897   9.415  69.433  1.00  0.00    -0.189 C  
BRANCH   6   7
HETATM    7  C   UNK A   0      -9.788   8.893  68.501  1.00  0.00    -0.182 C  
BRANCH   7   8
HETATM    8  C   UNK A   0     -10.269   8.032  67.330  1.00  0.00    -0.345 C  
BRANCH   8   9
HETATM    9  C   UNK A   0      -9.497   8.423  66.087  1.00  0.00    -0.263 A  
HETATM   10  C   UNK A   0      -8.444   7.625  65.616  1.00  0.00    -0.152 A  
HETATM   11  C   UNK A   0      -7.801   7.937  64.416  1.00  0.00    -0.139 A  
HETATM   12  C   UNK A   0      -8.205   9.046  63.675  1.00  0.00    -0.177 A  
HETATM   13  C   UNK A   0      -9.894   9.537  65.333  1.00  0.00    -0.248 A  
HETATM   14  C   UNK A   0      -9.248   9.846  64.134  1.00  0.00    -0.312 A  
ENDBRANCH   8   9
ENDBRANCH   7   8
ENDBRANCH   6   7
BRANCH   6  15
ATOM     15  N   ALA A   1     -10.573  10.757  70.005  1.00  0.00    -0.459 NA 
ATOM     16  H   ALA A   1      -9.978  10.662  70.828  1.00  0.00     0.000 HD 
BRANCH  15  17
ATOM     17  CA  ALA A   1      -9.968  11.693  69.034  1.00  0.00     0.019 C  
ATOM     18  CB  ALA A   1      -8.670  11.132  68.455  1.00  0.00    -0.157 C  
BRANCH  17  19
ATOM     19  C   ALA A   1     -10.967  12.111  67.908  1.00  0.00    -0.229 C  
HETATM   20  C   UNK A   2     -10.105  15.690  67.208  1.00  0.00    -0.255 C  
ATOM     21  O   ALA A   1     -11.864  11.376  67.492  1.00  0.00    -0.614 OA 
HETATM   22  C   UNK A   2     -11.108  15.364  66.100  1.00  0.00    -0.230 C  
HETATM   23  N   UNK A   2     -10.791  13.378  67.352  1.00  0.00    -0.265 N  
HETATM   24  S   UNK A   2      -8.443  16.065  66.517  1.00  0.00    -0.323 SA 
HETATM   25  C   UNK A   2      -8.281  17.751  67.156  1.00  0.00    -0.219 C  
HETATM   26  C   UNK A   2     -11.796  14.038  66.498  1.00  0.00    -0.417 C  
HETATM   27  C   UNK A   2     -10.024  14.411  68.052  1.00  0.00    -0.225 C  
HETATM   28  C   UNK A   2     -12.351  13.416  65.193  1.00  0.00    -0.456 C  
HETATM   29  C   UNK A   2      -9.037  17.854  68.464  1.00  0.00    -0.285 C  
HETATM   30  S   UNK A   2     -10.667  17.112  68.212  1.00  0.00    -0.322 SA 
HETATM   31  O   UNK A   2     -12.374  12.073  65.131  1.00  0.00    -0.423 OA 
HETATM   32  O   UNK A   2     -12.845  14.091  64.294  1.00  0.00    -0.612 OA 
ENDBRANCH  17  19
ENDBRANCH  15  17
ENDBRANCH   6  15
ENDBRANCH   4   6
ENDBRANCH   3   4
ENDBRANCH   2   3
TORSDOF 9
ENDMDL
MODEL      148
REMARK 921   NORMALIZED FREE ENERGY PREDICTED BY IDOCK:   -4.57 KCAL/MOL
REMARK 922        TOTAL FREE ENERGY PREDICTED BY IDOCK:   -8.32 KCAL/MOL
REMARK 923 INTER-LIGAND FREE ENERGY PREDICTED BY IDOCK:   -8.08 KCAL/MOL
REMARK 924 INTRA-LIGAND FREE ENERGY PREDICTED BY IDOCK:   -0.24 KCAL/MOL
REMARK 927      BINDING AFFINITY PREDICTED BY RF-SCORE:    0.00 PKD
ROOT
HETATM    1  C   UNK A   0      -8.562   8.908  62.945  1.00  0.00    -0.149 C  
HETATM    2  C   UNK A   0      -8.563   9.777  64.189  1.00  0.00    -0.194 C  
ENDROOT
BRANCH   2   3
HETATM    3  O   UNK A   0      -9.718   9.498  64.996  1.00  0.00    -0.248 OA 
BRANCH   3   4
HETATM    4  C   UNK A   0      -9.870  10.265  66.114  1.00  0.00    -0.225 C  
HETATM    5  O   UNK A   0      -9.883  11.491  66.136  1.00  0.00    -0.207 OA 
BRANCH   4   6
HETATM    6  C   UNK A   0     -10.041   9.374  67.359  1.00  0.00    -0.215 C  
BRANCH   6   7
HETATM    7  C   UNK A   0     -10.423   7.947  66.928  1.00  0.00    -0.388 C  
BRANCH   7   8
HETATM    8  C   UNK A   0      -9.421   6.856  67.318  1.00  0.00    -0.161 C  
BRANCH   8   9
HETATM    9  C   UNK A   0      -9.365   5.826  66.209  1.00  0.00    -0.171 A  
HETATM   10  C   UNK A   0     -10.408   4.907  66.030  1.00  0.00    -0.307 A  
HETATM   11  C   UNK A   0     -10.398   4.026  64.946  1.00  0.00    -0.197 A  
HETATM   12  C   UNK A   0      -9.347   4.058  64.030  1.00  0.00    -0.155 A  
HETATM   13  C   UNK A   0      -8.313   5.848  65.282  1.00  0.00    -0.146 A  
HETATM   14  C   UNK A   0      -8.305   4.966  64.199  1.00  0.00    -0.131 A  
ENDBRANCH   8   9
ENDBRANCH   7   8
ENDBRANCH   6   7
BRANCH   6  15
ATOM     15  N   ALA A   1     -11.077   9.999  68.237  1.00  0.00    -0.452 NA 
ATOM     16  H   ALA A   1     -12.010   9.686  67.969  1.00  0.00     0.000 HD 
BRANCH  15  17
ATOM     17  CA  ALA A   1     -10.851   9.778  69.680  1.00  0.00    -0.250 C  
ATOM     18  CB  ALA A   1      -9.362   9.653  69.998  1.00  0.00    -0.276 C  
BRANCH  17  19
ATOM     19  C   ALA A   1     -11.538  10.868  70.564  1.00  0.00    -0.300 C  
HETATM   20  C   UNK A   2     -11.237  14.007  68.539  1.00  0.00    -0.265 C  
ATOM     21  O   ALA A   1     -11.959  10.651  71.701  1.00  0.00    -0.193 OA 
HETATM   22  C   UNK A   2     -12.144  14.438  69.693  1.00  0.00    -0.381 C  
HETATM   23  N   UNK A   2     -11.689  12.133  69.996  1.00  0.00    -0.490 N  
HETATM   24  S   UNK A   2     -12.120  14.091  66.928  1.00  0.00    -0.385 SA 
HETATM   25  C   UNK A   2     -11.030  15.281  66.108  1.00  0.00    -0.307 C  
HETATM   26  C   UNK A   2     -12.046  13.336  70.773  1.00  0.00    -0.226 C  
HETATM   27  C   UNK A   2     -10.882  12.546  68.845  1.00  0.00    -0.196 C  
HETATM   28  C   UNK A   2     -13.327  13.445  71.637  1.00  0.00    -0.338 C  
HETATM   29  C   UNK A   2      -9.625  15.112  66.647  1.00  0.00    -0.253 C  
HETATM   30  S   UNK A   2      -9.737  15.049  68.451  1.00  0.00    -0.222 SA 
HETATM   31  O   UNK A   2     -13.805  12.297  72.149  1.00  0.00    -0.266 OA 
HETATM   32  O   UNK A   2     -13.833  14.522  71.938  1.00  0.00    -0.381 OA 
ENDBRANCH  17  19
ENDBRANCH  15  17
ENDBRANCH   6  15
ENDBRANCH   4   6
ENDBRANCH   3   4
ENDBRANCH   2   3
TORSDOF 9
ENDMDL
MODEL      149
REMARK 921   NORMALIZED FREE ENERGY PREDICTED BY IDOCK:   -4.55 KCAL/MOL
REMARK 922        TOTAL FREE ENERGY PREDICTED BY IDOCK:   -8.29 KCAL/MOL
REMARK 923 INTER-LIGAND FREE ENERGY PREDICTED BY IDOCK:   -7.44 KCAL/MOL
REMARK 924 INTRA-LIGAND FREE ENERGY PREDICTED BY IDOCK:   -0.85 KCAL/MOL
REMARK 927      BINDING AFFINITY PREDICTED BY RF-SCORE:    0.00 PKD
ROOT
HETATM    1  C   UNK A   0     -10.563  18.683  67.410  1.00  0.00    -0.490 C  
HETATM    2  C   UNK A   0      -9.201  18.111  67.063  1.00  0.00    -0.270 C  
ENDROOT
BRANCH   2   3
HETATM    3  O   UNK A   0      -9.287  16.691  66.865  1.00  0.00    -0.218 OA 
BRANCH   3   4
HETATM    4  C   UNK A   0      -9.026  15.915  67.957  1.00  0.00    -0.182 C  
HETATM    5  O   UNK A   0      -8.505  16.304  68.995  1.00  0.00    -0.239 OA 
BRANCH   4   6
HETATM    6  C   UNK A   0      -9.495  14.468  67.711  1.00  0.00    -0.210 C  
BRANCH   6   7
HETATM    7  C   UNK A   0     -11.018  14.373  67.910  1.00  0.00    -0.272 C  
BRANCH   7   8
HETATM    8  C   UNK A   0     -11.610  12.968  67.773  1.00  0.00    -0.385 C  
BRANCH   8   9
HETATM    9  C   UNK A   0     -11.550  12.553  66.318  1.00  0.00    -0.449 A  
HETATM   10  C   UNK A   0     -12.190  13.312  65.329  1.00  0.00    -0.492 A  
HETATM   11  C   UNK A   0     -12.049  12.982  63.979  1.00  0.00    -0.519 A  
HETATM   12  C   UNK A   0     -11.264  11.892  63.605  1.00  0.00    -0.522 A  
HETATM   13  C   UNK A   0     -10.764  11.458  65.930  1.00  0.00    -0.311 A  
HETATM   14  C   UNK A   0     -10.624  11.130  64.580  1.00  0.00    -0.386 A  
ENDBRANCH   8   9
ENDBRANCH   7   8
ENDBRANCH   6   7
BRANCH   6  15
ATOM     15  N   ALA A   1      -8.743  13.573  68.643  1.00  0.00    -0.353 NA 
ATOM     16  H   ALA A   1      -9.232  12.686  68.759  1.00  0.00     0.000 HD 
BRANCH  15  17
ATOM     17  CA  ALA A   1      -7.338  13.343  68.251  1.00  0.00    -0.113 C  
ATOM     18  CB  ALA A   1      -6.415  13.334  69.469  1.00  0.00    -0.078 C  
BRANCH  17  19
ATOM     19  C   ALA A   1      -7.163  12.054  67.387  1.00  0.00    -0.144 C  
HETATM   20  C   UNK A   2      -9.202   9.472  69.183  1.00  0.00    -0.163 C  
ATOM     21  O   ALA A   1      -6.415  11.989  66.410  1.00  0.00     0.051 OA 
HETATM   22  C   UNK A   2      -8.811   8.752  67.890  1.00  0.00    -0.136 C  
HETATM   23  N   UNK A   2      -7.926  10.945  67.754  1.00  0.00    -0.109 N  
HETATM   24  S   UNK A   2     -11.021   9.718  69.288  1.00  0.00    -0.153 SA 
HETATM   25  C   UNK A   2     -11.310   8.792  70.815  1.00  0.00    -0.272 C  
HETATM   26  C   UNK A   2      -7.682   9.584  67.240  1.00  0.00    -0.091 C  
HETATM   27  C   UNK A   2      -8.511  10.839  69.093  1.00  0.00    -0.097 C  
HETATM   28  C   UNK A   2      -7.679   9.227  65.733  1.00  0.00    -0.098 C  
HETATM   29  C   UNK A   2     -10.079   8.894  71.691  1.00  0.00    -0.341 C  
HETATM   30  S   UNK A   2      -8.641   8.541  70.654  1.00  0.00    -0.163 SA 
HETATM   31  O   UNK A   2      -7.321  10.207  64.885  1.00  0.00    -0.137 OA 
HETATM   32  O   UNK A   2      -7.885   8.089  65.321  1.00  0.00    -0.098 OA 
ENDBRANCH  17  19
ENDBRANCH  15  17
ENDBRANCH   6  15
ENDBRANCH   4   6
ENDBRANCH   3   4
ENDBRANCH   2   3
TORSDOF 9
ENDMDL
MODEL      150
REMARK 921   NORMALIZED FREE ENERGY PREDICTED BY IDOCK:   -4.54 KCAL/MOL
REMARK 922        TOTAL FREE ENERGY PREDICTED BY IDOCK:   -8.28 KCAL/MOL
REMARK 923 INTER-LIGAND FREE ENERGY PREDICTED BY IDOCK:   -8.01 KCAL/MOL
REMARK 924 INTRA-LIGAND FREE ENERGY PREDICTED BY IDOCK:   -0.26 KCAL/MOL
REMARK 927      BINDING AFFINITY PREDICTED BY RF-SCORE:    0.00 PKD
ROOT
HETATM    1  C   UNK A   0     -11.240   5.911  72.167  1.00  0.00    -0.342 C  
HETATM    2  C   UNK A   0     -11.392   7.241  72.880  1.00  0.00    -0.246 C  
ENDROOT
BRANCH   2   3
HETATM    3  O   UNK A   0     -10.814   8.300  72.100  1.00  0.00    -0.272 OA 
BRANCH   3   4
HETATM    4  C   UNK A   0     -11.694   9.153  71.498  1.00  0.00    -0.363 C  
HETATM    5  O   UNK A   0     -12.911   9.131  71.640  1.00  0.00    -0.325 OA 
BRANCH   4   6
HETATM    6  C   UNK A   0     -10.941  10.168  70.618  1.00  0.00    -0.285 C  
BRANCH   6   7
HETATM    7  C   UNK A   0     -11.950  11.052  69.863  1.00  0.00    -0.427 C  
BRANCH   7   8
HETATM    8  C   UNK A   0     -11.513  12.503  69.643  1.00  0.00    -0.255 C  
BRANCH   8   9
HETATM    9  C   UNK A   0     -12.272  13.392  70.606  1.00  0.00    -0.427 A  
HETATM   10  C   UNK A   0     -12.376  14.771  70.380  1.00  0.00    -0.402 A  
HETATM   11  C   UNK A   0     -13.159  15.570  71.216  1.00  0.00    -0.581 A  
HETATM   12  C   UNK A   0     -13.849  14.997  72.284  1.00  0.00    -0.596 A  
HETATM   13  C   UNK A   0     -12.970  12.827  71.684  1.00  0.00    -0.402 A  
HETATM   14  C   UNK A   0     -13.752  13.628  72.519  1.00  0.00    -0.663 A  
ENDBRANCH   8   9
ENDBRANCH   7   8
ENDBRANCH   6   7
BRANCH   6  15
ATOM     15  N   ALA A   1     -10.049   9.406  69.691  1.00  0.00    -0.194 NA 
ATOM     16  H   ALA A   1     -10.533   9.200  68.817  1.00  0.00     0.000 HD 
BRANCH  15  17
ATOM     17  CA  ALA A   1      -8.756  10.068  69.424  1.00  0.00    -0.186 C  
ATOM     18  CB  ALA A   1      -7.641   9.480  70.288  1.00  0.00    -0.162 C  
BRANCH  17  19
ATOM     19  C   ALA A   1      -8.379  10.051  67.909  1.00  0.00    -0.117 C  
HETATM   20  C   UNK A   2      -8.544   6.427  66.970  1.00  0.00    -0.112 C  
ATOM     21  O   ALA A   1      -8.024  11.054  67.287  1.00  0.00    -0.118 OA 
HETATM   22  C   UNK A   2      -8.343   7.114  65.618  1.00  0.00    -0.138 C  
HETATM   23  N   UNK A   2      -8.484   8.826  67.250  1.00  0.00    -0.111 N  
HETATM   24  S   UNK A   2     -10.174   5.580  67.053  1.00  0.00    -0.250 SA 
HETATM   25  C   UNK A   2      -9.568   3.899  67.340  1.00  0.00    -0.172 C  
HETATM   26  C   UNK A   2      -7.906   8.567  65.918  1.00  0.00    -0.099 C  
HETATM   27  C   UNK A   2      -8.514   7.566  67.997  1.00  0.00    -0.123 C  
HETATM   28  C   UNK A   2      -8.249   9.402  64.660  1.00  0.00    -0.148 C  
HETATM   29  C   UNK A   2      -8.265   3.971  68.107  1.00  0.00    -0.091 C  
HETATM   30  S   UNK A   2      -7.222   5.206  67.295  1.00  0.00    -0.082 SA 
HETATM   31  O   UNK A   2      -8.598  10.684  64.868  1.00  0.00    -0.178 OA 
HETATM   32  O   UNK A   2      -8.114   8.969  63.519  1.00  0.00    -0.146 OA 
ENDBRANCH  17  19
ENDBRANCH  15  17
ENDBRANCH   6  15
ENDBRANCH   4   6
ENDBRANCH   3   4
ENDBRANCH   2   3
TORSDOF 9
ENDMDL
MODEL      151
REMARK 921   NORMALIZED FREE ENERGY PREDICTED BY IDOCK:   -4.53 KCAL/MOL
REMARK 922        TOTAL FREE ENERGY PREDICTED BY IDOCK:   -8.26 KCAL/MOL
REMARK 923 INTER-LIGAND FREE ENERGY PREDICTED BY IDOCK:   -7.10 KCAL/MOL
REMARK 924 INTRA-LIGAND FREE ENERGY PREDICTED BY IDOCK:   -1.16 KCAL/MOL
REMARK 927      BINDING AFFINITY PREDICTED BY RF-SCORE:    0.00 PKD
ROOT
HETATM    1  C   UNK A   0      -6.857   4.257  68.474  1.00  0.00    -0.047 C  
HETATM    2  C   UNK A   0      -7.975   4.873  67.653  1.00  0.00    -0.094 C  
ENDROOT
BRANCH   2   3
HETATM    3  O   UNK A   0      -7.794   6.294  67.543  1.00  0.00    -0.102 OA 
BRANCH   3   4
HETATM    4  C   UNK A   0      -8.523   6.920  66.574  1.00  0.00    -0.125 C  
HETATM    5  O   UNK A   0      -8.676   6.512  65.429  1.00  0.00    -0.115 OA 
BRANCH   4   6
HETATM    6  C   UNK A   0      -9.147   8.216  67.124  1.00  0.00    -0.140 C  
BRANCH   6   7
HETATM    7  C   UNK A   0      -9.870   8.967  65.992  1.00  0.00    -0.312 C  
BRANCH   7   8
HETATM    8  C   UNK A   0      -9.247  10.309  65.595  1.00  0.00    -0.225 C  
BRANCH   8   9
HETATM    9  C   UNK A   0     -10.356  11.277  65.242  1.00  0.00    -0.337 A  
HETATM   10  C   UNK A   0     -10.860  11.345  63.936  1.00  0.00    -0.463 A  
HETATM   11  C   UNK A   0     -11.950  12.167  63.638  1.00  0.00    -0.628 A  
HETATM   12  C   UNK A   0     -12.548  12.925  64.644  1.00  0.00    -0.459 A  
HETATM   13  C   UNK A   0     -10.966  12.045  66.245  1.00  0.00    -0.340 A  
HETATM   14  C   UNK A   0     -12.054  12.866  65.945  1.00  0.00    -0.503 A  
ENDBRANCH   8   9
ENDBRANCH   7   8
ENDBRANCH   6   7
BRANCH   6  15
ATOM     15  N   ALA A   1      -8.056   9.030  67.740  1.00  0.00    -0.109 NA 
ATOM     16  H   ALA A   1      -7.921   9.899  67.223  1.00  0.00     0.000 HD 
BRANCH  15  17
ATOM     17  CA  ALA A   1      -8.254   9.308  69.178  1.00  0.00    -0.111 C  
ATOM     18  CB  ALA A   1      -7.670  10.665  69.567  1.00  0.00    -0.113 C  
BRANCH  17  19
ATOM     19  C   ALA A   1      -9.750   9.181  69.609  1.00  0.00    -0.176 C  
HETATM   20  C   UNK A   2      -9.749   6.363  72.080  1.00  0.00    -0.150 C  
ATOM     21  O   ALA A   1     -10.659   9.843  69.105  1.00  0.00    -0.201 OA 
HETATM   22  C   UNK A   2     -11.177   6.903  72.187  1.00  0.00    -0.293 C  
HETATM   23  N   UNK A   2     -10.033   8.279  70.634  1.00  0.00    -0.182 N  
HETATM   24  S   UNK A   2      -8.829   6.589  73.656  1.00  0.00    -0.128 SA 
HETATM   25  C   UNK A   2      -8.467   4.847  73.986  1.00  0.00    -0.103 C  
HETATM   26  C   UNK A   2     -11.397   7.826  70.967  1.00  0.00    -0.271 C  
HETATM   27  C   UNK A   2      -9.090   7.213  70.985  1.00  0.00    -0.151 C  
HETATM   28  C   UNK A   2     -12.549   8.790  71.341  1.00  0.00    -0.294 C  
HETATM   29  C   UNK A   2      -8.335   4.115  72.667  1.00  0.00    -0.100 C  
HETATM   30  S   UNK A   2      -9.743   4.589  71.636  1.00  0.00    -0.183 SA 
HETATM   31  O   UNK A   2     -12.493  10.026  70.814  1.00  0.00    -0.306 OA 
HETATM   32  O   UNK A   2     -13.526   8.434  71.994  1.00  0.00    -0.342 OA 
ENDBRANCH  17  19
ENDBRANCH  15  17
ENDBRANCH   6  15
ENDBRANCH   4   6
ENDBRANCH   3   4
ENDBRANCH   2   3
TORSDOF 9
ENDMDL
MODEL      152
REMARK 921   NORMALIZED FREE ENERGY PREDICTED BY IDOCK:   -4.53 KCAL/MOL
REMARK 922        TOTAL FREE ENERGY PREDICTED BY IDOCK:   -8.26 KCAL/MOL
REMARK 923 INTER-LIGAND FREE ENERGY PREDICTED BY IDOCK:   -7.41 KCAL/MOL
REMARK 924 INTRA-LIGAND FREE ENERGY PREDICTED BY IDOCK:   -0.85 KCAL/MOL
REMARK 927      BINDING AFFINITY PREDICTED BY RF-SCORE:    0.00 PKD
ROOT
HETATM    1  C   UNK A   0     -12.717  11.416  71.153  1.00  0.00    -0.479 C  
HETATM    2  C   UNK A   0     -12.158  12.584  70.361  1.00  0.00    -0.297 C  
ENDROOT
BRANCH   2   3
HETATM    3  O   UNK A   0     -11.112  12.141  69.482  1.00  0.00    -0.170 OA 
BRANCH   3   4
HETATM    4  C   UNK A   0     -11.381  12.206  68.146  1.00  0.00    -0.293 C  
HETATM    5  O   UNK A   0     -12.279  11.599  67.574  1.00  0.00    -0.501 OA 
BRANCH   4   6
HETATM    6  C   UNK A   0     -10.402  13.167  67.447  1.00  0.00    -0.239 C  
BRANCH   6   7
HETATM    7  C   UNK A   0     -11.116  13.888  66.289  1.00  0.00    -0.304 C  
BRANCH   7   8
HETATM    8  C   UNK A   0     -10.212  14.732  65.387  1.00  0.00    -0.415 C  
BRANCH   8   9
HETATM    9  C   UNK A   0      -9.726  15.933  66.170  1.00  0.00    -0.351 A  
HETATM   10  C   UNK A   0      -8.362  16.253  66.220  1.00  0.00    -0.343 A  
HETATM   11  C   UNK A   0      -7.930  17.418  66.860  1.00  0.00    -0.257 A  
HETATM   12  C   UNK A   0      -8.857  18.273  67.453  1.00  0.00    -0.254 A  
HETATM   13  C   UNK A   0     -10.649  16.802  66.771  1.00  0.00    -0.203 A  
HETATM   14  C   UNK A   0     -10.215  17.964  67.410  1.00  0.00    -0.363 A  
ENDBRANCH   8   9
ENDBRANCH   7   8
ENDBRANCH   6   7
BRANCH   6  15
ATOM     15  N   ALA A   1      -9.225  12.371  66.980  1.00  0.00    -0.201 NA 
ATOM     16  H   ALA A   1      -8.426  12.520  67.595  1.00  0.00     0.000 HD 
BRANCH  15  17
ATOM     17  CA  ALA A   1      -9.501  10.928  66.827  1.00  0.00    -0.177 C  
ATOM     18  CB  ALA A   1      -9.882  10.584  65.388  1.00  0.00    -0.335 C  
BRANCH  17  19
ATOM     19  C   ALA A   1      -8.322  10.039  67.337  1.00  0.00    -0.118 C  
HETATM   20  C   UNK A   2      -9.880   7.888  69.981  1.00  0.00    -0.181 C  
ATOM     21  O   ALA A   1      -7.158  10.174  66.956  1.00  0.00    -0.087 OA 
HETATM   22  C   UNK A   2      -8.481   7.285  69.840  1.00  0.00    -0.140 C  
HETATM   23  N   UNK A   2      -8.642   9.037  68.253  1.00  0.00    -0.129 N  
HETATM   24  S   UNK A   2     -11.179   6.690  69.473  1.00  0.00    -0.304 SA 
HETATM   25  C   UNK A   2     -12.072   6.607  71.045  1.00  0.00    -0.327 C  
HETATM   26  C   UNK A   2      -7.635   8.305  69.044  1.00  0.00    -0.089 C  
HETATM   27  C   UNK A   2      -9.891   9.083  69.017  1.00  0.00    -0.175 C  
HETATM   28  C   UNK A   2      -6.463   7.514  68.413  1.00  0.00    -0.045 C  
HETATM   29  C   UNK A   2     -11.944   7.940  71.752  1.00  0.00    -0.298 C  
HETATM   30  S   UNK A   2     -10.201   8.421  71.701  1.00  0.00    -0.268 SA 
HETATM   31  O   UNK A   2      -6.016   7.950  67.222  1.00  0.00    -0.046 OA 
HETATM   32  O   UNK A   2      -5.889   6.600  68.998  1.00  0.00    -0.020 OA 
ENDBRANCH  17  19
ENDBRANCH  15  17
ENDBRANCH   6  15
ENDBRANCH   4   6
ENDBRANCH   3   4
ENDBRANCH   2   3
TORSDOF 9
ENDMDL
MODEL      153
REMARK 921   NORMALIZED FREE ENERGY PREDICTED BY IDOCK:   -4.53 KCAL/MOL
REMARK 922        TOTAL FREE ENERGY PREDICTED BY IDOCK:   -8.25 KCAL/MOL
REMARK 923 INTER-LIGAND FREE ENERGY PREDICTED BY IDOCK:   -8.39 KCAL/MOL
REMARK 924 INTRA-LIGAND FREE ENERGY PREDICTED BY IDOCK:    0.14 KCAL/MOL
REMARK 927      BINDING AFFINITY PREDICTED BY RF-SCORE:    0.00 PKD
ROOT
HETATM    1  C   UNK A   0     -14.262   8.590  72.011  1.00  0.00    -0.535 C  
HETATM    2  C   UNK A   0     -12.858   8.217  71.574  1.00  0.00    -0.293 C  
ENDROOT
BRANCH   2   3
HETATM    3  O   UNK A   0     -11.898   9.128  72.134  1.00  0.00    -0.345 OA 
BRANCH   3   4
HETATM    4  C   UNK A   0     -10.690   9.192  71.502  1.00  0.00    -0.367 C  
HETATM    5  O   UNK A   0      -9.624   8.813  71.972  1.00  0.00    -0.290 OA 
BRANCH   4   6
HETATM    6  C   UNK A   0     -10.851   9.800  70.097  1.00  0.00    -0.291 C  
BRANCH   6   7
HETATM    7  C   UNK A   0      -9.808   9.191  69.143  1.00  0.00    -0.171 C  
BRANCH   7   8
HETATM    8  C   UNK A   0     -10.238   7.900  68.441  1.00  0.00    -0.232 C  
BRANCH   8   9
HETATM    9  C   UNK A   0      -9.600   6.723  69.150  1.00  0.00    -0.139 A  
HETATM   10  C   UNK A   0     -10.389   5.757  69.789  1.00  0.00    -0.332 A  
HETATM   11  C   UNK A   0      -9.801   4.623  70.355  1.00  0.00    -0.306 A  
HETATM   12  C   UNK A   0      -8.420   4.443  70.285  1.00  0.00    -0.094 A  
HETATM   13  C   UNK A   0      -8.212   6.532  69.086  1.00  0.00    -0.116 A  
HETATM   14  C   UNK A   0      -7.627   5.398  69.653  1.00  0.00    -0.070 A  
ENDBRANCH   8   9
ENDBRANCH   7   8
ENDBRANCH   6   7
BRANCH   6  15
ATOM     15  N   ALA A   1     -10.714  11.284  70.215  1.00  0.00    -0.115 NA 
ATOM     16  H   ALA A   1      -9.805  11.589  69.867  1.00  0.00     0.000 HD 
BRANCH  15  17
ATOM     17  CA  ALA A   1     -11.800  12.041  69.560  1.00  0.00    -0.326 C  
ATOM     18  CB  ALA A   1     -11.983  13.417  70.197  1.00  0.00    -0.396 C  
BRANCH  17  19
ATOM     19  C   ALA A   1     -11.605  12.145  68.013  1.00  0.00    -0.348 C  
HETATM   20  C   UNK A   2      -9.703  15.339  67.546  1.00  0.00    -0.204 C  
ATOM     21  O   ALA A   1     -12.100  11.348  67.213  1.00  0.00    -0.464 OA 
HETATM   22  C   UNK A   2      -9.695  14.736  66.140  1.00  0.00    -0.338 C  
HETATM   23  N   UNK A   2     -10.806  13.190  67.550  1.00  0.00    -0.251 N  
HETATM   24  S   UNK A   2      -8.002  15.448  68.237  1.00  0.00    -0.132 SA 
HETATM   25  C   UNK A   2      -7.945  17.240  68.478  1.00  0.00    -0.261 C  
HETATM   26  C   UNK A   2     -10.748  13.604  66.135  1.00  0.00    -0.286 C  
HETATM   27  C   UNK A   2     -10.528  14.358  68.389  1.00  0.00    -0.246 C  
HETATM   28  C   UNK A   2     -10.366  12.647  64.980  1.00  0.00    -0.299 C  
HETATM   29  C   UNK A   2      -9.343  17.741  68.771  1.00  0.00    -0.229 C  
HETATM   30  S   UNK A   2     -10.453  17.007  67.546  1.00  0.00    -0.316 SA 
HETATM   31  O   UNK A   2     -10.650  11.345  65.160  1.00  0.00    -0.284 OA 
HETATM   32  O   UNK A   2      -9.925  13.046  63.906  1.00  0.00    -0.311 OA 
ENDBRANCH  17  19
ENDBRANCH  15  17
ENDBRANCH   6  15
ENDBRANCH   4   6
ENDBRANCH   3   4
ENDBRANCH   2   3
TORSDOF 9
ENDMDL
MODEL      154
REMARK 921   NORMALIZED FREE ENERGY PREDICTED BY IDOCK:   -4.53 KCAL/MOL
REMARK 922        TOTAL FREE ENERGY PREDICTED BY IDOCK:   -8.25 KCAL/MOL
REMARK 923 INTER-LIGAND FREE ENERGY PREDICTED BY IDOCK:   -7.40 KCAL/MOL
REMARK 924 INTRA-LIGAND FREE ENERGY PREDICTED BY IDOCK:   -0.85 KCAL/MOL
REMARK 927      BINDING AFFINITY PREDICTED BY RF-SCORE:    0.00 PKD
ROOT
HETATM    1  C   UNK A   0     -13.109  11.261  71.794  1.00  0.00    -0.527 C  
HETATM    2  C   UNK A   0     -12.765   9.790  71.649  1.00  0.00    -0.422 C  
ENDROOT
BRANCH   2   3
HETATM    3  O   UNK A   0     -11.352   9.621  71.454  1.00  0.00    -0.361 OA 
BRANCH   3   4
HETATM    4  C   UNK A   0     -10.965   9.156  70.230  1.00  0.00    -0.245 C  
HETATM    5  O   UNK A   0     -11.142   8.016  69.818  1.00  0.00    -0.190 OA 
BRANCH   4   6
HETATM    6  C   UNK A   0     -10.282  10.275  69.422  1.00  0.00    -0.235 C  
BRANCH   6   7
HETATM    7  C   UNK A   0     -11.074  10.542  68.130  1.00  0.00    -0.346 C  
BRANCH   7   8
HETATM    8  C   UNK A   0     -11.647  11.956  67.994  1.00  0.00    -0.401 C  
BRANCH   8   9
HETATM    9  C   UNK A   0     -11.631  12.350  66.531  1.00  0.00    -0.447 A  
HETATM   10  C   UNK A   0     -11.032  11.521  65.572  1.00  0.00    -0.290 A  
HETATM   11  C   UNK A   0     -11.108  11.840  64.214  1.00  0.00    -0.420 A  
HETATM   12  C   UNK A   0     -11.784  12.988  63.803  1.00  0.00    -0.547 A  
HETATM   13  C   UNK A   0     -12.308  13.502  66.106  1.00  0.00    -0.463 A  
HETATM   14  C   UNK A   0     -12.382  13.818  64.748  1.00  0.00    -0.420 A  
ENDBRANCH   8   9
ENDBRANCH   7   8
ENDBRANCH   6   7
BRANCH   6  15
ATOM     15  N   ALA A   1      -8.874   9.854  69.148  1.00  0.00    -0.153 NA 
ATOM     16  H   ALA A   1      -8.635   9.026  69.693  1.00  0.00     0.000 HD 
BRANCH  15  17
ATOM     17  CA  ALA A   1      -8.581   9.636  67.716  1.00  0.00    -0.125 C  
ATOM     18  CB  ALA A   1      -7.171  10.102  67.360  1.00  0.00    -0.088 C  
BRANCH  17  19
ATOM     19  C   ALA A   1      -8.827   8.158  67.277  1.00  0.00    -0.130 C  
HETATM   20  C   UNK A   2      -7.684   6.131  70.213  1.00  0.00    -0.097 C  
ATOM     21  O   ALA A   1      -9.218   7.842  66.151  1.00  0.00    -0.187 OA 
HETATM   22  C   UNK A   2      -8.328   5.078  69.310  1.00  0.00    -0.082 C  
HETATM   23  N   UNK A   2      -8.607   7.172  68.238  1.00  0.00    -0.123 N  
HETATM   24  S   UNK A   2      -8.600   6.302  71.798  1.00  0.00    -0.132 SA 
HETATM   25  C   UNK A   2      -7.247   5.863  72.918  1.00  0.00    -0.090 C  
HETATM   26  C   UNK A   2      -8.513   5.734  67.922  1.00  0.00    -0.103 C  
HETATM   27  C   UNK A   2      -7.790   7.442  69.424  1.00  0.00    -0.122 C  
HETATM   28  C   UNK A   2      -9.632   4.943  67.202  1.00  0.00    -0.159 C  
HETATM   29  C   UNK A   2      -5.935   6.287  72.291  1.00  0.00    -0.038 C  
HETATM   30  S   UNK A   2      -5.940   5.714  70.575  1.00  0.00    -0.026 SA 
HETATM   31  O   UNK A   2     -10.414   5.641  66.360  1.00  0.00    -0.229 OA 
HETATM   32  O   UNK A   2      -9.750   3.725  67.298  1.00  0.00    -0.204 OA 
ENDBRANCH  17  19
ENDBRANCH  15  17
ENDBRANCH   6  15
ENDBRANCH   4   6
ENDBRANCH   3   4
ENDBRANCH   2   3
TORSDOF 9
ENDMDL
MODEL      155
REMARK 921   NORMALIZED FREE ENERGY PREDICTED BY IDOCK:   -4.48 KCAL/MOL
REMARK 922        TOTAL FREE ENERGY PREDICTED BY IDOCK:   -8.18 KCAL/MOL
REMARK 923 INTER-LIGAND FREE ENERGY PREDICTED BY IDOCK:   -6.70 KCAL/MOL
REMARK 924 INTRA-LIGAND FREE ENERGY PREDICTED BY IDOCK:   -1.49 KCAL/MOL
REMARK 927      BINDING AFFINITY PREDICTED BY RF-SCORE:    0.00 PKD
ROOT
HETATM    1  C   UNK A   0      -5.592  11.996  67.313  1.00  0.00    -0.133 C  
HETATM    2  C   UNK A   0      -5.985  11.818  68.768  1.00  0.00    -0.048 C  
ENDROOT
BRANCH   2   3
HETATM    3  O   UNK A   0      -7.405  11.966  68.928  1.00  0.00    -0.112 OA 
BRANCH   3   4
HETATM    4  C   UNK A   0      -8.111  10.814  69.119  1.00  0.00    -0.131 C  
HETATM    5  O   UNK A   0      -7.881   9.977  69.985  1.00  0.00    -0.166 OA 
BRANCH   4   6
HETATM    6  C   UNK A   0      -9.260  10.712  68.099  1.00  0.00    -0.148 C  
BRANCH   6   7
HETATM    7  C   UNK A   0      -9.064   9.465  67.218  1.00  0.00    -0.150 C  
BRANCH   7   8
HETATM    8  C   UNK A   0      -7.709   9.368  66.511  1.00  0.00    -0.094 C  
BRANCH   8   9
HETATM    9  C   UNK A   0      -7.895   9.720  65.050  1.00  0.00    -0.128 A  
HETATM   10  C   UNK A   0      -9.176   9.924  64.518  1.00  0.00    -0.315 A  
HETATM   11  C   UNK A   0      -9.336  10.346  63.196  1.00  0.00    -0.340 A  
HETATM   12  C   UNK A   0      -8.217  10.570  62.394  1.00  0.00    -0.227 A  
HETATM   13  C   UNK A   0      -6.777   9.948  64.234  1.00  0.00    -0.126 A  
HETATM   14  C   UNK A   0      -6.940  10.368  62.912  1.00  0.00    -0.099 A  
ENDBRANCH   8   9
ENDBRANCH   7   8
ENDBRANCH   6   7
BRANCH   6  15
ATOM     15  N   ALA A   1      -9.282  11.974  67.298  1.00  0.00    -0.177 NA 
ATOM     16  H   ALA A   1      -8.914  11.811  66.361  1.00  0.00     0.000 HD 
BRANCH  15  17
ATOM     17  CA  ALA A   1     -10.610  12.617  67.230  1.00  0.00    -0.228 C  
ATOM     18  CB  ALA A   1     -11.674  11.644  66.726  1.00  0.00    -0.099 C  
BRANCH  17  19
ATOM     19  C   ALA A   1     -11.026  13.273  68.586  1.00  0.00    -0.264 C  
HETATM   20  C   UNK A   2      -9.602  16.734  68.399  1.00  0.00    -0.241 C  
ATOM     21  O   ALA A   1     -11.603  12.660  69.485  1.00  0.00    -0.287 OA 
HETATM   22  C   UNK A   2     -10.449  16.788  69.672  1.00  0.00    -0.209 C  
HETATM   23  N   UNK A   2     -10.734  14.628  68.743  1.00  0.00    -0.242 N  
HETATM   24  S   UNK A   2     -10.254  17.875  67.113  1.00  0.00    -0.366 SA 
HETATM   25  C   UNK A   2      -8.783  18.914  66.931  1.00  0.00    -0.300 C  
HETATM   26  C   UNK A   2     -10.793  15.327  70.041  1.00  0.00    -0.286 C  
HETATM   27  C   UNK A   2      -9.731  15.288  67.904  1.00  0.00    -0.211 C  
HETATM   28  C   UNK A   2     -12.062  15.379  70.927  1.00  0.00    -0.364 C  
HETATM   29  C   UNK A   2      -7.553  18.077  67.216  1.00  0.00    -0.200 C  
HETATM   30  S   UNK A   2      -7.858  17.162  68.746  1.00  0.00    -0.232 SA 
HETATM   31  O   UNK A   2     -12.909  14.340  70.823  1.00  0.00    -0.339 OA 
HETATM   32  O   UNK A   2     -12.251  16.258  71.762  1.00  0.00    -0.437 OA 
ENDBRANCH  17  19
ENDBRANCH  15  17
ENDBRANCH   6  15
ENDBRANCH   4   6
ENDBRANCH   3   4
ENDBRANCH   2   3
TORSDOF 9
ENDMDL
MODEL      156
REMARK 921   NORMALIZED FREE ENERGY PREDICTED BY IDOCK:   -4.48 KCAL/MOL
REMARK 922        TOTAL FREE ENERGY PREDICTED BY IDOCK:   -8.18 KCAL/MOL
REMARK 923 INTER-LIGAND FREE ENERGY PREDICTED BY IDOCK:   -6.67 KCAL/MOL
REMARK 924 INTRA-LIGAND FREE ENERGY PREDICTED BY IDOCK:   -1.51 KCAL/MOL
REMARK 927      BINDING AFFINITY PREDICTED BY RF-SCORE:    0.00 PKD
ROOT
HETATM    1  C   UNK A   0     -13.281   9.426  71.768  1.00  0.00    -0.487 C  
HETATM    2  C   UNK A   0     -12.837  10.706  71.084  1.00  0.00    -0.420 C  
ENDROOT
BRANCH   2   3
HETATM    3  O   UNK A   0     -11.553  10.526  70.465  1.00  0.00    -0.306 OA 
BRANCH   3   4
HETATM    4  C   UNK A   0     -11.458  10.902  69.156  1.00  0.00    -0.303 C  
HETATM    5  O   UNK A   0     -12.406  11.119  68.411  1.00  0.00    -0.556 OA 
BRANCH   4   6
HETATM    6  C   UNK A   0      -9.981  11.031  68.741  1.00  0.00    -0.207 C  
BRANCH   6   7
HETATM    7  C   UNK A   0      -9.784  10.449  67.329  1.00  0.00    -0.195 C  
BRANCH   7   8
HETATM    8  C   UNK A   0      -8.920  11.294  66.388  1.00  0.00    -0.194 C  
BRANCH   8   9
HETATM    9  C   UNK A   0      -8.745  10.545  65.083  1.00  0.00    -0.197 A  
HETATM   10  C   UNK A   0      -7.922   9.412  65.012  1.00  0.00    -0.118 A  
HETATM   11  C   UNK A   0      -7.842   8.667  63.832  1.00  0.00    -0.147 A  
HETATM   12  C   UNK A   0      -8.586   9.047  62.715  1.00  0.00    -0.191 A  
HETATM   13  C   UNK A   0      -9.487  10.917  63.953  1.00  0.00    -0.295 A  
HETATM   14  C   UNK A   0      -9.405  10.171  62.776  1.00  0.00    -0.323 A  
ENDBRANCH   8   9
ENDBRANCH   7   8
ENDBRANCH   6   7
BRANCH   6  15
ATOM     15  N   ALA A   1      -9.148  10.328  69.764  1.00  0.00    -0.398 NA 
ATOM     16  H   ALA A   1      -9.680  10.186  70.622  1.00  0.00     0.000 HD 
BRANCH  15  17
ATOM     17  CA  ALA A   1      -8.570   9.053  69.294  1.00  0.00    -0.136 C  
ATOM     18  CB  ALA A   1      -7.044   9.069  69.377  1.00  0.00    -0.056 C  
BRANCH  17  19
ATOM     19  C   ALA A   1      -9.173   7.817  70.035  1.00  0.00    -0.153 C  
HETATM   20  C   UNK A   2      -8.946   5.047  67.521  1.00  0.00    -0.110 C  
ATOM     21  O   ALA A   1      -9.675   7.879  71.159  1.00  0.00    -0.158 OA 
HETATM   22  C   UNK A   2      -9.391   4.314  68.788  1.00  0.00    -0.216 C  
HETATM   23  N   UNK A   2      -9.100   6.591  69.373  1.00  0.00    -0.141 N  
HETATM   24  S   UNK A   2      -7.277   4.496  66.982  1.00  0.00    -0.074 SA 
HETATM   25  C   UNK A   2      -7.735   3.880  65.343  1.00  0.00    -0.082 C  
HETATM   26  C   UNK A   2      -9.860   5.396  69.788  1.00  0.00    -0.201 C  
HETATM   27  C   UNK A   2      -8.884   6.526  67.926  1.00  0.00    -0.114 C  
HETATM   28  C   UNK A   2      -9.761   4.769  71.200  1.00  0.00    -0.181 C  
HETATM   29  C   UNK A   2      -8.907   4.687  64.825  1.00  0.00    -0.152 C  
HETATM   30  S   UNK A   2     -10.131   4.783  66.153  1.00  0.00    -0.280 SA 
HETATM   31  O   UNK A   2      -9.458   5.605  72.208  1.00  0.00    -0.145 OA 
HETATM   32  O   UNK A   2     -10.044   3.596  71.426  1.00  0.00    -0.137 OA 
ENDBRANCH  17  19
ENDBRANCH  15  17
ENDBRANCH   6  15
ENDBRANCH   4   6
ENDBRANCH   3   4
ENDBRANCH   2   3
TORSDOF 9
ENDMDL
MODEL      157
REMARK 921   NORMALIZED FREE ENERGY PREDICTED BY IDOCK:   -4.48 KCAL/MOL
REMARK 922        TOTAL FREE ENERGY PREDICTED BY IDOCK:   -8.18 KCAL/MOL
REMARK 923 INTER-LIGAND FREE ENERGY PREDICTED BY IDOCK:   -6.70 KCAL/MOL
REMARK 924 INTRA-LIGAND FREE ENERGY PREDICTED BY IDOCK:   -1.48 KCAL/MOL
REMARK 927      BINDING AFFINITY PREDICTED BY RF-SCORE:    0.00 PKD
ROOT
HETATM    1  C   UNK A   0     -11.981  10.405  71.102  1.00  0.00    -0.460 C  
HETATM    2  C   UNK A   0     -11.510   9.603  69.903  1.00  0.00    -0.100 C  
ENDROOT
BRANCH   2   3
HETATM    3  O   UNK A   0     -11.624  10.381  68.701  1.00  0.00    -0.220 OA 
BRANCH   3   4
HETATM    4  C   UNK A   0     -10.654  10.183  67.762  1.00  0.00    -0.256 C  
HETATM    5  O   UNK A   0     -10.751   9.444  66.789  1.00  0.00    -0.175 OA 
BRANCH   4   6
HETATM    6  C   UNK A   0      -9.412  11.035  68.084  1.00  0.00    -0.172 C  
BRANCH   6   7
HETATM    7  C   UNK A   0      -9.725  12.523  67.846  1.00  0.00    -0.205 C  
BRANCH   7   8
HETATM    8  C   UNK A   0      -9.287  13.075  66.486  1.00  0.00    -0.220 C  
BRANCH   8   9
HETATM    9  C   UNK A   0     -10.378  12.796  65.473  1.00  0.00    -0.301 A  
HETATM   10  C   UNK A   0     -10.085  12.150  64.264  1.00  0.00    -0.317 A  
HETATM   11  C   UNK A   0     -11.109  11.806  63.377  1.00  0.00    -0.448 A  
HETATM   12  C   UNK A   0     -12.434  12.103  63.693  1.00  0.00    -0.658 A  
HETATM   13  C   UNK A   0     -11.714  13.090  65.778  1.00  0.00    -0.427 A  
HETATM   14  C   UNK A   0     -12.735  12.747  64.890  1.00  0.00    -0.479 A  
ENDBRANCH   8   9
ENDBRANCH   7   8
ENDBRANCH   6   7
BRANCH   6  15
ATOM     15  N   ALA A   1      -8.284  10.549  67.233  1.00  0.00    -0.118 NA 
ATOM     16  H   ALA A   1      -8.039  11.247  66.530  1.00  0.00     0.000 HD 
BRANCH  15  17
ATOM     17  CA  ALA A   1      -7.088  10.142  67.998  1.00  0.00    -0.084 C  
ATOM     18  CB  ALA A   1      -6.030  11.244  68.007  1.00  0.00    -0.046 C  
BRANCH  17  19
ATOM     19  C   ALA A   1      -7.439   9.670  69.446  1.00  0.00    -0.093 C  
HETATM   20  C   UNK A   2      -8.611   6.140  68.995  1.00  0.00    -0.121 C  
ATOM     21  O   ALA A   1      -7.398  10.413  70.428  1.00  0.00    -0.245 OA 
HETATM   22  C   UNK A   2      -8.541   6.278  70.517  1.00  0.00    -0.139 C  
HETATM   23  N   UNK A   2      -7.788   8.329  69.601  1.00  0.00    -0.100 N  
HETATM   24  S   UNK A   2      -7.406   4.895  68.381  1.00  0.00    -0.066 SA 
HETATM   25  C   UNK A   2      -8.587   3.765  67.604  1.00  0.00    -0.099 C  
HETATM   26  C   UNK A   2      -8.416   7.789  70.822  1.00  0.00    -0.121 C  
HETATM   27  C   UNK A   2      -8.225   7.524  68.458  1.00  0.00    -0.125 C  
HETATM   28  C   UNK A   2      -7.786   7.907  72.231  1.00  0.00    -0.104 C  
HETATM   29  C   UNK A   2      -9.776   4.562  67.110  1.00  0.00    -0.197 C  
HETATM   30  S   UNK A   2     -10.290   5.662  68.451  1.00  0.00    -0.186 SA 
HETATM   31  O   UNK A   2      -6.992   8.970  72.446  1.00  0.00    -0.320 OA 
HETATM   32  O   UNK A   2      -8.066   7.142  73.149  1.00  0.00    -0.099 OA 
ENDBRANCH  17  19
ENDBRANCH  15  17
ENDBRANCH   6  15
ENDBRANCH   4   6
ENDBRANCH   3   4
ENDBRANCH   2   3
TORSDOF 9
ENDMDL
MODEL      158
REMARK 921   NORMALIZED FREE ENERGY PREDICTED BY IDOCK:   -4.44 KCAL/MOL
REMARK 922        TOTAL FREE ENERGY PREDICTED BY IDOCK:   -8.12 KCAL/MOL
REMARK 923 INTER-LIGAND FREE ENERGY PREDICTED BY IDOCK:   -7.92 KCAL/MOL
REMARK 924 INTRA-LIGAND FREE ENERGY PREDICTED BY IDOCK:   -0.21 KCAL/MOL
REMARK 927      BINDING AFFINITY PREDICTED BY RF-SCORE:    0.00 PKD
ROOT
HETATM    1  C   UNK A   0     -13.381   9.652  72.179  1.00  0.00    -0.545 C  
HETATM    2  C   UNK A   0     -12.866  10.886  71.461  1.00  0.00    -0.454 C  
ENDROOT
BRANCH   2   3
HETATM    3  O   UNK A   0     -11.579  10.628  70.878  1.00  0.00    -0.320 OA 
BRANCH   3   4
HETATM    4  C   UNK A   0     -11.479  10.823  69.531  1.00  0.00    -0.294 C  
HETATM    5  O   UNK A   0     -12.410  11.101  68.784  1.00  0.00    -0.539 OA 
BRANCH   4   6
HETATM    6  C   UNK A   0     -10.018  10.658  69.071  1.00  0.00    -0.213 C  
BRANCH   6   7
HETATM    7  C   UNK A   0      -9.962  10.569  67.536  1.00  0.00    -0.204 C  
BRANCH   7   8
HETATM    8  C   UNK A   0      -9.356  11.786  66.831  1.00  0.00    -0.197 C  
BRANCH   8   9
HETATM    9  C   UNK A   0     -10.252  12.177  65.675  1.00  0.00    -0.285 A  
HETATM   10  C   UNK A   0     -10.252  11.436  64.484  1.00  0.00    -0.352 A  
HETATM   11  C   UNK A   0     -11.152  11.740  63.460  1.00  0.00    -0.503 A  
HETATM   12  C   UNK A   0     -12.060  12.786  63.616  1.00  0.00    -0.624 A  
HETATM   13  C   UNK A   0     -11.171  13.227  65.820  1.00  0.00    -0.313 A  
HETATM   14  C   UNK A   0     -12.068  13.529  64.794  1.00  0.00    -0.442 A  
ENDBRANCH   8   9
ENDBRANCH   7   8
ENDBRANCH   6   7
BRANCH   6  15
ATOM     15  N   ALA A   1      -9.459   9.440  69.732  1.00  0.00    -0.188 NA 
ATOM     16  H   ALA A   1      -9.745   9.399  70.710  1.00  0.00     0.000 HD 
BRANCH  15  17
ATOM     17  CA  ALA A   1      -9.793   8.177  69.041  1.00  0.00    -0.176 C  
ATOM     18  CB  ALA A   1      -8.577   7.598  68.320  1.00  0.00    -0.124 C  
BRANCH  17  19
ATOM     19  C   ALA A   1     -10.447   7.130  69.998  1.00  0.00    -0.221 C  
HETATM   20  C   UNK A   2      -7.878   6.612  72.676  1.00  0.00    -0.101 C  
ATOM     21  O   ALA A   1     -11.529   6.586  69.769  1.00  0.00    -0.388 OA 
HETATM   22  C   UNK A   2      -9.083   5.839  73.214  1.00  0.00    -0.133 C  
HETATM   23  N   UNK A   2      -9.757   6.837  71.174  1.00  0.00    -0.174 N  
HETATM   24  S   UNK A   2      -7.455   8.033  73.763  1.00  0.00    -0.169 SA 
HETATM   25  C   UNK A   2      -5.768   7.533  74.184  1.00  0.00    -0.064 C  
HETATM   26  C   UNK A   2     -10.075   5.684  72.038  1.00  0.00    -0.185 C  
HETATM   27  C   UNK A   2      -8.330   7.139  71.308  1.00  0.00    -0.113 C  
HETATM   28  C   UNK A   2     -11.471   5.444  72.663  1.00  0.00    -0.241 C  
HETATM   29  C   UNK A   2      -5.184   6.752  73.025  1.00  0.00    -0.037 C  
HETATM   30  S   UNK A   2      -6.414   5.527  72.518  1.00  0.00    -0.062 SA 
HETATM   31  O   UNK A   2     -12.525   5.927  71.981  1.00  0.00    -0.052 OA 
HETATM   32  O   UNK A   2     -11.639   4.761  73.669  1.00  0.00    -0.205 OA 
ENDBRANCH  17  19
ENDBRANCH  15  17
ENDBRANCH   6  15
ENDBRANCH   4   6
ENDBRANCH   3   4
ENDBRANCH   2   3
TORSDOF 9
ENDMDL
MODEL      159
REMARK 921   NORMALIZED FREE ENERGY PREDICTED BY IDOCK:   -4.41 KCAL/MOL
REMARK 922        TOTAL FREE ENERGY PREDICTED BY IDOCK:   -8.08 KCAL/MOL
REMARK 923 INTER-LIGAND FREE ENERGY PREDICTED BY IDOCK:   -7.46 KCAL/MOL
REMARK 924 INTRA-LIGAND FREE ENERGY PREDICTED BY IDOCK:   -0.62 KCAL/MOL
REMARK 927      BINDING AFFINITY PREDICTED BY RF-SCORE:    0.00 PKD
ROOT
HETATM    1  C   UNK A   0      -6.853  14.499  68.774  1.00  0.00    -0.094 C  
HETATM    2  C   UNK A   0      -7.487  13.698  67.653  1.00  0.00    -0.183 C  
ENDROOT
BRANCH   2   3
HETATM    3  O   UNK A   0      -8.378  12.705  68.186  1.00  0.00    -0.162 OA 
BRANCH   3   4
HETATM    4  C   UNK A   0      -7.920  11.420  68.180  1.00  0.00    -0.133 C  
HETATM    5  O   UNK A   0      -6.785  11.074  67.873  1.00  0.00    -0.062 OA 
BRANCH   4   6
HETATM    6  C   UNK A   0      -9.029  10.451  68.631  1.00  0.00    -0.146 C  
BRANCH   6   7
HETATM    7  C   UNK A   0      -8.401   9.224  69.318  1.00  0.00    -0.124 C  
BRANCH   7   8
HETATM    8  C   UNK A   0      -8.677   9.102  70.819  1.00  0.00    -0.285 C  
BRANCH   8   9
HETATM    9  C   UNK A   0      -9.976   8.348  71.017  1.00  0.00    -0.235 A  
HETATM   10  C   UNK A   0     -10.894   8.746  71.999  1.00  0.00    -0.428 A  
HETATM   11  C   UNK A   0     -12.133   8.109  72.110  1.00  0.00    -0.408 A  
HETATM   12  C   UNK A   0     -12.466   7.072  71.240  1.00  0.00    -0.430 A  
HETATM   13  C   UNK A   0     -10.322   7.303  70.147  1.00  0.00    -0.221 A  
HETATM   14  C   UNK A   0     -11.560   6.669  70.261  1.00  0.00    -0.454 A  
ENDBRANCH   8   9
ENDBRANCH   7   8
ENDBRANCH   6   7
BRANCH   6  15
ATOM     15  N   ALA A   1      -9.836  10.079  67.430  1.00  0.00    -0.177 NA 
ATOM     16  H   ALA A   1      -9.861   9.065  67.315  1.00  0.00     0.000 HD 
BRANCH  15  17
ATOM     17  CA  ALA A   1     -11.204  10.635  67.431  1.00  0.00    -0.205 C  
ATOM     18  CB  ALA A   1     -11.735  10.804  68.854  1.00  0.00    -0.338 C  
BRANCH  17  19
ATOM     19  C   ALA A   1     -11.308  11.963  66.616  1.00  0.00    -0.337 C  
HETATM   20  C   UNK A   2     -11.684  14.614  69.239  1.00  0.00    -0.312 C  
ATOM     21  O   ALA A   1     -11.349  12.002  65.385  1.00  0.00    -0.332 OA 
HETATM   22  C   UNK A   2     -11.511  15.432  67.958  1.00  0.00    -0.333 C  
HETATM   23  N   UNK A   2     -11.329  13.149  67.350  1.00  0.00    -0.290 N  
HETATM   24  S   UNK A   2     -10.288  14.890  70.403  1.00  0.00     0.361 SA 
HETATM   25  C   UNK A   2     -11.247  15.536  71.795  1.00  0.00    -0.297 C  
HETATM   26  C   UNK A   2     -11.705  14.455  66.775  1.00  0.00    -0.397 C  
HETATM   27  C   UNK A   2     -11.672  13.151  68.774  1.00  0.00    -0.324 C  
HETATM   28  C   UNK A   2     -10.994  15.088  65.554  1.00  0.00    -0.358 C  
HETATM   29  C   UNK A   2     -12.625  14.909  71.774  1.00  0.00    -0.331 C  
HETATM   30  S   UNK A   2     -13.253  15.028  70.082  1.00  0.00     0.296 SA 
HETATM   31  O   UNK A   2     -10.446  14.236  64.670  1.00  0.00    -0.425 OA 
HETATM   32  O   UNK A   2     -11.009  16.295  65.331  1.00  0.00    -0.291 OA 
ENDBRANCH  17  19
ENDBRANCH  15  17
ENDBRANCH   6  15
ENDBRANCH   4   6
ENDBRANCH   3   4
ENDBRANCH   2   3
TORSDOF 9
ENDMDL
MODEL      160
REMARK 921   NORMALIZED FREE ENERGY PREDICTED BY IDOCK:   -4.41 KCAL/MOL
REMARK 922        TOTAL FREE ENERGY PREDICTED BY IDOCK:   -8.08 KCAL/MOL
REMARK 923 INTER-LIGAND FREE ENERGY PREDICTED BY IDOCK:   -6.67 KCAL/MOL
REMARK 924 INTRA-LIGAND FREE ENERGY PREDICTED BY IDOCK:   -1.41 KCAL/MOL
REMARK 927      BINDING AFFINITY PREDICTED BY RF-SCORE:    0.00 PKD
ROOT
HETATM    1  C   UNK A   0      -5.197  10.030  67.531  1.00  0.00    -0.038 C  
HETATM    2  C   UNK A   0      -5.664  10.605  66.206  1.00  0.00    -0.098 C  
ENDROOT
BRANCH   2   3
HETATM    3  O   UNK A   0      -6.718  11.558  66.415  1.00  0.00    -0.072 OA 
BRANCH   3   4
HETATM    4  C   UNK A   0      -7.790  11.121  67.138  1.00  0.00    -0.139 C  
HETATM    5  O   UNK A   0      -8.126  11.549  68.236  1.00  0.00    -0.133 OA 
BRANCH   4   6
HETATM    6  C   UNK A   0      -8.539  10.014  66.373  1.00  0.00    -0.129 C  
BRANCH   6   7
HETATM    7  C   UNK A   0      -9.064  10.568  65.036  1.00  0.00    -0.231 C  
BRANCH   7   8
HETATM    8  C   UNK A   0     -10.576  10.445  64.825  1.00  0.00     0.068 C  
BRANCH   8   9
HETATM    9  C   UNK A   0     -11.198  11.820  64.945  1.00  0.00    -0.328 A  
HETATM   10  C   UNK A   0     -11.519  12.356  66.200  1.00  0.00    -0.430 A  
HETATM   11  C   UNK A   0     -12.000  13.663  66.311  1.00  0.00    -0.461 A  
HETATM   12  C   UNK A   0     -12.162  14.447  65.170  1.00  0.00    -0.393 A  
HETATM   13  C   UNK A   0     -11.366  12.619  63.804  1.00  0.00    -0.529 A  
HETATM   14  C   UNK A   0     -11.847  13.924  63.918  1.00  0.00    -0.315 A  
ENDBRANCH   8   9
ENDBRANCH   7   8
ENDBRANCH   6   7
BRANCH   6  15
ATOM     15  N   ALA A   1      -9.639   9.508  67.249  1.00  0.00    -0.146 NA 
ATOM     16  H   ALA A   1     -10.521   9.485  66.738  1.00  0.00     0.000 HD 
BRANCH  15  17
ATOM     17  CA  ALA A   1      -9.360   8.193  67.862  1.00  0.00    -0.134 C  
ATOM     18  CB  ALA A   1      -8.479   7.332  66.957  1.00  0.00    -0.118 C  
BRANCH  17  19
ATOM     19  C   ALA A   1      -8.759   8.320  69.298  1.00  0.00    -0.139 C  
HETATM   20  C   UNK A   2     -11.760   8.371  71.542  1.00  0.00    -0.290 C  
ATOM     21  O   ALA A   1      -7.555   8.467  69.517  1.00  0.00    -0.085 OA 
HETATM   22  C   UNK A   2     -10.600   8.282  72.535  1.00  0.00    -0.407 C  
HETATM   23  N   UNK A   2      -9.655   8.234  70.363  1.00  0.00    -0.167 N  
HETATM   24  S   UNK A   2     -12.818   6.869  71.613  1.00  0.00    -0.260 SA 
HETATM   25  C   UNK A   2     -14.371   7.679  72.069  1.00  0.00    -0.328 C  
HETATM   26  C   UNK A   2      -9.312   8.613  71.747  1.00  0.00    -0.273 C  
HETATM   27  C   UNK A   2     -11.090   8.452  70.164  1.00  0.00    -0.182 C  
HETATM   28  C   UNK A   2      -8.135   7.990  72.537  1.00  0.00    -0.135 C  
HETATM   29  C   UNK A   2     -14.386   9.075  71.482  1.00  0.00    -0.120 C  
HETATM   30  S   UNK A   2     -12.794   9.845  71.863  1.00  0.00    -0.421 SA 
HETATM   31  O   UNK A   2      -7.090   7.552  71.812  1.00  0.00    -0.061 OA 
HETATM   32  O   UNK A   2      -8.090   7.982  73.764  1.00  0.00    -0.182 OA 
ENDBRANCH  17  19
ENDBRANCH  15  17
ENDBRANCH   6  15
ENDBRANCH   4   6
ENDBRANCH   3   4
ENDBRANCH   2   3
TORSDOF 9
ENDMDL
MODEL      161
REMARK 921   NORMALIZED FREE ENERGY PREDICTED BY IDOCK:   -4.40 KCAL/MOL
REMARK 922        TOTAL FREE ENERGY PREDICTED BY IDOCK:   -8.06 KCAL/MOL
REMARK 923 INTER-LIGAND FREE ENERGY PREDICTED BY IDOCK:   -6.76 KCAL/MOL
REMARK 924 INTRA-LIGAND FREE ENERGY PREDICTED BY IDOCK:   -1.30 KCAL/MOL
REMARK 927      BINDING AFFINITY PREDICTED BY RF-SCORE:    0.00 PKD
ROOT
HETATM    1  C   UNK A   0     -11.143   5.133  73.232  1.00  0.00    -0.392 C  
HETATM    2  C   UNK A   0     -11.121   6.360  72.339  1.00  0.00    -0.268 C  
ENDROOT
BRANCH   2   3
HETATM    3  O   UNK A   0     -11.799   6.093  71.101  1.00  0.00    -0.244 OA 
BRANCH   3   4
HETATM    4  C   UNK A   0     -11.005   5.806  70.029  1.00  0.00    -0.311 C  
HETATM    5  O   UNK A   0     -10.318   4.799  69.906  1.00  0.00    -0.238 OA 
BRANCH   4   6
HETATM    6  C   UNK A   0     -11.098   6.927  68.977  1.00  0.00    -0.136 C  
BRANCH   6   7
HETATM    7  C   UNK A   0     -11.058   6.318  67.563  1.00  0.00    -0.379 C  
BRANCH   7   8
HETATM    8  C   UNK A   0      -9.847   6.715  66.714  1.00  0.00    -0.227 C  
BRANCH   8   9
HETATM    9  C   UNK A   0      -8.882   5.549  66.665  1.00  0.00    -0.117 A  
HETATM   10  C   UNK A   0      -8.961   4.596  65.639  1.00  0.00    -0.138 A  
HETATM   11  C   UNK A   0      -8.007   3.580  65.542  1.00  0.00    -0.093 A  
HETATM   12  C   UNK A   0      -6.966   3.508  66.467  1.00  0.00    -0.054 A  
HETATM   13  C   UNK A   0      -7.831   5.466  67.589  1.00  0.00    -0.100 A  
HETATM   14  C   UNK A   0      -6.880   4.449  67.490  1.00  0.00    -0.052 A  
ENDBRANCH   8   9
ENDBRANCH   7   8
ENDBRANCH   6   7
BRANCH   6  15
ATOM     15  N   ALA A   1      -9.974   7.882  69.216  1.00  0.00    -0.185 NA 
ATOM     16  H   ALA A   1      -9.201   7.692  68.578  1.00  0.00     0.000 HD 
BRANCH  15  17
ATOM     17  CA  ALA A   1     -10.369   9.304  69.142  1.00  0.00    -0.211 C  
ATOM     18  CB  ALA A   1     -11.000   9.775  70.451  1.00  0.00    -0.371 C  
BRANCH  17  19
ATOM     19  C   ALA A   1      -9.188  10.229  68.707  1.00  0.00    -0.166 C  
HETATM   20  C   UNK A   2     -10.720  12.538  66.183  1.00  0.00    -0.261 C  
ATOM     21  O   ALA A   1      -8.029  10.076  69.096  1.00  0.00    -0.096 OA 
HETATM   22  C   UNK A   2      -9.326  13.137  66.384  1.00  0.00    -0.188 C  
HETATM   23  N   UNK A   2      -9.501  11.287  67.853  1.00  0.00    -0.173 N  
HETATM   24  S   UNK A   2     -12.033  13.695  66.747  1.00  0.00    -0.407 SA 
HETATM   25  C   UNK A   2     -12.903  13.873  65.170  1.00  0.00    -0.342 C  
HETATM   26  C   UNK A   2      -8.486  12.072  67.126  1.00  0.00    -0.180 C  
HETATM   27  C   UNK A   2     -10.738  11.284  67.068  1.00  0.00    -0.260 C  
HETATM   28  C   UNK A   2      -7.328  12.827  67.824  1.00  0.00    -0.130 C  
HETATM   29  C   UNK A   2     -12.757  12.589  64.382  1.00  0.00    -0.358 C  
HETATM   30  S   UNK A   2     -11.012  12.115  64.428  1.00  0.00    -0.353 SA 
HETATM   31  O   UNK A   2      -6.897  12.317  68.990  1.00  0.00    -0.097 OA 
HETATM   32  O   UNK A   2      -6.751  13.779  67.307  1.00  0.00    -0.230 OA 
ENDBRANCH  17  19
ENDBRANCH  15  17
ENDBRANCH   6  15
ENDBRANCH   4   6
ENDBRANCH   3   4
ENDBRANCH   2   3
TORSDOF 9
ENDMDL
MODEL      162
REMARK 921   NORMALIZED FREE ENERGY PREDICTED BY IDOCK:   -4.37 KCAL/MOL
REMARK 922        TOTAL FREE ENERGY PREDICTED BY IDOCK:   -8.02 KCAL/MOL
REMARK 923 INTER-LIGAND FREE ENERGY PREDICTED BY IDOCK:   -9.35 KCAL/MOL
REMARK 924 INTRA-LIGAND FREE ENERGY PREDICTED BY IDOCK:    1.33 KCAL/MOL
REMARK 927      BINDING AFFINITY PREDICTED BY RF-SCORE:    0.00 PKD
ROOT
HETATM    1  C   UNK A   0     -13.384  13.218  71.985  1.00  0.00    -0.582 C  
HETATM    2  C   UNK A   0     -13.152  14.335  70.985  1.00  0.00    -0.328 C  
ENDROOT
BRANCH   2   3
HETATM    3  O   UNK A   0     -12.250  13.907  69.952  1.00  0.00    -0.320 OA 
BRANCH   3   4
HETATM    4  C   UNK A   0     -11.735  14.889  69.157  1.00  0.00    -0.309 C  
HETATM    5  O   UNK A   0     -12.007  16.081  69.239  1.00  0.00    -0.324 OA 
BRANCH   4   6
HETATM    6  C   UNK A   0     -10.745  14.292  68.140  1.00  0.00    -0.244 C  
BRANCH   6   7
HETATM    7  C   UNK A   0     -10.812  15.085  66.822  1.00  0.00    -0.318 C  
BRANCH   7   8
HETATM    8  C   UNK A   0      -9.522  15.811  66.428  1.00  0.00    -0.326 C  
BRANCH   8   9
HETATM    9  C   UNK A   0      -9.623  17.257  66.867  1.00  0.00    -0.272 A  
HETATM   10  C   UNK A   0     -10.372  18.181  66.124  1.00  0.00    -0.394 A  
HETATM   11  C   UNK A   0     -10.544  19.488  66.586  1.00  0.00    -0.583 A  
HETATM   12  C   UNK A   0      -9.972  19.882  67.795  1.00  0.00    -0.552 A  
HETATM   13  C   UNK A   0      -9.052  17.665  68.080  1.00  0.00    -0.276 A  
HETATM   14  C   UNK A   0      -9.225  18.973  68.539  1.00  0.00    -0.413 A  
ENDBRANCH   8   9
ENDBRANCH   7   8
ENDBRANCH   6   7
BRANCH   6  15
ATOM     15  N   ALA A   1     -11.086  12.849  67.952  1.00  0.00    -0.241 NA 
ATOM     16  H   ALA A   1     -11.658  12.513  68.727  1.00  0.00     0.000 HD 
BRANCH  15  17
ATOM     17  CA  ALA A   1     -11.735  12.549  66.660  1.00  0.00    -0.387 C  
ATOM     18  CB  ALA A   1     -12.575  13.728  66.172  1.00  0.00    -0.423 C  
BRANCH  17  19
ATOM     19  C   ALA A   1     -10.712  12.083  65.574  1.00  0.00    -0.276 C  
HETATM   20  C   UNK A   2      -9.456   8.794  66.857  1.00  0.00    -0.177 C  
ATOM     21  O   ALA A   1     -10.393  12.773  64.604  1.00  0.00    -0.324 OA 
HETATM   22  C   UNK A   2      -8.845   8.863  65.455  1.00  0.00    -0.238 C  
HETATM   23  N   UNK A   2     -10.172  10.807  65.728  1.00  0.00    -0.257 N  
HETATM   24  S   UNK A   2     -10.649   7.403  66.998  1.00  0.00    -0.291 SA 
HETATM   25  C   UNK A   2      -9.820   6.498  68.329  1.00  0.00    -0.132 C  
HETATM   26  C   UNK A   2      -9.000  10.324  64.973  1.00  0.00    -0.196 C  
HETATM   27  C   UNK A   2     -10.206  10.122  67.022  1.00  0.00    -0.234 C  
HETATM   28  C   UNK A   2      -8.933  10.291  63.427  1.00  0.00    -0.240 C  
HETATM   29  C   UNK A   2      -9.089   7.486  69.213  1.00  0.00    -0.138 C  
HETATM   30  S   UNK A   2      -8.161   8.601  68.133  1.00  0.00    -0.115 SA 
HETATM   31  O   UNK A   2      -9.666  11.211  62.774  1.00  0.00    -0.308 OA 
HETATM   32  O   UNK A   2      -8.179   9.543  62.811  1.00  0.00    -0.137 OA 
ENDBRANCH  17  19
ENDBRANCH  15  17
ENDBRANCH   6  15
ENDBRANCH   4   6
ENDBRANCH   3   4
ENDBRANCH   2   3
TORSDOF 9
ENDMDL
MODEL      163
REMARK 921   NORMALIZED FREE ENERGY PREDICTED BY IDOCK:   -4.37 KCAL/MOL
REMARK 922        TOTAL FREE ENERGY PREDICTED BY IDOCK:   -8.02 KCAL/MOL
REMARK 923 INTER-LIGAND FREE ENERGY PREDICTED BY IDOCK:   -6.80 KCAL/MOL
REMARK 924 INTRA-LIGAND FREE ENERGY PREDICTED BY IDOCK:   -1.21 KCAL/MOL
REMARK 927      BINDING AFFINITY PREDICTED BY RF-SCORE:    0.00 PKD
ROOT
HETATM    1  C   UNK A   0     -13.303  14.539  72.336  1.00  0.00    -0.526 C  
HETATM    2  C   UNK A   0     -11.983  14.746  71.616  1.00  0.00    -0.345 C  
ENDROOT
BRANCH   2   3
HETATM    3  O   UNK A   0     -11.803  13.749  70.598  1.00  0.00    -0.283 OA 
BRANCH   3   4
HETATM    4  C   UNK A   0     -11.772  14.202  69.311  1.00  0.00    -0.323 C  
HETATM    5  O   UNK A   0     -12.756  14.419  68.613  1.00  0.00     0.224 OA 
BRANCH   4   6
HETATM    6  C   UNK A   0     -10.319  14.419  68.853  1.00  0.00    -0.231 C  
BRANCH   6   7
HETATM    7  C   UNK A   0      -9.978  15.920  68.896  1.00  0.00    -0.225 C  
BRANCH   7   8
HETATM    8  C   UNK A   0      -8.990  16.398  67.829  1.00  0.00    -0.198 C  
BRANCH   8   9
HETATM    9  C   UNK A   0      -8.032  17.388  68.459  1.00  0.00    -0.266 A  
HETATM   10  C   UNK A   0      -6.925  16.944  69.196  1.00  0.00    -0.234 A  
HETATM   11  C   UNK A   0      -5.991  17.858  69.690  1.00  0.00    -0.250 A  
HETATM   12  C   UNK A   0      -6.153  19.222  69.450  1.00  0.00    -0.299 A  
HETATM   13  C   UNK A   0      -8.185  18.762  68.225  1.00  0.00    -0.355 A  
HETATM   14  C   UNK A   0      -7.250  19.673  68.720  1.00  0.00    -0.378 A  
ENDBRANCH   8   9
ENDBRANCH   7   8
ENDBRANCH   6   7
BRANCH   6  15
ATOM     15  N   ALA A   1     -10.174  13.844  67.481  1.00  0.00    -0.243 NA 
ATOM     16  H   ALA A   1      -9.420  14.309  66.975  1.00  0.00     0.000 HD 
BRANCH  15  17
ATOM     17  CA  ALA A   1      -9.985  12.379  67.461  1.00  0.00    -0.196 C  
ATOM     18  CB  ALA A   1     -10.053  11.828  66.038  1.00  0.00    -0.263 C  
BRANCH  17  19
ATOM     19  C   ALA A   1      -8.675  11.938  68.188  1.00  0.00    -0.173 C  
HETATM   20  C   UNK A   2      -9.706   8.941  70.187  1.00  0.00    -0.179 C  
ATOM     21  O   ALA A   1      -7.619  12.570  68.124  1.00  0.00    -0.107 OA 
HETATM   22  C   UNK A   2      -8.186   8.953  70.361  1.00  0.00    -0.146 C  
HETATM   23  N   UNK A   2      -8.731  10.750  68.917  1.00  0.00    -0.178 N  
HETATM   24  S   UNK A   2     -10.263   7.441  69.282  1.00  0.00    -0.203 SA 
HETATM   25  C   UNK A   2     -11.339   6.758  70.567  1.00  0.00    -0.343 C  
HETATM   26  C   UNK A   2      -7.693  10.338  69.881  1.00  0.00    -0.126 C  
HETATM   27  C   UNK A   2     -10.013  10.184  69.342  1.00  0.00    -0.228 C  
HETATM   28  C   UNK A   2      -6.199  10.175  69.511  1.00  0.00    -0.048 C  
HETATM   29  C   UNK A   2     -11.918   7.899  71.378  1.00  0.00    -0.303 C  
HETATM   30  S   UNK A   2     -10.557   9.011  71.804  1.00  0.00    -0.306 SA 
HETATM   31  O   UNK A   2      -5.742  10.943  68.507  1.00  0.00    -0.044 OA 
HETATM   32  O   UNK A   2      -5.430   9.466  70.154  1.00  0.00    -0.027 OA 
ENDBRANCH  17  19
ENDBRANCH  15  17
ENDBRANCH   6  15
ENDBRANCH   4   6
ENDBRANCH   3   4
ENDBRANCH   2   3
TORSDOF 9
ENDMDL
MODEL      164
REMARK 921   NORMALIZED FREE ENERGY PREDICTED BY IDOCK:   -4.36 KCAL/MOL
REMARK 922        TOTAL FREE ENERGY PREDICTED BY IDOCK:   -8.00 KCAL/MOL
REMARK 923 INTER-LIGAND FREE ENERGY PREDICTED BY IDOCK:   -6.63 KCAL/MOL
REMARK 924 INTRA-LIGAND FREE ENERGY PREDICTED BY IDOCK:   -1.37 KCAL/MOL
REMARK 927      BINDING AFFINITY PREDICTED BY RF-SCORE:    0.00 PKD
ROOT
HETATM    1  C   UNK A   0     -11.015   5.180  73.379  1.00  0.00    -0.381 C  
HETATM    2  C   UNK A   0     -10.283   6.221  74.206  1.00  0.00    -0.335 C  
ENDROOT
BRANCH   2   3
HETATM    3  O   UNK A   0     -10.488   7.533  73.660  1.00  0.00    -0.349 OA 
BRANCH   3   4
HETATM    4  C   UNK A   0      -9.376   8.173  73.195  1.00  0.00    -0.258 C  
HETATM    5  O   UNK A   0      -8.495   8.659  73.895  1.00  0.00    -0.310 OA 
BRANCH   4   6
HETATM    6  C   UNK A   0      -9.368   8.189  71.656  1.00  0.00    -0.174 C  
BRANCH   6   7
HETATM    7  C   UNK A   0      -7.989   7.746  71.136  1.00  0.00    -0.090 C  
BRANCH   7   8
HETATM    8  C   UNK A   0      -7.408   6.497  71.806  1.00  0.00    -0.087 C  
BRANCH   8   9
HETATM    9  C   UNK A   0      -8.088   5.273  71.230  1.00  0.00    -0.114 A  
HETATM   10  C   UNK A   0      -8.990   5.389  70.164  1.00  0.00    -0.157 A  
HETATM   11  C   UNK A   0      -9.538   4.248  69.571  1.00  0.00    -0.274 A  
HETATM   12  C   UNK A   0      -9.187   2.982  70.038  1.00  0.00    -0.216 A  
HETATM   13  C   UNK A   0      -7.743   3.994  71.692  1.00  0.00    -0.065 A  
HETATM   14  C   UNK A   0      -8.293   2.856  71.099  1.00  0.00    -0.086 A  
ENDBRANCH   8   9
ENDBRANCH   7   8
ENDBRANCH   6   7
BRANCH   6  15
ATOM     15  N   ALA A   1      -9.728   9.568  71.205  1.00  0.00    -0.259 NA 
ATOM     16  H   ALA A   1      -8.977   9.969  70.643  1.00  0.00     0.000 HD 
BRANCH  15  17
ATOM     17  CA  ALA A   1     -11.014   9.647  70.483  1.00  0.00    -0.313 C  
ATOM     18  CB  ALA A   1     -12.128  10.176  71.385  1.00  0.00    -0.475 C  
BRANCH  17  19
ATOM     19  C   ALA A   1     -10.905  10.470  69.160  1.00  0.00    -0.237 C  
HETATM   20  C   UNK A   2      -9.412   8.062  66.707  1.00  0.00    -0.202 C  
ATOM     21  O   ALA A   1     -11.183  11.668  69.083  1.00  0.00    -0.230 OA 
HETATM   22  C   UNK A   2      -9.774   9.258  65.825  1.00  0.00    -0.339 C  
HETATM   23  N   UNK A   2     -10.493   9.778  68.022  1.00  0.00    -0.212 N  
HETATM   24  S   UNK A   2     -10.386   6.572  66.248  1.00  0.00     0.347 SA 
HETATM   25  C   UNK A   2      -9.000   5.489  65.821  1.00  0.00    -0.154 C  
HETATM   26  C   UNK A   2     -10.066  10.442  66.775  1.00  0.00    -0.214 C  
HETATM   27  C   UNK A   2      -9.792   8.496  68.129  1.00  0.00    -0.165 C  
HETATM   28  C   UNK A   2     -10.955  11.436  65.989  1.00  0.00    -0.226 C  
HETATM   29  C   UNK A   2      -7.802   5.870  66.666  1.00  0.00    -0.101 C  
HETATM   30  S   UNK A   2      -7.630   7.669  66.589  1.00  0.00    -0.098 SA 
HETATM   31  O   UNK A   2     -11.852  12.136  66.705  1.00  0.00    -0.561 OA 
HETATM   32  O   UNK A   2     -10.796  11.665  64.793  1.00  0.00    -0.297 OA 
ENDBRANCH  17  19
ENDBRANCH  15  17
ENDBRANCH   6  15
ENDBRANCH   4   6
ENDBRANCH   3   4
ENDBRANCH   2   3
TORSDOF 9
ENDMDL
MODEL      165
REMARK 921   NORMALIZED FREE ENERGY PREDICTED BY IDOCK:   -4.34 KCAL/MOL
REMARK 922        TOTAL FREE ENERGY PREDICTED BY IDOCK:   -7.97 KCAL/MOL
REMARK 923 INTER-LIGAND FREE ENERGY PREDICTED BY IDOCK:   -6.88 KCAL/MOL
REMARK 924 INTRA-LIGAND FREE ENERGY PREDICTED BY IDOCK:   -1.09 KCAL/MOL
REMARK 927      BINDING AFFINITY PREDICTED BY RF-SCORE:    0.00 PKD
ROOT
HETATM    1  C   UNK A   0      -9.023   2.665  67.584  1.00  0.00    -0.194 C  
HETATM    2  C   UNK A   0      -8.691   3.762  66.589  1.00  0.00    -0.118 C  
ENDROOT
BRANCH   2   3
HETATM    3  O   UNK A   0      -8.870   5.056  67.188  1.00  0.00    -0.108 OA 
BRANCH   3   4
HETATM    4  C   UNK A   0      -7.734   5.782  67.403  1.00  0.00    -0.097 C  
HETATM    5  O   UNK A   0      -6.676   5.636  66.802  1.00  0.00    -0.054 OA 
BRANCH   4   6
HETATM    6  C   UNK A   0      -7.969   6.831  68.505  1.00  0.00    -0.119 C  
BRANCH   6   7
HETATM    7  C   UNK A   0      -7.322   6.359  69.820  1.00  0.00    -0.080 C  
BRANCH   7   8
HETATM    8  C   UNK A   0      -8.066   5.236  70.548  1.00  0.00    -0.104 C  
BRANCH   8   9
HETATM    9  C   UNK A   0      -8.841   5.833  71.704  1.00  0.00    -0.138 A  
HETATM   10  C   UNK A   0      -8.476   7.073  72.247  1.00  0.00    -0.117 A  
HETATM   11  C   UNK A   0      -9.254   7.666  73.245  1.00  0.00    -0.285 A  
HETATM   12  C   UNK A   0     -10.404   7.027  73.707  1.00  0.00    -0.408 A  
HETATM   13  C   UNK A   0      -9.999   5.200  72.177  1.00  0.00    -0.238 A  
HETATM   14  C   UNK A   0     -10.774   5.794  73.175  1.00  0.00    -0.292 A  
ENDBRANCH   8   9
ENDBRANCH   7   8
ENDBRANCH   6   7
BRANCH   6  15
ATOM     15  N   ALA A   1      -9.442   7.040  68.640  1.00  0.00    -0.136 NA 
ATOM     16  H   ALA A   1      -9.744   6.855  69.597  1.00  0.00     0.000 HD 
BRANCH  15  17
ATOM     17  CA  ALA A   1      -9.902   8.374  68.200  1.00  0.00    -0.169 C  
ATOM     18  CB  ALA A   1     -10.747   8.281  66.931  1.00  0.00    -0.179 C  
BRANCH  17  19
ATOM     19  C   ALA A   1     -10.647   9.151  69.332  1.00  0.00    -0.223 C  
HETATM   20  C   UNK A   2     -10.827  12.670  68.056  1.00  0.00    -0.225 C  
ATOM     21  O   ALA A   1     -10.967   8.640  70.407  1.00  0.00    -0.232 OA 
HETATM   22  C   UNK A   2     -11.700  12.723  69.312  1.00  0.00    -0.376 C  
HETATM   23  N   UNK A   2     -10.973  10.481  69.070  1.00  0.00    -0.227 N  
HETATM   24  S   UNK A   2     -11.815  12.996  66.541  1.00  0.00    -0.396 SA 
HETATM   25  C   UNK A   2     -10.920  14.461  65.969  1.00  0.00    -0.316 C  
HETATM   26  C   UNK A   2     -11.411  11.431  70.110  1.00  0.00    -0.214 C  
HETATM   27  C   UNK A   2     -10.293  11.232  68.012  1.00  0.00    -0.183 C  
HETATM   28  C   UNK A   2     -12.638  11.191  71.025  1.00  0.00    -0.403 C  
HETATM   29  C   UNK A   2      -9.473  14.352  66.402  1.00  0.00    -0.285 C  
HETATM   30  S   UNK A   2      -9.460  13.882  68.149  1.00  0.00    -0.210 SA 
HETATM   31  O   UNK A   2     -12.952   9.909  71.283  1.00  0.00    -0.351 OA 
HETATM   32  O   UNK A   2     -13.240  12.105  71.580  1.00  0.00    -0.406 OA 
ENDBRANCH  17  19
ENDBRANCH  15  17
ENDBRANCH   6  15
ENDBRANCH   4   6
ENDBRANCH   3   4
ENDBRANCH   2   3
TORSDOF 9
ENDMDL
MODEL      166
REMARK 921   NORMALIZED FREE ENERGY PREDICTED BY IDOCK:   -4.34 KCAL/MOL
REMARK 922        TOTAL FREE ENERGY PREDICTED BY IDOCK:   -7.96 KCAL/MOL
REMARK 923 INTER-LIGAND FREE ENERGY PREDICTED BY IDOCK:   -6.75 KCAL/MOL
REMARK 924 INTRA-LIGAND FREE ENERGY PREDICTED BY IDOCK:   -1.22 KCAL/MOL
REMARK 927      BINDING AFFINITY PREDICTED BY RF-SCORE:    0.00 PKD
ROOT
HETATM    1  C   UNK A   0      -8.969   5.199  65.654  1.00  0.00    -0.154 C  
HETATM    2  C   UNK A   0      -8.354   6.407  66.336  1.00  0.00    -0.119 C  
ENDROOT
BRANCH   2   3
HETATM    3  O   UNK A   0      -9.230   7.541  66.237  1.00  0.00    -0.174 OA 
BRANCH   3   4
HETATM    4  C   UNK A   0      -8.849   8.522  65.368  1.00  0.00    -0.130 C  
HETATM    5  O   UNK A   0      -7.823   8.515  64.699  1.00  0.00    -0.115 OA 
BRANCH   4   6
HETATM    6  C   UNK A   0      -9.901   9.645  65.331  1.00  0.00    -0.252 C  
BRANCH   6   7
HETATM    7  C   UNK A   0      -9.421  10.778  64.406  1.00  0.00    -0.300 C  
BRANCH   7   8
HETATM    8  C   UNK A   0     -10.524  11.492  63.619  1.00  0.00    -0.483 C  
BRANCH   8   9
HETATM    9  C   UNK A   0     -11.023  12.667  64.435  1.00  0.00    -0.386 A  
HETATM   10  C   UNK A   0     -12.283  12.631  65.048  1.00  0.00    -0.535 A  
HETATM   11  C   UNK A   0     -12.696  13.675  65.880  1.00  0.00    -0.428 A  
HETATM   12  C   UNK A   0     -11.853  14.761  66.108  1.00  0.00    -0.203 A  
HETATM   13  C   UNK A   0     -10.184  13.766  64.671  1.00  0.00    -0.313 A  
HETATM   14  C   UNK A   0     -10.600  14.807  65.502  1.00  0.00    -0.374 A  
ENDBRANCH   8   9
ENDBRANCH   7   8
ENDBRANCH   6   7
BRANCH   6  15
ATOM     15  N   ALA A   1     -10.128  10.114  66.732  1.00  0.00    -0.210 NA 
ATOM     16  H   ALA A   1     -10.301   9.322  67.352  1.00  0.00     0.000 HD 
BRANCH  15  17
ATOM     17  CA  ALA A   1      -9.042  10.962  67.264  1.00  0.00    -0.141 C  
ATOM     18  CB  ALA A   1      -9.596  12.156  68.040  1.00  0.00    -0.204 C  
BRANCH  17  19
ATOM     19  C   ALA A   1      -8.015  10.149  68.116  1.00  0.00    -0.104 C  
HETATM   20  C   UNK A   2     -10.154   8.098  70.410  1.00  0.00    -0.194 C  
ATOM     21  O   ALA A   1      -6.795  10.305  68.037  1.00  0.00    -0.069 OA 
HETATM   22  C   UNK A   2      -8.753   7.541  70.671  1.00  0.00    -0.141 C  
HETATM   23  N   UNK A   2      -8.538   9.190  68.983  1.00  0.00    -0.131 N  
HETATM   24  S   UNK A   2     -11.253   6.825  69.667  1.00  0.00    -0.270 SA 
HETATM   25  C   UNK A   2     -12.518   6.801  70.961  1.00  0.00    -0.263 C  
HETATM   26  C   UNK A   2      -7.753   8.544  70.052  1.00  0.00    -0.086 C  
HETATM   27  C   UNK A   2      -9.942   9.234  69.399  1.00  0.00    -0.181 C  
HETATM   28  C   UNK A   2      -6.441   7.762  69.794  1.00  0.00    -0.034 C  
HETATM   29  C   UNK A   2     -12.605   8.176  71.588  1.00  0.00    -0.320 C  
HETATM   30  S   UNK A   2     -10.918   8.718  71.952  1.00  0.00    -0.369 SA 
HETATM   31  O   UNK A   2      -5.713   8.145  68.731  1.00  0.00    -0.034 OA 
HETATM   32  O   UNK A   2      -6.018   6.906  70.565  1.00  0.00    -0.026 OA 
ENDBRANCH  17  19
ENDBRANCH  15  17
ENDBRANCH   6  15
ENDBRANCH   4   6
ENDBRANCH   3   4
ENDBRANCH   2   3
TORSDOF 9
ENDMDL
MODEL      167
REMARK 921   NORMALIZED FREE ENERGY PREDICTED BY IDOCK:   -4.32 KCAL/MOL
REMARK 922        TOTAL FREE ENERGY PREDICTED BY IDOCK:   -7.94 KCAL/MOL
REMARK 923 INTER-LIGAND FREE ENERGY PREDICTED BY IDOCK:   -7.44 KCAL/MOL
REMARK 924 INTRA-LIGAND FREE ENERGY PREDICTED BY IDOCK:   -0.50 KCAL/MOL
REMARK 927      BINDING AFFINITY PREDICTED BY RF-SCORE:    0.00 PKD
ROOT
HETATM    1  C   UNK A   0     -11.254   7.651  72.822  1.00  0.00    -0.431 C  
HETATM    2  C   UNK A   0     -10.618   8.768  72.016  1.00  0.00    -0.344 C  
ENDROOT
BRANCH   2   3
HETATM    3  O   UNK A   0     -11.420   9.078  70.865  1.00  0.00    -0.272 OA 
BRANCH   3   4
HETATM    4  C   UNK A   0     -11.811  10.379  70.736  1.00  0.00    -0.368 C  
HETATM    5  O   UNK A   0     -12.614  10.952  71.463  1.00  0.00    -0.384 OA 
BRANCH   4   6
HETATM    6  C   UNK A   0     -11.089  11.042  69.549  1.00  0.00    -0.263 C  
BRANCH   6   7
HETATM    7  C   UNK A   0     -12.122  11.517  68.510  1.00  0.00    -0.159 C  
BRANCH   7   8
HETATM    8  C   UNK A   0     -11.985  12.978  68.072  1.00  0.00    -0.335 C  
BRANCH   8   9
HETATM    9  C   UNK A   0     -11.816  13.021  66.568  1.00  0.00    -0.464 A  
HETATM   10  C   UNK A   0     -11.205  11.961  65.883  1.00  0.00    -0.373 A  
HETATM   11  C   UNK A   0     -11.141  11.961  64.487  1.00  0.00    -0.381 A  
HETATM   12  C   UNK A   0     -11.689  13.019  63.764  1.00  0.00    -0.547 A  
HETATM   13  C   UNK A   0     -12.363  14.080  65.828  1.00  0.00    -0.506 A  
HETATM   14  C   UNK A   0     -12.297  14.078  64.434  1.00  0.00    -0.401 A  
ENDBRANCH   8   9
ENDBRANCH   7   8
ENDBRANCH   6   7
BRANCH   6  15
ATOM     15  N   ALA A   1     -10.126  10.051  68.979  1.00  0.00    -0.189 NA 
ATOM     16  H   ALA A   1     -10.535   9.576  68.174  1.00  0.00     0.000 HD 
BRANCH  15  17
ATOM     17  CA  ALA A   1      -8.811  10.625  68.629  1.00  0.00    -0.151 C  
ATOM     18  CB  ALA A   1      -7.760  10.294  69.687  1.00  0.00    -0.166 C  
BRANCH  17  19
ATOM     19  C   ALA A   1      -8.340  10.207  67.199  1.00  0.00    -0.125 C  
HETATM   20  C   UNK A   2      -8.757   6.484  67.154  1.00  0.00    -0.111 C  
ATOM     21  O   ALA A   1      -7.860  10.999  66.386  1.00  0.00    -0.150 OA 
HETATM   22  C   UNK A   2      -8.409   6.800  65.698  1.00  0.00    -0.147 C  
HETATM   23  N   UNK A   2      -8.507   8.867  66.850  1.00  0.00    -0.111 N  
HETATM   24  S   UNK A   2     -10.456   5.797  67.302  1.00  0.00    -0.281 SA 
HETATM   25  C   UNK A   2     -10.018   4.202  68.037  1.00  0.00     0.063 C  
HETATM   26  C   UNK A   2      -7.869   8.248  65.673  1.00  0.00    -0.104 C  
HETATM   27  C   UNK A   2      -8.695   7.837  67.874  1.00  0.00    -0.124 C  
HETATM   28  C   UNK A   2      -8.056   8.767  64.227  1.00  0.00    -0.157 C  
HETATM   29  C   UNK A   2      -8.765   4.373  68.870  1.00  0.00    -0.086 C  
HETATM   30  S   UNK A   2      -7.569   5.294  67.875  1.00  0.00    -0.084 SA 
HETATM   31  O   UNK A   2      -8.306  10.081  64.089  1.00  0.00    -0.148 OA 
HETATM   32  O   UNK A   2      -7.886   8.058  63.240  1.00  0.00    -0.136 OA 
ENDBRANCH  17  19
ENDBRANCH  15  17
ENDBRANCH   6  15
ENDBRANCH   4   6
ENDBRANCH   3   4
ENDBRANCH   2   3
TORSDOF 9
ENDMDL
MODEL      168
REMARK 921   NORMALIZED FREE ENERGY PREDICTED BY IDOCK:   -4.31 KCAL/MOL
REMARK 922        TOTAL FREE ENERGY PREDICTED BY IDOCK:   -7.92 KCAL/MOL
REMARK 923 INTER-LIGAND FREE ENERGY PREDICTED BY IDOCK:   -7.77 KCAL/MOL
REMARK 924 INTRA-LIGAND FREE ENERGY PREDICTED BY IDOCK:   -0.15 KCAL/MOL
REMARK 927      BINDING AFFINITY PREDICTED BY RF-SCORE:    0.00 PKD
ROOT
HETATM    1  C   UNK A   0     -13.006  10.481  71.197  1.00  0.00    -0.506 C  
HETATM    2  C   UNK A   0     -12.065  11.548  70.671  1.00  0.00    -0.353 C  
ENDROOT
BRANCH   2   3
HETATM    3  O   UNK A   0     -11.072  10.965  69.812  1.00  0.00    -0.258 OA 
BRANCH   3   4
HETATM    4  C   UNK A   0     -11.095  11.366  68.507  1.00  0.00    -0.235 C  
HETATM    5  O   UNK A   0     -12.100  11.449  67.810  1.00  0.00    -0.637 OA 
BRANCH   4   6
HETATM    6  C   UNK A   0      -9.675  11.716  68.027  1.00  0.00    -0.182 C  
BRANCH   6   7
HETATM    7  C   UNK A   0      -9.746  12.807  66.943  1.00  0.00    -0.234 C  
BRANCH   7   8
HETATM    8  C   UNK A   0      -8.686  13.907  67.050  1.00  0.00    -0.215 C  
BRANCH   8   9
HETATM    9  C   UNK A   0      -9.383  15.248  67.145  1.00  0.00    -0.227 A  
HETATM   10  C   UNK A   0      -9.830  15.739  68.380  1.00  0.00    -0.206 A  
HETATM   11  C   UNK A   0     -10.382  17.019  68.476  1.00  0.00    -0.359 A  
HETATM   12  C   UNK A   0     -10.491  17.819  67.339  1.00  0.00    -0.367 A  
HETATM   13  C   UNK A   0      -9.499  16.062  66.009  1.00  0.00    -0.384 A  
HETATM   14  C   UNK A   0     -10.052  17.340  66.108  1.00  0.00    -0.312 A  
ENDBRANCH   8   9
ENDBRANCH   7   8
ENDBRANCH   6   7
BRANCH   6  15
ATOM     15  N   ALA A   1      -9.031  10.462  67.530  1.00  0.00    -0.135 NA 
ATOM     16  H   ALA A   1      -8.685   9.904  68.310  1.00  0.00     0.000 HD 
BRANCH  15  17
ATOM     17  CA  ALA A   1      -9.899   9.649  66.655  1.00  0.00    -0.224 C  
ATOM     18  CB  ALA A   1      -9.983  10.241  65.249  1.00  0.00    -0.387 C  
BRANCH  17  19
ATOM     19  C   ALA A   1      -9.470   8.147  66.621  1.00  0.00    -0.213 C  
HETATM   20  C   UNK A   2     -10.376   6.864  70.024  1.00  0.00    -0.200 C  
ATOM     21  O   ALA A   1      -8.881   7.632  65.669  1.00  0.00    -0.140 OA 
HETATM   22  C   UNK A   2      -9.973   5.589  69.281  1.00  0.00    -0.263 C  
HETATM   23  N   UNK A   2      -9.810   7.372  67.731  1.00  0.00    -0.146 N  
HETATM   24  S   UNK A   2     -12.153   6.830  70.496  1.00  0.00    -0.148 SA 
HETATM   25  C   UNK A   2     -11.938   6.969  72.288  1.00  0.00    -0.211 C  
HETATM   26  C   UNK A   2      -9.246   6.035  67.992  1.00  0.00    -0.115 C  
HETATM   27  C   UNK A   2     -10.144   7.996  69.014  1.00  0.00    -0.201 C  
HETATM   28  C   UNK A   2      -9.346   4.855  66.994  1.00  0.00    -0.129 C  
HETATM   29  C   UNK A   2     -10.684   7.768  72.571  1.00  0.00    -0.314 C  
HETATM   30  S   UNK A   2      -9.364   7.101  71.529  1.00  0.00    -0.152 SA 
HETATM   31  O   UNK A   2      -9.418   5.176  65.691  1.00  0.00    -0.160 OA 
HETATM   32  O   UNK A   2      -9.260   3.681  67.344  1.00  0.00    -0.158 OA 
ENDBRANCH  17  19
ENDBRANCH  15  17
ENDBRANCH   6  15
ENDBRANCH   4   6
ENDBRANCH   3   4
ENDBRANCH   2   3
TORSDOF 9
ENDMDL
MODEL      169
REMARK 921   NORMALIZED FREE ENERGY PREDICTED BY IDOCK:   -4.30 KCAL/MOL
REMARK 922        TOTAL FREE ENERGY PREDICTED BY IDOCK:   -7.91 KCAL/MOL
REMARK 923 INTER-LIGAND FREE ENERGY PREDICTED BY IDOCK:   -8.01 KCAL/MOL
REMARK 924 INTRA-LIGAND FREE ENERGY PREDICTED BY IDOCK:    0.09 KCAL/MOL
REMARK 927      BINDING AFFINITY PREDICTED BY RF-SCORE:    0.00 PKD
ROOT
HETATM    1  C   UNK A   0     -11.980  12.475  65.111  1.00  0.00    -0.484 C  
HETATM    2  C   UNK A   0     -10.620  12.972  65.562  1.00  0.00    -0.282 C  
ENDROOT
BRANCH   2   3
HETATM    3  O   UNK A   0      -9.879  11.912  66.187  1.00  0.00    -0.220 OA 
BRANCH   3   4
HETATM    4  C   UNK A   0      -9.592  12.078  67.511  1.00  0.00    -0.177 C  
HETATM    5  O   UNK A   0      -8.825  12.917  67.970  1.00  0.00    -0.180 OA 
BRANCH   4   6
HETATM    6  C   UNK A   0     -10.382  11.068  68.363  1.00  0.00    -0.183 C  
BRANCH   6   7
HETATM    7  C   UNK A   0     -11.664  11.729  68.900  1.00  0.00    -0.384 C  
BRANCH   7   8
HETATM    8  C   UNK A   0     -11.628  13.257  68.981  1.00  0.00    -0.359 C  
BRANCH   8   9
HETATM    9  C   UNK A   0     -12.393  13.699  70.211  1.00  0.00    -0.392 A  
HETATM   10  C   UNK A   0     -12.828  15.024  70.348  1.00  0.00    -0.332 A  
HETATM   11  C   UNK A   0     -13.618  15.402  71.437  1.00  0.00    -0.604 A  
HETATM   12  C   UNK A   0     -13.983  14.458  72.396  1.00  0.00    -0.585 A  
HETATM   13  C   UNK A   0     -12.765  12.759  71.183  1.00  0.00    -0.355 A  
HETATM   14  C   UNK A   0     -13.555  13.139  72.270  1.00  0.00    -0.677 A  
ENDBRANCH   8   9
ENDBRANCH   7   8
ENDBRANCH   6   7
BRANCH   6  15
ATOM     15  N   ALA A   1      -9.488  10.588  69.461  1.00  0.00    -0.399 NA 
ATOM     16  H   ALA A   1      -9.952   9.864  70.010  1.00  0.00     0.000 HD 
BRANCH  15  17
ATOM     17  CA  ALA A   1      -8.166  10.120  68.997  1.00  0.00    -0.132 C  
ATOM     18  CB  ALA A   1      -7.135  10.156  70.124  1.00  0.00    -0.162 C  
BRANCH  17  19
ATOM     19  C   ALA A   1      -8.235   8.711  68.325  1.00  0.00    -0.122 C  
HETATM   20  C   UNK A   2      -9.247   6.421  71.114  1.00  0.00    -0.156 C  
ATOM     21  O   ALA A   1      -7.909   8.501  67.156  1.00  0.00    -0.096 OA 
HETATM   22  C   UNK A   2      -9.321   5.509  69.888  1.00  0.00    -0.186 C  
HETATM   23  N   UNK A   2      -8.719   7.665  69.111  1.00  0.00    -0.139 N  
HETATM   24  S   UNK A   2     -10.905   6.656  71.874  1.00  0.00    -0.245 SA 
HETATM   25  C   UNK A   2     -10.527   5.983  73.511  1.00  0.00    -0.262 C  
HETATM   26  C   UNK A   2      -8.586   6.242  68.743  1.00  0.00    -0.122 C  
HETATM   27  C   UNK A   2      -8.745   7.766  70.572  1.00  0.00    -0.140 C  
HETATM   28  C   UNK A   2      -9.124   5.649  67.418  1.00  0.00    -0.110 C  
HETATM   29  C   UNK A   2      -9.068   6.240  73.822  1.00  0.00    -0.129 C  
HETATM   30  S   UNK A   2      -8.105   5.746  72.373  1.00  0.00    -0.107 SA 
HETATM   31  O   UNK A   2      -9.187   6.485  66.367  1.00  0.00    -0.155 OA 
HETATM   32  O   UNK A   2      -9.386   4.457  67.283  1.00  0.00    -0.133 OA 
ENDBRANCH  17  19
ENDBRANCH  15  17
ENDBRANCH   6  15
ENDBRANCH   4   6
ENDBRANCH   3   4
ENDBRANCH   2   3
TORSDOF 9
ENDMDL
MODEL      170
REMARK 921   NORMALIZED FREE ENERGY PREDICTED BY IDOCK:   -4.30 KCAL/MOL
REMARK 922        TOTAL FREE ENERGY PREDICTED BY IDOCK:   -7.91 KCAL/MOL
REMARK 923 INTER-LIGAND FREE ENERGY PREDICTED BY IDOCK:   -7.89 KCAL/MOL
REMARK 924 INTRA-LIGAND FREE ENERGY PREDICTED BY IDOCK:   -0.03 KCAL/MOL
REMARK 927      BINDING AFFINITY PREDICTED BY RF-SCORE:    0.00 PKD
ROOT
HETATM    1  C   UNK A   0     -11.319   9.838  70.521  1.00  0.00    -0.382 C  
HETATM    2  C   UNK A   0     -11.278  11.227  69.913  1.00  0.00    -0.187 C  
ENDROOT
BRANCH   2   3
HETATM    3  O   UNK A   0     -10.359  11.266  68.809  1.00  0.00    -0.195 OA 
BRANCH   3   4
HETATM    4  C   UNK A   0     -10.900  11.532  67.585  1.00  0.00    -0.227 C  
HETATM    5  O   UNK A   0     -11.937  11.045  67.148  1.00  0.00    -0.243 OA 
BRANCH   4   6
HETATM    6  C   UNK A   0     -10.031  12.549  66.822  1.00  0.00    -0.228 C  
BRANCH   6   7
HETATM    7  C   UNK A   0     -10.932  13.569  66.104  1.00  0.00    -0.289 C  
BRANCH   7   8
HETATM    8  C   UNK A   0     -12.123  14.080  66.919  1.00  0.00    -0.465 C  
BRANCH   8   9
HETATM    9  C   UNK A   0     -11.602  14.885  68.092  1.00  0.00    -0.356 A  
HETATM   10  C   UNK A   0     -10.818  16.028  67.885  1.00  0.00    -0.333 A  
HETATM   11  C   UNK A   0     -10.424  16.823  68.965  1.00  0.00    -0.336 A  
HETATM   12  C   UNK A   0     -10.812  16.482  70.260  1.00  0.00    -0.156 A  
HETATM   13  C   UNK A   0     -11.985  14.552  69.399  1.00  0.00    -0.362 A  
HETATM   14  C   UNK A   0     -11.589  15.347  70.476  1.00  0.00    -0.355 A  
ENDBRANCH   8   9
ENDBRANCH   7   8
ENDBRANCH   6   7
BRANCH   6  15
ATOM     15  N   ALA A   1      -9.159  11.793  65.872  1.00  0.00    -0.367 NA 
ATOM     16  H   ALA A   1      -8.449  11.265  66.380  1.00  0.00     0.000 HD 
BRANCH  15  17
ATOM     17  CA  ALA A   1      -9.902  10.910  64.950  1.00  0.00    -0.284 C  
ATOM     18  CB  ALA A   1     -10.583  11.710  63.841  1.00  0.00    -0.446 C  
BRANCH  17  19
ATOM     19  C   ALA A   1      -9.008   9.767  64.370  1.00  0.00    -0.245 C  
HETATM   20  C   UNK A   2      -9.241   7.040  66.930  1.00  0.00    -0.150 C  
ATOM     21  O   ALA A   1      -8.340   9.886  63.341  1.00  0.00    -0.143 OA 
HETATM   22  C   UNK A   2      -8.487   6.361  65.784  1.00  0.00    -0.148 C  
HETATM   23  N   UNK A   2      -9.009   8.557  65.063  1.00  0.00    -0.418 N  
HETATM   24  S   UNK A   2     -10.877   6.251  67.214  1.00  0.00    -0.378 SA 
HETATM   25  C   UNK A   2     -10.613   5.740  68.930  1.00  0.00    -0.267 C  
HETATM   26  C   UNK A   2      -8.023   7.484  64.828  1.00  0.00    -0.132 C  
HETATM   27  C   UNK A   2      -9.452   8.485  66.458  1.00  0.00    -0.218 C  
HETATM   28  C   UNK A   2      -7.791   6.825  63.447  1.00  0.00    -0.107 C  
HETATM   29  C   UNK A   2      -9.675   6.725  69.596  1.00  0.00    -0.155 C  
HETATM   30  S   UNK A   2      -8.275   6.984  68.481  1.00  0.00    -0.125 SA 
HETATM   31  O   UNK A   2      -8.041   7.587  62.368  1.00  0.00    -0.138 OA 
HETATM   32  O   UNK A   2      -7.305   5.705  63.320  1.00  0.00    -0.052 OA 
ENDBRANCH  17  19
ENDBRANCH  15  17
ENDBRANCH   6  15
ENDBRANCH   4   6
ENDBRANCH   3   4
ENDBRANCH   2   3
TORSDOF 9
ENDMDL
MODEL      171
REMARK 921   NORMALIZED FREE ENERGY PREDICTED BY IDOCK:   -4.30 KCAL/MOL
REMARK 922        TOTAL FREE ENERGY PREDICTED BY IDOCK:   -7.91 KCAL/MOL
REMARK 923 INTER-LIGAND FREE ENERGY PREDICTED BY IDOCK:   -6.75 KCAL/MOL
REMARK 924 INTRA-LIGAND FREE ENERGY PREDICTED BY IDOCK:   -1.17 KCAL/MOL
REMARK 927      BINDING AFFINITY PREDICTED BY RF-SCORE:    0.00 PKD
ROOT
HETATM    1  C   UNK A   0      -9.834  20.572  66.762  1.00  0.00    -0.460 C  
HETATM    2  C   UNK A   0      -8.551  19.787  66.561  1.00  0.00    -0.354 C  
ENDROOT
BRANCH   2   3
HETATM    3  O   UNK A   0      -8.208  19.067  67.756  1.00  0.00    -0.267 OA 
BRANCH   3   4
HETATM    4  C   UNK A   0      -9.163  18.224  68.244  1.00  0.00    -0.309 C  
HETATM    5  O   UNK A   0     -10.059  18.540  69.018  1.00  0.00    -0.384 OA 
BRANCH   4   6
HETATM    6  C   UNK A   0      -8.971  16.806  67.674  1.00  0.00    -0.210 C  
BRANCH   6   7
HETATM    7  C   UNK A   0     -10.326  16.244  67.207  1.00  0.00    -0.285 C  
BRANCH   7   8
HETATM    8  C   UNK A   0     -10.446  15.993  65.701  1.00  0.00    -0.416 C  
BRANCH   8   9
HETATM    9  C   UNK A   0     -11.085  14.637  65.483  1.00  0.00    -0.345 A  
HETATM   10  C   UNK A   0     -11.545  14.257  64.214  1.00  0.00    -0.299 A  
HETATM   11  C   UNK A   0     -12.042  12.970  63.996  1.00  0.00    -0.519 A  
HETATM   12  C   UNK A   0     -12.081  12.050  65.044  1.00  0.00    -0.204 A  
HETATM   13  C   UNK A   0     -11.131  13.704  66.528  1.00  0.00    -0.310 A  
HETATM   14  C   UNK A   0     -11.628  12.418  66.308  1.00  0.00    -0.449 A  
ENDBRANCH   8   9
ENDBRANCH   7   8
ENDBRANCH   6   7
BRANCH   6  15
ATOM     15  N   ALA A   1      -8.341  15.962  68.734  1.00  0.00    -0.191 NA 
ATOM     16  H   ALA A   1      -9.041  15.377  69.189  1.00  0.00     0.000 HD 
BRANCH  15  17
ATOM     17  CA  ALA A   1      -7.212  15.139  68.253  1.00  0.00    -0.110 C  
ATOM     18  CB  ALA A   1      -5.995  16.003  67.922  1.00  0.00    -0.150 C  
BRANCH  17  19
ATOM     19  C   ALA A   1      -6.847  13.989  69.245  1.00  0.00    -0.105 C  
HETATM   20  C   UNK A   2      -6.992  10.891  67.142  1.00  0.00    -0.098 C  
ATOM     21  O   ALA A   1      -6.671  14.166  70.452  1.00  0.00    -0.031 OA 
HETATM   22  C   UNK A   2      -6.412  10.375  68.460  1.00  0.00    -0.051 C  
HETATM   23  N   UNK A   2      -6.698  12.714  68.700  1.00  0.00    -0.082 N  
HETATM   24  S   UNK A   2      -5.786  10.717  65.766  1.00  0.00    -0.144 SA 
HETATM   25  C   UNK A   2      -6.775   9.638  64.701  1.00  0.00    -0.101 C  
HETATM   26  C   UNK A   2      -6.640  11.484  69.512  1.00  0.00    -0.120 C  
HETATM   27  C   UNK A   2      -7.263  12.381  67.391  1.00  0.00    -0.148 C  
HETATM   28  C   UNK A   2      -5.601  11.250  70.637  1.00  0.00    -0.133 C  
HETATM   29  C   UNK A   2      -8.241   9.946  64.918  1.00  0.00    -0.146 C  
HETATM   30  S   UNK A   2      -8.529  10.002  66.703  1.00  0.00    -0.126 SA 
HETATM   31  O   UNK A   2      -5.140  12.346  71.265  1.00  0.00    -0.137 OA 
HETATM   32  O   UNK A   2      -5.281  10.129  71.021  1.00  0.00    -0.060 OA 
ENDBRANCH  17  19
ENDBRANCH  15  17
ENDBRANCH   6  15
ENDBRANCH   4   6
ENDBRANCH   3   4
ENDBRANCH   2   3
TORSDOF 9
ENDMDL
MODEL      172
REMARK 921   NORMALIZED FREE ENERGY PREDICTED BY IDOCK:   -4.28 KCAL/MOL
REMARK 922        TOTAL FREE ENERGY PREDICTED BY IDOCK:   -7.88 KCAL/MOL
REMARK 923 INTER-LIGAND FREE ENERGY PREDICTED BY IDOCK:   -8.20 KCAL/MOL
REMARK 924 INTRA-LIGAND FREE ENERGY PREDICTED BY IDOCK:    0.32 KCAL/MOL
REMARK 927      BINDING AFFINITY PREDICTED BY RF-SCORE:    0.00 PKD
ROOT
HETATM    1  C   UNK A   0     -13.823  13.686  72.279  1.00  0.00    -0.689 C  
HETATM    2  C   UNK A   0     -12.861  14.349  71.310  1.00  0.00    -0.342 C  
ENDROOT
BRANCH   2   3
HETATM    3  O   UNK A   0     -11.944  13.383  70.773  1.00  0.00    -0.297 OA 
BRANCH   3   4
HETATM    4  C   UNK A   0     -12.240  12.898  69.532  1.00  0.00    -0.119 C  
HETATM    5  O   UNK A   0     -12.263  13.559  68.500  1.00  0.00    -0.320 OA 
BRANCH   4   6
HETATM    6  C   UNK A   0     -12.531  11.387  69.601  1.00  0.00    -0.067 C  
BRANCH   6   7
HETATM    7  C   UNK A   0     -12.112  10.839  70.977  1.00  0.00    -0.452 C  
BRANCH   7   8
HETATM    8  C   UNK A   0     -12.998   9.721  71.533  1.00  0.00    -0.504 C  
BRANCH   8   9
HETATM    9  C   UNK A   0     -12.170   8.460  71.661  1.00  0.00    -0.358 A  
HETATM   10  C   UNK A   0     -11.423   8.206  72.819  1.00  0.00    -0.397 A  
HETATM   11  C   UNK A   0     -10.741   6.996  72.973  1.00  0.00    -0.337 A  
HETATM   12  C   UNK A   0     -10.803   6.028  71.972  1.00  0.00    -0.300 A  
HETATM   13  C   UNK A   0     -12.225   7.478  70.660  1.00  0.00    -0.068 A  
HETATM   14  C   UNK A   0     -11.542   6.270  70.816  1.00  0.00    -0.347 A  
ENDBRANCH   8   9
ENDBRANCH   7   8
ENDBRANCH   6   7
BRANCH   6  15
ATOM     15  N   ALA A   1     -11.800  10.723  68.479  1.00  0.00    -0.718 NA 
ATOM     16  H   ALA A   1     -12.356  10.751  67.623  1.00  0.00     0.000 HD 
BRANCH  15  17
ATOM     17  CA  ALA A   1     -10.448  11.267  68.238  1.00  0.00    -0.196 C  
ATOM     18  CB  ALA A   1      -9.402  10.558  69.097  1.00  0.00    -0.200 C  
BRANCH  17  19
ATOM     19  C   ALA A   1     -10.059  11.247  66.725  1.00  0.00    -0.219 C  
HETATM   20  C   UNK A   2      -8.478   7.885  66.234  1.00  0.00    -0.135 C  
ATOM     21  O   ALA A   1     -10.196  12.217  65.978  1.00  0.00    -0.233 OA 
HETATM   22  C   UNK A   2      -8.579   8.420  64.804  1.00  0.00    -0.077 C  
HETATM   23  N   UNK A   2      -9.557  10.047  66.222  1.00  0.00    -0.189 N  
HETATM   24  S   UNK A   2      -9.523   6.390  66.464  1.00  0.00    -0.133 SA 
HETATM   25  C   UNK A   2      -8.210   5.237  66.933  1.00  0.00    -0.108 C  
HETATM   26  C   UNK A   2      -8.882   9.932  64.915  1.00  0.00    -0.193 C  
HETATM   27  C   UNK A   2      -9.017   9.019  67.115  1.00  0.00    -0.130 C  
HETATM   28  C   UNK A   2      -9.537  10.353  63.576  1.00  0.00    -0.310 C  
HETATM   29  C   UNK A   2      -7.118   6.003  67.649  1.00  0.00    -0.074 C  
HETATM   30  S   UNK A   2      -6.749   7.475  66.666  1.00  0.00    -0.059 SA 
HETATM   31  O   UNK A   2     -10.452  11.336  63.638  1.00  0.00    -0.353 OA 
HETATM   32  O   UNK A   2      -9.179   9.901  62.492  1.00  0.00    -0.278 OA 
ENDBRANCH  17  19
ENDBRANCH  15  17
ENDBRANCH   6  15
ENDBRANCH   4   6
ENDBRANCH   3   4
ENDBRANCH   2   3
TORSDOF 9
ENDMDL
MODEL      173
REMARK 921   NORMALIZED FREE ENERGY PREDICTED BY IDOCK:   -4.25 KCAL/MOL
REMARK 922        TOTAL FREE ENERGY PREDICTED BY IDOCK:   -7.83 KCAL/MOL
REMARK 923 INTER-LIGAND FREE ENERGY PREDICTED BY IDOCK:   -6.52 KCAL/MOL
REMARK 924 INTRA-LIGAND FREE ENERGY PREDICTED BY IDOCK:   -1.31 KCAL/MOL
REMARK 927      BINDING AFFINITY PREDICTED BY RF-SCORE:    0.00 PKD
ROOT
HETATM    1  C   UNK A   0      -7.879   4.375  70.837  1.00  0.00    -0.067 C  
HETATM    2  C   UNK A   0      -8.627   5.607  70.364  1.00  0.00    -0.132 C  
ENDROOT
BRANCH   2   3
HETATM    3  O   UNK A   0      -8.139   6.032  69.082  1.00  0.00    -0.108 OA 
BRANCH   3   4
HETATM    4  C   UNK A   0      -7.549   7.262  69.039  1.00  0.00    -0.099 C  
HETATM    5  O   UNK A   0      -6.707   7.671  69.829  1.00  0.00    -0.038 OA 
BRANCH   4   6
HETATM    6  C   UNK A   0      -8.081   8.071  67.842  1.00  0.00    -0.129 C  
BRANCH   6   7
HETATM    7  C   UNK A   0      -6.958   8.272  66.809  1.00  0.00    -0.070 C  
BRANCH   7   8
HETATM    8  C   UNK A   0      -6.822   9.694  66.258  1.00  0.00    -0.091 C  
BRANCH   8   9
HETATM    9  C   UNK A   0      -7.572   9.782  64.945  1.00  0.00    -0.128 A  
HETATM   10  C   UNK A   0      -8.762  10.517  64.847  1.00  0.00    -0.192 A  
HETATM   11  C   UNK A   0      -9.397  10.678  63.613  1.00  0.00    -0.315 A  
HETATM   12  C   UNK A   0      -8.846  10.108  62.465  1.00  0.00    -0.254 A  
HETATM   13  C   UNK A   0      -7.028   9.214  63.784  1.00  0.00    -0.089 A  
HETATM   14  C   UNK A   0      -7.665   9.375  62.552  1.00  0.00    -0.116 A  
ENDBRANCH   8   9
ENDBRANCH   7   8
ENDBRANCH   6   7
BRANCH   6  15
ATOM     15  N   ALA A   1      -8.614   9.368  68.360  1.00  0.00    -0.123 NA 
ATOM     16  H   ALA A   1      -8.132  10.153  67.923  1.00  0.00     0.000 HD 
BRANCH  15  17
ATOM     17  CA  ALA A   1     -10.077   9.515  68.217  1.00  0.00    -0.183 C  
ATOM     18  CB  ALA A   1     -10.785   8.165  68.328  1.00  0.00    -0.073 C  
BRANCH  17  19
ATOM     19  C   ALA A   1     -10.672  10.559  69.216  1.00  0.00    -0.234 C  
HETATM   20  C   UNK A   2     -11.285  13.593  67.103  1.00  0.00    -0.309 C  
ATOM     21  O   ALA A   1     -10.775  10.356  70.426  1.00  0.00    -0.269 OA 
HETATM   22  C   UNK A   2     -11.938  13.973  68.433  1.00  0.00    -0.378 C  
HETATM   23  N   UNK A   2     -11.120  11.762  68.671  1.00  0.00    -0.220 N  
HETATM   24  S   UNK A   2     -12.530  13.477  65.755  1.00  0.00    -0.438 SA 
HETATM   25  C   UNK A   2     -11.838  14.745  64.665  1.00  0.00    -0.436 C  
HETATM   26  C   UNK A   2     -11.439  12.953  69.482  1.00  0.00    -0.225 C  
HETATM   27  C   UNK A   2     -10.676  12.206  67.348  1.00  0.00    -0.234 C  
HETATM   28  C   UNK A   2     -12.478  12.952  70.630  1.00  0.00    -0.252 C  
HETATM   29  C   UNK A   2     -10.335  14.780  64.848  1.00  0.00    -0.332 C  
HETATM   30  S   UNK A   2     -10.001  14.805  66.625  1.00  0.00    -0.274 SA 
HETATM   31  O   UNK A   2     -12.663  11.785  71.272  1.00  0.00    -0.387 OA 
HETATM   32  O   UNK A   2     -13.036  13.973  71.020  1.00  0.00    -0.329 OA 
ENDBRANCH  17  19
ENDBRANCH  15  17
ENDBRANCH   6  15
ENDBRANCH   4   6
ENDBRANCH   3   4
ENDBRANCH   2   3
TORSDOF 9
ENDMDL
MODEL      174
REMARK 921   NORMALIZED FREE ENERGY PREDICTED BY IDOCK:   -4.23 KCAL/MOL
REMARK 922        TOTAL FREE ENERGY PREDICTED BY IDOCK:   -7.80 KCAL/MOL
REMARK 923 INTER-LIGAND FREE ENERGY PREDICTED BY IDOCK:   -6.92 KCAL/MOL
REMARK 924 INTRA-LIGAND FREE ENERGY PREDICTED BY IDOCK:   -0.88 KCAL/MOL
REMARK 927      BINDING AFFINITY PREDICTED BY RF-SCORE:    0.00 PKD
ROOT
HETATM    1  C   UNK A   0     -13.441   7.259  71.645  1.00  0.00    -0.428 C  
HETATM    2  C   UNK A   0     -12.405   8.319  71.967  1.00  0.00    -0.349 C  
ENDROOT
BRANCH   2   3
HETATM    3  O   UNK A   0     -12.021   9.025  70.776  1.00  0.00    -0.264 OA 
BRANCH   3   4
HETATM    4  C   UNK A   0     -10.712   8.913  70.406  1.00  0.00    -0.227 C  
HETATM    5  O   UNK A   0      -9.789   9.581  70.858  1.00  0.00    -0.275 OA 
BRANCH   4   6
HETATM    6  C   UNK A   0     -10.547   7.812  69.342  1.00  0.00    -0.208 C  
BRANCH   6   7
HETATM    7  C   UNK A   0      -9.300   6.965  69.658  1.00  0.00    -0.145 C  
BRANCH   7   8
HETATM    8  C   UNK A   0      -9.584   5.563  70.205  1.00  0.00    -0.223 C  
BRANCH   8   9
HETATM    9  C   UNK A   0      -9.885   5.668  71.685  1.00  0.00    -0.213 A  
HETATM   10  C   UNK A   0     -10.860   4.854  72.278  1.00  0.00    -0.172 A  
HETATM   11  C   UNK A   0     -11.063   4.884  73.660  1.00  0.00    -0.370 A  
HETATM   12  C   UNK A   0     -10.293   5.725  74.461  1.00  0.00    -0.245 A  
HETATM   13  C   UNK A   0      -9.116   6.511  72.501  1.00  0.00    -0.137 A  
HETATM   14  C   UNK A   0      -9.323   6.539  73.882  1.00  0.00    -0.184 A  
ENDBRANCH   8   9
ENDBRANCH   7   8
ENDBRANCH   6   7
BRANCH   6  15
ATOM     15  N   ALA A   1     -10.460   8.471  68.003  1.00  0.00    -0.332 NA 
ATOM     16  H   ALA A   1     -10.756   9.445  68.063  1.00  0.00     0.000 HD 
BRANCH  15  17
ATOM     17  CA  ALA A   1      -9.129   8.371  67.371  1.00  0.00    -0.137 C  
ATOM     18  CB  ALA A   1      -9.240   7.970  65.901  1.00  0.00    -0.128 C  
BRANCH  17  19
ATOM     19  C   ALA A   1      -8.286   9.674  67.549  1.00  0.00    -0.114 C  
HETATM   20  C   UNK A   2     -10.414  12.354  66.022  1.00  0.00    -0.254 C  
ATOM     21  O   ALA A   1      -7.143   9.683  68.011  1.00  0.00    -0.078 OA 
HETATM   22  C   UNK A   2      -9.279  13.153  66.665  1.00  0.00    -0.220 C  
HETATM   23  N   UNK A   2      -8.896  10.872  67.179  1.00  0.00    -0.135 N  
HETATM   24  S   UNK A   2     -12.031  12.735  66.811  1.00  0.00    -0.231 SA 
HETATM   25  C   UNK A   2     -12.886  13.355  65.341  1.00  0.00    -0.326 C  
HETATM   26  C   UNK A   2      -8.163  12.141  67.012  1.00  0.00    -0.164 C  
HETATM   27  C   UNK A   2     -10.057  10.885  66.287  1.00  0.00    -0.233 C  
HETATM   28  C   UNK A   2      -7.308  12.788  68.130  1.00  0.00    -0.118 C  
HETATM   29  C   UNK A   2     -12.335  12.649  64.120  1.00  0.00    -0.436 C  
HETATM   30  S   UNK A   2     -10.530  12.696  64.229  1.00  0.00    -0.395 SA 
HETATM   31  O   UNK A   2      -6.760  11.950  69.027  1.00  0.00    -0.086 OA 
HETATM   32  O   UNK A   2      -7.046  13.987  68.154  1.00  0.00    -0.097 OA 
ENDBRANCH  17  19
ENDBRANCH  15  17
ENDBRANCH   6  15
ENDBRANCH   4   6
ENDBRANCH   3   4
ENDBRANCH   2   3
TORSDOF 9
ENDMDL
MODEL      175
REMARK 921   NORMALIZED FREE ENERGY PREDICTED BY IDOCK:   -4.23 KCAL/MOL
REMARK 922        TOTAL FREE ENERGY PREDICTED BY IDOCK:   -7.80 KCAL/MOL
REMARK 923 INTER-LIGAND FREE ENERGY PREDICTED BY IDOCK:   -6.08 KCAL/MOL
REMARK 924 INTRA-LIGAND FREE ENERGY PREDICTED BY IDOCK:   -1.72 KCAL/MOL
REMARK 927      BINDING AFFINITY PREDICTED BY RF-SCORE:    0.00 PKD
ROOT
HETATM    1  C   UNK A   0      -7.218   6.319  70.961  1.00  0.00    -0.075 C  
HETATM    2  C   UNK A   0      -7.645   7.604  71.646  1.00  0.00    -0.085 C  
ENDROOT
BRANCH   2   3
HETATM    3  O   UNK A   0      -8.465   8.393  70.769  1.00  0.00    -0.121 OA 
BRANCH   3   4
HETATM    4  C   UNK A   0      -7.803   9.210  69.899  1.00  0.00    -0.091 C  
HETATM    5  O   UNK A   0      -6.627   9.539  69.993  1.00  0.00    -0.052 OA 
BRANCH   4   6
HETATM    6  C   UNK A   0      -8.741   9.657  68.762  1.00  0.00    -0.126 C  
BRANCH   6   7
HETATM    7  C   UNK A   0      -9.433   8.429  68.144  1.00  0.00    -0.148 C  
BRANCH   7   8
HETATM    8  C   UNK A   0      -8.593   7.645  67.131  1.00  0.00    -0.121 C  
BRANCH   8   9
HETATM    9  C   UNK A   0      -8.616   6.179  67.510  1.00  0.00    -0.106 A  
HETATM   10  C   UNK A   0      -7.487   5.371  67.314  1.00  0.00    -0.084 A  
HETATM   11  C   UNK A   0      -7.480   4.045  67.756  1.00  0.00    -0.068 A  
HETATM   12  C   UNK A   0      -8.598   3.517  68.400  1.00  0.00    -0.118 A  
HETATM   13  C   UNK A   0      -9.735   5.637  68.158  1.00  0.00    -0.153 A  
HETATM   14  C   UNK A   0      -9.725   4.312  68.598  1.00  0.00    -0.174 A  
ENDBRANCH   8   9
ENDBRANCH   7   8
ENDBRANCH   6   7
BRANCH   6  15
ATOM     15  N   ALA A   1      -7.929  10.414  67.762  1.00  0.00    -0.102 NA 
ATOM     16  H   ALA A   1      -8.034  10.007  66.833  1.00  0.00     0.000 HD 
BRANCH  15  17
ATOM     17  CA  ALA A   1      -8.216  11.863  67.728  1.00  0.00    -0.148 C  
ATOM     18  CB  ALA A   1      -7.025  12.655  67.192  1.00  0.00    -0.031 C  
BRANCH  17  19
ATOM     19  C   ALA A   1      -9.526  12.193  66.944  1.00  0.00    -0.210 C  
HETATM   20  C   UNK A   2     -11.440  14.427  69.265  1.00  0.00    -0.285 C  
ATOM     21  O   ALA A   1      -9.808  11.691  65.854  1.00  0.00    -0.219 OA 
HETATM   22  C   UNK A   2     -12.268  14.491  67.979  1.00  0.00    -0.127 C  
HETATM   23  N   UNK A   2     -10.387  13.125  67.524  1.00  0.00    -0.223 N  
HETATM   24  S   UNK A   2     -10.723  16.068  69.681  1.00  0.00    -0.341 SA 
HETATM   25  C   UNK A   2     -11.505  16.279  71.300  1.00  0.00    -0.311 C  
HETATM   26  C   UNK A   2     -11.776  13.338  67.075  1.00  0.00    -0.389 C  
HETATM   27  C   UNK A   2     -10.305  13.444  68.951  1.00  0.00    -0.072 C  
HETATM   28  C   UNK A   2     -12.156  13.718  65.623  1.00  0.00    -0.418 C  
HETATM   29  C   UNK A   2     -11.709  14.916  71.927  1.00  0.00    -0.313 C  
HETATM   30  S   UNK A   2     -12.451  13.844  70.673  1.00  0.00    -0.357 SA 
HETATM   31  O   UNK A   2     -11.325  13.296  64.655  1.00  0.00    -0.321 OA 
HETATM   32  O   UNK A   2     -13.209  14.282  65.339  1.00  0.00    -0.688 OA 
ENDBRANCH  17  19
ENDBRANCH  15  17
ENDBRANCH   6  15
ENDBRANCH   4   6
ENDBRANCH   3   4
ENDBRANCH   2   3
TORSDOF 9
ENDMDL
MODEL      176
REMARK 921   NORMALIZED FREE ENERGY PREDICTED BY IDOCK:   -4.23 KCAL/MOL
REMARK 922        TOTAL FREE ENERGY PREDICTED BY IDOCK:   -7.79 KCAL/MOL
REMARK 923 INTER-LIGAND FREE ENERGY PREDICTED BY IDOCK:   -7.85 KCAL/MOL
REMARK 924 INTRA-LIGAND FREE ENERGY PREDICTED BY IDOCK:    0.05 KCAL/MOL
REMARK 927      BINDING AFFINITY PREDICTED BY RF-SCORE:    0.00 PKD
ROOT
HETATM    1  C   UNK A   0     -12.566   9.539  71.571  1.00  0.00    -0.462 C  
HETATM    2  C   UNK A   0     -12.174  10.618  70.579  1.00  0.00    -0.358 C  
ENDROOT
BRANCH   2   3
HETATM    3  O   UNK A   0     -11.005  10.224  69.843  1.00  0.00    -0.260 OA 
BRANCH   3   4
HETATM    4  C   UNK A   0     -11.050  10.420  68.493  1.00  0.00    -0.266 C  
HETATM    5  O   UNK A   0     -11.956  10.983  67.889  1.00  0.00    -0.620 OA 
BRANCH   4   6
HETATM    6  C   UNK A   0      -9.788   9.845  67.825  1.00  0.00    -0.155 C  
BRANCH   6   7
HETATM    7  C   UNK A   0      -9.959   9.852  66.295  1.00  0.00    -0.322 C  
BRANCH   7   8
HETATM    8  C   UNK A   0      -9.164  10.930  65.553  1.00  0.00    -0.232 C  
BRANCH   8   9
HETATM    9  C   UNK A   0     -10.131  11.951  64.992  1.00  0.00    -0.297 A  
HETATM   10  C   UNK A   0     -11.076  11.587  64.022  1.00  0.00    -0.441 A  
HETATM   11  C   UNK A   0     -12.031  12.507  63.581  1.00  0.00    -0.621 A  
HETATM   12  C   UNK A   0     -12.051  13.798  64.108  1.00  0.00    -0.478 A  
HETATM   13  C   UNK A   0     -10.162  13.253  65.513  1.00  0.00    -0.298 A  
HETATM   14  C   UNK A   0     -11.116  14.170  65.070  1.00  0.00    -0.372 A  
ENDBRANCH   8   9
ENDBRANCH   7   8
ENDBRANCH   6   7
BRANCH   6  15
ATOM     15  N   ALA A   1      -9.564   8.468  68.364  1.00  0.00    -0.145 NA 
ATOM     16  H   ALA A   1      -9.244   8.510  69.331  1.00  0.00     0.000 HD 
BRANCH  15  17
ATOM     17  CA  ALA A   1     -10.738   7.579  68.244  1.00  0.00    -0.073 C  
ATOM     18  CB  ALA A   1     -10.691   6.768  66.949  1.00  0.00    -0.394 C  
BRANCH  17  19
ATOM     19  C   ALA A   1     -10.918   6.659  69.493  1.00  0.00    -0.313 C  
HETATM   20  C   UNK A   2      -7.822   4.548  69.526  1.00  0.00    -0.058 C  
ATOM     21  O   ALA A   1     -11.939   6.646  70.182  1.00  0.00    -0.367 OA 
HETATM   22  C   UNK A   2      -8.488   4.188  70.856  1.00  0.00    -0.101 C  
HETATM   23  N   UNK A   2      -9.840   5.841  69.831  1.00  0.00    -0.169 N  
HETATM   24  S   UNK A   2      -6.204   5.381  69.792  1.00  0.00    -0.026 SA 
HETATM   25  C   UNK A   2      -5.162   4.185  68.921  1.00  0.00    -0.011 C  
HETATM   26  C   UNK A   2      -9.937   4.722  70.788  1.00  0.00    -0.221 C  
HETATM   27  C   UNK A   2      -8.792   5.531  68.856  1.00  0.00    -0.107 C  
HETATM   28  C   UNK A   2     -10.419   4.887  72.250  1.00  0.00    -0.204 C  
HETATM   29  C   UNK A   2      -5.966   3.556  67.803  1.00  0.00    -0.027 C  
HETATM   30  S   UNK A   2      -7.564   3.063  68.491  1.00  0.00    -0.048 SA 
HETATM   31  O   UNK A   2     -11.282   5.890  72.488  1.00  0.00    -0.264 OA 
HETATM   32  O   UNK A   2     -10.124   4.093  73.139  1.00  0.00    -0.134 OA 
ENDBRANCH  17  19
ENDBRANCH  15  17
ENDBRANCH   6  15
ENDBRANCH   4   6
ENDBRANCH   3   4
ENDBRANCH   2   3
TORSDOF 9
ENDMDL
MODEL      177
REMARK 921   NORMALIZED FREE ENERGY PREDICTED BY IDOCK:   -4.20 KCAL/MOL
REMARK 922        TOTAL FREE ENERGY PREDICTED BY IDOCK:   -7.76 KCAL/MOL
REMARK 923 INTER-LIGAND FREE ENERGY PREDICTED BY IDOCK:   -7.39 KCAL/MOL
REMARK 924 INTRA-LIGAND FREE ENERGY PREDICTED BY IDOCK:   -0.36 KCAL/MOL
REMARK 927      BINDING AFFINITY PREDICTED BY RF-SCORE:    0.00 PKD
ROOT
HETATM    1  C   UNK A   0     -11.790  15.746  69.283  1.00  0.00    -0.358 C  
HETATM    2  C   UNK A   0     -10.517  16.457  69.701  1.00  0.00    -0.278 C  
ENDROOT
BRANCH   2   3
HETATM    3  O   UNK A   0      -9.431  15.523  69.810  1.00  0.00    -0.285 OA 
BRANCH   3   4
HETATM    4  C   UNK A   0      -8.280  15.858  69.158  1.00  0.00    -0.240 C  
HETATM    5  O   UNK A   0      -7.700  16.933  69.254  1.00  0.00    -0.195 OA 
BRANCH   4   6
HETATM    6  C   UNK A   0      -7.796  14.686  68.285  1.00  0.00    -0.128 C  
BRANCH   6   7
HETATM    7  C   UNK A   0      -6.334  14.348  68.631  1.00  0.00    -0.087 C  
BRANCH   7   8
HETATM    8  C   UNK A   0      -6.135  13.074  69.456  1.00  0.00    -0.115 C  
BRANCH   8   9
HETATM    9  C   UNK A   0      -6.083  11.887  68.517  1.00  0.00    -0.050 A  
HETATM   10  C   UNK A   0      -5.928  12.072  67.136  1.00  0.00    -0.153 A  
HETATM   11  C   UNK A   0      -5.781  10.973  66.285  1.00  0.00    -0.143 A  
HETATM   12  C   UNK A   0      -5.785   9.681  66.808  1.00  0.00    -0.051 A  
HETATM   13  C   UNK A   0      -6.086  10.582  69.030  1.00  0.00    -0.040 A  
HETATM   14  C   UNK A   0      -5.940   9.486  68.178  1.00  0.00    -0.047 A  
ENDBRANCH   8   9
ENDBRANCH   7   8
ENDBRANCH   6   7
BRANCH   6  15
ATOM     15  N   ALA A   1      -7.965  15.074  66.852  1.00  0.00    -0.322 NA 
ATOM     16  H   ALA A   1      -7.884  14.257  66.247  1.00  0.00     0.000 HD 
BRANCH  15  17
ATOM     17  CA  ALA A   1      -9.218  15.804  66.572  1.00  0.00    -0.283 C  
ATOM     18  CB  ALA A   1      -8.938  17.229  66.097  1.00  0.00    -0.189 C  
BRANCH  17  19
ATOM     19  C   ALA A   1     -10.144  15.037  65.575  1.00  0.00    -0.369 C  
HETATM   20  C   UNK A   2     -10.836  11.780  67.294  1.00  0.00    -0.253 C  
ATOM     21  O   ALA A   1     -10.434  15.463  64.455  1.00  0.00    -0.218 OA 
HETATM   22  C   UNK A   2     -11.774  11.728  66.086  1.00  0.00    -0.106 C  
HETATM   23  N   UNK A   2     -10.672  13.824  66.015  1.00  0.00    -0.281 N  
HETATM   24  S   UNK A   2     -11.779  11.813  68.872  1.00  0.00    -0.331 SA 
HETATM   25  C   UNK A   2     -11.109  10.295  69.595  1.00  0.00    -0.274 C  
HETATM   26  C   UNK A   2     -11.319  12.846  65.120  1.00  0.00    -0.298 C  
HETATM   27  C   UNK A   2     -10.069  13.100  67.137  1.00  0.00    -0.242 C  
HETATM   28  C   UNK A   2     -12.537  13.182  64.225  1.00  0.00    -0.209 C  
HETATM   29  C   UNK A   2      -9.691  10.101  69.101  1.00  0.00    -0.215 C  
HETATM   30  S   UNK A   2      -9.697  10.349  67.310  1.00  0.00    -0.170 SA 
HETATM   31  O   UNK A   2     -12.648  14.458  63.817  1.00  0.00    -0.829 OA 
HETATM   32  O   UNK A   2     -13.314  12.325  63.812  1.00  0.00    -0.633 OA 
ENDBRANCH  17  19
ENDBRANCH  15  17
ENDBRANCH   6  15
ENDBRANCH   4   6
ENDBRANCH   3   4
ENDBRANCH   2   3
TORSDOF 9
ENDMDL
MODEL      178
REMARK 921   NORMALIZED FREE ENERGY PREDICTED BY IDOCK:   -4.15 KCAL/MOL
REMARK 922        TOTAL FREE ENERGY PREDICTED BY IDOCK:   -7.68 KCAL/MOL
REMARK 923 INTER-LIGAND FREE ENERGY PREDICTED BY IDOCK:   -6.81 KCAL/MOL
REMARK 924 INTRA-LIGAND FREE ENERGY PREDICTED BY IDOCK:   -0.88 KCAL/MOL
REMARK 927      BINDING AFFINITY PREDICTED BY RF-SCORE:    0.00 PKD
ROOT
HETATM    1  C   UNK A   0      -8.023   4.035  62.974  1.00  0.00    -0.075 C  
HETATM    2  C   UNK A   0      -8.838   4.749  64.038  1.00  0.00    -0.117 C  
ENDROOT
BRANCH   2   3
HETATM    3  O   UNK A   0      -8.332   6.076  64.252  1.00  0.00    -0.102 OA 
BRANCH   3   4
HETATM    4  C   UNK A   0      -7.982   6.387  65.534  1.00  0.00    -0.116 C  
HETATM    5  O   UNK A   0      -6.845   6.635  65.918  1.00  0.00    -0.050 OA 
BRANCH   4   6
HETATM    6  C   UNK A   0      -9.226   6.399  66.442  1.00  0.00    -0.155 C  
BRANCH   6   7
HETATM    7  C   UNK A   0      -9.830   7.814  66.479  1.00  0.00    -0.255 C  
BRANCH   7   8
HETATM    8  C   UNK A   0      -8.851   8.952  66.176  1.00  0.00    -0.193 C  
BRANCH   8   9
HETATM    9  C   UNK A   0      -9.572  10.015  65.373  1.00  0.00    -0.342 A  
HETATM   10  C   UNK A   0     -10.369  10.977  66.010  1.00  0.00    -0.311 A  
HETATM   11  C   UNK A   0     -10.951  12.013  65.275  1.00  0.00    -0.356 A  
HETATM   12  C   UNK A   0     -10.739  12.099  63.900  1.00  0.00    -0.456 A  
HETATM   13  C   UNK A   0      -9.367  10.111  63.989  1.00  0.00    -0.339 A  
HETATM   14  C   UNK A   0      -9.950  11.147  63.258  1.00  0.00    -0.419 A  
ENDBRANCH   8   9
ENDBRANCH   7   8
ENDBRANCH   6   7
BRANCH   6  15
ATOM     15  N   ALA A   1      -8.814   5.922  67.798  1.00  0.00    -0.110 NA 
ATOM     16  H   ALA A   1      -8.661   6.712  68.424  1.00  0.00     0.000 HD 
BRANCH  15  17
ATOM     17  CA  ALA A   1      -9.753   4.954  68.403  1.00  0.00    -0.151 C  
ATOM     18  CB  ALA A   1      -9.773   3.638  67.627  1.00  0.00    -0.108 C  
BRANCH  17  19
ATOM     19  C   ALA A   1      -9.471   4.722  69.922  1.00  0.00    -0.161 C  
HETATM   20  C   UNK A   2     -11.600   7.280  71.645  1.00  0.00    -0.274 C  
ATOM     21  O   ALA A   1      -8.638   3.917  70.341  1.00  0.00    -0.069 OA 
HETATM   22  C   UNK A   2     -11.079   6.437  72.811  1.00  0.00    -0.281 C  
HETATM   23  N   UNK A   2     -10.238   5.462  70.823  1.00  0.00    -0.228 N  
HETATM   24  S   UNK A   2     -13.427   7.142  71.485  1.00  0.00    -0.240 SA 
HETATM   25  C   UNK A   2     -13.830   8.892  71.711  1.00  0.00    -0.417 C  
HETATM   26  C   UNK A   2      -9.916   5.582  72.257  1.00  0.00    -0.174 C  
HETATM   27  C   UNK A   2     -10.937   6.678  70.399  1.00  0.00    -0.290 C  
HETATM   28  C   UNK A   2      -9.769   4.366  73.205  1.00  0.00    -0.135 C  
HETATM   29  C   UNK A   2     -12.685   9.731  71.184  1.00  0.00    -0.340 C  
HETATM   30  S   UNK A   2     -11.152   9.041  71.849  1.00  0.00    -0.301 SA 
HETATM   31  O   UNK A   2      -9.360   3.214  72.644  1.00  0.00    -0.096 OA 
HETATM   32  O   UNK A   2      -9.911   4.452  74.421  1.00  0.00    -0.146 OA 
ENDBRANCH  17  19
ENDBRANCH  15  17
ENDBRANCH   6  15
ENDBRANCH   4   6
ENDBRANCH   3   4
ENDBRANCH   2   3
TORSDOF 9
ENDMDL
MODEL      179
REMARK 921   NORMALIZED FREE ENERGY PREDICTED BY IDOCK:   -4.15 KCAL/MOL
REMARK 922        TOTAL FREE ENERGY PREDICTED BY IDOCK:   -7.68 KCAL/MOL
REMARK 923 INTER-LIGAND FREE ENERGY PREDICTED BY IDOCK:   -6.73 KCAL/MOL
REMARK 924 INTRA-LIGAND FREE ENERGY PREDICTED BY IDOCK:   -0.94 KCAL/MOL
REMARK 927      BINDING AFFINITY PREDICTED BY RF-SCORE:    0.00 PKD
ROOT
HETATM    1  C   UNK A   0      -6.526   5.006  69.080  1.00  0.00    -0.035 C  
HETATM    2  C   UNK A   0      -6.568   6.320  69.838  1.00  0.00    -0.048 C  
ENDROOT
BRANCH   2   3
HETATM    3  O   UNK A   0      -6.875   7.404  68.948  1.00  0.00    -0.067 OA 
BRANCH   3   4
HETATM    4  C   UNK A   0      -8.200   7.636  68.715  1.00  0.00    -0.128 C  
HETATM    5  O   UNK A   0      -9.037   6.774  68.472  1.00  0.00    -0.131 OA 
BRANCH   4   6
HETATM    6  C   UNK A   0      -8.508   9.141  68.814  1.00  0.00    -0.130 C  
BRANCH   6   7
HETATM    7  C   UNK A   0      -9.123   9.458  70.189  1.00  0.00    -0.262 C  
BRANCH   7   8
HETATM    8  C   UNK A   0      -8.128   9.524  71.352  1.00  0.00     0.539 C  
BRANCH   8   9
HETATM    9  C   UNK A   0      -8.561   8.542  72.420  1.00  0.00    -0.222 A  
HETATM   10  C   UNK A   0      -9.782   7.861  72.316  1.00  0.00    -0.269 A  
HETATM   11  C   UNK A   0     -10.131   6.884  73.252  1.00  0.00    -0.260 A  
HETATM   12  C   UNK A   0      -9.261   6.576  74.298  1.00  0.00    -0.210 A  
HETATM   13  C   UNK A   0      -7.695   8.224  73.477  1.00  0.00    -0.193 A  
HETATM   14  C   UNK A   0      -8.046   7.248  74.411  1.00  0.00    -0.199 A  
ENDBRANCH   8   9
ENDBRANCH   7   8
ENDBRANCH   6   7
BRANCH   6  15
ATOM     15  N   ALA A   1      -9.421   9.503  67.687  1.00  0.00    -0.131 NA 
ATOM     16  H   ALA A   1     -10.362   9.685  68.034  1.00  0.00     0.000 HD 
BRANCH  15  17
ATOM     17  CA  ALA A   1      -8.942  10.634  66.867  1.00  0.00    -0.137 C  
ATOM     18  CB  ALA A   1      -7.713  10.246  66.047  1.00  0.00    -0.130 C  
BRANCH  17  19
ATOM     19  C   ALA A   1     -10.068  11.236  65.967  1.00  0.00    -0.239 C  
HETATM   20  C   UNK A   2     -10.910  14.494  67.616  1.00  0.00    -0.273 C  
ATOM     21  O   ALA A   1     -10.562  10.637  65.010  1.00  0.00    -0.255 OA 
HETATM   22  C   UNK A   2     -11.709  14.561  66.313  1.00  0.00    -0.364 C  
HETATM   23  N   UNK A   2     -10.494  12.528  66.274  1.00  0.00    -0.243 N  
HETATM   24  S   UNK A   2      -9.616  15.799  67.676  1.00  0.00    -0.221 SA 
HETATM   25  C   UNK A   2     -10.192  16.654  69.163  1.00  0.00    -0.309 C  
HETATM   26  C   UNK A   2     -11.722  13.132  65.723  1.00  0.00    -0.374 C  
HETATM   27  C   UNK A   2     -10.236  13.115  67.591  1.00  0.00    -0.224 C  
HETATM   28  C   UNK A   2     -11.995  13.279  64.207  1.00  0.00    -0.421 C  
HETATM   29  C   UNK A   2     -10.862  15.649  70.078  1.00  0.00    -0.330 C  
HETATM   30  S   UNK A   2     -12.003  14.671  69.072  1.00  0.00    -0.250 SA 
HETATM   31  O   UNK A   2     -11.423  12.367  63.402  1.00  0.00    -0.457 OA 
HETATM   32  O   UNK A   2     -12.774  14.112  63.751  1.00  0.00    -0.761 OA 
ENDBRANCH  17  19
ENDBRANCH  15  17
ENDBRANCH   6  15
ENDBRANCH   4   6
ENDBRANCH   3   4
ENDBRANCH   2   3
TORSDOF 9
ENDMDL
MODEL      180
REMARK 921   NORMALIZED FREE ENERGY PREDICTED BY IDOCK:   -4.15 KCAL/MOL
REMARK 922        TOTAL FREE ENERGY PREDICTED BY IDOCK:   -7.68 KCAL/MOL
REMARK 923 INTER-LIGAND FREE ENERGY PREDICTED BY IDOCK:   -6.92 KCAL/MOL
REMARK 924 INTRA-LIGAND FREE ENERGY PREDICTED BY IDOCK:   -0.76 KCAL/MOL
REMARK 927      BINDING AFFINITY PREDICTED BY RF-SCORE:    0.00 PKD
ROOT
HETATM    1  C   UNK A   0      -6.916   5.005  69.614  1.00  0.00    -0.054 C  
HETATM    2  C   UNK A   0      -7.096   6.029  68.509  1.00  0.00    -0.082 C  
ENDROOT
BRANCH   2   3
HETATM    3  O   UNK A   0      -8.479   6.127  68.133  1.00  0.00    -0.116 OA 
BRANCH   3   4
HETATM    4  C   UNK A   0      -8.948   7.384  67.885  1.00  0.00    -0.131 C  
HETATM    5  O   UNK A   0      -8.545   8.128  66.999  1.00  0.00    -0.120 OA 
BRANCH   4   6
HETATM    6  C   UNK A   0     -10.076   7.740  68.871  1.00  0.00    -0.195 C  
BRANCH   6   7
HETATM    7  C   UNK A   0     -10.914   6.486  69.178  1.00  0.00    -0.380 C  
BRANCH   7   8
HETATM    8  C   UNK A   0     -11.043   6.132  70.663  1.00  0.00    -0.384 C  
BRANCH   8   9
HETATM    9  C   UNK A   0     -12.068   7.050  71.296  1.00  0.00    -0.403 A  
HETATM   10  C   UNK A   0     -13.390   7.077  70.831  1.00  0.00     0.062 A  
HETATM   11  C   UNK A   0     -14.355   7.850  71.482  1.00  0.00    -0.563 A  
HETATM   12  C   UNK A   0     -14.007   8.601  72.604  1.00  0.00    -0.289 A  
HETATM   13  C   UNK A   0     -11.730   7.810  72.425  1.00  0.00    -0.394 A  
HETATM   14  C   UNK A   0     -12.696   8.582  73.073  1.00  0.00     0.391 A  
ENDBRANCH   8   9
ENDBRANCH   7   8
ENDBRANCH   6   7
BRANCH   6  15
ATOM     15  N   ALA A   1     -10.893   8.835  68.265  1.00  0.00    -0.457 NA 
ATOM     16  H   ALA A   1     -11.869   8.550  68.182  1.00  0.00     0.000 HD 
BRANCH  15  17
ATOM     17  CA  ALA A   1     -10.788  10.126  68.975  1.00  0.00    -0.224 C  
ATOM     18  CB  ALA A   1     -10.938   9.944  70.484  1.00  0.00    -0.391 C  
BRANCH  17  19
ATOM     19  C   ALA A   1      -9.478  10.898  68.616  1.00  0.00    -0.190 C  
HETATM   20  C   UNK A   2     -10.488  13.140  65.788  1.00  0.00    -0.283 C  
ATOM     21  O   ALA A   1      -8.389  10.666  69.143  1.00  0.00    -0.151 OA 
HETATM   22  C   UNK A   2      -9.070  13.618  66.104  1.00  0.00     0.097 C  
HETATM   23  N   UNK A   2      -9.588  11.912  67.664  1.00  0.00    -0.182 N  
HETATM   24  S   UNK A   2     -11.727  14.457  66.122  1.00  0.00    -0.364 SA 
HETATM   25  C   UNK A   2     -12.402  14.595  64.448  1.00  0.00    -0.398 C  
HETATM   26  C   UNK A   2      -8.427  12.539  67.005  1.00  0.00    -0.161 C  
HETATM   27  C   UNK A   2     -10.729  11.966  66.746  1.00  0.00    -0.246 C  
HETATM   28  C   UNK A   2      -7.278  13.232  67.778  1.00  0.00    -0.151 C  
HETATM   29  C   UNK A   2     -12.307  13.245  63.768  1.00  0.00    -0.367 C  
HETATM   30  S   UNK A   2     -10.635  12.613  64.043  1.00  0.00    -0.424 SA 
HETATM   31  O   UNK A   2      -7.027  12.775  69.017  1.00  0.00    -0.101 OA 
HETATM   32  O   UNK A   2      -6.554  14.082  67.268  1.00  0.00    -0.266 OA 
ENDBRANCH  17  19
ENDBRANCH  15  17
ENDBRANCH   6  15
ENDBRANCH   4   6
ENDBRANCH   3   4
ENDBRANCH   2   3
TORSDOF 9
ENDMDL
MODEL      181
REMARK 921   NORMALIZED FREE ENERGY PREDICTED BY IDOCK:   -4.14 KCAL/MOL
REMARK 922        TOTAL FREE ENERGY PREDICTED BY IDOCK:   -7.67 KCAL/MOL
REMARK 923 INTER-LIGAND FREE ENERGY PREDICTED BY IDOCK:   -7.22 KCAL/MOL
REMARK 924 INTRA-LIGAND FREE ENERGY PREDICTED BY IDOCK:   -0.45 KCAL/MOL
REMARK 927      BINDING AFFINITY PREDICTED BY RF-SCORE:    0.00 PKD
ROOT
HETATM    1  C   UNK A   0      -9.853   4.115  66.476  1.00  0.00    -0.214 C  
HETATM    2  C   UNK A   0      -9.069   5.125  67.293  1.00  0.00    -0.113 C  
ENDROOT
BRANCH   2   3
HETATM    3  O   UNK A   0      -9.863   6.296  67.542  1.00  0.00    -0.114 OA 
BRANCH   3   4
HETATM    4  C   UNK A   0      -9.412   7.459  66.987  1.00  0.00    -0.158 C  
HETATM    5  O   UNK A   0      -8.324   7.608  66.443  1.00  0.00    -0.117 OA 
BRANCH   4   6
HETATM    6  C   UNK A   0     -10.472   8.567  67.126  1.00  0.00    -0.299 C  
BRANCH   6   7
HETATM    7  C   UNK A   0      -9.873   9.917  66.691  1.00  0.00    -0.265 C  
BRANCH   7   8
HETATM    8  C   UNK A   0     -10.040  10.259  65.207  1.00  0.00    -0.359 C  
BRANCH   8   9
HETATM    9  C   UNK A   0     -10.953  11.460  65.083  1.00  0.00    -0.259 A  
HETATM   10  C   UNK A   0     -11.290  12.225  66.209  1.00  0.00    -0.395 A  
HETATM   11  C   UNK A   0     -12.051  13.389  66.074  1.00  0.00    -0.487 A  
HETATM   12  C   UNK A   0     -12.480  13.800  64.812  1.00  0.00    -0.386 A  
HETATM   13  C   UNK A   0     -11.391  11.884  63.820  1.00  0.00    -0.532 A  
HETATM   14  C   UNK A   0     -12.152  13.047  63.688  1.00  0.00    -0.604 A  
ENDBRANCH   8   9
ENDBRANCH   7   8
ENDBRANCH   6   7
BRANCH   6  15
ATOM     15  N   ALA A   1     -10.940   8.585  68.546  1.00  0.00    -0.436 NA 
ATOM     16  H   ALA A   1     -10.651   7.735  69.029  1.00  0.00     0.000 HD 
BRANCH  15  17
ATOM     17  CA  ALA A   1     -10.516   9.782  69.302  1.00  0.00    -0.219 C  
ATOM     18  CB  ALA A   1     -11.591  10.222  70.294  1.00  0.00    -0.396 C  
BRANCH  17  19
ATOM     19  C   ALA A   1      -9.133   9.586  70.000  1.00  0.00    -0.227 C  
HETATM   20  C   UNK A   2      -9.553   6.435  71.986  1.00  0.00    -0.150 C  
ATOM     21  O   ALA A   1      -8.214  10.403  69.925  1.00  0.00    -0.110 OA 
HETATM   22  C   UNK A   2      -8.058   6.728  72.134  1.00  0.00    -0.100 C  
HETATM   23  N   UNK A   2      -8.954   8.403  70.718  1.00  0.00    -0.147 N  
HETATM   24  S   UNK A   2      -9.840   4.865  71.075  1.00  0.00    -0.207 SA 
HETATM   25  C   UNK A   2     -10.747   3.986  72.371  1.00  0.00     0.058 C  
HETATM   26  C   UNK A   2      -7.840   8.184  71.660  1.00  0.00    -0.112 C  
HETATM   27  C   UNK A   2     -10.101   7.606  71.159  1.00  0.00    -0.184 C  
HETATM   28  C   UNK A   2      -6.349   8.303  71.263  1.00  0.00    -0.038 C  
HETATM   29  C   UNK A   2     -11.511   4.993  73.204  1.00  0.00    -0.282 C  
HETATM   30  S   UNK A   2     -10.372   6.335  73.618  1.00  0.00    -0.297 SA 
HETATM   31  O   UNK A   2      -6.061   9.150  70.259  1.00  0.00    -0.036 OA 
HETATM   32  O   UNK A   2      -5.450   7.744  71.885  1.00  0.00    -0.035 OA 
ENDBRANCH  17  19
ENDBRANCH  15  17
ENDBRANCH   6  15
ENDBRANCH   4   6
ENDBRANCH   3   4
ENDBRANCH   2   3
TORSDOF 9
ENDMDL
MODEL      182
REMARK 921   NORMALIZED FREE ENERGY PREDICTED BY IDOCK:   -4.14 KCAL/MOL
REMARK 922        TOTAL FREE ENERGY PREDICTED BY IDOCK:   -7.67 KCAL/MOL
REMARK 923 INTER-LIGAND FREE ENERGY PREDICTED BY IDOCK:   -7.32 KCAL/MOL
REMARK 924 INTRA-LIGAND FREE ENERGY PREDICTED BY IDOCK:   -0.35 KCAL/MOL
REMARK 927      BINDING AFFINITY PREDICTED BY RF-SCORE:    0.00 PKD
ROOT
HETATM    1  C   UNK A   0     -12.130   9.246  71.971  1.00  0.00    -0.406 C  
HETATM    2  C   UNK A   0     -11.427  10.055  70.898  1.00  0.00    -0.371 C  
ENDROOT
BRANCH   2   3
HETATM    3  O   UNK A   0     -11.389   9.325  69.661  1.00  0.00    -0.112 OA 
BRANCH   3   4
HETATM    4  C   UNK A   0     -11.221  10.068  68.529  1.00  0.00    -0.123 C  
HETATM    5  O   UNK A   0     -11.919  11.018  68.195  1.00  0.00    -0.610 OA 
BRANCH   4   6
HETATM    6  C   UNK A   0     -10.014   9.554  67.723  1.00  0.00    -0.174 C  
BRANCH   6   7
HETATM    7  C   UNK A   0     -10.248   9.798  66.221  1.00  0.00    -0.282 C  
BRANCH   7   8
HETATM    8  C   UNK A   0      -9.536  11.023  65.638  1.00  0.00    -0.265 C  
BRANCH   8   9
HETATM    9  C   UNK A   0     -10.578  11.983  65.103  1.00  0.00    -0.330 A  
HETATM   10  C   UNK A   0     -10.779  13.233  65.705  1.00  0.00    -0.292 A  
HETATM   11  C   UNK A   0     -11.670  14.153  65.147  1.00  0.00    -0.361 A  
HETATM   12  C   UNK A   0     -12.366  13.834  63.982  1.00  0.00    -0.370 A  
HETATM   13  C   UNK A   0     -11.285  11.673  63.932  1.00  0.00    -0.479 A  
HETATM   14  C   UNK A   0     -12.175  12.594  63.377  1.00  0.00    -0.610 A  
ENDBRANCH   8   9
ENDBRANCH   7   8
ENDBRANCH   6   7
BRANCH   6  15
ATOM     15  N   ALA A   1      -9.827   8.106  68.040  1.00  0.00    -0.162 NA 
ATOM     16  H   ALA A   1     -10.651   7.570  67.769  1.00  0.00     0.000 HD 
BRANCH  15  17
ATOM     17  CA  ALA A   1      -8.608   7.515  67.451  1.00  0.00    -0.118 C  
ATOM     18  CB  ALA A   1      -7.345   8.107  68.075  1.00  0.00    -0.096 C  
BRANCH  17  19
ATOM     19  C   ALA A   1      -8.607   5.955  67.523  1.00  0.00    -0.102 C  
HETATM   20  C   UNK A   2      -9.426   5.206  71.102  1.00  0.00    -0.153 C  
ATOM     21  O   ALA A   1      -8.292   5.233  66.574  1.00  0.00    -0.108 OA 
HETATM   22  C   UNK A   2      -9.471   3.822  70.451  1.00  0.00    -0.254 C  
HETATM   23  N   UNK A   2      -9.012   5.381  68.728  1.00  0.00    -0.115 N  
HETATM   24  S   UNK A   2     -11.079   5.699  71.738  1.00  0.00    -0.147 SA 
HETATM   25  C   UNK A   2     -10.629   5.892  73.480  1.00  0.00    -0.268 C  
HETATM   26  C   UNK A   2      -8.803   3.960  69.064  1.00  0.00    -0.102 C  
HETATM   27  C   UNK A   2      -9.015   6.157  69.970  1.00  0.00    -0.147 C  
HETATM   28  C   UNK A   2      -9.333   2.791  68.197  1.00  0.00    -0.203 C  
HETATM   29  C   UNK A   2      -9.182   6.328  73.567  1.00  0.00    -0.131 C  
HETATM   30  S   UNK A   2      -8.221   5.252  72.477  1.00  0.00    -0.114 SA 
HETATM   31  O   UNK A   2      -9.465   3.031  66.881  1.00  0.00    -0.150 OA 
HETATM   32  O   UNK A   2      -9.526   1.666  68.649  1.00  0.00    -0.165 OA 
ENDBRANCH  17  19
ENDBRANCH  15  17
ENDBRANCH   6  15
ENDBRANCH   4   6
ENDBRANCH   3   4
ENDBRANCH   2   3
TORSDOF 9
ENDMDL
MODEL      183
REMARK 921   NORMALIZED FREE ENERGY PREDICTED BY IDOCK:   -4.13 KCAL/MOL
REMARK 922        TOTAL FREE ENERGY PREDICTED BY IDOCK:   -7.65 KCAL/MOL
REMARK 923 INTER-LIGAND FREE ENERGY PREDICTED BY IDOCK:   -6.90 KCAL/MOL
REMARK 924 INTRA-LIGAND FREE ENERGY PREDICTED BY IDOCK:   -0.75 KCAL/MOL
REMARK 927      BINDING AFFINITY PREDICTED BY RF-SCORE:    0.00 PKD
ROOT
HETATM    1  C   UNK A   0     -14.086   8.444  71.920  1.00  0.00    -0.516 C  
HETATM    2  C   UNK A   0     -13.100   7.500  71.258  1.00  0.00    -0.266 C  
ENDROOT
BRANCH   2   3
HETATM    3  O   UNK A   0     -12.236   6.905  72.240  1.00  0.00    -0.242 OA 
BRANCH   3   4
HETATM    4  C   UNK A   0     -11.196   6.165  71.757  1.00  0.00    -0.284 C  
HETATM    5  O   UNK A   0     -10.657   5.235  72.344  1.00  0.00    -0.211 OA 
BRANCH   4   6
HETATM    6  C   UNK A   0     -10.796   6.654  70.352  1.00  0.00    -0.266 C  
BRANCH   6   7
HETATM    7  C   UNK A   0     -10.966   5.511  69.335  1.00  0.00    -0.101 C  
BRANCH   7   8
HETATM    8  C   UNK A   0     -10.808   5.913  67.866  1.00  0.00    -0.323 C  
BRANCH   8   9
HETATM    9  C   UNK A   0     -10.185   4.760  67.109  1.00  0.00    -0.181 A  
HETATM   10  C   UNK A   0     -10.333   4.651  65.719  1.00  0.00    -0.295 A  
HETATM   11  C   UNK A   0      -9.673   3.642  65.012  1.00  0.00    -0.162 A  
HETATM   12  C   UNK A   0      -8.858   2.735  65.689  1.00  0.00    -0.133 A  
HETATM   13  C   UNK A   0      -9.363   3.841  67.778  1.00  0.00    -0.237 A  
HETATM   14  C   UNK A   0      -8.706   2.833  67.069  1.00  0.00    -0.132 A  
ENDBRANCH   8   9
ENDBRANCH   7   8
ENDBRANCH   6   7
BRANCH   6  15
ATOM     15  N   ALA A   1      -9.388   7.151  70.418  1.00  0.00    -0.159 NA 
ATOM     16  H   ALA A   1      -8.955   7.123  69.495  1.00  0.00     0.000 HD 
BRANCH  15  17
ATOM     17  CA  ALA A   1      -9.254   8.496  71.014  1.00  0.00    -0.182 C  
ATOM     18  CB  ALA A   1      -7.786   8.893  71.168  1.00  0.00    -0.172 C  
BRANCH  17  19
ATOM     19  C   ALA A   1     -10.063   9.578  70.231  1.00  0.00    -0.262 C  
HETATM   20  C   UNK A   2      -8.451   9.653  66.849  1.00  0.00    -0.120 C  
ATOM     21  O   ALA A   1     -10.949  10.264  70.744  1.00  0.00    -0.306 OA 
HETATM   22  C   UNK A   2      -9.675  10.550  66.657  1.00  0.00    -0.232 C  
HETATM   23  N   UNK A   2      -9.760   9.732  68.878  1.00  0.00    -0.165 N  
HETATM   24  S   UNK A   2      -8.556   8.145  65.802  1.00  0.00    -0.149 SA 
HETATM   25  C   UNK A   2      -7.050   8.408  64.833  1.00  0.00    -0.079 C  
HETATM   26  C   UNK A   2     -10.212  10.879  68.068  1.00  0.00    -0.178 C  
HETATM   27  C   UNK A   2      -8.493   9.244  68.328  1.00  0.00    -0.120 C  
HETATM   28  C   UNK A   2     -11.701  11.269  67.897  1.00  0.00    -0.214 C  
HETATM   29  C   UNK A   2      -6.044   9.155  65.684  1.00  0.00    -0.055 C  
HETATM   30  S   UNK A   2      -6.905  10.547  66.452  1.00  0.00    -0.126 SA 
HETATM   31  O   UNK A   2     -12.525  10.953  68.911  1.00  0.00    -0.431 OA 
HETATM   32  O   UNK A   2     -12.109  11.926  66.943  1.00  0.00    -0.599 OA 
ENDBRANCH  17  19
ENDBRANCH  15  17
ENDBRANCH   6  15
ENDBRANCH   4   6
ENDBRANCH   3   4
ENDBRANCH   2   3
TORSDOF 9
ENDMDL
MODEL      184
REMARK 921   NORMALIZED FREE ENERGY PREDICTED BY IDOCK:   -4.13 KCAL/MOL
REMARK 922        TOTAL FREE ENERGY PREDICTED BY IDOCK:   -7.65 KCAL/MOL
REMARK 923 INTER-LIGAND FREE ENERGY PREDICTED BY IDOCK:   -6.53 KCAL/MOL
REMARK 924 INTRA-LIGAND FREE ENERGY PREDICTED BY IDOCK:   -1.12 KCAL/MOL
REMARK 927      BINDING AFFINITY PREDICTED BY RF-SCORE:    0.00 PKD
ROOT
HETATM    1  C   UNK A   0     -14.411   7.576  71.988  1.00  0.00    -0.437 C  
HETATM    2  C   UNK A   0     -13.265   8.569  72.037  1.00  0.00    -0.369 C  
ENDROOT
BRANCH   2   3
HETATM    3  O   UNK A   0     -12.157   8.098  71.253  1.00  0.00    -0.294 OA 
BRANCH   3   4
HETATM    4  C   UNK A   0     -10.981   8.774  71.406  1.00  0.00    -0.289 C  
HETATM    5  O   UNK A   0     -10.244   8.700  72.382  1.00  0.00    -0.312 OA 
BRANCH   4   6
HETATM    6  C   UNK A   0     -10.695   9.641  70.166  1.00  0.00    -0.275 C  
BRANCH   6   7
HETATM    7  C   UNK A   0     -11.483  10.959  70.259  1.00  0.00    -0.391 C  
BRANCH   7   8
HETATM    8  C   UNK A   0     -12.084  11.457  68.941  1.00  0.00    -0.285 C  
BRANCH   8   9
HETATM    9  C   UNK A   0     -11.050  12.294  68.219  1.00  0.00    -0.282 A  
HETATM   10  C   UNK A   0     -10.671  11.990  66.904  1.00  0.00    -0.282 A  
HETATM   11  C   UNK A   0      -9.791  12.823  66.208  1.00  0.00    -0.269 A  
HETATM   12  C   UNK A   0      -9.285  13.970  66.819  1.00  0.00    -0.280 A  
HETATM   13  C   UNK A   0     -10.533  13.450  68.823  1.00  0.00    -0.203 A  
HETATM   14  C   UNK A   0      -9.654  14.281  68.126  1.00  0.00    -0.218 A  
ENDBRANCH   8   9
ENDBRANCH   7   8
ENDBRANCH   6   7
BRANCH   6  15
ATOM     15  N   ALA A   1     -11.057   8.847  68.952  1.00  0.00    -0.433 NA 
ATOM     16  H   ALA A   1     -11.819   9.296  68.444  1.00  0.00     0.000 HD 
BRANCH  15  17
ATOM     17  CA  ALA A   1      -9.919   8.581  68.048  1.00  0.00    -0.183 C  
ATOM     18  CB  ALA A   1      -8.588   8.943  68.707  1.00  0.00    -0.136 C  
BRANCH  17  19
ATOM     19  C   ALA A   1      -9.914   7.114  67.512  1.00  0.00    -0.167 C  
HETATM   20  C   UNK A   2      -7.702   7.254  64.491  1.00  0.00    -0.113 C  
ATOM     21  O   ALA A   1     -10.604   6.214  67.995  1.00  0.00    -0.210 OA 
HETATM   22  C   UNK A   2      -7.952   5.753  64.654  1.00  0.00    -0.122 C  
HETATM   23  N   UNK A   2      -9.057   6.837  66.447  1.00  0.00    -0.152 N  
HETATM   24  S   UNK A   2      -5.926   7.665  64.731  1.00  0.00    -0.038 SA 
HETATM   25  C   UNK A   2      -5.613   8.383  63.099  1.00  0.00    -0.072 C  
HETATM   26  C   UNK A   2      -9.131   5.603  65.643  1.00  0.00    -0.098 C  
HETATM   27  C   UNK A   2      -8.528   7.912  65.604  1.00  0.00    -0.147 C  
HETATM   28  C   UNK A   2      -9.026   4.181  66.247  1.00  0.00    -0.123 C  
HETATM   29  C   UNK A   2      -6.887   9.023  62.592  1.00  0.00    -0.092 C  
HETATM   30  S   UNK A   2      -8.230   7.837  62.840  1.00  0.00     0.025 SA 
HETATM   31  O   UNK A   2      -9.445   4.036  67.516  1.00  0.00    -0.169 OA 
HETATM   32  O   UNK A   2      -8.680   3.204  65.588  1.00  0.00    -0.115 OA 
ENDBRANCH  17  19
ENDBRANCH  15  17
ENDBRANCH   6  15
ENDBRANCH   4   6
ENDBRANCH   3   4
ENDBRANCH   2   3
TORSDOF 9
ENDMDL
MODEL      185
REMARK 921   NORMALIZED FREE ENERGY PREDICTED BY IDOCK:   -4.12 KCAL/MOL
REMARK 922        TOTAL FREE ENERGY PREDICTED BY IDOCK:   -7.64 KCAL/MOL
REMARK 923 INTER-LIGAND FREE ENERGY PREDICTED BY IDOCK:   -7.54 KCAL/MOL
REMARK 924 INTRA-LIGAND FREE ENERGY PREDICTED BY IDOCK:   -0.09 KCAL/MOL
REMARK 927      BINDING AFFINITY PREDICTED BY RF-SCORE:    0.00 PKD
ROOT
HETATM    1  C   UNK A   0      -8.234   6.302  72.578  1.00  0.00    -0.106 C  
HETATM    2  C   UNK A   0      -9.070   6.417  71.317  1.00  0.00    -0.148 C  
ENDROOT
BRANCH   2   3
HETATM    3  O   UNK A   0      -9.540   7.763  71.145  1.00  0.00    -0.158 OA 
BRANCH   3   4
HETATM    4  C   UNK A   0      -8.721   8.601  70.444  1.00  0.00    -0.155 C  
HETATM    5  O   UNK A   0      -7.579   8.338  70.085  1.00  0.00    -0.072 OA 
BRANCH   4   6
HETATM    6  C   UNK A   0      -9.439   9.931  70.150  1.00  0.00    -0.163 C  
BRANCH   6   7
HETATM    7  C   UNK A   0     -10.877   9.879  70.695  1.00  0.00    -0.400 C  
BRANCH   7   8
HETATM    8  C   UNK A   0     -11.923  10.616  69.854  1.00  0.00    -0.385 C  
BRANCH   8   9
HETATM    9  C   UNK A   0     -12.364  11.857  70.602  1.00  0.00    -0.405 A  
HETATM   10  C   UNK A   0     -12.135  13.134  70.071  1.00  0.00    -0.375 A  
HETATM   11  C   UNK A   0     -12.631  14.270  70.716  1.00  0.00    -0.427 A  
HETATM   12  C   UNK A   0     -13.362  14.139  71.896  1.00  0.00    -0.476 A  
HETATM   13  C   UNK A   0     -13.100  11.738  71.790  1.00  0.00    -0.480 A  
HETATM   14  C   UNK A   0     -13.594  12.875  72.433  1.00  0.00    -0.577 A  
ENDBRANCH   8   9
ENDBRANCH   7   8
ENDBRANCH   6   7
BRANCH   6  15
ATOM     15  N   ALA A   1      -9.399  10.163  68.674  1.00  0.00    -0.154 NA 
ATOM     16  H   ALA A   1     -10.249   9.812  68.233  1.00  0.00     0.000 HD 
BRANCH  15  17
ATOM     17  CA  ALA A   1      -9.162  11.571  68.294  1.00  0.00    -0.186 C  
ATOM     18  CB  ALA A   1      -7.672  11.854  68.108  1.00  0.00    -0.126 C  
BRANCH  17  19
ATOM     19  C   ALA A   1      -9.989  11.997  67.040  1.00  0.00    -0.204 C  
HETATM   20  C   UNK A   2      -8.554   9.938  64.258  1.00  0.00    -0.188 C  
ATOM     21  O   ALA A   1     -10.833  12.895  67.058  1.00  0.00    -0.255 OA 
HETATM   22  C   UNK A   2      -9.768  10.594  63.597  1.00  0.00    -0.383 C  
HETATM   23  N   UNK A   2      -9.754  11.288  65.862  1.00  0.00    -0.215 N  
HETATM   24  S   UNK A   2      -8.743   8.111  64.341  1.00  0.00     0.414 SA 
HETATM   25  C   UNK A   2      -7.285   7.663  63.367  1.00  0.00    -0.083 C  
HETATM   26  C   UNK A   2     -10.225  11.733  64.537  1.00  0.00    -0.284 C  
HETATM   27  C   UNK A   2      -8.527  10.508  65.682  1.00  0.00    -0.176 C  
HETATM   28  C   UNK A   2     -11.712  12.011  64.207  1.00  0.00    -0.344 C  
HETATM   29  C   UNK A   2      -6.221   8.723  63.562  1.00  0.00    -0.085 C  
HETATM   30  S   UNK A   2      -7.013  10.336  63.356  1.00  0.00    -0.038 SA 
HETATM   31  O   UNK A   2     -12.488  12.411  65.230  1.00  0.00    -0.611 OA 
HETATM   32  O   UNK A   2     -12.155  11.977  63.063  1.00  0.00    -0.300 OA 
ENDBRANCH  17  19
ENDBRANCH  15  17
ENDBRANCH   6  15
ENDBRANCH   4   6
ENDBRANCH   3   4
ENDBRANCH   2   3
TORSDOF 9
ENDMDL
MODEL      186
REMARK 921   NORMALIZED FREE ENERGY PREDICTED BY IDOCK:   -4.11 KCAL/MOL
REMARK 922        TOTAL FREE ENERGY PREDICTED BY IDOCK:   -7.62 KCAL/MOL
REMARK 923 INTER-LIGAND FREE ENERGY PREDICTED BY IDOCK:   -6.85 KCAL/MOL
REMARK 924 INTRA-LIGAND FREE ENERGY PREDICTED BY IDOCK:   -0.77 KCAL/MOL
REMARK 927      BINDING AFFINITY PREDICTED BY RF-SCORE:    0.00 PKD
ROOT
HETATM    1  C   UNK A   0     -12.546  11.546  70.949  1.00  0.00    -0.438 C  
HETATM    2  C   UNK A   0     -11.821  10.495  70.129  1.00  0.00    -0.320 C  
ENDROOT
BRANCH   2   3
HETATM    3  O   UNK A   0     -11.696  10.921  68.763  1.00  0.00    -0.298 OA 
BRANCH   3   4
HETATM    4  C   UNK A   0     -10.685  10.350  68.045  1.00  0.00    -0.249 C  
HETATM    5  O   UNK A   0     -10.821   9.454  67.221  1.00  0.00    -0.247 OA 
BRANCH   4   6
HETATM    6  C   UNK A   0      -9.337  11.002  68.404  1.00  0.00    -0.179 C  
BRANCH   6   7
HETATM    7  C   UNK A   0      -9.127  12.267  67.552  1.00  0.00    -0.182 C  
BRANCH   7   8
HETATM    8  C   UNK A   0     -10.409  12.965  67.089  1.00  0.00    -0.239 C  
BRANCH   8   9
HETATM    9  C   UNK A   0     -10.573  14.251  67.870  1.00  0.00    -0.240 A  
HETATM   10  C   UNK A   0      -9.757  15.360  67.605  1.00  0.00    -0.211 A  
HETATM   11  C   UNK A   0      -9.978  16.575  68.259  1.00  0.00    -0.250 A  
HETATM   12  C   UNK A   0     -11.018  16.693  69.180  1.00  0.00    -0.276 A  
HETATM   13  C   UNK A   0     -11.615  14.382  68.800  1.00  0.00    -0.348 A  
HETATM   14  C   UNK A   0     -11.834  15.597  69.452  1.00  0.00    -0.391 A  
ENDBRANCH   8   9
ENDBRANCH   7   8
ENDBRANCH   6   7
BRANCH   6  15
ATOM     15  N   ALA A   1      -8.260   9.988  68.189  1.00  0.00    -0.108 NA 
ATOM     16  H   ALA A   1      -7.535  10.360  67.577  1.00  0.00     0.000 HD 
BRANCH  15  17
ATOM     17  CA  ALA A   1      -7.668   9.468  69.439  1.00  0.00    -0.094 C  
ATOM     18  CB  ALA A   1      -6.886  10.554  70.177  1.00  0.00    -0.145 C  
BRANCH  17  19
ATOM     19  C   ALA A   1      -8.729   8.792  70.365  1.00  0.00    -0.166 C  
HETATM   20  C   UNK A   2      -9.607   5.617  68.579  1.00  0.00    -0.130 C  
ATOM     21  O   ALA A   1      -9.178   9.325  71.381  1.00  0.00    -0.282 OA 
HETATM   22  C   UNK A   2     -10.328   5.458  69.919  1.00  0.00    -0.377 C  
HETATM   23  N   UNK A   2      -9.149   7.511  70.007  1.00  0.00    -0.148 N  
HETATM   24  S   UNK A   2      -8.296   4.345  68.370  1.00  0.00    -0.089 SA 
HETATM   25  C   UNK A   2      -8.941   3.565  66.870  1.00  0.00    -0.152 C  
HETATM   26  C   UNK A   2     -10.332   6.851  70.590  1.00  0.00    -0.200 C  
HETATM   27  C   UNK A   2      -8.958   7.006  68.645  1.00  0.00    -0.130 C  
HETATM   28  C   UNK A   2     -10.515   6.611  72.109  1.00  0.00    -0.204 C  
HETATM   29  C   UNK A   2      -9.681   4.605  66.055  1.00  0.00    -0.202 C  
HETATM   30  S   UNK A   2     -10.779   5.500  67.180  1.00  0.00    -0.085 SA 
HETATM   31  O   UNK A   2      -9.914   7.488  72.932  1.00  0.00    -0.203 OA 
HETATM   32  O   UNK A   2     -11.251   5.737  72.559  1.00  0.00    -0.267 OA 
ENDBRANCH  17  19
ENDBRANCH  15  17
ENDBRANCH   6  15
ENDBRANCH   4   6
ENDBRANCH   3   4
ENDBRANCH   2   3
TORSDOF 9
ENDMDL
MODEL      187
REMARK 921   NORMALIZED FREE ENERGY PREDICTED BY IDOCK:   -4.11 KCAL/MOL
REMARK 922        TOTAL FREE ENERGY PREDICTED BY IDOCK:   -7.61 KCAL/MOL
REMARK 923 INTER-LIGAND FREE ENERGY PREDICTED BY IDOCK:   -7.35 KCAL/MOL
REMARK 924 INTRA-LIGAND FREE ENERGY PREDICTED BY IDOCK:   -0.27 KCAL/MOL
REMARK 927      BINDING AFFINITY PREDICTED BY RF-SCORE:    0.00 PKD
ROOT
HETATM    1  C   UNK A   0     -13.482   8.651  71.988  1.00  0.00    -0.439 C  
HETATM    2  C   UNK A   0     -12.366   7.749  71.495  1.00  0.00    -0.320 C  
ENDROOT
BRANCH   2   3
HETATM    3  O   UNK A   0     -11.445   8.489  70.678  1.00  0.00    -0.272 OA 
BRANCH   3   4
HETATM    4  C   UNK A   0     -11.034   7.877  69.530  1.00  0.00    -0.071 C  
HETATM    5  O   UNK A   0     -11.021   6.667  69.338  1.00  0.00    -0.265 OA 
BRANCH   4   6
HETATM    6  C   UNK A   0     -10.597   8.925  68.489  1.00  0.00    -0.141 C  
BRANCH   6   7
HETATM    7  C   UNK A   0      -9.202   9.466  68.849  1.00  0.00    -0.140 C  
BRANCH   7   8
HETATM    8  C   UNK A   0      -8.932   9.636  70.347  1.00  0.00    -0.239 C  
BRANCH   8   9
HETATM    9  C   UNK A   0      -7.688   8.852  70.710  1.00  0.00    -0.126 A  
HETATM   10  C   UNK A   0      -7.751   7.471  70.941  1.00  0.00    -0.090 A  
HETATM   11  C   UNK A   0      -6.586   6.737  71.177  1.00  0.00    -0.053 A  
HETATM   12  C   UNK A   0      -5.347   7.377  71.181  1.00  0.00    -0.027 A  
HETATM   13  C   UNK A   0      -6.436   9.485  70.718  1.00  0.00    -0.097 A  
HETATM   14  C   UNK A   0      -5.273   8.749  70.954  1.00  0.00    -0.028 A  
ENDBRANCH   8   9
ENDBRANCH   7   8
ENDBRANCH   6   7
BRANCH   6  15
ATOM     15  N   ALA A   1     -11.632  10.003  68.455  1.00  0.00    -0.603 NA 
ATOM     16  H   ALA A   1     -12.183   9.999  69.313  1.00  0.00     0.000 HD 
BRANCH  15  17
ATOM     17  CA  ALA A   1     -11.086  11.351  68.196  1.00  0.00    -0.248 C  
ATOM     18  CB  ALA A   1     -11.528  11.879  66.832  1.00  0.00    -0.390 C  
BRANCH  17  19
ATOM     19  C   ALA A   1     -11.422  12.360  69.340  1.00  0.00    -0.271 C  
HETATM   20  C   UNK A   2      -9.617  15.492  68.354  1.00  0.00    -0.199 C  
ATOM     21  O   ALA A   1     -12.064  12.053  70.347  1.00  0.00    -0.351 OA 
HETATM   22  C   UNK A   2     -10.451  15.949  69.553  1.00  0.00    -0.281 C  
HETATM   23  N   UNK A   2     -10.980  13.672  69.171  1.00  0.00    -0.363 N  
HETATM   24  S   UNK A   2     -10.138  16.348  66.813  1.00  0.00    -0.294 SA 
HETATM   25  C   UNK A   2      -8.560  17.143  66.422  1.00  0.00    -0.265 C  
HETATM   26  C   UNK A   2     -10.957  14.669  70.257  1.00  0.00    -0.031 C  
HETATM   27  C   UNK A   2      -9.910  13.992  68.223  1.00  0.00    -0.233 C  
HETATM   28  C   UNK A   2     -12.210  15.076  71.071  1.00  0.00    -0.326 C  
HETATM   29  C   UNK A   2      -7.432  16.271  66.934  1.00  0.00    -0.236 C  
HETATM   30  S   UNK A   2      -7.836  15.798  68.632  1.00  0.00    -0.168 SA 
HETATM   31  O   UNK A   2     -13.170  14.143  71.201  1.00  0.00    -0.339 OA 
HETATM   32  O   UNK A   2     -12.298  16.148  71.662  1.00  0.00    -0.442 OA 
ENDBRANCH  17  19
ENDBRANCH  15  17
ENDBRANCH   6  15
ENDBRANCH   4   6
ENDBRANCH   3   4
ENDBRANCH   2   3
TORSDOF 9
ENDMDL
MODEL      188
REMARK 921   NORMALIZED FREE ENERGY PREDICTED BY IDOCK:   -4.07 KCAL/MOL
REMARK 922        TOTAL FREE ENERGY PREDICTED BY IDOCK:   -7.56 KCAL/MOL
REMARK 923 INTER-LIGAND FREE ENERGY PREDICTED BY IDOCK:   -5.94 KCAL/MOL
REMARK 924 INTRA-LIGAND FREE ENERGY PREDICTED BY IDOCK:   -1.62 KCAL/MOL
REMARK 927      BINDING AFFINITY PREDICTED BY RF-SCORE:    0.00 PKD
ROOT
HETATM    1  C   UNK A   0     -12.280  12.588  63.457  1.00  0.00    -0.652 C  
HETATM    2  C   UNK A   0     -12.547  12.599  64.951  1.00  0.00    -0.450 C  
ENDROOT
BRANCH   2   3
HETATM    3  O   UNK A   0     -12.019  13.794  65.548  1.00  0.00    -0.347 OA 
BRANCH   3   4
HETATM    4  C   UNK A   0     -10.678  13.796  65.804  1.00  0.00    -0.281 C  
HETATM    5  O   UNK A   0      -9.902  14.698  65.508  1.00  0.00    -0.340 OA 
BRANCH   4   6
HETATM    6  C   UNK A   0     -10.269  12.505  66.536  1.00  0.00    -0.240 C  
BRANCH   6   7
HETATM    7  C   UNK A   0      -9.958  12.819  68.011  1.00  0.00    -0.225 C  
BRANCH   7   8
HETATM    8  C   UNK A   0      -8.809  13.804  68.242  1.00  0.00    -0.185 C  
BRANCH   8   9
HETATM    9  C   UNK A   0      -7.514  13.026  68.351  1.00  0.00    -0.128 A  
HETATM   10  C   UNK A   0      -7.360  12.021  69.317  1.00  0.00     0.126 A  
HETATM   11  C   UNK A   0      -6.202  11.240  69.348  1.00  0.00    -0.083 A  
HETATM   12  C   UNK A   0      -5.190  11.454  68.413  1.00  0.00    -0.039 A  
HETATM   13  C   UNK A   0      -6.489  13.232  67.417  1.00  0.00    -0.047 A  
HETATM   14  C   UNK A   0      -5.333  12.450  67.450  1.00  0.00    -0.107 A  
ENDBRANCH   8   9
ENDBRANCH   7   8
ENDBRANCH   6   7
BRANCH   6  15
ATOM     15  N   ALA A   1      -9.094  11.919  65.821  1.00  0.00    -0.416 NA 
ATOM     16  H   ALA A   1      -8.229  12.142  66.311  1.00  0.00     0.000 HD 
BRANCH  15  17
ATOM     17  CA  ALA A   1      -9.199  10.463  65.590  1.00  0.00    -0.182 C  
ATOM     18  CB  ALA A   1      -9.370  10.147  64.105  1.00  0.00    -0.340 C  
BRANCH  17  19
ATOM     19  C   ALA A   1      -8.003   9.674  66.212  1.00  0.00    -0.108 C  
HETATM   20  C   UNK A   2      -9.424   8.186  69.344  1.00  0.00    -0.162 C  
ATOM     21  O   ALA A   1      -6.863   9.692  65.744  1.00  0.00    -0.087 OA 
HETATM   22  C   UNK A   2      -8.045   7.530  69.257  1.00  0.00    -0.126 C  
HETATM   23  N   UNK A   2      -8.280   8.902  67.340  1.00  0.00    -0.108 N  
HETATM   24  S   UNK A   2     -10.768   6.942  69.184  1.00  0.00    -0.227 SA 
HETATM   25  C   UNK A   2     -11.563   7.225  70.785  1.00  0.00    -0.302 C  
HETATM   26  C   UNK A   2      -7.235   8.331  68.211  1.00  0.00    -0.093 C  
HETATM   27  C   UNK A   2      -9.478   9.145  68.147  1.00  0.00    -0.142 C  
HETATM   28  C   UNK A   2      -6.116   7.390  67.700  1.00  0.00    -0.046 C  
HETATM   29  C   UNK A   2     -11.373   8.675  71.178  1.00  0.00    -0.275 C  
HETATM   30  S   UNK A   2      -9.630   9.086  70.923  1.00  0.00    -0.280 SA 
HETATM   31  O   UNK A   2      -5.738   7.548  66.420  1.00  0.00    -0.034 OA 
HETATM   32  O   UNK A   2      -5.519   6.609  68.436  1.00  0.00    -0.014 OA 
ENDBRANCH  17  19
ENDBRANCH  15  17
ENDBRANCH   6  15
ENDBRANCH   4   6
ENDBRANCH   3   4
ENDBRANCH   2   3
TORSDOF 9
ENDMDL
MODEL      189
REMARK 921   NORMALIZED FREE ENERGY PREDICTED BY IDOCK:   -4.05 KCAL/MOL
REMARK 922        TOTAL FREE ENERGY PREDICTED BY IDOCK:   -7.52 KCAL/MOL
REMARK 923 INTER-LIGAND FREE ENERGY PREDICTED BY IDOCK:   -6.27 KCAL/MOL
REMARK 924 INTRA-LIGAND FREE ENERGY PREDICTED BY IDOCK:   -1.25 KCAL/MOL
REMARK 927      BINDING AFFINITY PREDICTED BY RF-SCORE:    0.00 PKD
ROOT
HETATM    1  C   UNK A   0      -7.872   5.927  65.126  1.00  0.00    -0.107 C  
HETATM    2  C   UNK A   0      -9.073   5.577  65.984  1.00  0.00    -0.156 C  
ENDROOT
BRANCH   2   3
HETATM    3  O   UNK A   0      -9.072   6.354  67.193  1.00  0.00    -0.118 OA 
BRANCH   3   4
HETATM    4  C   UNK A   0     -10.290   6.780  67.636  1.00  0.00    -0.203 C  
HETATM    5  O   UNK A   0     -11.249   7.047  66.922  1.00  0.00    -0.302 OA 
BRANCH   4   6
HETATM    6  C   UNK A   0     -10.302   6.867  69.173  1.00  0.00    -0.195 C  
BRANCH   6   7
HETATM    7  C   UNK A   0     -10.325   5.451  69.775  1.00  0.00    -0.375 C  
BRANCH   7   8
HETATM    8  C   UNK A   0     -10.577   5.385  71.284  1.00  0.00    -0.276 C  
BRANCH   8   9
HETATM    9  C   UNK A   0      -9.278   5.037  71.981  1.00  0.00    -0.160 A  
HETATM   10  C   UNK A   0      -9.090   5.332  73.338  1.00  0.00    -0.128 A  
HETATM   11  C   UNK A   0      -7.930   4.920  74.000  1.00  0.00    -0.101 A  
HETATM   12  C   UNK A   0      -6.950   4.206  73.311  1.00  0.00    -0.062 A  
HETATM   13  C   UNK A   0      -8.284   4.319  71.299  1.00  0.00    -0.083 A  
HETATM   14  C   UNK A   0      -7.127   3.908  71.962  1.00  0.00    -0.049 A  
ENDBRANCH   8   9
ENDBRANCH   7   8
ENDBRANCH   6   7
BRANCH   6  15
ATOM     15  N   ALA A   1     -11.490   7.677  69.582  1.00  0.00    -0.441 NA 
ATOM     16  H   ALA A   1     -12.109   7.129  70.179  1.00  0.00     0.000 HD 
BRANCH  15  17
ATOM     17  CA  ALA A   1     -11.146   8.960  70.230  1.00  0.00    -0.228 C  
ATOM     18  CB  ALA A   1     -11.482   8.938  71.721  1.00  0.00    -0.423 C  
BRANCH  17  19
ATOM     19  C   ALA A   1      -9.661   9.375  69.981  1.00  0.00    -0.226 C  
HETATM   20  C   UNK A   2      -9.829  11.601  66.971  1.00  0.00    -0.193 C  
ATOM     21  O   ALA A   1      -8.714   8.926  70.630  1.00  0.00    -0.158 OA 
HETATM   22  C   UNK A   2      -8.373  11.748  67.416  1.00  0.00    -0.159 C  
HETATM   23  N   UNK A   2      -9.433  10.320  68.981  1.00  0.00    -0.189 N  
HETATM   24  S   UNK A   2     -10.738  13.192  67.116  1.00  0.00    -0.257 SA 
HETATM   25  C   UNK A   2     -11.200  13.376  65.376  1.00  0.00    -0.288 C  
HETATM   26  C   UNK A   2      -8.098  10.609  68.424  1.00  0.00    -0.123 C  
HETATM   27  C   UNK A   2     -10.435  10.582  67.946  1.00  0.00    -0.210 C  
HETATM   28  C   UNK A   2      -6.892  11.060  69.285  1.00  0.00    -0.110 C  
HETATM   29  C   UNK A   2     -11.372  12.000  64.766  1.00  0.00    -0.313 C  
HETATM   30  S   UNK A   2      -9.936  11.009  65.243  1.00  0.00    -0.285 SA 
HETATM   31  O   UNK A   2      -6.876  10.639  70.562  1.00  0.00    -0.309 OA 
HETATM   32  O   UNK A   2      -5.939  11.679  68.820  1.00  0.00    -0.047 OA 
ENDBRANCH  17  19
ENDBRANCH  15  17
ENDBRANCH   6  15
ENDBRANCH   4   6
ENDBRANCH   3   4
ENDBRANCH   2   3
TORSDOF 9
ENDMDL
MODEL      190
REMARK 921   NORMALIZED FREE ENERGY PREDICTED BY IDOCK:   -4.03 KCAL/MOL
REMARK 922        TOTAL FREE ENERGY PREDICTED BY IDOCK:   -7.50 KCAL/MOL
REMARK 923 INTER-LIGAND FREE ENERGY PREDICTED BY IDOCK:   -6.27 KCAL/MOL
REMARK 924 INTRA-LIGAND FREE ENERGY PREDICTED BY IDOCK:   -1.23 KCAL/MOL
REMARK 927      BINDING AFFINITY PREDICTED BY RF-SCORE:    0.00 PKD
ROOT
HETATM    1  C   UNK A   0      -5.660  10.914  66.139  1.00  0.00    -0.134 C  
HETATM    2  C   UNK A   0      -7.012  10.325  65.782  1.00  0.00    -0.128 C  
ENDROOT
BRANCH   2   3
HETATM    3  O   UNK A   0      -8.070  11.119  66.341  1.00  0.00    -0.163 OA 
BRANCH   3   4
HETATM    4  C   UNK A   0      -8.508  10.750  67.580  1.00  0.00    -0.119 C  
HETATM    5  O   UNK A   0      -7.933  10.993  68.635  1.00  0.00    -0.127 OA 
BRANCH   4   6
HETATM    6  C   UNK A   0      -9.844   9.993  67.475  1.00  0.00    -0.175 C  
BRANCH   6   7
HETATM    7  C   UNK A   0     -10.992  10.992  67.240  1.00  0.00    -0.356 C  
BRANCH   7   8
HETATM    8  C   UNK A   0     -11.879  11.268  68.457  1.00  0.00    -0.355 C  
BRANCH   8   9
HETATM    9  C   UNK A   0     -11.924  12.762  68.699  1.00  0.00    -0.272 A  
HETATM   10  C   UNK A   0     -12.099  13.274  69.992  1.00  0.00    -0.385 A  
HETATM   11  C   UNK A   0     -12.040  14.651  70.223  1.00  0.00    -0.380 A  
HETATM   12  C   UNK A   0     -11.803  15.527  69.165  1.00  0.00    -0.373 A  
HETATM   13  C   UNK A   0     -11.687  13.653  67.642  1.00  0.00    -0.398 A  
HETATM   14  C   UNK A   0     -11.630  15.028  67.876  1.00  0.00    -0.350 A  
ENDBRANCH   8   9
ENDBRANCH   7   8
ENDBRANCH   6   7
BRANCH   6  15
ATOM     15  N   ALA A   1     -10.029   9.201  68.729  1.00  0.00    -0.171 NA 
ATOM     16  H   ALA A   1     -10.860   9.514  69.231  1.00  0.00     0.000 HD 
BRANCH  15  17
ATOM     17  CA  ALA A   1     -10.072   7.740  68.515  1.00  0.00    -0.199 C  
ATOM     18  CB  ALA A   1     -10.648   7.395  67.142  1.00  0.00    -0.413 C  
BRANCH  17  19
ATOM     19  C   ALA A   1      -8.682   7.064  68.742  1.00  0.00    -0.127 C  
HETATM   20  C   UNK A   2      -8.922   5.627  72.195  1.00  0.00    -0.137 C  
ATOM     21  O   ALA A   1      -7.753   7.138  67.936  1.00  0.00    -0.108 OA 
HETATM   22  C   UNK A   2      -7.593   5.063  71.688  1.00  0.00    -0.104 C  
HETATM   23  N   UNK A   2      -8.528   6.326  69.916  1.00  0.00    -0.128 N  
HETATM   24  S   UNK A   2     -10.145   4.288  72.497  1.00  0.00    -0.175 SA 
HETATM   25  C   UNK A   2     -10.414   4.589  74.261  1.00  0.00    -0.270 C  
HETATM   26  C   UNK A   2      -7.220   5.868  70.423  1.00  0.00    -0.072 C  
HETATM   27  C   UNK A   2      -9.426   6.524  71.056  1.00  0.00    -0.164 C  
HETATM   28  C   UNK A   2      -6.248   4.985  69.603  1.00  0.00    -0.026 C  
HETATM   29  C   UNK A   2     -10.226   6.065  74.541  1.00  0.00    -0.290 C  
HETATM   30  S   UNK A   2      -8.690   6.581  73.738  1.00  0.00    -0.128 SA 
HETATM   31  O   UNK A   2      -6.306   5.109  68.266  1.00  0.00    -0.033 OA 
HETATM   32  O   UNK A   2      -5.390   4.280  70.128  1.00  0.00    -0.007 OA 
ENDBRANCH  17  19
ENDBRANCH  15  17
ENDBRANCH   6  15
ENDBRANCH   4   6
ENDBRANCH   3   4
ENDBRANCH   2   3
TORSDOF 9
ENDMDL
MODEL      191
REMARK 921   NORMALIZED FREE ENERGY PREDICTED BY IDOCK:   -4.01 KCAL/MOL
REMARK 922        TOTAL FREE ENERGY PREDICTED BY IDOCK:   -7.47 KCAL/MOL
REMARK 923 INTER-LIGAND FREE ENERGY PREDICTED BY IDOCK:   -6.89 KCAL/MOL
REMARK 924 INTRA-LIGAND FREE ENERGY PREDICTED BY IDOCK:   -0.58 KCAL/MOL
REMARK 927      BINDING AFFINITY PREDICTED BY RF-SCORE:    0.00 PKD
ROOT
HETATM    1  C   UNK A   0      -7.489   9.267  70.872  1.00  0.00    -0.123 C  
HETATM    2  C   UNK A   0      -7.061  10.286  69.832  1.00  0.00    -0.152 C  
ENDROOT
BRANCH   2   3
HETATM    3  O   UNK A   0      -8.003  10.322  68.747  1.00  0.00    -0.099 OA 
BRANCH   3   4
HETATM    4  C   UNK A   0      -7.522   9.963  67.521  1.00  0.00    -0.091 C  
HETATM    5  O   UNK A   0      -6.421  10.263  67.077  1.00  0.00    -0.069 OA 
BRANCH   4   6
HETATM    6  C   UNK A   0      -8.558   9.107  66.768  1.00  0.00    -0.127 C  
BRANCH   6   7
HETATM    7  C   UNK A   0      -9.792   9.962  66.428  1.00  0.00    -0.288 C  
BRANCH   7   8
HETATM    8  C   UNK A   0      -9.864  10.460  64.982  1.00  0.00    -0.384 C  
BRANCH   8   9
HETATM    9  C   UNK A   0     -10.600  11.783  64.958  1.00  0.00    -0.338 A  
HETATM   10  C   UNK A   0     -10.237  12.822  65.827  1.00  0.00    -0.302 A  
HETATM   11  C   UNK A   0     -10.852  14.073  65.733  1.00  0.00    -0.291 A  
HETATM   12  C   UNK A   0     -11.832  14.298  64.768  1.00  0.00    -0.436 A  
HETATM   13  C   UNK A   0     -11.588  12.022  63.992  1.00  0.00    -0.495 A  
HETATM   14  C   UNK A   0     -12.201  13.273  63.900  1.00  0.00    -0.491 A  
ENDBRANCH   8   9
ENDBRANCH   7   8
ENDBRANCH   6   7
BRANCH   6  15
ATOM     15  N   ALA A   1      -8.900   7.932  67.627  1.00  0.00    -0.128 NA 
ATOM     16  H   ALA A   1      -8.368   7.956  68.496  1.00  0.00     0.000 HD 
BRANCH  15  17
ATOM     17  CA  ALA A   1     -10.344   7.796  67.907  1.00  0.00    -0.217 C  
ATOM     18  CB  ALA A   1     -10.935   6.574  67.204  1.00  0.00    -0.480 C  
BRANCH  17  19
ATOM     19  C   ALA A   1     -10.656   7.785  69.438  1.00  0.00    -0.208 C  
HETATM   20  C   UNK A   2      -8.888   4.733  70.706  1.00  0.00    -0.121 C  
ATOM     21  O   ALA A   1     -11.411   8.593  69.982  1.00  0.00    -0.164 OA 
HETATM   22  C   UNK A   2      -9.357   5.409  71.996  1.00  0.00    -0.163 C  
HETATM   23  N   UNK A   2     -10.010   6.813  70.203  1.00  0.00    -0.177 N  
HETATM   24  S   UNK A   2      -7.053   4.686  70.605  1.00  0.00    -0.042 SA 
HETATM   25  C   UNK A   2      -6.854   2.889  70.517  1.00  0.00    -0.033 C  
HETATM   26  C   UNK A   2     -10.397   6.478  71.586  1.00  0.00    -0.207 C  
HETATM   27  C   UNK A   2      -9.433   5.620  69.579  1.00  0.00    -0.136 C  
HETATM   28  C   UNK A   2     -10.444   7.515  72.735  1.00  0.00    -0.295 C  
HETATM   29  C   UNK A   2      -8.064   2.295  69.827  1.00  0.00    -0.041 C  
HETATM   30  S   UNK A   2      -9.536   3.027  70.580  1.00  0.00    -0.120 SA 
HETATM   31  O   UNK A   2     -10.702   8.787  72.386  1.00  0.00    -0.315 OA 
HETATM   32  O   UNK A   2     -10.359   7.198  73.918  1.00  0.00    -0.358 OA 
ENDBRANCH  17  19
ENDBRANCH  15  17
ENDBRANCH   6  15
ENDBRANCH   4   6
ENDBRANCH   3   4
ENDBRANCH   2   3
TORSDOF 9
ENDMDL
MODEL      192
REMARK 921   NORMALIZED FREE ENERGY PREDICTED BY IDOCK:   -4.01 KCAL/MOL
REMARK 922        TOTAL FREE ENERGY PREDICTED BY IDOCK:   -7.46 KCAL/MOL
REMARK 923 INTER-LIGAND FREE ENERGY PREDICTED BY IDOCK:   -6.55 KCAL/MOL
REMARK 924 INTRA-LIGAND FREE ENERGY PREDICTED BY IDOCK:   -0.91 KCAL/MOL
REMARK 927      BINDING AFFINITY PREDICTED BY RF-SCORE:    0.00 PKD
ROOT
HETATM    1  C   UNK A   0     -12.655  10.022  70.803  1.00  0.00    -0.372 C  
HETATM    2  C   UNK A   0     -11.597   9.128  70.184  1.00  0.00    -0.016 C  
ENDROOT
BRANCH   2   3
HETATM    3  O   UNK A   0     -10.444   9.899  69.808  1.00  0.00    -0.224 OA 
BRANCH   3   4
HETATM    4  C   UNK A   0      -9.537   9.272  69.004  1.00  0.00    -0.159 C  
HETATM    5  O   UNK A   0      -9.708   8.190  68.453  1.00  0.00    -0.155 OA 
BRANCH   4   6
HETATM    6  C   UNK A   0      -8.262  10.124  68.867  1.00  0.00    -0.124 C  
BRANCH   6   7
HETATM    7  C   UNK A   0      -7.258   9.739  69.968  1.00  0.00    -0.130 C  
BRANCH   7   8
HETATM    8  C   UNK A   0      -7.879   9.211  71.265  1.00  0.00    -0.067 C  
BRANCH   8   9
HETATM    9  C   UNK A   0      -7.232   7.887  71.612  1.00  0.00    -0.069 A  
HETATM   10  C   UNK A   0      -6.036   7.842  72.341  1.00  0.00    -0.040 A  
HETATM   11  C   UNK A   0      -5.497   6.617  72.744  1.00  0.00    -0.038 A  
HETATM   12  C   UNK A   0      -6.150   5.428  72.424  1.00  0.00    -0.031 A  
HETATM   13  C   UNK A   0      -7.879   6.683  71.295  1.00  0.00    -0.102 A  
HETATM   14  C   UNK A   0      -7.338   5.461  71.698  1.00  0.00    -0.089 A  
ENDBRANCH   8   9
ENDBRANCH   7   8
ENDBRANCH   6   7
BRANCH   6  15
ATOM     15  N   ALA A   1      -8.656  11.564  68.936  1.00  0.00    -0.362 NA 
ATOM     16  H   ALA A   1      -8.304  11.990  69.793  1.00  0.00     0.000 HD 
BRANCH  15  17
ATOM     17  CA  ALA A   1      -8.248  12.355  67.757  1.00  0.00    -0.163 C  
ATOM     18  CB  ALA A   1      -7.121  11.667  66.989  1.00  0.00    -0.145 C  
BRANCH  17  19
ATOM     19  C   ALA A   1      -9.453  12.700  66.825  1.00  0.00    -0.237 C  
HETATM   20  C   UNK A   2      -9.678  16.438  66.973  1.00  0.00    -0.248 C  
ATOM     21  O   ALA A   1     -10.163  11.846  66.292  1.00  0.00    -0.208 OA 
HETATM   22  C   UNK A   2     -10.684  16.084  65.876  1.00  0.00    -0.287 C  
HETATM   23  N   UNK A   2      -9.693  14.053  66.586  1.00  0.00    -0.279 N  
HETATM   24  S   UNK A   2      -8.276  17.421  66.304  1.00  0.00    -0.219 SA 
HETATM   25  C   UNK A   2      -8.497  18.899  67.325  1.00  0.00    -0.277 C  
HETATM   26  C   UNK A   2     -10.936  14.562  65.976  1.00  0.00    -0.324 C  
HETATM   27  C   UNK A   2      -9.153  15.085  67.473  1.00  0.00    -0.185 C  
HETATM   28  C   UNK A   2     -11.458  14.106  64.591  1.00  0.00    -0.387 C  
HETATM   29  C   UNK A   2      -9.087  18.489  68.658  1.00  0.00    -0.298 C  
HETATM   30  S   UNK A   2     -10.475  17.380  68.323  1.00  0.00    -0.377 SA 
HETATM   31  O   UNK A   2     -11.126  12.862  64.205  1.00  0.00    -0.355 OA 
HETATM   32  O   UNK A   2     -12.223  14.787  63.914  1.00  0.00    -0.584 OA 
ENDBRANCH  17  19
ENDBRANCH  15  17
ENDBRANCH   6  15
ENDBRANCH   4   6
ENDBRANCH   3   4
ENDBRANCH   2   3
TORSDOF 9
ENDMDL
MODEL      193
REMARK 921   NORMALIZED FREE ENERGY PREDICTED BY IDOCK:   -4.00 KCAL/MOL
REMARK 922        TOTAL FREE ENERGY PREDICTED BY IDOCK:   -7.45 KCAL/MOL
REMARK 923 INTER-LIGAND FREE ENERGY PREDICTED BY IDOCK:   -7.04 KCAL/MOL
REMARK 924 INTRA-LIGAND FREE ENERGY PREDICTED BY IDOCK:   -0.40 KCAL/MOL
REMARK 927      BINDING AFFINITY PREDICTED BY RF-SCORE:    0.00 PKD
ROOT
HETATM    1  C   UNK A   0     -14.046   8.943  72.450  1.00  0.00    -0.493 C  
HETATM    2  C   UNK A   0     -13.274  10.055  71.765  1.00  0.00    -0.437 C  
ENDROOT
BRANCH   2   3
HETATM    3  O   UNK A   0     -11.871   9.747  71.731  1.00  0.00    -0.383 OA 
BRANCH   3   4
HETATM    4  C   UNK A   0     -11.480   8.826  70.803  1.00  0.00    -0.270 C  
HETATM    5  O   UNK A   0     -11.793   7.641  70.806  1.00  0.00    -0.279 OA 
BRANCH   4   6
HETATM    6  C   UNK A   0     -10.593   9.487  69.732  1.00  0.00    -0.236 C  
BRANCH   6   7
HETATM    7  C   UNK A   0     -11.377  10.609  69.026  1.00  0.00    -0.340 C  
BRANCH   7   8
HETATM    8  C   UNK A   0     -11.199  10.676  67.507  1.00  0.00    -0.326 C  
BRANCH   8   9
HETATM    9  C   UNK A   0     -11.070  12.127  67.095  1.00  0.00    -0.345 A  
HETATM   10  C   UNK A   0     -12.033  12.728  66.272  1.00  0.00    -0.460 A  
HETATM   11  C   UNK A   0     -11.962  14.092  65.977  1.00  0.00    -0.434 A  
HETATM   12  C   UNK A   0     -10.930  14.867  66.503  1.00  0.00    -0.327 A  
HETATM   13  C   UNK A   0     -10.036  12.918  67.617  1.00  0.00    -0.218 A  
HETATM   14  C   UNK A   0      -9.967  14.280  67.320  1.00  0.00    -0.252 A  
ENDBRANCH   8   9
ENDBRANCH   7   8
ENDBRANCH   6   7
BRANCH   6  15
ATOM     15  N   ALA A   1     -10.144   8.424  68.781  1.00  0.00    -0.192 NA 
ATOM     16  H   ALA A   1     -10.289   8.722  67.817  1.00  0.00     0.000 HD 
BRANCH  15  17
ATOM     17  CA  ALA A   1      -8.748   7.987  68.986  1.00  0.00    -0.137 C  
ATOM     18  CB  ALA A   1      -8.418   6.763  68.134  1.00  0.00    -0.121 C  
BRANCH  17  19
ATOM     19  C   ALA A   1      -7.722   9.143  68.755  1.00  0.00    -0.087 C  
HETATM   20  C   UNK A   2      -7.742   9.651  65.042  1.00  0.00    -0.119 C  
ATOM     21  O   ALA A   1      -7.041   9.633  69.657  1.00  0.00    -0.060 OA 
HETATM   22  C   UNK A   2      -6.888  10.820  65.536  1.00  0.00     0.015 C  
HETATM   23  N   UNK A   2      -7.616   9.637  67.455  1.00  0.00    -0.094 N  
HETATM   24  S   UNK A   2      -9.294  10.243  64.254  1.00  0.00    -0.298 SA 
HETATM   25  C   UNK A   2      -9.029   9.527  62.613  1.00  0.00    -0.238 C  
HETATM   26  C   UNK A   2      -6.517  10.512  67.005  1.00  0.00    -0.076 C  
HETATM   27  C   UNK A   2      -8.090   8.858  66.309  1.00  0.00    -0.110 C  
HETATM   28  C   UNK A   2      -6.175  11.867  67.671  1.00  0.00    -0.083 C  
HETATM   29  C   UNK A   2      -8.220   8.255  62.757  1.00  0.00    -0.146 C  
HETATM   30  S   UNK A   2      -6.822   8.618  63.846  1.00  0.00    -0.087 SA 
HETATM   31  O   UNK A   2      -6.472  11.986  68.977  1.00  0.00    -0.076 OA 
HETATM   32  O   UNK A   2      -5.570  12.760  67.085  1.00  0.00    -0.334 OA 
ENDBRANCH  17  19
ENDBRANCH  15  17
ENDBRANCH   6  15
ENDBRANCH   4   6
ENDBRANCH   3   4
ENDBRANCH   2   3
TORSDOF 9
ENDMDL
MODEL      194
REMARK 921   NORMALIZED FREE ENERGY PREDICTED BY IDOCK:   -3.99 KCAL/MOL
REMARK 922        TOTAL FREE ENERGY PREDICTED BY IDOCK:   -7.44 KCAL/MOL
REMARK 923 INTER-LIGAND FREE ENERGY PREDICTED BY IDOCK:   -5.96 KCAL/MOL
REMARK 924 INTRA-LIGAND FREE ENERGY PREDICTED BY IDOCK:   -1.47 KCAL/MOL
REMARK 927      BINDING AFFINITY PREDICTED BY RF-SCORE:    0.00 PKD
ROOT
HETATM    1  C   UNK A   0     -10.220  16.956  66.455  1.00  0.00    -0.320 C  
HETATM    2  C   UNK A   0      -9.346  16.005  67.251  1.00  0.00    -0.210 C  
ENDROOT
BRANCH   2   3
HETATM    3  O   UNK A   0      -9.908  15.775  68.553  1.00  0.00    -0.202 OA 
BRANCH   3   4
HETATM    4  C   UNK A   0     -10.789  14.738  68.653  1.00  0.00    -0.253 C  
HETATM    5  O   UNK A   0     -11.912  14.808  69.139  1.00  0.00    -0.303 OA 
BRANCH   4   6
HETATM    6  C   UNK A   0     -10.181  13.456  68.055  1.00  0.00    -0.243 C  
BRANCH   6   7
HETATM    7  C   UNK A   0     -11.305  12.474  67.677  1.00  0.00    -0.362 C  
BRANCH   7   8
HETATM    8  C   UNK A   0     -10.963  10.991  67.850  1.00  0.00    -0.317 C  
BRANCH   8   9
HETATM    9  C   UNK A   0     -11.480  10.525  69.195  1.00  0.00    -0.314 A  
HETATM   10  C   UNK A   0     -10.928   9.402  69.826  1.00  0.00    -0.234 A  
HETATM   11  C   UNK A   0     -11.340   9.036  71.110  1.00  0.00    -0.375 A  
HETATM   12  C   UNK A   0     -12.305   9.790  71.775  1.00  0.00    -0.470 A  
HETATM   13  C   UNK A   0     -12.451  11.276  69.874  1.00  0.00    -0.220 A  
HETATM   14  C   UNK A   0     -12.861  10.907  71.156  1.00  0.00    -0.508 A  
ENDBRANCH   8   9
ENDBRANCH   7   8
ENDBRANCH   6   7
BRANCH   6  15
ATOM     15  N   ALA A   1      -9.237  12.879  69.060  1.00  0.00    -0.229 NA 
ATOM     16  H   ALA A   1      -9.657  12.075  69.526  1.00  0.00     0.000 HD 
BRANCH  15  17
ATOM     17  CA  ALA A   1      -7.914  12.524  68.505  1.00  0.00    -0.097 C  
ATOM     18  CB  ALA A   1      -6.799  13.335  69.163  1.00  0.00    -0.067 C  
BRANCH  17  19
ATOM     19  C   ALA A   1      -7.630  10.990  68.578  1.00  0.00    -0.114 C  
HETATM   20  C   UNK A   2      -7.558   9.905  64.992  1.00  0.00    -0.134 C  
ATOM     21  O   ALA A   1      -7.564  10.363  69.637  1.00  0.00    -0.145 OA 
HETATM   22  C   UNK A   2      -7.093   8.649  65.732  1.00  0.00    -0.079 C  
HETATM   23  N   UNK A   2      -7.420  10.332  67.366  1.00  0.00    -0.093 N  
HETATM   24  S   UNK A   2      -6.232  10.572  63.907  1.00  0.00     0.089 SA 
HETATM   25  C   UNK A   2      -7.113  10.449  62.331  1.00  0.00    -0.144 C  
HETATM   26  C   UNK A   2      -7.424   8.863  67.226  1.00  0.00    -0.084 C  
HETATM   27  C   UNK A   2      -7.864  10.921  66.100  1.00  0.00    -0.144 C  
HETATM   28  C   UNK A   2      -6.488   7.927  68.028  1.00  0.00    -0.052 C  
HETATM   29  C   UNK A   2      -8.596  10.624  62.583  1.00  0.00    -0.230 C  
HETATM   30  S   UNK A   2      -9.042   9.563  63.978  1.00  0.00    -0.036 SA 
HETATM   31  O   UNK A   2      -6.094   8.363  69.238  1.00  0.00    -0.037 OA 
HETATM   32  O   UNK A   2      -6.193   6.798  67.646  1.00  0.00    -0.036 OA 
ENDBRANCH  17  19
ENDBRANCH  15  17
ENDBRANCH   6  15
ENDBRANCH   4   6
ENDBRANCH   3   4
ENDBRANCH   2   3
TORSDOF 9
ENDMDL
MODEL      195
REMARK 921   NORMALIZED FREE ENERGY PREDICTED BY IDOCK:   -3.99 KCAL/MOL
REMARK 922        TOTAL FREE ENERGY PREDICTED BY IDOCK:   -7.43 KCAL/MOL
REMARK 923 INTER-LIGAND FREE ENERGY PREDICTED BY IDOCK:   -6.20 KCAL/MOL
REMARK 924 INTRA-LIGAND FREE ENERGY PREDICTED BY IDOCK:   -1.23 KCAL/MOL
REMARK 927      BINDING AFFINITY PREDICTED BY RF-SCORE:    0.00 PKD
ROOT
HETATM    1  C   UNK A   0      -9.913   4.853  66.817  1.00  0.00    -0.250 C  
HETATM    2  C   UNK A   0     -10.395   6.288  66.714  1.00  0.00    -0.221 C  
ENDROOT
BRANCH   2   3
HETATM    3  O   UNK A   0      -9.333   7.200  67.038  1.00  0.00    -0.139 OA 
BRANCH   3   4
HETATM    4  C   UNK A   0      -9.536   8.506  66.699  1.00  0.00    -0.207 C  
HETATM    5  O   UNK A   0      -9.416   8.971  65.571  1.00  0.00    -0.228 OA 
BRANCH   4   6
HETATM    6  C   UNK A   0      -9.955   9.323  67.934  1.00  0.00    -0.187 C  
BRANCH   6   7
HETATM    7  C   UNK A   0     -11.157  10.219  67.583  1.00  0.00    -0.319 C  
BRANCH   7   8
HETATM    8  C   UNK A   0     -10.835  11.705  67.404  1.00  0.00    -0.298 C  
BRANCH   8   9
HETATM    9  C   UNK A   0     -11.430  12.476  68.564  1.00  0.00    -0.346 A  
HETATM   10  C   UNK A   0     -11.982  11.804  69.664  1.00  0.00    -0.378 A  
HETATM   11  C   UNK A   0     -12.439  12.519  70.775  1.00  0.00    -0.357 A  
HETATM   12  C   UNK A   0     -12.345  13.909  70.797  1.00  0.00    -0.449 A  
HETATM   13  C   UNK A   0     -11.341  13.875  68.598  1.00  0.00    -0.310 A  
HETATM   14  C   UNK A   0     -11.799  14.586  69.709  1.00  0.00    -0.367 A  
ENDBRANCH   8   9
ENDBRANCH   7   8
ENDBRANCH   6   7
BRANCH   6  15
ATOM     15  N   ALA A   1      -8.771  10.114  68.390  1.00  0.00    -0.120 NA 
ATOM     16  H   ALA A   1      -9.055  11.052  68.673  1.00  0.00     0.000 HD 
BRANCH  15  17
ATOM     17  CA  ALA A   1      -7.991   9.463  69.462  1.00  0.00    -0.098 C  
ATOM     18  CB  ALA A   1      -7.061  10.457  70.156  1.00  0.00    -0.125 C  
BRANCH  17  19
ATOM     19  C   ALA A   1      -8.900   8.712  70.487  1.00  0.00    -0.163 C  
HETATM   20  C   UNK A   2      -7.415   5.276  70.675  1.00  0.00    -0.071 C  
ATOM     21  O   ALA A   1      -9.913   9.207  70.984  1.00  0.00    -0.250 OA 
HETATM   22  C   UNK A   2      -8.460   5.252  71.793  1.00  0.00    -0.126 C  
HETATM   23  N   UNK A   2      -8.501   7.427  70.856  1.00  0.00    -0.122 N  
HETATM   24  S   UNK A   2      -5.713   5.099  71.346  1.00  0.00    -0.017 SA 
HETATM   25  C   UNK A   2      -5.255   3.584  70.470  1.00  0.00    -0.004 C  
HETATM   26  C   UNK A   2      -9.373   6.480  71.577  1.00  0.00    -0.147 C  
HETATM   27  C   UNK A   2      -7.563   6.661  70.031  1.00  0.00    -0.100 C  
HETATM   28  C   UNK A   2     -10.028   6.794  72.944  1.00  0.00    -0.174 C  
HETATM   29  C   UNK A   2      -5.982   3.546  69.142  1.00  0.00    -0.024 C  
HETATM   30  S   UNK A   2      -7.718   3.944  69.459  1.00  0.00    -0.052 SA 
HETATM   31  O   UNK A   2     -10.289   8.087  73.203  1.00  0.00    -0.332 OA 
HETATM   32  O   UNK A   2     -10.394   5.916  73.721  1.00  0.00    -0.221 OA 
ENDBRANCH  17  19
ENDBRANCH  15  17
ENDBRANCH   6  15
ENDBRANCH   4   6
ENDBRANCH   3   4
ENDBRANCH   2   3
TORSDOF 9
ENDMDL
MODEL      196
REMARK 921   NORMALIZED FREE ENERGY PREDICTED BY IDOCK:   -3.97 KCAL/MOL
REMARK 922        TOTAL FREE ENERGY PREDICTED BY IDOCK:   -7.40 KCAL/MOL
REMARK 923 INTER-LIGAND FREE ENERGY PREDICTED BY IDOCK:   -5.91 KCAL/MOL
REMARK 924 INTRA-LIGAND FREE ENERGY PREDICTED BY IDOCK:   -1.50 KCAL/MOL
REMARK 927      BINDING AFFINITY PREDICTED BY RF-SCORE:    0.00 PKD
ROOT
HETATM    1  C   UNK A   0      -9.752   2.829  71.043  1.00  0.00    -0.160 C  
HETATM    2  C   UNK A   0      -8.939   4.104  71.159  1.00  0.00    -0.117 C  
ENDROOT
BRANCH   2   3
HETATM    3  O   UNK A   0      -9.157   4.946  70.016  1.00  0.00    -0.102 OA 
BRANCH   3   4
HETATM    4  C   UNK A   0      -8.154   4.978  69.091  1.00  0.00    -0.083 C  
HETATM    5  O   UNK A   0      -7.308   4.106  68.935  1.00  0.00    -0.054 OA 
BRANCH   4   6
HETATM    6  C   UNK A   0      -8.238   6.266  68.251  1.00  0.00    -0.115 C  
BRANCH   6   7
HETATM    7  C   UNK A   0      -6.867   6.566  67.619  1.00  0.00    -0.076 C  
BRANCH   7   8
HETATM    8  C   UNK A   0      -6.593   8.044  67.324  1.00  0.00    -0.058 C  
BRANCH   8   9
HETATM    9  C   UNK A   0      -7.178   8.387  65.970  1.00  0.00    -0.073 A  
HETATM   10  C   UNK A   0      -6.842   7.640  64.832  1.00  0.00    -0.051 A  
HETATM   11  C   UNK A   0      -7.461   7.897  63.606  1.00  0.00    -0.118 A  
HETATM   12  C   UNK A   0      -8.422   8.902  63.507  1.00  0.00    -0.146 A  
HETATM   13  C   UNK A   0      -8.147   9.395  65.857  1.00  0.00    -0.114 A  
HETATM   14  C   UNK A   0      -8.763   9.651  64.631  1.00  0.00    -0.227 A  
ENDBRANCH   8   9
ENDBRANCH   7   8
ENDBRANCH   6   7
BRANCH   6  15
ATOM     15  N   ALA A   1      -8.708   7.371  69.141  1.00  0.00    -0.136 NA 
ATOM     16  H   ALA A   1      -7.929   7.973  69.406  1.00  0.00     0.000 HD 
BRANCH  15  17
ATOM     17  CA  ALA A   1      -9.812   8.171  68.573  1.00  0.00    -0.179 C  
ATOM     18  CB  ALA A   1     -10.688   7.331  67.645  1.00  0.00    -0.294 C  
BRANCH  17  19
ATOM     19  C   ALA A   1     -10.659   8.884  69.674  1.00  0.00    -0.226 C  
HETATM   20  C   UNK A   2     -10.955  12.415  68.452  1.00  0.00    -0.241 C  
ATOM     21  O   ALA A   1     -11.011   8.335  70.720  1.00  0.00    -0.234 OA 
HETATM   22  C   UNK A   2     -11.898  12.397  69.657  1.00  0.00    -0.380 C  
HETATM   23  N   UNK A   2     -11.041  10.201  69.418  1.00  0.00    -0.240 N  
HETATM   24  S   UNK A   2     -11.874  12.720  66.889  1.00  0.00    -0.318 SA 
HETATM   25  C   UNK A   2     -11.028  14.241  66.395  1.00  0.00    -0.311 C  
HETATM   26  C   UNK A   2     -11.586  11.106  70.448  1.00  0.00    -0.259 C  
HETATM   27  C   UNK A   2     -10.344  11.008  68.412  1.00  0.00    -0.183 C  
HETATM   28  C   UNK A   2     -12.846  10.783  71.288  1.00  0.00    -0.438 C  
HETATM   29  C   UNK A   2      -9.603  14.198  66.907  1.00  0.00    -0.270 C  
HETATM   30  S   UNK A   2      -9.662  13.694  68.643  1.00  0.00    -0.048 SA 
HETATM   31  O   UNK A   2     -13.106   9.482  71.505  1.00  0.00    -0.348 OA 
HETATM   32  O   UNK A   2     -13.526  11.653  71.824  1.00  0.00    -0.306 OA 
ENDBRANCH  17  19
ENDBRANCH  15  17
ENDBRANCH   6  15
ENDBRANCH   4   6
ENDBRANCH   3   4
ENDBRANCH   2   3
TORSDOF 9
ENDMDL
MODEL      197
REMARK 921   NORMALIZED FREE ENERGY PREDICTED BY IDOCK:   -3.95 KCAL/MOL
REMARK 922        TOTAL FREE ENERGY PREDICTED BY IDOCK:   -7.37 KCAL/MOL
REMARK 923 INTER-LIGAND FREE ENERGY PREDICTED BY IDOCK:   -6.36 KCAL/MOL
REMARK 924 INTRA-LIGAND FREE ENERGY PREDICTED BY IDOCK:   -1.01 KCAL/MOL
REMARK 927      BINDING AFFINITY PREDICTED BY RF-SCORE:    0.00 PKD
ROOT
HETATM    1  C   UNK A   0      -9.497   3.866  69.391  1.00  0.00    -0.260 C  
HETATM    2  C   UNK A   0      -9.867   5.139  70.130  1.00  0.00    -0.230 C  
ENDROOT
BRANCH   2   3
HETATM    3  O   UNK A   0      -9.472   6.294  69.372  1.00  0.00    -0.139 OA 
BRANCH   3   4
HETATM    4  C   UNK A   0     -10.259   6.609  68.302  1.00  0.00    -0.171 C  
HETATM    5  O   UNK A   0     -11.286   6.022  67.981  1.00  0.00    -0.253 OA 
BRANCH   4   6
HETATM    6  C   UNK A   0      -9.684   7.825  67.552  1.00  0.00    -0.158 C  
BRANCH   6   7
HETATM    7  C   UNK A   0      -8.982   7.358  66.264  1.00  0.00    -0.192 C  
BRANCH   7   8
HETATM    8  C   UNK A   0      -8.376   5.953  66.322  1.00  0.00    -0.117 C  
BRANCH   8   9
HETATM    9  C   UNK A   0      -8.833   5.175  65.106  1.00  0.00    -0.146 A  
HETATM   10  C   UNK A   0      -8.099   5.213  63.912  1.00  0.00    -0.119 A  
HETATM   11  C   UNK A   0      -8.469   4.415  62.826  1.00  0.00    -0.096 A  
HETATM   12  C   UNK A   0      -9.575   3.572  62.925  1.00  0.00    -0.105 A  
HETATM   13  C   UNK A   0      -9.943   4.323  65.192  1.00  0.00    -0.215 A  
HETATM   14  C   UNK A   0     -10.312   3.527  64.106  1.00  0.00    -0.220 A  
ENDBRANCH   8   9
ENDBRANCH   7   8
ENDBRANCH   6   7
BRANCH   6  15
ATOM     15  N   ALA A   1      -8.755   8.543  68.477  1.00  0.00    -0.138 NA 
ATOM     16  H   ALA A   1      -7.864   8.728  68.017  1.00  0.00     0.000 HD 
BRANCH  15  17
ATOM     17  CA  ALA A   1      -9.315   9.787  69.043  1.00  0.00    -0.161 C  
ATOM     18  CB  ALA A   1      -9.619   9.633  70.532  1.00  0.00    -0.261 C  
BRANCH  17  19
ATOM     19  C   ALA A   1      -8.407  11.029  68.767  1.00  0.00    -0.144 C  
HETATM   20  C   UNK A   2     -10.404  13.100  66.365  1.00  0.00    -0.287 C  
ATOM     21  O   ALA A   1      -7.265  11.145  69.214  1.00  0.00    -0.115 OA 
HETATM   22  C   UNK A   2      -9.229  14.019  66.705  1.00  0.00    -0.280 C  
HETATM   23  N   UNK A   2      -8.959  12.048  67.992  1.00  0.00    -0.181 N  
HETATM   24  S   UNK A   2     -11.998  13.809  66.945  1.00  0.00    -0.414 SA 
HETATM   25  C   UNK A   2     -12.824  13.913  65.338  1.00  0.00    -0.427 C  
HETATM   26  C   UNK A   2      -8.163  13.142  67.402  1.00  0.00    -0.187 C  
HETATM   27  C   UNK A   2     -10.120  11.802  67.133  1.00  0.00    -0.203 C  
HETATM   28  C   UNK A   2      -7.276  14.099  68.235  1.00  0.00    -0.116 C  
HETATM   29  C   UNK A   2     -12.311  12.799  64.450  1.00  0.00    -0.424 C  
HETATM   30  S   UNK A   2     -10.506  12.796  64.565  1.00  0.00    -0.370 SA 
HETATM   31  O   UNK A   2      -6.768  13.604  69.378  1.00  0.00    -0.109 OA 
HETATM   32  O   UNK A   2      -6.954  15.216  67.842  1.00  0.00    -0.120 OA 
ENDBRANCH  17  19
ENDBRANCH  15  17
ENDBRANCH   6  15
ENDBRANCH   4   6
ENDBRANCH   3   4
ENDBRANCH   2   3
TORSDOF 9
ENDMDL
MODEL      198
REMARK 921   NORMALIZED FREE ENERGY PREDICTED BY IDOCK:   -3.94 KCAL/MOL
REMARK 922        TOTAL FREE ENERGY PREDICTED BY IDOCK:   -7.35 KCAL/MOL
REMARK 923 INTER-LIGAND FREE ENERGY PREDICTED BY IDOCK:   -8.72 KCAL/MOL
REMARK 924 INTRA-LIGAND FREE ENERGY PREDICTED BY IDOCK:    1.37 KCAL/MOL
REMARK 927      BINDING AFFINITY PREDICTED BY RF-SCORE:    0.00 PKD
ROOT
HETATM    1  C   UNK A   0     -13.543  13.211  72.249  1.00  0.00    -0.677 C  
HETATM    2  C   UNK A   0     -13.055  14.513  71.642  1.00  0.00    -0.343 C  
ENDROOT
BRANCH   2   3
HETATM    3  O   UNK A   0     -11.843  14.301  70.902  1.00  0.00    -0.311 OA 
BRANCH   3   4
HETATM    4  C   UNK A   0     -11.624  15.142  69.850  1.00  0.00    -0.300 C  
HETATM    5  O   UNK A   0     -12.337  16.091  69.542  1.00  0.00    -0.176 OA 
BRANCH   4   6
HETATM    6  C   UNK A   0     -10.340  14.743  69.100  1.00  0.00    -0.233 C  
BRANCH   6   7
HETATM    7  C   UNK A   0     -10.398  15.265  67.653  1.00  0.00    -0.250 C  
BRANCH   7   8
HETATM    8  C   UNK A   0      -9.185  16.086  67.205  1.00  0.00    -0.221 C  
BRANCH   8   9
HETATM    9  C   UNK A   0      -9.570  17.551  67.180  1.00  0.00    -0.262 A  
HETATM   10  C   UNK A   0      -9.137  18.424  68.187  1.00  0.00    -0.325 A  
HETATM   11  C   UNK A   0      -9.411  19.792  68.106  1.00  0.00    -0.454 A  
HETATM   12  C   UNK A   0     -10.118  20.299  67.017  1.00  0.00    -0.567 A  
HETATM   13  C   UNK A   0     -10.281  18.073  66.089  1.00  0.00    -0.364 A  
HETATM   14  C   UNK A   0     -10.554  19.440  66.011  1.00  0.00    -0.573 A  
ENDBRANCH   8   9
ENDBRANCH   7   8
ENDBRANCH   6   7
BRANCH   6  15
ATOM     15  N   ALA A   1     -10.210  13.255  69.162  1.00  0.00    -0.421 NA 
ATOM     16  H   ALA A   1     -10.391  12.919  70.107  1.00  0.00     0.000 HD 
BRANCH  15  17
ATOM     17  CA  ALA A   1     -11.056  12.539  68.185  1.00  0.00    -0.243 C  
ATOM     18  CB  ALA A   1     -11.888  13.511  67.351  1.00  0.00    -0.423 C  
BRANCH  17  19
ATOM     19  C   ALA A   1     -10.231  11.566  67.283  1.00  0.00    -0.202 C  
HETATM   20  C   UNK A   2      -9.577   8.609  69.490  1.00  0.00    -0.170 C  
ATOM     21  O   ALA A   1      -9.849  11.856  66.148  1.00  0.00    -0.220 OA 
HETATM   22  C   UNK A   2      -9.068   8.131  68.129  1.00  0.00    -0.134 C  
HETATM   23  N   UNK A   2      -9.950  10.306  67.811  1.00  0.00    -0.168 N  
HETATM   24  S   UNK A   2     -11.014   7.611  70.056  1.00  0.00    -0.187 SA 
HETATM   25  C   UNK A   2     -10.292   6.981  71.591  1.00  0.00    -0.198 C  
HETATM   26  C   UNK A   2      -8.958   9.383  67.229  1.00  0.00    -0.130 C  
HETATM   27  C   UNK A   2     -10.029  10.056  69.253  1.00  0.00    -0.213 C  
HETATM   28  C   UNK A   2      -9.012   8.883  65.764  1.00  0.00    -0.203 C  
HETATM   29  C   UNK A   2      -9.314   8.004  72.129  1.00  0.00    -0.190 C  
HETATM   30  S   UNK A   2      -8.259   8.526  70.756  1.00  0.00    -0.144 SA 
HETATM   31  O   UNK A   2      -9.588   9.706  64.871  1.00  0.00    -0.277 OA 
HETATM   32  O   UNK A   2      -8.471   7.844  65.398  1.00  0.00    -0.141 OA 
ENDBRANCH  17  19
ENDBRANCH  15  17
ENDBRANCH   6  15
ENDBRANCH   4   6
ENDBRANCH   3   4
ENDBRANCH   2   3
TORSDOF 9
ENDMDL
MODEL      199
REMARK 921   NORMALIZED FREE ENERGY PREDICTED BY IDOCK:   -3.92 KCAL/MOL
REMARK 922        TOTAL FREE ENERGY PREDICTED BY IDOCK:   -7.33 KCAL/MOL
REMARK 923 INTER-LIGAND FREE ENERGY PREDICTED BY IDOCK:   -6.44 KCAL/MOL
REMARK 924 INTRA-LIGAND FREE ENERGY PREDICTED BY IDOCK:   -0.89 KCAL/MOL
REMARK 927      BINDING AFFINITY PREDICTED BY RF-SCORE:    0.00 PKD
ROOT
HETATM    1  C   UNK A   0     -10.849   6.205  73.295  1.00  0.00    -0.268 C  
HETATM    2  C   UNK A   0     -11.323   7.627  73.059  1.00  0.00    -0.280 C  
ENDROOT
BRANCH   2   3
HETATM    3  O   UNK A   0     -11.781   7.787  71.707  1.00  0.00    -0.265 OA 
BRANCH   3   4
HETATM    4  C   UNK A   0     -10.965   8.497  70.875  1.00  0.00    -0.251 C  
HETATM    5  O   UNK A   0     -10.496   9.603  71.118  1.00  0.00    -0.307 OA 
BRANCH   4   6
HETATM    6  C   UNK A   0     -10.699   7.708  69.581  1.00  0.00    -0.228 C  
BRANCH   6   7
HETATM    7  C   UNK A   0      -9.442   6.836  69.752  1.00  0.00    -0.144 C  
BRANCH   7   8
HETATM    8  C   UNK A   0      -9.633   5.346  69.455  1.00  0.00    -0.203 C  
BRANCH   8   9
HETATM    9  C   UNK A   0      -9.189   5.071  68.034  1.00  0.00    -0.139 A  
HETATM   10  C   UNK A   0      -7.827   5.022  67.705  1.00  0.00    -0.095 A  
HETATM   11  C   UNK A   0      -7.421   4.669  66.415  1.00  0.00    -0.082 A  
HETATM   12  C   UNK A   0      -8.373   4.361  65.443  1.00  0.00    -0.111 A  
HETATM   13  C   UNK A   0     -10.136   4.759  67.048  1.00  0.00    -0.228 A  
HETATM   14  C   UNK A   0      -9.729   4.408  65.760  1.00  0.00    -0.213 A  
ENDBRANCH   8   9
ENDBRANCH   7   8
ENDBRANCH   6   7
BRANCH   6  15
ATOM     15  N   ALA A   1     -10.562   8.687  68.460  1.00  0.00    -0.370 NA 
ATOM     16  H   ALA A   1     -10.718   9.638  68.794  1.00  0.00     0.000 HD 
BRANCH  15  17
ATOM     17  CA  ALA A   1      -9.276   8.596  67.737  1.00  0.00    -0.134 C  
ATOM     18  CB  ALA A   1      -9.489   8.247  66.265  1.00  0.00    -0.271 C  
BRANCH  17  19
ATOM     19  C   ALA A   1      -8.407   9.883  67.904  1.00  0.00    -0.114 C  
HETATM   20  C   UNK A   2     -10.449  12.578  66.288  1.00  0.00    -0.246 C  
ATOM     21  O   ALA A   1      -7.272   9.876  68.384  1.00  0.00    -0.072 OA 
HETATM   22  C   UNK A   2      -9.306  13.365  66.934  1.00  0.00    -0.253 C  
HETATM   23  N   UNK A   2      -8.984  11.087  67.500  1.00  0.00    -0.137 N  
HETATM   24  S   UNK A   2     -12.069  13.012  67.041  1.00  0.00    -0.167 SA 
HETATM   25  C   UNK A   2     -12.886  13.619  65.545  1.00  0.00    -0.392 C  
HETATM   26  C   UNK A   2      -8.219  12.335  67.319  1.00  0.00    -0.182 C  
HETATM   27  C   UNK A   2     -10.130  11.107  66.588  1.00  0.00    -0.217 C  
HETATM   28  C   UNK A   2      -7.369  12.986  68.438  1.00  0.00    -0.116 C  
HETATM   29  C   UNK A   2     -12.331  12.877  64.348  1.00  0.00    -0.398 C  
HETATM   30  S   UNK A   2     -10.528  12.885  64.487  1.00  0.00    -0.373 SA 
HETATM   31  O   UNK A   2      -6.854  12.155  69.361  1.00  0.00    -0.090 OA 
HETATM   32  O   UNK A   2      -7.079  14.179  68.443  1.00  0.00    -0.087 OA 
ENDBRANCH  17  19
ENDBRANCH  15  17
ENDBRANCH   6  15
ENDBRANCH   4   6
ENDBRANCH   3   4
ENDBRANCH   2   3
TORSDOF 9
ENDMDL
MODEL      200
REMARK 921   NORMALIZED FREE ENERGY PREDICTED BY IDOCK:   -3.90 KCAL/MOL
REMARK 922        TOTAL FREE ENERGY PREDICTED BY IDOCK:   -7.30 KCAL/MOL
REMARK 923 INTER-LIGAND FREE ENERGY PREDICTED BY IDOCK:   -5.93 KCAL/MOL
REMARK 924 INTRA-LIGAND FREE ENERGY PREDICTED BY IDOCK:   -1.37 KCAL/MOL
REMARK 927      BINDING AFFINITY PREDICTED BY RF-SCORE:    0.00 PKD
ROOT
HETATM    1  C   UNK A   0      -9.195   3.855  69.055  1.00  0.00    -0.217 C  
HETATM    2  C   UNK A   0      -8.430   5.028  69.638  1.00  0.00    -0.088 C  
ENDROOT
BRANCH   2   3
HETATM    3  O   UNK A   0      -8.731   6.234  68.919  1.00  0.00    -0.124 OA 
BRANCH   3   4
HETATM    4  C   UNK A   0      -7.824   6.613  67.972  1.00  0.00    -0.113 C  
HETATM    5  O   UNK A   0      -7.097   5.853  67.344  1.00  0.00    -0.071 OA 
BRANCH   4   6
HETATM    6  C   UNK A   0      -7.848   8.141  67.786  1.00  0.00    -0.118 C  
BRANCH   6   7
HETATM    7  C   UNK A   0      -6.435   8.714  67.995  1.00  0.00    -0.057 C  
BRANCH   7   8
HETATM    8  C   UNK A   0      -6.060   9.882  67.079  1.00  0.00    -0.059 C  
BRANCH   8   9
HETATM    9  C   UNK A   0      -6.181  11.173  67.861  1.00  0.00    -0.053 A  
HETATM   10  C   UNK A   0      -6.510  12.374  67.216  1.00  0.00    -0.140 A  
HETATM   11  C   UNK A   0      -6.719  13.542  67.955  1.00  0.00    -0.151 A  
HETATM   12  C   UNK A   0      -6.604  13.519  69.344  1.00  0.00    -0.082 A  
HETATM   13  C   UNK A   0      -6.068  11.163  69.259  1.00  0.00    -0.056 A  
HETATM   14  C   UNK A   0      -6.276  12.331  69.994  1.00  0.00    -0.085 A  
ENDBRANCH   8   9
ENDBRANCH   7   8
ENDBRANCH   6   7
BRANCH   6  15
ATOM     15  N   ALA A   1      -8.840   8.710  68.749  1.00  0.00    -0.138 NA 
ATOM     16  H   ALA A   1      -8.363   9.189  69.513  1.00  0.00     0.000 HD 
BRANCH  15  17
ATOM     17  CA  ALA A   1      -9.841   9.599  68.125  1.00  0.00    -0.150 C  
ATOM     18  CB  ALA A   1     -10.898   8.799  67.365  1.00  0.00    -0.087 C  
BRANCH  17  19
ATOM     19  C   ALA A   1     -10.491  10.579  69.153  1.00  0.00    -0.228 C  
HETATM   20  C   UNK A   2     -11.271  13.636  67.130  1.00  0.00    -0.309 C  
ATOM     21  O   ALA A   1     -10.583  10.335  70.357  1.00  0.00    -0.278 OA 
HETATM   22  C   UNK A   2     -11.943  13.940  68.471  1.00  0.00    -0.394 C  
HETATM   23  N   UNK A   2     -11.006  11.772  68.644  1.00  0.00    -0.210 N  
HETATM   24  S   UNK A   2     -12.509  13.492  65.779  1.00  0.00    -0.438 SA 
HETATM   25  C   UNK A   2     -11.887  14.827  64.727  1.00  0.00    -0.423 C  
HETATM   26  C   UNK A   2     -11.388  12.918  69.490  1.00  0.00    -0.153 C  
HETATM   27  C   UNK A   2     -10.587  12.278  67.335  1.00  0.00    -0.222 C  
HETATM   28  C   UNK A   2     -12.425  12.827  70.636  1.00  0.00    -0.246 C  
HETATM   29  C   UNK A   2     -10.389  14.940  64.913  1.00  0.00    -0.313 C  
HETATM   30  S   UNK A   2     -10.056  14.931  66.690  1.00  0.00    -0.267 SA 
HETATM   31  O   UNK A   2     -12.545  11.632  71.242  1.00  0.00    -0.373 OA 
HETATM   32  O   UNK A   2     -13.038  13.804  71.056  1.00  0.00    -0.286 OA 
ENDBRANCH  17  19
ENDBRANCH  15  17
ENDBRANCH   6  15
ENDBRANCH   4   6
ENDBRANCH   3   4
ENDBRANCH   2   3
TORSDOF 9
ENDMDL
MODEL      201
REMARK 921   NORMALIZED FREE ENERGY PREDICTED BY IDOCK:   -3.86 KCAL/MOL
REMARK 922        TOTAL FREE ENERGY PREDICTED BY IDOCK:   -7.23 KCAL/MOL
REMARK 923 INTER-LIGAND FREE ENERGY PREDICTED BY IDOCK:   -6.88 KCAL/MOL
REMARK 924 INTRA-LIGAND FREE ENERGY PREDICTED BY IDOCK:   -0.35 KCAL/MOL
REMARK 927      BINDING AFFINITY PREDICTED BY RF-SCORE:    0.00 PKD
ROOT
HETATM    1  C   UNK A   0     -14.045   9.008  71.943  1.00  0.00    -0.404 C  
HETATM    2  C   UNK A   0     -13.118   9.868  71.104  1.00  0.00    -0.370 C  
ENDROOT
BRANCH   2   3
HETATM    3  O   UNK A   0     -11.853  10.038  71.765  1.00  0.00    -0.323 OA 
BRANCH   3   4
HETATM    4  C   UNK A   0     -10.957   9.019  71.620  1.00  0.00    -0.365 C  
HETATM    5  O   UNK A   0     -10.180   8.630  72.485  1.00  0.00    -0.290 OA 
BRANCH   4   6
HETATM    6  C   UNK A   0     -11.063   8.406  70.211  1.00  0.00    -0.213 C  
BRANCH   6   7
HETATM    7  C   UNK A   0     -11.422   6.913  70.318  1.00  0.00    -0.373 C  
BRANCH   7   8
HETATM    8  C   UNK A   0     -10.265   5.942  70.063  1.00  0.00    -0.286 C  
BRANCH   8   9
HETATM    9  C   UNK A   0     -10.279   4.875  71.137  1.00  0.00    -0.261 A  
HETATM   10  C   UNK A   0      -9.831   3.575  70.862  1.00  0.00    -0.135 A  
HETATM   11  C   UNK A   0      -9.753   2.622  71.881  1.00  0.00    -0.221 A  
HETATM   12  C   UNK A   0     -10.118   2.960  73.183  1.00  0.00    -0.204 A  
HETATM   13  C   UNK A   0     -10.644   5.203  72.451  1.00  0.00    -0.278 A  
HETATM   14  C   UNK A   0     -10.565   4.248  73.467  1.00  0.00    -0.291 A  
ENDBRANCH   8   9
ENDBRANCH   7   8
ENDBRANCH   6   7
BRANCH   6  15
ATOM     15  N   ALA A   1      -9.763   8.629  69.509  1.00  0.00    -0.177 NA 
ATOM     16  H   ALA A   1      -9.782   8.211  68.579  1.00  0.00     0.000 HD 
BRANCH  15  17
ATOM     17  CA  ALA A   1      -9.357  10.047  69.433  1.00  0.00    -0.223 C  
ATOM     18  CB  ALA A   1      -7.869  10.218  69.733  1.00  0.00    -0.151 C  
BRANCH  17  19
ATOM     19  C   ALA A   1      -9.749  10.707  68.072  1.00  0.00    -0.157 C  
HETATM   20  C   UNK A   2      -7.933   8.660  65.512  1.00  0.00    -0.108 C  
ATOM     21  O   ALA A   1     -10.429  11.731  67.987  1.00  0.00    -0.188 OA 
HETATM   22  C   UNK A   2      -8.818   9.564  64.652  1.00  0.00    -0.250 C  
HETATM   23  N   UNK A   2      -9.311  10.064  66.914  1.00  0.00    -0.156 N  
HETATM   24  S   UNK A   2      -8.399   6.891  65.322  1.00  0.00    -0.053 SA 
HETATM   25  C   UNK A   2      -6.813   6.281  64.700  1.00  0.00    -0.047 C  
HETATM   26  C   UNK A   2      -9.342  10.686  65.577  1.00  0.00    -0.205 C  
HETATM   27  C   UNK A   2      -8.207   9.102  66.955  1.00  0.00    -0.116 C  
HETATM   28  C   UNK A   2     -10.630  11.239  64.921  1.00  0.00    -0.300 C  
HETATM   29  C   UNK A   2      -5.699   7.125  65.283  1.00  0.00    -0.036 C  
HETATM   30  S   UNK A   2      -6.167   8.860  65.081  1.00  0.00    -0.061 SA 
HETATM   31  O   UNK A   2     -11.586  11.683  65.756  1.00  0.00    -0.284 OA 
HETATM   32  O   UNK A   2     -10.752  11.371  63.707  1.00  0.00    -0.359 OA 
ENDBRANCH  17  19
ENDBRANCH  15  17
ENDBRANCH   6  15
ENDBRANCH   4   6
ENDBRANCH   3   4
ENDBRANCH   2   3
TORSDOF 9
ENDMDL
MODEL      202
REMARK 921   NORMALIZED FREE ENERGY PREDICTED BY IDOCK:   -3.82 KCAL/MOL
REMARK 922        TOTAL FREE ENERGY PREDICTED BY IDOCK:   -7.18 KCAL/MOL
REMARK 923 INTER-LIGAND FREE ENERGY PREDICTED BY IDOCK:   -7.11 KCAL/MOL
REMARK 924 INTRA-LIGAND FREE ENERGY PREDICTED BY IDOCK:   -0.06 KCAL/MOL
REMARK 927      BINDING AFFINITY PREDICTED BY RF-SCORE:    0.00 PKD
ROOT
HETATM    1  C   UNK A   0     -12.734  13.767  71.350  1.00  0.00    -0.450 C  
HETATM    2  C   UNK A   0     -12.011  13.539  70.036  1.00  0.00    -0.340 C  
ENDROOT
BRANCH   2   3
HETATM    3  O   UNK A   0     -10.808  14.321  69.981  1.00  0.00    -0.039 OA 
BRANCH   3   4
HETATM    4  C   UNK A   0     -10.915  15.551  69.400  1.00  0.00    -0.276 C  
HETATM    5  O   UNK A   0     -11.948  16.204  69.311  1.00  0.00    -0.264 OA 
BRANCH   4   6
HETATM    6  C   UNK A   0      -9.545  16.020  68.876  1.00  0.00    -0.236 C  
BRANCH   6   7
HETATM    7  C   UNK A   0      -9.575  17.538  68.626  1.00  0.00    -0.303 C  
BRANCH   7   8
HETATM    8  C   UNK A   0      -8.269  18.278  68.933  1.00  0.00    -0.177 C  
BRANCH   8   9
HETATM    9  C   UNK A   0      -7.602  18.652  67.627  1.00  0.00    -0.243 A  
HETATM   10  C   UNK A   0      -6.635  17.816  67.050  1.00  0.00    -0.192 A  
HETATM   11  C   UNK A   0      -6.095  18.116  65.797  1.00  0.00    -0.274 A  
HETATM   12  C   UNK A   0      -6.518  19.252  65.108  1.00  0.00    -0.298 A  
HETATM   13  C   UNK A   0      -8.019  19.792  66.924  1.00  0.00    -0.322 A  
HETATM   14  C   UNK A   0      -7.477  20.090  65.672  1.00  0.00    -0.275 A  
ENDBRANCH   8   9
ENDBRANCH   7   8
ENDBRANCH   6   7
BRANCH   6  15
ATOM     15  N   ALA A   1      -9.233  15.246  67.636  1.00  0.00    -0.186 NA 
ATOM     16  H   ALA A   1      -8.882  14.318  67.872  1.00  0.00     0.000 HD 
BRANCH  15  17
ATOM     17  CA  ALA A   1     -10.364  15.149  66.690  1.00  0.00    -0.274 C  
ATOM     18  CB  ALA A   1     -10.673  16.502  66.052  1.00  0.00    -0.180 C  
BRANCH  17  19
ATOM     19  C   ALA A   1     -10.144  14.041  65.611  1.00  0.00    -0.322 C  
HETATM   20  C   UNK A   2      -9.778  10.888  67.603  1.00  0.00    -0.171 C  
ATOM     21  O   ALA A   1     -10.031  14.281  64.407  1.00  0.00    -0.062 OA 
HETATM   22  C   UNK A   2      -9.834  10.371  66.164  1.00  0.00    -0.278 C  
HETATM   23  N   UNK A   2     -10.102  12.722  66.064  1.00  0.00    -0.265 N  
HETATM   24  S   UNK A   2     -11.221  10.304  68.580  1.00  0.00    -0.167 SA 
HETATM   25  C   UNK A   2     -10.310   9.401  69.857  1.00  0.00    -0.227 C  
HETATM   26  C   UNK A   2      -9.625  11.594  65.242  1.00  0.00    -0.197 C  
HETATM   27  C   UNK A   2      -9.840  12.416  67.473  1.00  0.00    -0.194 C  
HETATM   28  C   UNK A   2     -10.231  11.223  63.867  1.00  0.00    -0.365 C  
HETATM   29  C   UNK A   2      -8.968  10.070  70.068  1.00  0.00    -0.081 C  
HETATM   30  S   UNK A   2      -8.239  10.356  68.437  1.00  0.00    -0.120 SA 
HETATM   31  O   UNK A   2     -10.772  12.229  63.158  1.00  0.00    -0.371 OA 
HETATM   32  O   UNK A   2     -10.139  10.098  63.384  1.00  0.00     0.035 OA 
ENDBRANCH  17  19
ENDBRANCH  15  17
ENDBRANCH   6  15
ENDBRANCH   4   6
ENDBRANCH   3   4
ENDBRANCH   2   3
TORSDOF 9
ENDMDL
MODEL      203
REMARK 921   NORMALIZED FREE ENERGY PREDICTED BY IDOCK:   -3.82 KCAL/MOL
REMARK 922        TOTAL FREE ENERGY PREDICTED BY IDOCK:   -7.17 KCAL/MOL
REMARK 923 INTER-LIGAND FREE ENERGY PREDICTED BY IDOCK:   -6.25 KCAL/MOL
REMARK 924 INTRA-LIGAND FREE ENERGY PREDICTED BY IDOCK:   -0.92 KCAL/MOL
REMARK 927      BINDING AFFINITY PREDICTED BY RF-SCORE:    0.00 PKD
ROOT
HETATM    1  C   UNK A   0      -6.935  11.615  67.847  1.00  0.00    -0.080 C  
HETATM    2  C   UNK A   0      -6.678  11.247  69.296  1.00  0.00    -0.110 C  
ENDROOT
BRANCH   2   3
HETATM    3  O   UNK A   0      -7.646  10.289  69.751  1.00  0.00    -0.151 OA 
BRANCH   3   4
HETATM    4  C   UNK A   0      -7.399   8.985  69.432  1.00  0.00    -0.075 C  
HETATM    5  O   UNK A   0      -6.398   8.355  69.753  1.00  0.00    -0.035 OA 
BRANCH   4   6
HETATM    6  C   UNK A   0      -8.568   8.401  68.618  1.00  0.00    -0.132 C  
BRANCH   6   7
HETATM    7  C   UNK A   0      -8.030   7.733  67.339  1.00  0.00    -0.119 C  
BRANCH   7   8
HETATM    8  C   UNK A   0      -6.818   8.420  66.703  1.00  0.00    -0.068 C  
BRANCH   8   9
HETATM    9  C   UNK A   0      -7.208   8.923  65.329  1.00  0.00    -0.088 A  
HETATM   10  C   UNK A   0      -8.556   9.044  64.966  1.00  0.00    -0.207 A  
HETATM   11  C   UNK A   0      -8.911   9.602  63.735  1.00  0.00    -0.251 A  
HETATM   12  C   UNK A   0      -7.922  10.045  62.858  1.00  0.00    -0.139 A  
HETATM   13  C   UNK A   0      -6.222   9.371  64.438  1.00  0.00    -0.080 A  
HETATM   14  C   UNK A   0      -6.579   9.927  63.209  1.00  0.00    -0.125 A  
ENDBRANCH   8   9
ENDBRANCH   7   8
ENDBRANCH   6   7
BRANCH   6  15
ATOM     15  N   ALA A   1      -9.525   9.509  68.319  1.00  0.00    -0.133 NA 
ATOM     16  H   ALA A   1      -9.560   9.693  67.317  1.00  0.00     0.000 HD 
BRANCH  15  17
ATOM     17  CA  ALA A   1     -10.885   9.288  68.853  1.00  0.00    -0.099 C  
ATOM     18  CB  ALA A   1     -10.998   7.928  69.540  1.00  0.00    -0.078 C  
BRANCH  17  19
ATOM     19  C   ALA A   1     -11.353  10.447  69.790  1.00  0.00    -0.289 C  
HETATM   20  C   UNK A   2     -11.412  13.457  67.558  1.00  0.00    -0.323 C  
ATOM     21  O   ALA A   1     -11.534  10.307  71.001  1.00  0.00    -0.350 OA 
HETATM   22  C   UNK A   2     -12.052  13.981  68.845  1.00  0.00    -0.351 C  
HETATM   23  N   UNK A   2     -11.591  11.683  69.189  1.00  0.00    -0.285 N  
HETATM   24  S   UNK A   2     -12.606  13.479  66.160  1.00  0.00    -0.183 SA 
HETATM   25  C   UNK A   2     -11.685  14.586  65.063  1.00  0.00    -0.392 C  
HETATM   26  C   UNK A   2     -11.757  12.938  69.947  1.00  0.00    -0.254 C  
HETATM   27  C   UNK A   2     -11.031  12.004  67.874  1.00  0.00    -0.220 C  
HETATM   28  C   UNK A   2     -12.829  13.136  71.047  1.00  0.00    -0.214 C  
HETATM   29  C   UNK A   2     -10.203  14.402  65.313  1.00  0.00    -0.389 C  
HETATM   30  S   UNK A   2      -9.941  14.443  67.102  1.00  0.00    -0.257 SA 
HETATM   31  O   UNK A   2     -13.215  12.035  71.715  1.00  0.00    -0.450 OA 
HETATM   32  O   UNK A   2     -13.241  14.244  71.379  1.00  0.00    -0.325 OA 
ENDBRANCH  17  19
ENDBRANCH  15  17
ENDBRANCH   6  15
ENDBRANCH   4   6
ENDBRANCH   3   4
ENDBRANCH   2   3
TORSDOF 9
ENDMDL
MODEL      204
REMARK 921   NORMALIZED FREE ENERGY PREDICTED BY IDOCK:   -3.78 KCAL/MOL
REMARK 922        TOTAL FREE ENERGY PREDICTED BY IDOCK:   -7.12 KCAL/MOL
REMARK 923 INTER-LIGAND FREE ENERGY PREDICTED BY IDOCK:   -6.17 KCAL/MOL
REMARK 924 INTRA-LIGAND FREE ENERGY PREDICTED BY IDOCK:   -0.95 KCAL/MOL
REMARK 927      BINDING AFFINITY PREDICTED BY RF-SCORE:    0.00 PKD
ROOT
HETATM    1  C   UNK A   0      -5.159   9.743  67.523  1.00  0.00    -0.035 C  
HETATM    2  C   UNK A   0      -5.497  10.565  66.293  1.00  0.00    -0.073 C  
ENDROOT
BRANCH   2   3
HETATM    3  O   UNK A   0      -6.794  11.166  66.431  1.00  0.00    -0.133 OA 
BRANCH   3   4
HETATM    4  C   UNK A   0      -7.808  10.331  66.802  1.00  0.00    -0.114 C  
HETATM    5  O   UNK A   0      -8.252  10.219  67.939  1.00  0.00    -0.109 OA 
BRANCH   4   6
HETATM    6  C   UNK A   0      -8.335   9.550  65.585  1.00  0.00    -0.126 C  
BRANCH   6   7
HETATM    7  C   UNK A   0      -8.784  10.534  64.489  1.00  0.00    -0.190 C  
BRANCH   7   8
HETATM    8  C   UNK A   0     -10.295  10.594  64.244  1.00  0.00    -0.325 C  
BRANCH   8   9
HETATM    9  C   UNK A   0     -10.787  11.988  64.573  1.00  0.00    -0.363 A  
HETATM   10  C   UNK A   0     -10.261  12.695  65.663  1.00  0.00    -0.290 A  
HETATM   11  C   UNK A   0     -10.646  14.017  65.903  1.00  0.00    -0.302 A  
HETATM   12  C   UNK A   0     -11.559  14.643  65.055  1.00  0.00    -0.385 A  
HETATM   13  C   UNK A   0     -11.705  12.628  63.728  1.00  0.00    -0.566 A  
HETATM   14  C   UNK A   0     -12.089  13.948  63.971  1.00  0.00    -0.437 A  
ENDBRANCH   8   9
ENDBRANCH   7   8
ENDBRANCH   6   7
BRANCH   6  15
ATOM     15  N   ALA A   1      -9.449   8.667  66.047  1.00  0.00    -0.335 NA 
ATOM     16  H   ALA A   1     -10.287   8.826  65.488  1.00  0.00     0.000 HD 
BRANCH  15  17
ATOM     17  CA  ALA A   1      -9.105   7.231  66.069  1.00  0.00    -0.075 C  
ATOM     18  CB  ALA A   1      -8.526   6.776  64.731  1.00  0.00     0.087 C  
BRANCH  17  19
ATOM     19  C   ALA A   1      -8.162   6.862  67.259  1.00  0.00    -0.118 C  
HETATM   20  C   UNK A   2     -10.189   7.659  70.309  1.00  0.00    -0.205 C  
ATOM     21  O   ALA A   1      -6.995   6.496  67.110  1.00  0.00    -0.067 OA 
HETATM   22  C   UNK A   2      -8.962   6.959  70.895  1.00  0.00    -0.149 C  
HETATM   23  N   UNK A   2      -8.709   6.938  68.540  1.00  0.00    -0.125 N  
HETATM   24  S   UNK A   2     -11.721   6.689  70.613  1.00  0.00    -0.366 SA 
HETATM   25  C   UNK A   2     -12.622   7.937  71.565  1.00  0.00    -0.321 C  
HETATM   26  C   UNK A   2      -7.900   6.906  69.773  1.00  0.00    -0.115 C  
HETATM   27  C   UNK A   2      -9.921   7.720  68.799  1.00  0.00    -0.176 C  
HETATM   28  C   UNK A   2      -6.933   5.751  70.130  1.00  0.00    -0.065 C  
HETATM   29  C   UNK A   2     -12.202   9.312  71.092  1.00  0.00    -0.301 C  
HETATM   30  S   UNK A   2     -10.395   9.334  71.013  1.00  0.00    -0.323 SA 
HETATM   31  O   UNK A   2      -6.389   5.082  69.098  1.00  0.00    -0.029 OA 
HETATM   32  O   UNK A   2      -6.585   5.509  71.282  1.00  0.00    -0.038 OA 
ENDBRANCH  17  19
ENDBRANCH  15  17
ENDBRANCH   6  15
ENDBRANCH   4   6
ENDBRANCH   3   4
ENDBRANCH   2   3
TORSDOF 9
ENDMDL
MODEL      205
REMARK 921   NORMALIZED FREE ENERGY PREDICTED BY IDOCK:   -3.77 KCAL/MOL
REMARK 922        TOTAL FREE ENERGY PREDICTED BY IDOCK:   -7.10 KCAL/MOL
REMARK 923 INTER-LIGAND FREE ENERGY PREDICTED BY IDOCK:   -5.98 KCAL/MOL
REMARK 924 INTRA-LIGAND FREE ENERGY PREDICTED BY IDOCK:   -1.12 KCAL/MOL
REMARK 927      BINDING AFFINITY PREDICTED BY RF-SCORE:    0.00 PKD
ROOT
HETATM    1  C   UNK A   0      -7.311   3.549  70.635  1.00  0.00    -0.040 C  
HETATM    2  C   UNK A   0      -7.031   4.074  69.239  1.00  0.00    -0.046 C  
ENDROOT
BRANCH   2   3
HETATM    3  O   UNK A   0      -8.144   4.843  68.758  1.00  0.00    -0.083 OA 
BRANCH   3   4
HETATM    4  C   UNK A   0      -7.882   6.142  68.433  1.00  0.00    -0.104 C  
HETATM    5  O   UNK A   0      -7.416   6.525  67.365  1.00  0.00    -0.088 OA 
BRANCH   4   6
HETATM    6  C   UNK A   0      -8.267   7.076  69.595  1.00  0.00    -0.131 C  
BRANCH   6   7
HETATM    7  C   UNK A   0      -9.653   6.684  70.140  1.00  0.00    -0.168 C  
BRANCH   7   8
HETATM    8  C   UNK A   0     -10.844   7.314  69.412  1.00  0.00    -0.206 C  
BRANCH   8   9
HETATM    9  C   UNK A   0     -11.768   7.937  70.438  1.00  0.00    -0.020 A  
HETATM   10  C   UNK A   0     -11.714   9.311  70.710  1.00  0.00    -0.328 A  
HETATM   11  C   UNK A   0     -12.634   9.898  71.583  1.00  0.00    -0.519 A  
HETATM   12  C   UNK A   0     -13.617   9.116  72.188  1.00  0.00    -0.534 A  
HETATM   13  C   UNK A   0     -12.761   7.162  71.053  1.00  0.00    -0.303 A  
HETATM   14  C   UNK A   0     -13.679   7.750  71.925  1.00  0.00    -0.352 A  
ENDBRANCH   8   9
ENDBRANCH   7   8
ENDBRANCH   6   7
BRANCH   6  15
ATOM     15  N   ALA A   1      -8.233   8.483  69.091  1.00  0.00    -0.117 NA 
ATOM     16  H   ALA A   1      -9.053   8.678  68.517  1.00  0.00     0.000 HD 
BRANCH  15  17
ATOM     17  CA  ALA A   1      -8.091   9.498  70.154  1.00  0.00    -0.174 C  
ATOM     18  CB  ALA A   1      -7.525   8.886  71.435  1.00  0.00    -0.108 C  
BRANCH  17  19
ATOM     19  C   ALA A   1      -7.257  10.735  69.690  1.00  0.00    -0.125 C  
HETATM   20  C   UNK A   2      -9.643  12.700  67.572  1.00  0.00    -0.184 C  
ATOM     21  O   ALA A   1      -6.059  10.876  69.942  1.00  0.00    -0.074 OA 
HETATM   22  C   UNK A   2      -8.441  13.640  67.684  1.00  0.00    -0.183 C  
HETATM   23  N   UNK A   2      -7.940  11.721  68.979  1.00  0.00    -0.347 N  
HETATM   24  S   UNK A   2     -11.131  13.419  68.377  1.00  0.00    -0.289 SA 
HETATM   25  C   UNK A   2     -12.208  13.457  66.923  1.00  0.00    -0.289 C  
HETATM   26  C   UNK A   2      -7.265  12.797  68.229  1.00  0.00    -0.114 C  
HETATM   27  C   UNK A   2      -9.221  11.434  68.329  1.00  0.00    -0.183 C  
HETATM   28  C   UNK A   2      -6.267  13.791  68.873  1.00  0.00    -0.091 C  
HETATM   29  C   UNK A   2     -11.832  12.314  66.004  1.00  0.00    -0.341 C  
HETATM   30  S   UNK A   2     -10.032  12.328  65.824  1.00  0.00    -0.247 SA 
HETATM   31  O   UNK A   2      -5.575  13.343  69.934  1.00  0.00    -0.095 OA 
HETATM   32  O   UNK A   2      -6.029  14.895  68.393  1.00  0.00    -0.090 OA 
ENDBRANCH  17  19
ENDBRANCH  15  17
ENDBRANCH   6  15
ENDBRANCH   4   6
ENDBRANCH   3   4
ENDBRANCH   2   3
TORSDOF 9
ENDMDL
MODEL      206
REMARK 921   NORMALIZED FREE ENERGY PREDICTED BY IDOCK:   -3.77 KCAL/MOL
REMARK 922        TOTAL FREE ENERGY PREDICTED BY IDOCK:   -7.09 KCAL/MOL
REMARK 923 INTER-LIGAND FREE ENERGY PREDICTED BY IDOCK:   -6.77 KCAL/MOL
REMARK 924 INTRA-LIGAND FREE ENERGY PREDICTED BY IDOCK:   -0.33 KCAL/MOL
REMARK 927      BINDING AFFINITY PREDICTED BY RF-SCORE:    0.00 PKD
ROOT
HETATM    1  C   UNK A   0     -13.338  12.172  71.956  1.00  0.00    -0.470 C  
HETATM    2  C   UNK A   0     -13.273  10.658  72.030  1.00  0.00    -0.368 C  
ENDROOT
BRANCH   2   3
HETATM    3  O   UNK A   0     -11.912  10.208  71.935  1.00  0.00    -0.230 OA 
BRANCH   3   4
HETATM    4  C   UNK A   0     -11.612   9.421  70.860  1.00  0.00    -0.312 C  
HETATM    5  O   UNK A   0     -12.104   8.323  70.628  1.00  0.00    -0.136 OA 
BRANCH   4   6
HETATM    6  C   UNK A   0     -10.571  10.113  69.962  1.00  0.00    -0.287 C  
BRANCH   6   7
HETATM    7  C   UNK A   0     -11.221  10.513  68.624  1.00  0.00    -0.328 C  
BRANCH   7   8
HETATM    8  C   UNK A   0     -11.965  11.851  68.632  1.00  0.00    -0.291 C  
BRANCH   8   9
HETATM    9  C   UNK A   0     -11.375  12.743  67.561  1.00  0.00    -0.361 A  
HETATM   10  C   UNK A   0     -12.205  13.486  66.708  1.00  0.00    -0.392 A  
HETATM   11  C   UNK A   0     -11.655  14.383  65.789  1.00  0.00    -0.353 A  
HETATM   12  C   UNK A   0     -10.273  14.547  65.715  1.00  0.00    -0.354 A  
HETATM   13  C   UNK A   0      -9.986  12.917  67.476  1.00  0.00    -0.215 A  
HETATM   14  C   UNK A   0      -9.440  13.814  66.556  1.00  0.00    -0.282 A  
ENDBRANCH   8   9
ENDBRANCH   7   8
ENDBRANCH   6   7
BRANCH   6  15
ATOM     15  N   ALA A   1      -9.422   9.175  69.777  1.00  0.00    -0.172 NA 
ATOM     16  H   ALA A   1      -9.595   8.296  70.263  1.00  0.00     0.000 HD 
BRANCH  15  17
ATOM     17  CA  ALA A   1      -9.073   8.926  68.363  1.00  0.00    -0.137 C  
ATOM     18  CB  ALA A   1      -7.774   9.632  67.978  1.00  0.00    -0.086 C  
BRANCH  17  19
ATOM     19  C   ALA A   1      -9.023   7.403  68.021  1.00  0.00    -0.132 C  
HETATM   20  C   UNK A   2      -8.793   5.726  71.365  1.00  0.00    -0.140 C  
ATOM     21  O   ALA A   1      -8.972   6.969  66.869  1.00  0.00    -0.119 OA 
HETATM   22  C   UNK A   2      -8.992   4.546  70.411  1.00  0.00    -0.144 C  
HETATM   23  N   UNK A   2      -9.063   6.517  69.097  1.00  0.00    -0.136 N  
HETATM   24  S   UNK A   2     -10.211   5.896  72.522  1.00  0.00    -0.192 SA 
HETATM   25  C   UNK A   2      -9.296   5.694  74.070  1.00  0.00    -0.135 C  
HETATM   26  C   UNK A   2      -8.742   5.081  68.982  1.00  0.00    -0.088 C  
HETATM   27  C   UNK A   2      -8.733   6.960  70.454  1.00  0.00    -0.147 C  
HETATM   28  C   UNK A   2      -9.470   4.118  68.013  1.00  0.00    -0.160 C  
HETATM   29  C   UNK A   2      -7.890   6.225  73.881  1.00  0.00    -0.099 C  
HETATM   30  S   UNK A   2      -7.252   5.541  72.333  1.00  0.00    -0.095 SA 
HETATM   31  O   UNK A   2      -9.971   4.662  66.889  1.00  0.00    -0.199 OA 
HETATM   32  O   UNK A   2      -9.509   2.904  68.189  1.00  0.00    -0.205 OA 
ENDBRANCH  17  19
ENDBRANCH  15  17
ENDBRANCH   6  15
ENDBRANCH   4   6
ENDBRANCH   3   4
ENDBRANCH   2   3
TORSDOF 9
ENDMDL
MODEL      207
REMARK 921   NORMALIZED FREE ENERGY PREDICTED BY IDOCK:   -3.76 KCAL/MOL
REMARK 922        TOTAL FREE ENERGY PREDICTED BY IDOCK:   -7.08 KCAL/MOL
REMARK 923 INTER-LIGAND FREE ENERGY PREDICTED BY IDOCK:   -6.65 KCAL/MOL
REMARK 924 INTRA-LIGAND FREE ENERGY PREDICTED BY IDOCK:   -0.43 KCAL/MOL
REMARK 927      BINDING AFFINITY PREDICTED BY RF-SCORE:    0.00 PKD
ROOT
HETATM    1  C   UNK A   0     -11.368   7.687  70.650  1.00  0.00    -0.288 C  
HETATM    2  C   UNK A   0     -11.102   8.989  71.383  1.00  0.00    -0.329 C  
ENDROOT
BRANCH   2   3
HETATM    3  O   UNK A   0     -10.712  10.017  70.458  1.00  0.00    -0.294 OA 
BRANCH   3   4
HETATM    4  C   UNK A   0     -11.631  11.000  70.230  1.00  0.00    -0.322 C  
HETATM    5  O   UNK A   0     -12.843  10.881  70.361  1.00  0.00    -0.282 OA 
BRANCH   4   6
HETATM    6  C   UNK A   0     -10.929  12.300  69.794  1.00  0.00     0.281 C  
BRANCH   6   7
HETATM    7  C   UNK A   0     -11.969  13.422  69.626  1.00  0.00    -0.386 C  
BRANCH   7   8
HETATM    8  C   UNK A   0     -11.620  14.747  70.311  1.00  0.00    -0.333 C  
BRANCH   8   9
HETATM    9  C   UNK A   0     -10.807  15.591  69.352  1.00  0.00    -0.261 A  
HETATM   10  C   UNK A   0      -9.463  15.889  69.621  1.00  0.00    -0.148 A  
HETATM   11  C   UNK A   0      -8.691  16.584  68.686  1.00  0.00    -0.244 A  
HETATM   12  C   UNK A   0      -9.253  16.984  67.475  1.00  0.00    -0.231 A  
HETATM   13  C   UNK A   0     -11.361  16.000  68.131  1.00  0.00    -0.289 A  
HETATM   14  C   UNK A   0     -10.587  16.694  67.199  1.00  0.00    -0.264 A  
ENDBRANCH   8   9
ENDBRANCH   7   8
ENDBRANCH   6   7
BRANCH   6  15
ATOM     15  N   ALA A   1     -10.184  12.022  68.528  1.00  0.00    -0.220 NA 
ATOM     16  H   ALA A   1      -9.417  11.373  68.699  1.00  0.00     0.000 HD 
BRANCH  15  17
ATOM     17  CA  ALA A   1     -11.038  11.538  67.424  1.00  0.00    -0.282 C  
ATOM     18  CB  ALA A   1     -12.125  12.554  67.075  1.00  0.00    -0.147 C  
BRANCH  17  19
ATOM     19  C   ALA A   1     -10.208  11.127  66.166  1.00  0.00    -0.244 C  
HETATM   20  C   UNK A   2      -9.111   7.621  66.903  1.00  0.00    -0.144 C  
ATOM     21  O   ALA A   1      -9.951  11.901  65.242  1.00  0.00    -0.246 OA 
HETATM   22  C   UNK A   2      -8.678   7.809  65.448  1.00  0.00    -0.051 C  
HETATM   23  N   UNK A   2      -9.773   9.804  66.106  1.00  0.00    -0.226 N  
HETATM   24  S   UNK A   2     -10.400   6.319  67.054  1.00  0.00    -0.273 SA 
HETATM   25  C   UNK A   2      -9.499   5.200  68.154  1.00  0.00    -0.127 C  
HETATM   26  C   UNK A   2      -8.755   9.324  65.152  1.00  0.00    -0.185 C  
HETATM   27  C   UNK A   2      -9.708   8.974  67.312  1.00  0.00    -0.179 C  
HETATM   28  C   UNK A   2      -8.887   9.471  63.616  1.00  0.00    -0.210 C  
HETATM   29  C   UNK A   2      -8.574   6.016  69.033  1.00  0.00    -0.120 C  
HETATM   30  S   UNK A   2      -7.689   7.177  67.964  1.00  0.00    -0.115 SA 
HETATM   31  O   UNK A   2      -9.607  10.517  63.173  1.00  0.00    -0.303 OA 
HETATM   32  O   UNK A   2      -8.289   8.746  62.827  1.00  0.00    -0.187 OA 
ENDBRANCH  17  19
ENDBRANCH  15  17
ENDBRANCH   6  15
ENDBRANCH   4   6
ENDBRANCH   3   4
ENDBRANCH   2   3
TORSDOF 9
ENDMDL
MODEL      208
REMARK 921   NORMALIZED FREE ENERGY PREDICTED BY IDOCK:   -3.75 KCAL/MOL
REMARK 922        TOTAL FREE ENERGY PREDICTED BY IDOCK:   -7.06 KCAL/MOL
REMARK 923 INTER-LIGAND FREE ENERGY PREDICTED BY IDOCK:   -5.64 KCAL/MOL
REMARK 924 INTRA-LIGAND FREE ENERGY PREDICTED BY IDOCK:   -1.42 KCAL/MOL
REMARK 927      BINDING AFFINITY PREDICTED BY RF-SCORE:    0.00 PKD
ROOT
HETATM    1  C   UNK A   0     -14.330   8.263  71.541  1.00  0.00    -0.525 C  
HETATM    2  C   UNK A   0     -13.246   7.212  71.696  1.00  0.00    -0.346 C  
ENDROOT
BRANCH   2   3
HETATM    3  O   UNK A   0     -12.042   7.803  72.210  1.00  0.00    -0.311 OA 
BRANCH   3   4
HETATM    4  C   UNK A   0     -10.971   7.820  71.364  1.00  0.00    -0.235 C  
HETATM    5  O   UNK A   0     -10.978   8.267  70.223  1.00  0.00    -0.241 OA 
BRANCH   4   6
HETATM    6  C   UNK A   0      -9.736   7.208  72.049  1.00  0.00    -0.157 C  
BRANCH   6   7
HETATM    7  C   UNK A   0      -9.873   7.330  73.578  1.00  0.00    -0.347 C  
BRANCH   7   8
HETATM    8  C   UNK A   0      -9.049   6.328  74.391  1.00  0.00    -0.168 C  
BRANCH   8   9
HETATM    9  C   UNK A   0      -9.453   4.925  73.990  1.00  0.00    -0.127 A  
HETATM   10  C   UNK A   0     -10.804   4.553  73.947  1.00  0.00    -0.344 A  
HETATM   11  C   UNK A   0     -11.177   3.289  73.481  1.00  0.00    -0.280 A  
HETATM   12  C   UNK A   0     -10.203   2.388  73.053  1.00  0.00    -0.218 A  
HETATM   13  C   UNK A   0      -8.483   4.010  73.558  1.00  0.00    -0.088 A  
HETATM   14  C   UNK A   0      -8.858   2.748  73.093  1.00  0.00    -0.083 A  
ENDBRANCH   8   9
ENDBRANCH   7   8
ENDBRANCH   6   7
BRANCH   6  15
ATOM     15  N   ALA A   1      -8.523   7.911  71.531  1.00  0.00    -0.108 NA 
ATOM     16  H   ALA A   1      -8.057   8.423  72.280  1.00  0.00     0.000 HD 
BRANCH  15  17
ATOM     17  CA  ALA A   1      -7.566   7.024  70.837  1.00  0.00    -0.086 C  
ATOM     18  CB  ALA A   1      -6.619   6.345  71.826  1.00  0.00    -0.058 C  
BRANCH  17  19
ATOM     19  C   ALA A   1      -8.279   5.982  69.917  1.00  0.00    -0.118 C  
HETATM   20  C   UNK A   2      -8.801   7.822  66.694  1.00  0.00    -0.148 C  
ATOM     21  O   ALA A   1      -8.634   4.868  70.304  1.00  0.00    -0.092 OA 
HETATM   22  C   UNK A   2      -9.217   6.394  66.336  1.00  0.00    -0.176 C  
HETATM   23  N   UNK A   2      -8.487   6.357  68.589  1.00  0.00    -0.123 N  
HETATM   24  S   UNK A   2      -7.319   8.346  65.741  1.00  0.00    -0.073 SA 
HETATM   25  C   UNK A   2      -8.054   9.767  64.895  1.00  0.00    -0.140 C  
HETATM   26  C   UNK A   2      -9.383   5.630  67.670  1.00  0.00    -0.110 C  
HETATM   27  C   UNK A   2      -8.448   7.765  68.186  1.00  0.00    -0.124 C  
HETATM   28  C   UNK A   2      -9.232   4.125  67.342  1.00  0.00    -0.157 C  
HETATM   29  C   UNK A   2      -9.126  10.364  65.782  1.00  0.00    -0.168 C  
HETATM   30  S   UNK A   2     -10.160   9.005  66.379  1.00  0.00    -0.226 SA 
HETATM   31  O   UNK A   2      -8.683   3.354  68.297  1.00  0.00    -0.089 OA 
HETATM   32  O   UNK A   2      -9.679   3.622  66.315  1.00  0.00    -0.170 OA 
ENDBRANCH  17  19
ENDBRANCH  15  17
ENDBRANCH   6  15
ENDBRANCH   4   6
ENDBRANCH   3   4
ENDBRANCH   2   3
TORSDOF 9
ENDMDL
MODEL      209
REMARK 921   NORMALIZED FREE ENERGY PREDICTED BY IDOCK:   -3.74 KCAL/MOL
REMARK 922        TOTAL FREE ENERGY PREDICTED BY IDOCK:   -7.05 KCAL/MOL
REMARK 923 INTER-LIGAND FREE ENERGY PREDICTED BY IDOCK:   -6.53 KCAL/MOL
REMARK 924 INTRA-LIGAND FREE ENERGY PREDICTED BY IDOCK:   -0.52 KCAL/MOL
REMARK 927      BINDING AFFINITY PREDICTED BY RF-SCORE:    0.00 PKD
ROOT
HETATM    1  C   UNK A   0     -11.634  10.795  69.183  1.00  0.00    -0.376 C  
HETATM    2  C   UNK A   0     -10.819   9.662  69.779  1.00  0.00    -0.250 C  
ENDROOT
BRANCH   2   3
HETATM    3  O   UNK A   0      -9.606  10.167  70.361  1.00  0.00    -0.046 OA 
BRANCH   3   4
HETATM    4  C   UNK A   0      -8.537  10.281  69.520  1.00  0.00    -0.138 C  
HETATM    5  O   UNK A   0      -7.937  11.321  69.276  1.00  0.00    -0.054 OA 
BRANCH   4   6
HETATM    6  C   UNK A   0      -8.174   8.909  68.924  1.00  0.00    -0.117 C  
BRANCH   6   7
HETATM    7  C   UNK A   0      -6.730   8.539  69.310  1.00  0.00    -0.050 C  
BRANCH   7   8
HETATM    8  C   UNK A   0      -6.403   8.649  70.802  1.00  0.00    -0.041 C  
BRANCH   8   9
HETATM    9  C   UNK A   0      -7.232   7.633  71.559  1.00  0.00    -0.063 A  
HETATM   10  C   UNK A   0      -8.179   8.044  72.508  1.00  0.00    -0.198 A  
HETATM   11  C   UNK A   0      -9.010   7.109  73.131  1.00  0.00    -0.163 A  
HETATM   12  C   UNK A   0      -8.903   5.757  72.809  1.00  0.00    -0.121 A  
HETATM   13  C   UNK A   0      -7.134   6.270  71.245  1.00  0.00    -0.077 A  
HETATM   14  C   UNK A   0      -7.965   5.338  71.869  1.00  0.00    -0.113 A  
ENDBRANCH   8   9
ENDBRANCH   7   8
ENDBRANCH   6   7
BRANCH   6  15
ATOM     15  N   ALA A   1      -8.364   8.982  67.443  1.00  0.00    -0.111 NA 
ATOM     16  H   ALA A   1      -9.228   8.513  67.170  1.00  0.00     0.000 HD 
BRANCH  15  17
ATOM     17  CA  ALA A   1      -8.325  10.355  66.900  1.00  0.00    -0.124 C  
ATOM     18  CB  ALA A   1      -7.022  10.619  66.148  1.00  0.00    -0.135 C  
BRANCH  17  19
ATOM     19  C   ALA A   1      -9.574  10.684  66.021  1.00  0.00    -0.198 C  
HETATM   20  C   UNK A   2     -10.393  14.235  66.894  1.00  0.00    -0.268 C  
ATOM     21  O   ALA A   1     -10.141   9.852  65.311  1.00  0.00    -0.313 OA 
HETATM   22  C   UNK A   2     -11.334  13.953  65.722  1.00  0.00    -0.308 C  
HETATM   23  N   UNK A   2     -10.028  12.003  66.045  1.00  0.00    -0.229 N  
HETATM   24  S   UNK A   2      -9.169  15.540  66.470  1.00  0.00    -0.318 SA 
HETATM   25  C   UNK A   2      -9.618  16.732  67.755  1.00  0.00    -0.241 C  
HETATM   26  C   UNK A   2     -11.339  12.421  65.514  1.00  0.00    -0.346 C  
HETATM   27  C   UNK A   2      -9.656  12.910  67.133  1.00  0.00    -0.225 C  
HETATM   28  C   UNK A   2     -11.788  12.172  64.053  1.00  0.00    -0.434 C  
HETATM   29  C   UNK A   2     -10.130  15.979  68.965  1.00  0.00    -0.239 C  
HETATM   30  S   UNK A   2     -11.324  14.753  68.380  1.00  0.00    -0.314 SA 
HETATM   31  O   UNK A   2     -11.263  11.097  63.438  1.00  0.00    -0.211 OA 
HETATM   32  O   UNK A   2     -12.654  12.845  63.501  1.00  0.00    -0.711 OA 
ENDBRANCH  17  19
ENDBRANCH  15  17
ENDBRANCH   6  15
ENDBRANCH   4   6
ENDBRANCH   3   4
ENDBRANCH   2   3
TORSDOF 9
ENDMDL
MODEL      210
REMARK 921   NORMALIZED FREE ENERGY PREDICTED BY IDOCK:   -3.69 KCAL/MOL
REMARK 922        TOTAL FREE ENERGY PREDICTED BY IDOCK:   -6.97 KCAL/MOL
REMARK 923 INTER-LIGAND FREE ENERGY PREDICTED BY IDOCK:   -6.05 KCAL/MOL
REMARK 924 INTRA-LIGAND FREE ENERGY PREDICTED BY IDOCK:   -0.92 KCAL/MOL
REMARK 927      BINDING AFFINITY PREDICTED BY RF-SCORE:    0.00 PKD
ROOT
HETATM    1  C   UNK A   0      -6.932  11.730  68.037  1.00  0.00    -0.076 C  
HETATM    2  C   UNK A   0      -6.759  11.683  69.544  1.00  0.00    -0.089 C  
ENDROOT
BRANCH   2   3
HETATM    3  O   UNK A   0      -7.658  10.725  70.124  1.00  0.00    -0.012 OA 
BRANCH   3   4
HETATM    4  C   UNK A   0      -7.290   9.415  70.020  1.00  0.00    -0.101 C  
HETATM    5  O   UNK A   0      -6.279   8.923  70.507  1.00  0.00    -0.037 OA 
BRANCH   4   6
HETATM    6  C   UNK A   0      -8.336   8.625  69.211  1.00  0.00    -0.118 C  
BRANCH   6   7
HETATM    7  C   UNK A   0      -7.666   7.978  67.986  1.00  0.00    -0.118 C  
BRANCH   7   8
HETATM    8  C   UNK A   0      -8.596   7.152  67.092  1.00  0.00    -0.121 C  
BRANCH   8   9
HETATM    9  C   UNK A   0      -8.627   5.728  67.604  1.00  0.00    -0.101 A  
HETATM   10  C   UNK A   0      -9.774   4.936  67.452  1.00  0.00    -0.195 A  
HETATM   11  C   UNK A   0      -9.763   3.592  67.837  1.00  0.00    -0.108 A  
HETATM   12  C   UNK A   0      -8.607   3.029  68.374  1.00  0.00    -0.116 A  
HETATM   13  C   UNK A   0      -7.470   5.150  68.147  1.00  0.00    -0.076 A  
HETATM   14  C   UNK A   0      -7.463   3.808  68.530  1.00  0.00    -0.054 A  
ENDBRANCH   8   9
ENDBRANCH   7   8
ENDBRANCH   6   7
BRANCH   6  15
ATOM     15  N   ALA A   1      -9.433   9.566  68.829  1.00  0.00    -0.145 NA 
ATOM     16  H   ALA A   1      -9.475   9.673  67.815  1.00  0.00     0.000 HD 
BRANCH  15  17
ATOM     17  CA  ALA A   1     -10.757   9.193  69.367  1.00  0.00    -0.198 C  
ATOM     18  CB  ALA A   1     -10.701   7.859  70.109  1.00  0.00    -0.244 C  
BRANCH  17  19
ATOM     19  C   ALA A   1     -11.377  10.320  70.255  1.00  0.00    -0.323 C  
HETATM   20  C   UNK A   2     -11.296  13.357  68.062  1.00  0.00    -0.286 C  
ATOM     21  O   ALA A   1     -11.693  10.155  71.435  1.00  0.00    -0.360 OA 
HETATM   22  C   UNK A   2     -12.102  13.837  69.271  1.00  0.00    -0.374 C  
HETATM   23  N   UNK A   2     -11.593  11.554  69.643  1.00  0.00    -0.309 N  
HETATM   24  S   UNK A   2     -12.318  13.355  66.534  1.00  0.00    -0.209 SA 
HETATM   25  C   UNK A   2     -11.321  14.512  65.564  1.00  0.00    -0.335 C  
HETATM   26  C   UNK A   2     -11.896  12.790  70.389  1.00  0.00    -0.155 C  
HETATM   27  C   UNK A   2     -10.897  11.916  68.405  1.00  0.00    -0.228 C  
HETATM   28  C   UNK A   2     -13.096  12.931  71.357  1.00  0.00    -0.242 C  
HETATM   29  C   UNK A   2      -9.872  14.382  65.984  1.00  0.00    -0.319 C  
HETATM   30  S   UNK A   2      -9.822  14.406  67.791  1.00  0.00    -0.224 SA 
HETATM   31  O   UNK A   2     -13.513  11.806  71.964  1.00  0.00    -0.422 OA 
HETATM   32  O   UNK A   2     -13.588  14.017  71.650  1.00  0.00    -0.350 OA 
ENDBRANCH  17  19
ENDBRANCH  15  17
ENDBRANCH   6  15
ENDBRANCH   4   6
ENDBRANCH   3   4
ENDBRANCH   2   3
TORSDOF 9
ENDMDL
MODEL      211
REMARK 921   NORMALIZED FREE ENERGY PREDICTED BY IDOCK:   -3.65 KCAL/MOL
REMARK 922        TOTAL FREE ENERGY PREDICTED BY IDOCK:   -6.91 KCAL/MOL
REMARK 923 INTER-LIGAND FREE ENERGY PREDICTED BY IDOCK:   -6.54 KCAL/MOL
REMARK 924 INTRA-LIGAND FREE ENERGY PREDICTED BY IDOCK:   -0.37 KCAL/MOL
REMARK 927      BINDING AFFINITY PREDICTED BY RF-SCORE:    0.00 PKD
ROOT
HETATM    1  C   UNK A   0      -8.004   7.899  72.581  1.00  0.00    -0.162 C  
HETATM    2  C   UNK A   0      -9.348   8.209  73.214  1.00  0.00    -0.238 C  
ENDROOT
BRANCH   2   3
HETATM    3  O   UNK A   0     -10.400   7.513  72.527  1.00  0.00    -0.207 OA 
BRANCH   3   4
HETATM    4  C   UNK A   0     -11.362   8.292  71.953  1.00  0.00    -0.308 C  
HETATM    5  O   UNK A   0     -12.245   8.889  72.559  1.00  0.00    -0.337 OA 
BRANCH   4   6
HETATM    6  C   UNK A   0     -11.180   8.334  70.425  1.00  0.00    -0.219 C  
BRANCH   6   7
HETATM    7  C   UNK A   0     -10.418   7.080  69.957  1.00  0.00    -0.233 C  
BRANCH   7   8
HETATM    8  C   UNK A   0     -11.253   6.058  69.181  1.00  0.00    -0.337 C  
BRANCH   8   9
HETATM    9  C   UNK A   0     -10.400   5.467  68.079  1.00  0.00    -0.237 A  
HETATM   10  C   UNK A   0     -10.333   6.078  66.818  1.00  0.00    -0.296 A  
HETATM   11  C   UNK A   0      -9.468   5.586  65.837  1.00  0.00    -0.115 A  
HETATM   12  C   UNK A   0      -8.661   4.481  66.108  1.00  0.00    -0.114 A  
HETATM   13  C   UNK A   0      -9.584   4.356  68.339  1.00  0.00    -0.203 A  
HETATM   14  C   UNK A   0      -8.722   3.866  67.357  1.00  0.00    -0.118 A  
ENDBRANCH   8   9
ENDBRANCH   7   8
ENDBRANCH   6   7
BRANCH   6  15
ATOM     15  N   ALA A   1     -10.460   9.597  70.078  1.00  0.00    -0.240 NA 
ATOM     16  H   ALA A   1     -10.039  10.009  70.910  1.00  0.00     0.000 HD 
BRANCH  15  17
ATOM     17  CA  ALA A   1      -9.452   9.439  69.009  1.00  0.00    -0.160 C  
ATOM     18  CB  ALA A   1     -10.061   9.680  67.629  1.00  0.00    -0.241 C  
BRANCH  17  19
ATOM     19  C   ALA A   1      -8.190  10.330  69.245  1.00  0.00    -0.162 C  
HETATM   20  C   UNK A   2      -9.285  13.756  68.193  1.00  0.00    -0.199 C  
ATOM     21  O   ALA A   1      -7.101   9.880  69.602  1.00  0.00    -0.069 OA 
HETATM   22  C   UNK A   2      -7.910  14.018  68.812  1.00  0.00    -0.097 C  
HETATM   23  N   UNK A   2      -8.347  11.703  69.055  1.00  0.00    -0.368 N  
HETATM   24  S   UNK A   2     -10.619  14.577  69.156  1.00  0.00    -0.204 SA 
HETATM   25  C   UNK A   2     -11.262  15.638  67.838  1.00  0.00    -0.328 C  
HETATM   26  C   UNK A   2      -7.216  12.644  68.954  1.00  0.00    -0.045 C  
HETATM   27  C   UNK A   2      -9.467  12.235  68.274  1.00  0.00    -0.209 C  
HETATM   28  C   UNK A   2      -6.136  12.803  70.052  1.00  0.00    -0.112 C  
HETATM   29  C   UNK A   2     -11.058  14.945  66.508  1.00  0.00    -0.341 C  
HETATM   30  S   UNK A   2      -9.354  14.341  66.462  1.00  0.00    -0.242 SA 
HETATM   31  O   UNK A   2      -5.884  11.720  70.807  1.00  0.00    -0.304 OA 
HETATM   32  O   UNK A   2      -5.460  13.821  70.175  1.00  0.00    -0.096 OA 
ENDBRANCH  17  19
ENDBRANCH  15  17
ENDBRANCH   6  15
ENDBRANCH   4   6
ENDBRANCH   3   4
ENDBRANCH   2   3
TORSDOF 9
ENDMDL
MODEL      212
REMARK 921   NORMALIZED FREE ENERGY PREDICTED BY IDOCK:   -3.65 KCAL/MOL
REMARK 922        TOTAL FREE ENERGY PREDICTED BY IDOCK:   -6.91 KCAL/MOL
REMARK 923 INTER-LIGAND FREE ENERGY PREDICTED BY IDOCK:   -7.30 KCAL/MOL
REMARK 924 INTRA-LIGAND FREE ENERGY PREDICTED BY IDOCK:    0.39 KCAL/MOL
REMARK 927      BINDING AFFINITY PREDICTED BY RF-SCORE:    0.00 PKD
ROOT
HETATM    1  C   UNK A   0      -8.379   8.538  64.876  1.00  0.00    -0.171 C  
HETATM    2  C   UNK A   0      -9.378   9.667  64.698  1.00  0.00    -0.207 C  
ENDROOT
BRANCH   2   3
HETATM    3  O   UNK A   0     -10.119   9.879  65.911  1.00  0.00    -0.271 OA 
BRANCH   3   4
HETATM    4  C   UNK A   0     -10.353  11.179  66.252  1.00  0.00    -0.249 C  
HETATM    5  O   UNK A   0      -9.672  12.137  65.905  1.00  0.00    -0.241 OA 
BRANCH   4   6
HETATM    6  C   UNK A   0     -11.613  11.285  67.132  1.00  0.00    -0.028 C  
BRANCH   6   7
HETATM    7  C   UNK A   0     -11.707  12.696  67.740  1.00  0.00    -0.412 C  
BRANCH   7   8
HETATM    8  C   UNK A   0     -12.253  13.777  66.803  1.00  0.00    -0.440 C  
BRANCH   8   9
HETATM    9  C   UNK A   0     -11.415  15.028  66.961  1.00  0.00    -0.288 A  
HETATM   10  C   UNK A   0     -10.814  15.634  65.849  1.00  0.00    -0.297 A  
HETATM   11  C   UNK A   0     -10.125  16.842  65.986  1.00  0.00    -0.336 A  
HETATM   12  C   UNK A   0     -10.033  17.456  67.234  1.00  0.00    -0.302 A  
HETATM   13  C   UNK A   0     -11.314  15.655  68.212  1.00  0.00    -0.357 A  
HETATM   14  C   UNK A   0     -10.624  16.861  68.346  1.00  0.00    -0.365 A  
ENDBRANCH   8   9
ENDBRANCH   7   8
ENDBRANCH   6   7
BRANCH   6  15
ATOM     15  N   ALA A   1     -11.538  10.220  68.178  1.00  0.00    -0.696 NA 
ATOM     16  H   ALA A   1     -11.081   9.386  67.809  1.00  0.00     0.000 HD 
BRANCH  15  17
ATOM     17  CA  ALA A   1     -10.890  10.655  69.432  1.00  0.00    -0.246 C  
ATOM     18  CB  ALA A   1     -11.668  10.176  70.656  1.00  0.00    -0.425 C  
BRANCH  17  19
ATOM     19  C   ALA A   1      -9.388  10.232  69.504  1.00  0.00    -0.178 C  
HETATM   20  C   UNK A   2      -9.423   7.081  71.532  1.00  0.00    -0.154 C  
ATOM     21  O   ALA A   1      -8.470  10.915  69.046  1.00  0.00    -0.152 OA 
HETATM   22  C   UNK A   2      -7.973   7.153  71.049  1.00  0.00    -0.103 C  
HETATM   23  N   UNK A   2      -9.110   9.003  70.101  1.00  0.00    -0.173 N  
HETATM   24  S   UNK A   2     -10.287   5.612  70.841  1.00  0.00    -0.250 SA 
HETATM   25  C   UNK A   2     -10.705   4.809  72.408  1.00  0.00    -0.149 C  
HETATM   26  C   UNK A   2      -7.754   8.584  70.506  1.00  0.00    -0.084 C  
HETATM   27  C   UNK A   2     -10.081   8.356  70.987  1.00  0.00    -0.196 C  
HETATM   28  C   UNK A   2      -6.555   8.510  69.529  1.00  0.00    -0.040 C  
HETATM   29  C   UNK A   2     -10.904   5.873  73.467  1.00  0.00    -0.216 C  
HETATM   30  S   UNK A   2      -9.510   7.020  73.358  1.00  0.00    -0.199 SA 
HETATM   31  O   UNK A   2      -6.580   9.355  68.484  1.00  0.00    -0.053 OA 
HETATM   32  O   UNK A   2      -5.574   7.801  69.736  1.00  0.00    -0.023 OA 
ENDBRANCH  17  19
ENDBRANCH  15  17
ENDBRANCH   6  15
ENDBRANCH   4   6
ENDBRANCH   3   4
ENDBRANCH   2   3
TORSDOF 9
ENDMDL
MODEL      213
REMARK 921   NORMALIZED FREE ENERGY PREDICTED BY IDOCK:   -3.65 KCAL/MOL
REMARK 922        TOTAL FREE ENERGY PREDICTED BY IDOCK:   -6.91 KCAL/MOL
REMARK 923 INTER-LIGAND FREE ENERGY PREDICTED BY IDOCK:   -5.74 KCAL/MOL
REMARK 924 INTRA-LIGAND FREE ENERGY PREDICTED BY IDOCK:   -1.16 KCAL/MOL
REMARK 927      BINDING AFFINITY PREDICTED BY RF-SCORE:    0.00 PKD
ROOT
HETATM    1  C   UNK A   0     -10.593  18.538  66.112  1.00  0.00    -0.377 C  
HETATM    2  C   UNK A   0      -9.236  17.859  66.117  1.00  0.00    -0.114 C  
ENDROOT
BRANCH   2   3
HETATM    3  O   UNK A   0      -8.980  17.255  67.395  1.00  0.00    -0.219 OA 
BRANCH   3   4
HETATM    4  C   UNK A   0      -9.968  16.454  67.891  1.00  0.00    -0.243 C  
HETATM    5  O   UNK A   0     -10.878  16.824  68.623  1.00  0.00    -0.336 OA 
BRANCH   4   6
HETATM    6  C   UNK A   0      -9.791  15.010  67.389  1.00  0.00    -0.224 C  
BRANCH   6   7
HETATM    7  C   UNK A   0     -11.164  14.321  67.289  1.00  0.00    -0.330 C  
BRANCH   7   8
HETATM    8  C   UNK A   0     -11.978  14.664  66.038  1.00  0.00    -0.248 C  
BRANCH   8   9
HETATM    9  C   UNK A   0     -11.722  13.606  64.985  1.00  0.00    -0.354 A  
HETATM   10  C   UNK A   0     -10.429  13.387  64.488  1.00  0.00    -0.431 A  
HETATM   11  C   UNK A   0     -10.182  12.344  63.591  1.00  0.00    -0.383 A  
HETATM   12  C   UNK A   0     -11.223  11.511  63.185  1.00  0.00    -0.110 A  
HETATM   13  C   UNK A   0     -12.761  12.762  64.568  1.00  0.00    -0.405 A  
HETATM   14  C   UNK A   0     -12.511  11.721  63.671  1.00  0.00    -0.482 A  
ENDBRANCH   8   9
ENDBRANCH   7   8
ENDBRANCH   6   7
BRANCH   6  15
ATOM     15  N   ALA A   1      -8.869  14.302  68.329  1.00  0.00    -0.179 NA 
ATOM     16  H   ALA A   1      -9.378  13.609  68.877  1.00  0.00     0.000 HD 
BRANCH  15  17
ATOM     17  CA  ALA A   1      -7.700  13.684  67.670  1.00  0.00    -0.178 C  
ATOM     18  CB  ALA A   1      -6.550  14.680  67.529  1.00  0.00    -0.113 C  
BRANCH  17  19
ATOM     19  C   ALA A   1      -7.240  12.372  68.381  1.00  0.00    -0.110 C  
HETATM   20  C   UNK A   2      -7.122   9.835  65.625  1.00  0.00    -0.105 C  
ATOM     21  O   ALA A   1      -7.080  12.282  69.600  1.00  0.00     0.116 OA 
HETATM   22  C   UNK A   2      -6.500   9.081  66.802  1.00  0.00    -0.064 C  
HETATM   23  N   UNK A   2      -6.983  11.272  67.563  1.00  0.00    -0.085 N  
HETATM   24  S   UNK A   2      -5.905  10.080  64.269  1.00  0.00    -0.134 SA 
HETATM   25  C   UNK A   2      -6.799   9.196  62.968  1.00  0.00    -0.092 C  
HETATM   26  C   UNK A   2      -6.822   9.897  68.075  1.00  0.00    -0.072 C  
HETATM   27  C   UNK A   2      -7.518  11.201  66.201  1.00  0.00    -0.022 C  
HETATM   28  C   UNK A   2      -5.767   9.499  69.136  1.00  0.00    -0.035 C  
HETATM   29  C   UNK A   2      -8.286   9.325  63.221  1.00  0.00    -0.193 C  
HETATM   30  S   UNK A   2      -8.578   8.947  64.965  1.00  0.00    -0.156 SA 
HETATM   31  O   UNK A   2      -5.400  10.456  70.006  1.00  0.00    -0.037 OA 
HETATM   32  O   UNK A   2      -5.354   8.350  69.262  1.00  0.00    -0.030 OA 
ENDBRANCH  17  19
ENDBRANCH  15  17
ENDBRANCH   6  15
ENDBRANCH   4   6
ENDBRANCH   3   4
ENDBRANCH   2   3
TORSDOF 9
ENDMDL
MODEL      214
REMARK 921   NORMALIZED FREE ENERGY PREDICTED BY IDOCK:   -3.61 KCAL/MOL
REMARK 922        TOTAL FREE ENERGY PREDICTED BY IDOCK:   -6.85 KCAL/MOL
REMARK 923 INTER-LIGAND FREE ENERGY PREDICTED BY IDOCK:   -6.96 KCAL/MOL
REMARK 924 INTRA-LIGAND FREE ENERGY PREDICTED BY IDOCK:    0.11 KCAL/MOL
REMARK 927      BINDING AFFINITY PREDICTED BY RF-SCORE:    0.00 PKD
ROOT
HETATM    1  C   UNK A   0     -12.487  12.239  64.146  1.00  0.00    -0.530 C  
HETATM    2  C   UNK A   0     -11.405  11.917  65.160  1.00  0.00    -0.269 C  
ENDROOT
BRANCH   2   3
HETATM    3  O   UNK A   0     -11.610  12.665  66.370  1.00  0.00    -0.341 OA 
BRANCH   3   4
HETATM    4  C   UNK A   0     -11.457  11.975  67.537  1.00  0.00    -0.333 C  
HETATM    5  O   UNK A   0     -11.904  10.857  67.763  1.00  0.00    -0.579 OA 
BRANCH   4   6
HETATM    6  C   UNK A   0     -10.624  12.795  68.540  1.00  0.00    -0.252 C  
BRANCH   6   7
HETATM    7  C   UNK A   0     -10.217  14.136  67.905  1.00  0.00    -0.235 C  
BRANCH   7   8
HETATM    8  C   UNK A   0      -9.677  15.185  68.882  1.00  0.00    -0.224 C  
BRANCH   8   9
HETATM    9  C   UNK A   0      -8.735  16.107  68.136  1.00  0.00    -0.175 A  
HETATM   10  C   UNK A   0      -7.517  16.502  68.707  1.00  0.00    -0.216 A  
HETATM   11  C   UNK A   0      -6.607  17.270  67.975  1.00  0.00    -0.168 A  
HETATM   12  C   UNK A   0      -6.906  17.648  66.667  1.00  0.00    -0.252 A  
HETATM   13  C   UNK A   0      -9.024  16.493  66.819  1.00  0.00    -0.261 A  
HETATM   14  C   UNK A   0      -8.114  17.261  66.091  1.00  0.00    -0.272 A  
ENDBRANCH   8   9
ENDBRANCH   7   8
ENDBRANCH   6   7
BRANCH   6  15
ATOM     15  N   ALA A   1      -9.441  11.974  68.941  1.00  0.00    -0.407 NA 
ATOM     16  H   ALA A   1      -9.635  11.461  69.801  1.00  0.00     0.000 HD 
BRANCH  15  17
ATOM     17  CA  ALA A   1      -8.963  11.056  67.886  1.00  0.00    -0.144 C  
ATOM     18  CB  ALA A   1      -8.327  11.822  66.728  1.00  0.00    -0.165 C  
BRANCH  17  19
ATOM     19  C   ALA A   1      -8.005   9.955  68.443  1.00  0.00    -0.096 C  
HETATM   20  C   UNK A   2     -10.176   7.929  70.729  1.00  0.00    -0.194 C  
ATOM     21  O   ALA A   1      -6.798   9.920  68.197  1.00  0.00    -0.064 OA 
HETATM   22  C   UNK A   2      -8.882   7.114  70.686  1.00  0.00    -0.149 C  
HETATM   23  N   UNK A   2      -8.582   8.964  69.237  1.00  0.00    -0.131 N  
HETATM   24  S   UNK A   2     -11.579   6.995  69.995  1.00  0.00    -0.121 SA 
HETATM   25  C   UNK A   2     -12.649   6.963  71.454  1.00  0.00    -0.353 C  
HETATM   26  C   UNK A   2      -7.800   8.028  70.067  1.00  0.00    -0.104 C  
HETATM   27  C   UNK A   2      -9.888   9.167  69.869  1.00  0.00    -0.190 C  
HETATM   28  C   UNK A   2      -6.702   7.096  69.499  1.00  0.00    -0.049 C  
HETATM   29  C   UNK A   2     -12.396   8.210  72.275  1.00  0.00    -0.323 C  
HETATM   30  S   UNK A   2     -10.606   8.399  72.444  1.00  0.00    -0.298 SA 
HETATM   31  O   UNK A   2      -6.058   7.526  68.400  1.00  0.00    -0.033 OA 
HETATM   32  O   UNK A   2      -6.350   6.065  70.065  1.00  0.00    -0.029 OA 
ENDBRANCH  17  19
ENDBRANCH  15  17
ENDBRANCH   6  15
ENDBRANCH   4   6
ENDBRANCH   3   4
ENDBRANCH   2   3
TORSDOF 9
ENDMDL
MODEL      215
REMARK 921   NORMALIZED FREE ENERGY PREDICTED BY IDOCK:   -3.60 KCAL/MOL
REMARK 922        TOTAL FREE ENERGY PREDICTED BY IDOCK:   -6.83 KCAL/MOL
REMARK 923 INTER-LIGAND FREE ENERGY PREDICTED BY IDOCK:   -7.14 KCAL/MOL
REMARK 924 INTRA-LIGAND FREE ENERGY PREDICTED BY IDOCK:    0.31 KCAL/MOL
REMARK 927      BINDING AFFINITY PREDICTED BY RF-SCORE:    0.00 PKD
ROOT
HETATM    1  C   UNK A   0     -14.362   8.712  72.574  1.00  0.00    -0.347 C  
HETATM    2  C   UNK A   0     -13.267   8.674  71.524  1.00  0.00    -0.300 C  
ENDROOT
BRANCH   2   3
HETATM    3  O   UNK A   0     -13.390   9.790  70.628  1.00  0.00    -0.186 OA 
BRANCH   3   4
HETATM    4  C   UNK A   0     -12.740  10.932  70.997  1.00  0.00    -0.407 C  
HETATM    5  O   UNK A   0     -13.001  11.608  71.986  1.00  0.00    -0.416 OA 
BRANCH   4   6
HETATM    6  C   UNK A   0     -11.612  11.255  70.000  1.00  0.00    -0.321 C  
BRANCH   6   7
HETATM    7  C   UNK A   0     -11.964  12.528  69.209  1.00  0.00    -0.304 C  
BRANCH   7   8
HETATM    8  C   UNK A   0     -11.251  12.681  67.863  1.00  0.00    -0.310 C  
BRANCH   8   9
HETATM    9  C   UNK A   0     -10.102  13.654  68.027  1.00  0.00    -0.250 A  
HETATM   10  C   UNK A   0     -10.186  14.716  68.937  1.00  0.00    -0.241 A  
HETATM   11  C   UNK A   0      -9.087  15.551  69.157  1.00  0.00    -0.248 A  
HETATM   12  C   UNK A   0      -7.894  15.329  68.470  1.00  0.00    -0.134 A  
HETATM   13  C   UNK A   0      -8.897  13.441  67.342  1.00  0.00    -0.214 A  
HETATM   14  C   UNK A   0      -7.801  14.277  67.562  1.00  0.00    -0.209 A  
ENDBRANCH   8   9
ENDBRANCH   7   8
ENDBRANCH   6   7
BRANCH   6  15
ATOM     15  N   ALA A   1     -11.427  10.068  69.110  1.00  0.00    -0.462 NA 
ATOM     16  H   ALA A   1     -11.891  10.216  68.214  1.00  0.00     0.000 HD 
BRANCH  15  17
ATOM     17  CA  ALA A   1     -10.014   9.688  68.905  1.00  0.00    -0.178 C  
ATOM     18  CB  ALA A   1      -9.219   9.778  70.206  1.00  0.00    -0.225 C  
BRANCH  17  19
ATOM     19  C   ALA A   1      -9.866   8.283  68.237  1.00  0.00    -0.172 C  
HETATM   20  C   UNK A   2      -9.659   5.914  71.134  1.00  0.00    -0.169 C  
ATOM     21  O   ALA A   1      -9.751   8.120  67.021  1.00  0.00    -0.176 OA 
HETATM   22  C   UNK A   2      -9.757   4.969  69.934  1.00  0.00    -0.266 C  
HETATM   23  N   UNK A   2      -9.894   7.178  69.088  1.00  0.00    -0.158 N  
HETATM   24  S   UNK A   2     -11.124   5.754  72.233  1.00  0.00    -0.275 SA 
HETATM   25  C   UNK A   2     -10.253   5.255  73.739  1.00  0.00    -0.223 C  
HETATM   26  C   UNK A   2      -9.488   5.822  68.673  1.00  0.00    -0.123 C  
HETATM   27  C   UNK A   2      -9.637   7.322  70.523  1.00  0.00    -0.168 C  
HETATM   28  C   UNK A   2     -10.127   5.066  67.482  1.00  0.00    -0.154 C  
HETATM   29  C   UNK A   2      -8.873   5.880  73.738  1.00  0.00    -0.124 C  
HETATM   30  S   UNK A   2      -8.145   5.591  72.108  1.00  0.00    -0.112 SA 
HETATM   31  O   UNK A   2     -10.618   5.822  66.484  1.00  0.00    -0.258 OA 
HETATM   32  O   UNK A   2     -10.103   3.842  67.383  1.00  0.00    -0.011 OA 
ENDBRANCH  17  19
ENDBRANCH  15  17
ENDBRANCH   6  15
ENDBRANCH   4   6
ENDBRANCH   3   4
ENDBRANCH   2   3
TORSDOF 9
ENDMDL
MODEL      216
REMARK 921   NORMALIZED FREE ENERGY PREDICTED BY IDOCK:   -3.60 KCAL/MOL
REMARK 922        TOTAL FREE ENERGY PREDICTED BY IDOCK:   -6.83 KCAL/MOL
REMARK 923 INTER-LIGAND FREE ENERGY PREDICTED BY IDOCK:   -6.40 KCAL/MOL
REMARK 924 INTRA-LIGAND FREE ENERGY PREDICTED BY IDOCK:   -0.44 KCAL/MOL
REMARK 927      BINDING AFFINITY PREDICTED BY RF-SCORE:    0.00 PKD
ROOT
HETATM    1  C   UNK A   0      -6.760  11.729  67.959  1.00  0.00    -0.069 C  
HETATM    2  C   UNK A   0      -7.202  11.175  69.301  1.00  0.00    -0.112 C  
ENDROOT
BRANCH   2   3
HETATM    3  O   UNK A   0      -8.094  10.064  69.117  1.00  0.00    -0.105 OA 
BRANCH   3   4
HETATM    4  C   UNK A   0      -7.509   8.838  68.988  1.00  0.00    -0.081 C  
HETATM    5  O   UNK A   0      -6.549   8.439  69.637  1.00  0.00    -0.036 OA 
BRANCH   4   6
HETATM    6  C   UNK A   0      -8.235   8.007  67.914  1.00  0.00    -0.129 C  
BRANCH   6   7
HETATM    7  C   UNK A   0      -7.248   7.020  67.263  1.00  0.00    -0.089 C  
BRANCH   7   8
HETATM    8  C   UNK A   0      -7.891   5.872  66.480  1.00  0.00    -0.101 C  
BRANCH   8   9
HETATM    9  C   UNK A   0      -8.116   4.707  67.420  1.00  0.00    -0.101 A  
HETATM   10  C   UNK A   0      -9.126   3.767  67.168  1.00  0.00    -0.178 A  
HETATM   11  C   UNK A   0      -9.264   2.640  67.983  1.00  0.00    -0.254 A  
HETATM   12  C   UNK A   0      -8.394   2.441  69.054  1.00  0.00    -0.077 A  
HETATM   13  C   UNK A   0      -7.248   4.496  68.501  1.00  0.00    -0.060 A  
HETATM   14  C   UNK A   0      -7.389   3.370  69.313  1.00  0.00    -0.049 A  
ENDBRANCH   8   9
ENDBRANCH   7   8
ENDBRANCH   6   7
BRANCH   6  15
ATOM     15  N   ALA A   1      -8.831   8.952  66.921  1.00  0.00    -0.125 NA 
ATOM     16  H   ALA A   1      -8.402   8.824  66.004  1.00  0.00     0.000 HD 
BRANCH  15  17
ATOM     17  CA  ALA A   1     -10.302   8.868  66.822  1.00  0.00    -0.247 C  
ATOM     18  CB  ALA A   1     -10.814   7.500  67.270  1.00  0.00    -0.297 C  
BRANCH  17  19
ATOM     19  C   ALA A   1     -11.017  10.028  67.586  1.00  0.00    -0.234 C  
HETATM   20  C   UNK A   2     -11.393   8.723  71.079  1.00  0.00    -0.278 C  
ATOM     21  O   ALA A   1     -11.415  11.057  67.037  1.00  0.00    -0.415 OA 
HETATM   22  C   UNK A   2     -11.838  10.180  71.216  1.00  0.00    -0.448 C  
HETATM   23  N   UNK A   2     -11.175   9.869  68.963  1.00  0.00    -0.423 N  
HETATM   24  S   UNK A   2      -9.869   8.395  72.053  1.00  0.00    -0.312 SA 
HETATM   25  C   UNK A   2     -10.539   7.113  73.141  1.00  0.00    -0.336 C  
HETATM   26  C   UNK A   2     -12.064  10.714  69.783  1.00  0.00    -0.272 C  
HETATM   27  C   UNK A   2     -11.086   8.546  69.586  1.00  0.00    -0.009 C  
HETATM   28  C   UNK A   2     -11.947  12.256  69.859  1.00  0.00    -0.306 C  
HETATM   29  C   UNK A   2     -11.620   6.355  72.399  1.00  0.00    -0.269 C  
HETATM   30  S   UNK A   2     -12.708   7.575  71.625  1.00  0.00    -0.355 SA 
HETATM   31  O   UNK A   2     -11.447  12.874  68.774  1.00  0.00    -0.260 OA 
HETATM   32  O   UNK A   2     -12.378  12.908  70.805  1.00  0.00    -0.368 OA 
ENDBRANCH  17  19
ENDBRANCH  15  17
ENDBRANCH   6  15
ENDBRANCH   4   6
ENDBRANCH   3   4
ENDBRANCH   2   3
TORSDOF 9
ENDMDL
MODEL      217
REMARK 921   NORMALIZED FREE ENERGY PREDICTED BY IDOCK:   -3.59 KCAL/MOL
REMARK 922        TOTAL FREE ENERGY PREDICTED BY IDOCK:   -6.82 KCAL/MOL
REMARK 923 INTER-LIGAND FREE ENERGY PREDICTED BY IDOCK:   -5.98 KCAL/MOL
REMARK 924 INTRA-LIGAND FREE ENERGY PREDICTED BY IDOCK:   -0.84 KCAL/MOL
REMARK 927      BINDING AFFINITY PREDICTED BY RF-SCORE:    0.00 PKD
ROOT
HETATM    1  C   UNK A   0      -7.295   5.549  64.691  1.00  0.00    -0.064 C  
HETATM    2  C   UNK A   0      -8.379   5.638  65.749  1.00  0.00    -0.132 C  
ENDROOT
BRANCH   2   3
HETATM    3  O   UNK A   0      -7.814   6.004  67.018  1.00  0.00    -0.100 OA 
BRANCH   3   4
HETATM    4  C   UNK A   0      -7.944   7.314  67.379  1.00  0.00    -0.112 C  
HETATM    5  O   UNK A   0      -7.632   8.274  66.685  1.00  0.00    -0.087 OA 
BRANCH   4   6
HETATM    6  C   UNK A   0      -8.557   7.424  68.788  1.00  0.00    -0.129 C  
BRANCH   6   7
HETATM    7  C   UNK A   0      -8.968   6.028  69.288  1.00  0.00    -0.122 C  
BRANCH   7   8
HETATM    8  C   UNK A   0      -8.799   5.796  70.792  1.00  0.00    -0.142 C  
BRANCH   8   9
HETATM    9  C   UNK A   0      -9.186   4.367  71.112  1.00  0.00    -0.199 A  
HETATM   10  C   UNK A   0      -9.909   4.062  72.274  1.00  0.00    -0.224 A  
HETATM   11  C   UNK A   0     -10.349   2.758  72.513  1.00  0.00    -0.196 A  
HETATM   12  C   UNK A   0     -10.074   1.748  71.593  1.00  0.00    -0.160 A  
HETATM   13  C   UNK A   0      -8.915   3.342  70.194  1.00  0.00    -0.172 A  
HETATM   14  C   UNK A   0      -9.355   2.040  70.436  1.00  0.00    -0.181 A  
ENDBRANCH   8   9
ENDBRANCH   7   8
ENDBRANCH   6   7
BRANCH   6  15
ATOM     15  N   ALA A   1      -9.716   8.365  68.717  1.00  0.00    -0.161 NA 
ATOM     16  H   ALA A   1     -10.593   7.864  68.856  1.00  0.00     0.000 HD 
BRANCH  15  17
ATOM     17  CA  ALA A   1      -9.619   9.508  69.648  1.00  0.00    -0.202 C  
ATOM     18  CB  ALA A   1      -9.397   9.038  71.085  1.00  0.00    -0.336 C  
BRANCH  17  19
ATOM     19  C   ALA A   1      -8.535  10.544  69.208  1.00  0.00    -0.129 C  
HETATM   20  C   UNK A   2     -10.306  12.713  66.717  1.00  0.00    -0.235 C  
ATOM     21  O   ALA A   1      -7.363  10.500  69.585  1.00  0.00    -0.134 OA 
HETATM   22  C   UNK A   2      -8.974  13.441  66.908  1.00  0.00    -0.216 C  
HETATM   23  N   UNK A   2      -8.956  11.573  68.365  1.00  0.00    -0.173 N  
HETATM   24  S   UNK A   2     -11.717  13.736  67.303  1.00  0.00    -0.403 SA 
HETATM   25  C   UNK A   2     -12.617  13.841  65.736  1.00  0.00    -0.480 C  
HETATM   26  C   UNK A   2      -8.029  12.456  67.634  1.00  0.00    -0.164 C  
HETATM   27  C   UNK A   2     -10.196  11.457  67.593  1.00  0.00    -0.180 C  
HETATM   28  C   UNK A   2      -6.940  13.313  68.326  1.00  0.00    -0.107 C  
HETATM   29  C   UNK A   2     -12.358  12.582  64.936  1.00  0.00    -0.470 C  
HETATM   30  S   UNK A   2     -10.576  12.275  64.962  1.00  0.00    -0.298 SA 
HETATM   31  O   UNK A   2      -6.450  12.840  69.485  1.00  0.00    -0.117 OA 
HETATM   32  O   UNK A   2      -6.462  14.319  67.810  1.00  0.00    -0.155 OA 
ENDBRANCH  17  19
ENDBRANCH  15  17
ENDBRANCH   6  15
ENDBRANCH   4   6
ENDBRANCH   3   4
ENDBRANCH   2   3
TORSDOF 9
ENDMDL
MODEL      218
REMARK 921   NORMALIZED FREE ENERGY PREDICTED BY IDOCK:   -3.58 KCAL/MOL
REMARK 922        TOTAL FREE ENERGY PREDICTED BY IDOCK:   -6.81 KCAL/MOL
REMARK 923 INTER-LIGAND FREE ENERGY PREDICTED BY IDOCK:   -6.39 KCAL/MOL
REMARK 924 INTRA-LIGAND FREE ENERGY PREDICTED BY IDOCK:   -0.42 KCAL/MOL
REMARK 927      BINDING AFFINITY PREDICTED BY RF-SCORE:    0.00 PKD
ROOT
HETATM    1  C   UNK A   0      -8.031   4.759  68.056  1.00  0.00    -0.085 C  
HETATM    2  C   UNK A   0      -8.915   5.991  68.102  1.00  0.00    -0.112 C  
ENDROOT
BRANCH   2   3
HETATM    3  O   UNK A   0      -8.335   6.995  68.951  1.00  0.00    -0.124 OA 
BRANCH   3   4
HETATM    4  C   UNK A   0      -7.278   7.685  68.432  1.00  0.00    -0.090 C  
HETATM    5  O   UNK A   0      -6.106   7.332  68.489  1.00  0.00    -0.025 OA 
BRANCH   4   6
HETATM    6  C   UNK A   0      -7.764   8.975  67.746  1.00  0.00    -0.097 C  
BRANCH   6   7
HETATM    7  C   UNK A   0      -6.583   9.947  67.570  1.00  0.00    -0.069 C  
BRANCH   7   8
HETATM    8  C   UNK A   0      -6.939  11.304  66.957  1.00  0.00    -0.126 C  
BRANCH   8   9
HETATM    9  C   UNK A   0      -6.589  12.394  67.948  1.00  0.00    -0.097 A  
HETATM   10  C   UNK A   0      -6.835  13.741  67.650  1.00  0.00    -0.187 A  
HETATM   11  C   UNK A   0      -6.603  14.733  68.607  1.00  0.00    -0.084 A  
HETATM   12  C   UNK A   0      -6.126  14.387  69.870  1.00  0.00    -0.141 A  
HETATM   13  C   UNK A   0      -6.108  12.058  69.222  1.00  0.00    -0.088 A  
HETATM   14  C   UNK A   0      -5.876  13.051  70.176  1.00  0.00    -0.153 A  
ENDBRANCH   8   9
ENDBRANCH   7   8
ENDBRANCH   6   7
BRANCH   6  15
ATOM     15  N   ALA A   1      -8.860   9.558  68.578  1.00  0.00    -0.124 NA 
ATOM     16  H   ALA A   1      -8.497  10.295  69.182  1.00  0.00     0.000 HD 
BRANCH  15  17
ATOM     17  CA  ALA A   1     -10.011  10.050  67.793  1.00  0.00    -0.170 C  
ATOM     18  CB  ALA A   1     -10.659   8.923  66.991  1.00  0.00    -0.279 C  
BRANCH  17  19
ATOM     19  C   ALA A   1     -11.057  10.802  68.677  1.00  0.00    -0.259 C  
HETATM   20  C   UNK A   2     -11.616   8.503  71.583  1.00  0.00    -0.299 C  
ATOM     21  O   ALA A   1     -11.588  11.862  68.343  1.00  0.00    -0.271 OA 
HETATM   22  C   UNK A   2     -12.379   9.761  72.000  1.00  0.00    -0.336 C  
HETATM   23  N   UNK A   2     -11.363  10.229  69.911  1.00  0.00    -0.271 N  
HETATM   24  S   UNK A   2     -10.204   8.171  72.714  1.00  0.00    -0.259 SA 
HETATM   25  C   UNK A   2     -10.724   6.536  73.290  1.00  0.00    -0.274 C  
HETATM   26  C   UNK A   2     -12.517  10.638  70.734  1.00  0.00    -0.385 C  
HETATM   27  C   UNK A   2     -11.076   8.818  70.182  1.00  0.00    -0.202 C  
HETATM   28  C   UNK A   2     -12.746  12.090  71.222  1.00  0.00    -0.279 C  
HETATM   29  C   UNK A   2     -11.505   5.853  72.187  1.00  0.00    -0.276 C  
HETATM   30  S   UNK A   2     -12.714   7.041  71.558  1.00  0.00    -0.354 SA 
HETATM   31  O   UNK A   2     -12.248  13.069  70.447  1.00  0.00    -0.351 OA 
HETATM   32  O   UNK A   2     -13.433  12.359  72.204  1.00  0.00    -0.525 OA 
ENDBRANCH  17  19
ENDBRANCH  15  17
ENDBRANCH   6  15
ENDBRANCH   4   6
ENDBRANCH   3   4
ENDBRANCH   2   3
TORSDOF 9
ENDMDL
MODEL      219
REMARK 921   NORMALIZED FREE ENERGY PREDICTED BY IDOCK:   -3.58 KCAL/MOL
REMARK 922        TOTAL FREE ENERGY PREDICTED BY IDOCK:   -6.81 KCAL/MOL
REMARK 923 INTER-LIGAND FREE ENERGY PREDICTED BY IDOCK:   -5.24 KCAL/MOL
REMARK 924 INTRA-LIGAND FREE ENERGY PREDICTED BY IDOCK:   -1.57 KCAL/MOL
REMARK 927      BINDING AFFINITY PREDICTED BY RF-SCORE:    0.00 PKD
ROOT
HETATM    1  C   UNK A   0      -8.889   2.746  68.730  1.00  0.00    -0.154 C  
HETATM    2  C   UNK A   0      -9.615   4.074  68.839  1.00  0.00    -0.143 C  
ENDROOT
BRANCH   2   3
HETATM    3  O   UNK A   0      -8.766   5.149  68.406  1.00  0.00    -0.101 OA 
BRANCH   3   4
HETATM    4  C   UNK A   0      -8.081   5.807  69.386  1.00  0.00    -0.101 C  
HETATM    5  O   UNK A   0      -7.402   5.274  70.256  1.00  0.00    -0.063 OA 
BRANCH   4   6
HETATM    6  C   UNK A   0      -8.266   7.329  69.240  1.00  0.00    -0.131 C  
BRANCH   6   7
HETATM    7  C   UNK A   0      -8.871   7.906  70.533  1.00  0.00    -0.141 C  
BRANCH   7   8
HETATM    8  C   UNK A   0     -10.174   7.248  70.996  1.00  0.00    -0.198 C  
BRANCH   8   9
HETATM    9  C   UNK A   0     -11.175   8.332  71.335  1.00  0.00    -0.304 A  
HETATM   10  C   UNK A   0     -10.924   9.670  70.999  1.00  0.00    -0.431 A  
HETATM   11  C   UNK A   0     -11.893  10.652  71.224  1.00  0.00    -0.257 A  
HETATM   12  C   UNK A   0     -13.122  10.304  71.782  1.00  0.00    -0.570 A  
HETATM   13  C   UNK A   0     -12.415   7.995  71.896  1.00  0.00    -0.364 A  
HETATM   14  C   UNK A   0     -13.381   8.978  72.120  1.00  0.00    -0.510 A  
ENDBRANCH   8   9
ENDBRANCH   7   8
ENDBRANCH   6   7
BRANCH   6  15
ATOM     15  N   ALA A   1      -9.132   7.579  68.048  1.00  0.00    -0.132 NA 
ATOM     16  H   ALA A   1     -10.117   7.572  68.312  1.00  0.00     0.000 HD 
BRANCH  15  17
ATOM     17  CA  ALA A   1      -8.800   8.818  67.315  1.00  0.00    -0.132 C  
ATOM     18  CB  ALA A   1      -8.646   8.556  65.818  1.00  0.00    -0.190 C  
BRANCH  17  19
ATOM     19  C   ALA A   1      -9.821   9.967  67.596  1.00  0.00    -0.162 C  
HETATM   20  C   UNK A   2      -7.666  12.920  68.421  1.00  0.00    -0.133 C  
ATOM     21  O   ALA A   1     -11.042   9.799  67.613  1.00  0.00    -0.244 OA 
HETATM   22  C   UNK A   2      -9.064  13.537  68.341  1.00  0.00    -0.155 C  
HETATM   23  N   UNK A   2      -9.291  11.240  67.809  1.00  0.00    -0.159 N  
HETATM   24  S   UNK A   2      -6.565  13.587  67.108  1.00  0.00     0.737 SA 
HETATM   25  C   UNK A   2      -5.295  14.298  68.184  1.00  0.00    -0.120 C  
HETATM   26  C   UNK A   2     -10.070  12.364  68.361  1.00  0.00    -0.217 C  
HETATM   27  C   UNK A   2      -7.886  11.420  68.182  1.00  0.00    -0.130 C  
HETATM   28  C   UNK A   2     -11.379  12.891  67.723  1.00  0.00    -0.299 C  
HETATM   29  C   UNK A   2      -5.212  13.477  69.453  1.00  0.00    -0.082 C  
HETATM   30  S   UNK A   2      -6.900  13.226  70.053  1.00  0.00     0.597 SA 
HETATM   31  O   UNK A   2     -12.113  11.999  67.034  1.00  0.00    -0.603 OA 
HETATM   32  O   UNK A   2     -11.797  14.029  67.911  1.00  0.00    -0.344 OA 
ENDBRANCH  17  19
ENDBRANCH  15  17
ENDBRANCH   6  15
ENDBRANCH   4   6
ENDBRANCH   3   4
ENDBRANCH   2   3
TORSDOF 9
ENDMDL
MODEL      220
REMARK 921   NORMALIZED FREE ENERGY PREDICTED BY IDOCK:   -3.57 KCAL/MOL
REMARK 922        TOTAL FREE ENERGY PREDICTED BY IDOCK:   -6.80 KCAL/MOL
REMARK 923 INTER-LIGAND FREE ENERGY PREDICTED BY IDOCK:   -5.64 KCAL/MOL
REMARK 924 INTRA-LIGAND FREE ENERGY PREDICTED BY IDOCK:   -1.16 KCAL/MOL
REMARK 927      BINDING AFFINITY PREDICTED BY RF-SCORE:    0.00 PKD
ROOT
HETATM    1  C   UNK A   0     -14.409   8.297  71.557  1.00  0.00    -0.525 C  
HETATM    2  C   UNK A   0     -13.251   7.332  71.727  1.00  0.00    -0.312 C  
ENDROOT
BRANCH   2   3
HETATM    3  O   UNK A   0     -12.127   7.996  72.328  1.00  0.00    -0.329 OA 
BRANCH   3   4
HETATM    4  C   UNK A   0     -11.033   8.168  71.530  1.00  0.00    -0.243 C  
HETATM    5  O   UNK A   0     -11.034   8.726  70.439  1.00  0.00    -0.231 OA 
BRANCH   4   6
HETATM    6  C   UNK A   0      -9.781   7.573  72.200  1.00  0.00    -0.164 C  
BRANCH   6   7
HETATM    7  C   UNK A   0     -10.141   7.044  73.600  1.00  0.00    -0.376 C  
BRANCH   7   8
HETATM    8  C   UNK A   0      -9.088   6.141  74.249  1.00  0.00    -0.148 C  
BRANCH   8   9
HETATM    9  C   UNK A   0      -8.937   4.889  73.412  1.00  0.00    -0.112 A  
HETATM   10  C   UNK A   0     -10.063   4.165  72.995  1.00  0.00    -0.212 A  
HETATM   11  C   UNK A   0      -9.924   3.068  72.140  1.00  0.00    -0.233 A  
HETATM   12  C   UNK A   0      -8.659   2.687  71.694  1.00  0.00    -0.096 A  
HETATM   13  C   UNK A   0      -7.670   4.495  72.958  1.00  0.00    -0.087 A  
HETATM   14  C   UNK A   0      -7.534   3.398  72.105  1.00  0.00    -0.056 A  
ENDBRANCH   8   9
ENDBRANCH   7   8
ENDBRANCH   6   7
BRANCH   6  15
ATOM     15  N   ALA A   1      -8.731   8.636  72.247  1.00  0.00    -0.369 NA 
ATOM     16  H   ALA A   1      -8.461   8.830  73.211  1.00  0.00     0.000 HD 
BRANCH  15  17
ATOM     17  CA  ALA A   1      -7.540   8.338  71.425  1.00  0.00    -0.088 C  
ATOM     18  CB  ALA A   1      -6.571   7.415  72.162  1.00  0.00    -0.051 C  
BRANCH  17  19
ATOM     19  C   ALA A   1      -7.914   7.774  70.017  1.00  0.00    -0.113 C  
HETATM   20  C   UNK A   2      -8.668  10.829  67.982  1.00  0.00    -0.132 C  
ATOM     21  O   ALA A   1      -8.006   6.570  69.773  1.00  0.00    -0.115 OA 
HETATM   22  C   UNK A   2      -8.694   9.714  66.935  1.00  0.00    -0.139 C  
HETATM   23  N   UNK A   2      -8.122   8.708  69.002  1.00  0.00    -0.118 N  
HETATM   24  S   UNK A   2      -7.303  12.018  67.658  1.00  0.00    -0.133 SA 
HETATM   25  C   UNK A   2      -8.311  13.507  67.455  1.00  0.00    -0.194 C  
HETATM   26  C   UNK A   2      -8.751   8.377  67.709  1.00  0.00    -0.137 C  
HETATM   27  C   UNK A   2      -8.408  10.111  69.312  1.00  0.00    -0.158 C  
HETATM   28  C   UNK A   2      -8.213   7.285  66.752  1.00  0.00    -0.121 C  
HETATM   29  C   UNK A   2      -9.552  13.380  68.313  1.00  0.00    -0.220 C  
HETATM   30  S   UNK A   2     -10.254  11.739  68.019  1.00  0.00    -0.199 SA 
HETATM   31  O   UNK A   2      -7.552   6.262  67.320  1.00  0.00    -0.090 OA 
HETATM   32  O   UNK A   2      -8.455   7.281  65.548  1.00  0.00    -0.141 OA 
ENDBRANCH  17  19
ENDBRANCH  15  17
ENDBRANCH   6  15
ENDBRANCH   4   6
ENDBRANCH   3   4
ENDBRANCH   2   3
TORSDOF 9
ENDMDL
MODEL      221
REMARK 921   NORMALIZED FREE ENERGY PREDICTED BY IDOCK:   -3.57 KCAL/MOL
REMARK 922        TOTAL FREE ENERGY PREDICTED BY IDOCK:   -6.80 KCAL/MOL
REMARK 923 INTER-LIGAND FREE ENERGY PREDICTED BY IDOCK:   -7.22 KCAL/MOL
REMARK 924 INTRA-LIGAND FREE ENERGY PREDICTED BY IDOCK:    0.42 KCAL/MOL
REMARK 927      BINDING AFFINITY PREDICTED BY RF-SCORE:    0.00 PKD
ROOT
HETATM    1  C   UNK A   0     -11.897   8.829  72.342  1.00  0.00    -0.356 C  
HETATM    2  C   UNK A   0     -11.516   9.302  70.952  1.00  0.00    -0.303 C  
ENDROOT
BRANCH   2   3
HETATM    3  O   UNK A   0     -12.564  10.108  70.390  1.00  0.00    -0.243 OA 
BRANCH   3   4
HETATM    4  C   UNK A   0     -12.458  11.455  70.586  1.00  0.00    -0.327 C  
HETATM    5  O   UNK A   0     -12.982  12.080  71.500  1.00  0.00    -0.397 OA 
BRANCH   4   6
HETATM    6  C   UNK A   0     -11.569  12.087  69.500  1.00  0.00    -0.321 C  
BRANCH   6   7
HETATM    7  C   UNK A   0     -12.000  13.545  69.258  1.00  0.00    -0.378 C  
BRANCH   7   8
HETATM    8  C   UNK A   0     -12.210  13.931  67.790  1.00  0.00    -0.217 C  
BRANCH   8   9
HETATM    9  C   UNK A   0     -11.242  15.039  67.434  1.00  0.00    -0.337 A  
HETATM   10  C   UNK A   0     -10.456  14.961  66.275  1.00  0.00    -0.306 A  
HETATM   11  C   UNK A   0      -9.639  16.030  65.899  1.00  0.00    -0.370 A  
HETATM   12  C   UNK A   0      -9.602  17.187  66.676  1.00  0.00    -0.279 A  
HETATM   13  C   UNK A   0     -11.195  16.208  68.208  1.00  0.00    -0.343 A  
HETATM   14  C   UNK A   0     -10.377  17.275  67.830  1.00  0.00    -0.356 A  
ENDBRANCH   8   9
ENDBRANCH   7   8
ENDBRANCH   6   7
BRANCH   6  15
ATOM     15  N   ALA A   1     -11.678  11.251  68.266  1.00  0.00    -0.508 NA 
ATOM     16  H   ALA A   1     -12.325  11.675  67.602  1.00  0.00     0.000 HD 
BRANCH  15  17
ATOM     17  CA  ALA A   1     -10.381  10.968  67.617  1.00  0.00    -0.191 C  
ATOM     18  CB  ALA A   1      -9.218  11.547  68.420  1.00  0.00    -0.190 C  
BRANCH  17  19
ATOM     19  C   ALA A   1     -10.179   9.445  67.329  1.00  0.00    -0.246 C  
HETATM   20  C   UNK A   2      -7.665   8.360  69.887  1.00  0.00    -0.092 C  
ATOM     21  O   ALA A   1     -10.705   8.860  66.380  1.00  0.00    -0.032 OA 
HETATM   22  C   UNK A   2      -8.093   7.034  69.254  1.00  0.00    -0.120 C  
HETATM   23  N   UNK A   2      -9.377   8.738  68.225  1.00  0.00    -0.137 N  
HETATM   24  S   UNK A   2      -8.140   8.438  71.661  1.00  0.00    -0.153 SA 
HETATM   25  C   UNK A   2      -6.481   8.643  72.355  1.00  0.00    -0.062 C  
HETATM   26  C   UNK A   2      -8.853   7.386  67.955  1.00  0.00    -0.132 C  
HETATM   27  C   UNK A   2      -8.438   9.433  69.109  1.00  0.00    -0.134 C  
HETATM   28  C   UNK A   2      -9.755   6.171  67.624  1.00  0.00    -0.116 C  
HETATM   29  C   UNK A   2      -5.620   9.388  71.357  1.00  0.00    -0.067 C  
HETATM   30  S   UNK A   2      -5.859   8.609  69.742  1.00  0.00    -0.028 SA 
HETATM   31  O   UNK A   2     -10.925   6.438  67.018  1.00  0.00    -0.365 OA 
HETATM   32  O   UNK A   2      -9.394   5.011  67.801  1.00  0.00    -0.118 OA 
ENDBRANCH  17  19
ENDBRANCH  15  17
ENDBRANCH   6  15
ENDBRANCH   4   6
ENDBRANCH   3   4
ENDBRANCH   2   3
TORSDOF 9
ENDMDL
MODEL      222
REMARK 921   NORMALIZED FREE ENERGY PREDICTED BY IDOCK:   -3.57 KCAL/MOL
REMARK 922        TOTAL FREE ENERGY PREDICTED BY IDOCK:   -6.79 KCAL/MOL
REMARK 923 INTER-LIGAND FREE ENERGY PREDICTED BY IDOCK:   -6.23 KCAL/MOL
REMARK 924 INTRA-LIGAND FREE ENERGY PREDICTED BY IDOCK:   -0.57 KCAL/MOL
REMARK 927      BINDING AFFINITY PREDICTED BY RF-SCORE:    0.00 PKD
ROOT
HETATM    1  C   UNK A   0     -11.597  12.378  66.983  1.00  0.00    -0.434 C  
HETATM    2  C   UNK A   0     -10.899  11.558  68.053  1.00  0.00    -0.213 C  
ENDROOT
BRANCH   2   3
HETATM    3  O   UNK A   0     -11.442  10.229  68.102  1.00  0.00    -0.270 OA 
BRANCH   3   4
HETATM    4  C   UNK A   0     -10.615   9.225  67.690  1.00  0.00    -0.261 C  
HETATM    5  O   UNK A   0     -10.359   8.952  66.523  1.00  0.00    -0.276 OA 
BRANCH   4   6
HETATM    6  C   UNK A   0     -10.028   8.481  68.904  1.00  0.00    -0.190 C  
BRANCH   6   7
HETATM    7  C   UNK A   0      -8.725   7.768  68.498  1.00  0.00    -0.128 C  
BRANCH   7   8
HETATM    8  C   UNK A   0      -8.733   6.245  68.662  1.00  0.00    -0.120 C  
BRANCH   8   9
HETATM    9  C   UNK A   0      -8.844   5.608  67.294  1.00  0.00    -0.106 A  
HETATM   10  C   UNK A   0     -10.044   5.015  66.873  1.00  0.00    -0.261 A  
HETATM   11  C   UNK A   0     -10.171   4.518  65.574  1.00  0.00    -0.251 A  
HETATM   12  C   UNK A   0      -9.102   4.610  64.683  1.00  0.00    -0.141 A  
HETATM   13  C   UNK A   0      -7.776   5.694  66.388  1.00  0.00    -0.099 A  
HETATM   14  C   UNK A   0      -7.906   5.195  65.091  1.00  0.00    -0.091 A  
ENDBRANCH   8   9
ENDBRANCH   7   8
ENDBRANCH   6   7
BRANCH   6  15
ATOM     15  N   ALA A   1     -11.063   7.528  69.409  1.00  0.00    -0.443 NA 
ATOM     16  H   ALA A   1     -10.709   6.571  69.388  1.00  0.00     0.000 HD 
BRANCH  15  17
ATOM     17  CA  ALA A   1     -11.580   7.861  70.752  1.00  0.00    -0.247 C  
ATOM     18  CB  ALA A   1     -12.643   6.860  71.202  1.00  0.00    -0.366 C  
BRANCH  17  19
ATOM     19  C   ALA A   1     -10.441   8.006  71.810  1.00  0.00    -0.229 C  
HETATM   20  C   UNK A   2      -9.524   4.471  72.653  1.00  0.00    -0.134 C  
ATOM     21  O   ALA A   1     -10.076   9.090  72.268  1.00  0.00    -0.236 OA 
HETATM   22  C   UNK A   2      -8.445   5.279  73.377  1.00  0.00    -0.113 C  
HETATM   23  N   UNK A   2      -9.809   6.830  72.217  1.00  0.00    -0.156 N  
HETATM   24  S   UNK A   2      -8.797   3.422  71.329  1.00  0.00    -0.092 SA 
HETATM   25  C   UNK A   2      -9.335   1.814  71.961  1.00  0.00    -0.089 C  
HETATM   26  C   UNK A   2      -8.927   6.748  73.397  1.00  0.00    -0.129 C  
HETATM   27  C   UNK A   2     -10.441   5.524  72.016  1.00  0.00    -0.222 C  
HETATM   28  C   UNK A   2      -7.666   7.626  73.584  1.00  0.00    -0.131 C  
HETATM   29  C   UNK A   2     -10.641   1.992  72.707  1.00  0.00    -0.146 C  
HETATM   30  S   UNK A   2     -10.447   3.406  73.818  1.00  0.00    -0.196 SA 
HETATM   31  O   UNK A   2      -7.683   8.834  72.993  1.00  0.00    -0.376 OA 
HETATM   32  O   UNK A   2      -6.733   7.302  74.313  1.00  0.00    -0.081 OA 
ENDBRANCH  17  19
ENDBRANCH  15  17
ENDBRANCH   6  15
ENDBRANCH   4   6
ENDBRANCH   3   4
ENDBRANCH   2   3
TORSDOF 9
ENDMDL
MODEL      223
REMARK 921   NORMALIZED FREE ENERGY PREDICTED BY IDOCK:   -3.55 KCAL/MOL
REMARK 922        TOTAL FREE ENERGY PREDICTED BY IDOCK:   -6.77 KCAL/MOL
REMARK 923 INTER-LIGAND FREE ENERGY PREDICTED BY IDOCK:   -7.27 KCAL/MOL
REMARK 924 INTRA-LIGAND FREE ENERGY PREDICTED BY IDOCK:    0.51 KCAL/MOL
REMARK 927      BINDING AFFINITY PREDICTED BY RF-SCORE:    0.00 PKD
ROOT
HETATM    1  C   UNK A   0     -12.028  12.646  63.445  1.00  0.00    -0.613 C  
HETATM    2  C   UNK A   0     -12.258  12.765  64.940  1.00  0.00    -0.463 C  
ENDROOT
BRANCH   2   3
HETATM    3  O   UNK A   0     -11.989  14.105  65.385  1.00  0.00    -0.352 OA 
BRANCH   3   4
HETATM    4  C   UNK A   0     -10.703  14.366  65.761  1.00  0.00    -0.307 C  
HETATM    5  O   UNK A   0      -9.875  14.964  65.083  1.00  0.00    -0.300 OA 
BRANCH   4   6
HETATM    6  C   UNK A   0     -10.434  13.817  67.174  1.00  0.00    -0.272 C  
BRANCH   6   7
HETATM    7  C   UNK A   0     -10.917  14.830  68.228  1.00  0.00    -0.264 C  
BRANCH   7   8
HETATM    8  C   UNK A   0      -9.814  15.657  68.894  1.00  0.00    -0.219 C  
BRANCH   8   9
HETATM    9  C   UNK A   0      -9.912  17.086  68.403  1.00  0.00    -0.289 A  
HETATM   10  C   UNK A   0      -8.990  18.054  68.825  1.00  0.00    -0.221 A  
HETATM   11  C   UNK A   0      -9.024  19.346  68.293  1.00  0.00    -0.384 A  
HETATM   12  C   UNK A   0      -9.978  19.680  67.333  1.00  0.00    -0.510 A  
HETATM   13  C   UNK A   0     -10.867  17.435  67.437  1.00  0.00    -0.165 A  
HETATM   14  C   UNK A   0     -10.899  18.726  66.908  1.00  0.00    -0.297 A  
ENDBRANCH   8   9
ENDBRANCH   7   8
ENDBRANCH   6   7
BRANCH   6  15
ATOM     15  N   ALA A   1      -8.972  13.531  67.290  1.00  0.00    -0.212 NA 
ATOM     16  H   ALA A   1      -8.579  13.997  68.107  1.00  0.00     0.000 HD 
BRANCH  15  17
ATOM     17  CA  ALA A   1      -8.641  12.091  67.304  1.00  0.00    -0.177 C  
ATOM     18  CB  ALA A   1      -7.169  11.862  67.644  1.00  0.00    -0.112 C  
BRANCH  17  19
ATOM     19  C   ALA A   1      -9.583  11.274  68.245  1.00  0.00    -0.193 C  
HETATM   20  C   UNK A   2      -8.157   7.809  68.175  1.00  0.00    -0.123 C  
ATOM     21  O   ALA A   1     -10.599  11.743  68.761  1.00  0.00    -0.208 OA 
HETATM   22  C   UNK A   2      -9.225   7.710  69.266  1.00  0.00    -0.145 C  
HETATM   23  N   UNK A   2      -9.212   9.956  68.513  1.00  0.00    -0.133 N  
HETATM   24  S   UNK A   2      -6.472   7.548  68.863  1.00  0.00    -0.045 SA 
HETATM   25  C   UNK A   2      -6.019   6.102  67.872  1.00  0.00    -0.017 C  
HETATM   26  C   UNK A   2     -10.114   8.968  69.134  1.00  0.00    -0.195 C  
HETATM   27  C   UNK A   2      -8.269   9.245  67.646  1.00  0.00    -0.115 C  
HETATM   28  C   UNK A   2     -10.793   9.177  70.510  1.00  0.00    -0.255 C  
HETATM   29  C   UNK A   2      -6.718   6.188  66.532  1.00  0.00    -0.060 C  
HETATM   30  S   UNK A   2      -8.454   6.588  66.846  1.00  0.00    -0.116 SA 
HETATM   31  O   UNK A   2     -11.039  10.449  70.871  1.00  0.00    -0.264 OA 
HETATM   32  O   UNK A   2     -11.190   8.245  71.203  1.00  0.00    -0.247 OA 
ENDBRANCH  17  19
ENDBRANCH  15  17
ENDBRANCH   6  15
ENDBRANCH   4   6
ENDBRANCH   3   4
ENDBRANCH   2   3
TORSDOF 9
ENDMDL
MODEL      224
REMARK 921   NORMALIZED FREE ENERGY PREDICTED BY IDOCK:   -3.53 KCAL/MOL
REMARK 922        TOTAL FREE ENERGY PREDICTED BY IDOCK:   -6.73 KCAL/MOL
REMARK 923 INTER-LIGAND FREE ENERGY PREDICTED BY IDOCK:   -6.84 KCAL/MOL
REMARK 924 INTRA-LIGAND FREE ENERGY PREDICTED BY IDOCK:    0.11 KCAL/MOL
REMARK 927      BINDING AFFINITY PREDICTED BY RF-SCORE:    0.00 PKD
ROOT
HETATM    1  C   UNK A   0     -10.175   8.916  71.830  1.00  0.00    -0.403 C  
HETATM    2  C   UNK A   0     -10.065   8.784  70.323  1.00  0.00    -0.191 C  
ENDROOT
BRANCH   2   3
HETATM    3  O   UNK A   0     -11.219   9.349  69.682  1.00  0.00    -0.189 OA 
BRANCH   3   4
HETATM    4  C   UNK A   0     -11.435  10.680  69.896  1.00  0.00    -0.317 C  
HETATM    5  O   UNK A   0     -12.265  11.148  70.667  1.00  0.00    -0.342 OA 
BRANCH   4   6
HETATM    6  C   UNK A   0     -10.473  11.525  69.040  1.00  0.00    -0.145 C  
BRANCH   6   7
HETATM    7  C   UNK A   0     -10.959  12.985  68.998  1.00  0.00    -0.242 C  
BRANCH   7   8
HETATM    8  C   UNK A   0     -12.263  13.219  68.230  1.00  0.00    -0.094 C  
BRANCH   8   9
HETATM    9  C   UNK A   0     -11.946  13.949  66.942  1.00  0.00    -0.467 A  
HETATM   10  C   UNK A   0     -11.081  15.052  66.937  1.00  0.00    -0.331 A  
HETATM   11  C   UNK A   0     -10.714  15.660  65.733  1.00  0.00    -0.350 A  
HETATM   12  C   UNK A   0     -11.206  15.168  64.525  1.00  0.00    -0.283 A  
HETATM   13  C   UNK A   0     -12.435  13.464  65.720  1.00  0.00    -0.496 A  
HETATM   14  C   UNK A   0     -12.067  14.073  64.519  1.00  0.00    -0.484 A  
ENDBRANCH   8   9
ENDBRANCH   7   8
ENDBRANCH   6   7
BRANCH   6  15
ATOM     15  N   ALA A   1     -10.403  10.910  67.679  1.00  0.00    -0.189 NA 
ATOM     16  H   ALA A   1     -11.088  11.340  67.057  1.00  0.00     0.000 HD 
BRANCH  15  17
ATOM     17  CA  ALA A   1      -9.056  10.947  67.073  1.00  0.00    -0.149 C  
ATOM     18  CB  ALA A   1      -8.923  12.104  66.084  1.00  0.00    -0.043 C  
BRANCH  17  19
ATOM     19  C   ALA A   1      -7.921  10.973  68.146  1.00  0.00    -0.119 C  
HETATM   20  C   UNK A   2      -7.178  14.618  68.599  1.00  0.00    -0.122 C  
ATOM     21  O   ALA A   1      -7.393   9.955  68.598  1.00  0.00    -0.072 OA 
HETATM   22  C   UNK A   2      -6.350  13.966  69.709  1.00  0.00    -0.125 C  
HETATM   23  N   UNK A   2      -7.526  12.227  68.612  1.00  0.00    -0.141 N  
HETATM   24  S   UNK A   2      -8.496  15.695  69.293  1.00  0.00    -0.254 SA 
HETATM   25  C   UNK A   2      -7.971  17.252  68.535  1.00  0.00    -0.261 C  
HETATM   26  C   UNK A   2      -6.297  12.453  69.396  1.00  0.00    -0.119 C  
HETATM   27  C   UNK A   2      -7.825  13.444  67.853  1.00  0.00    -0.152 C  
HETATM   28  C   UNK A   2      -5.991  11.733  70.732  1.00  0.00     0.115 C  
HETATM   29  C   UNK A   2      -7.305  16.952  67.209  1.00  0.00    -0.169 C  
HETATM   30  S   UNK A   2      -6.122  15.611  67.484  1.00  0.00    -0.057 SA 
HETATM   31  O   UNK A   2      -6.527  10.511  70.891  1.00  0.00    -0.344 OA 
HETATM   32  O   UNK A   2      -5.218  12.189  71.569  1.00  0.00    -0.301 OA 
ENDBRANCH  17  19
ENDBRANCH  15  17
ENDBRANCH   6  15
ENDBRANCH   4   6
ENDBRANCH   3   4
ENDBRANCH   2   3
TORSDOF 9
ENDMDL
MODEL      225
REMARK 921   NORMALIZED FREE ENERGY PREDICTED BY IDOCK:   -3.52 KCAL/MOL
REMARK 922        TOTAL FREE ENERGY PREDICTED BY IDOCK:   -6.72 KCAL/MOL
REMARK 923 INTER-LIGAND FREE ENERGY PREDICTED BY IDOCK:   -6.01 KCAL/MOL
REMARK 924 INTRA-LIGAND FREE ENERGY PREDICTED BY IDOCK:   -0.71 KCAL/MOL
REMARK 927      BINDING AFFINITY PREDICTED BY RF-SCORE:    0.00 PKD
ROOT
HETATM    1  C   UNK A   0      -6.932   6.854  71.419  1.00  0.00    -0.066 C  
HETATM    2  C   UNK A   0      -6.498   6.850  69.965  1.00  0.00    -0.040 C  
ENDROOT
BRANCH   2   3
HETATM    3  O   UNK A   0      -7.437   6.117  69.161  1.00  0.00    -0.085 OA 
BRANCH   3   4
HETATM    4  C   UNK A   0      -8.199   6.855  68.303  1.00  0.00    -0.123 C  
HETATM    5  O   UNK A   0      -7.916   7.101  67.136  1.00  0.00    -0.107 OA 
BRANCH   4   6
HETATM    6  C   UNK A   0      -9.486   7.332  69.001  1.00  0.00    -0.147 C  
BRANCH   6   7
HETATM    7  C   UNK A   0     -10.583   6.262  68.859  1.00  0.00    -0.321 C  
BRANCH   7   8
HETATM    8  C   UNK A   0     -10.505   5.107  69.863  1.00  0.00    -0.296 C  
BRANCH   8   9
HETATM    9  C   UNK A   0      -9.586   4.040  69.308  1.00  0.00    -0.247 A  
HETATM   10  C   UNK A   0      -8.735   3.315  70.154  1.00  0.00    -0.126 A  
HETATM   11  C   UNK A   0      -7.963   2.264  69.652  1.00  0.00    -0.053 A  
HETATM   12  C   UNK A   0      -8.036   1.927  68.301  1.00  0.00    -0.067 A  
HETATM   13  C   UNK A   0      -9.650   3.692  67.950  1.00  0.00    -0.180 A  
HETATM   14  C   UNK A   0      -8.877   2.642  67.451  1.00  0.00    -0.163 A  
ENDBRANCH   8   9
ENDBRANCH   7   8
ENDBRANCH   6   7
BRANCH   6  15
ATOM     15  N   ALA A   1      -9.886   8.639  68.395  1.00  0.00    -0.167 NA 
ATOM     16  H   ALA A   1     -10.814   8.570  67.977  1.00  0.00     0.000 HD 
BRANCH  15  17
ATOM     17  CA  ALA A   1      -9.822   9.779  69.332  1.00  0.00    -0.205 C  
ATOM     18  CB  ALA A   1      -9.661   9.305  70.775  1.00  0.00    -0.341 C  
BRANCH  17  19
ATOM     19  C   ALA A   1      -8.719  10.812  68.938  1.00  0.00    -0.152 C  
HETATM   20  C   UNK A   2     -10.442  13.119  66.540  1.00  0.00    -0.279 C  
ATOM     21  O   ALA A   1      -7.548  10.729  69.315  1.00  0.00    -0.123 OA 
HETATM   22  C   UNK A   2      -9.097  13.812  66.764  1.00  0.00    -0.235 C  
HETATM   23  N   UNK A   2      -9.118  11.884  68.140  1.00  0.00    -0.185 N  
HETATM   24  S   UNK A   2     -11.835  14.143  67.166  1.00  0.00    -0.430 SA 
HETATM   25  C   UNK A   2     -12.729  14.332  65.604  1.00  0.00    -0.373 C  
HETATM   26  C   UNK A   2      -8.172  12.779  67.448  1.00  0.00    -0.186 C  
HETATM   27  C   UNK A   2     -10.357  11.825  67.361  1.00  0.00    -0.204 C  
HETATM   28  C   UNK A   2      -7.069  13.585  68.177  1.00  0.00    -0.117 C  
HETATM   29  C   UNK A   2     -12.492  13.103  64.752  1.00  0.00    -0.402 C  
HETATM   30  S   UNK A   2     -10.716  12.762  64.767  1.00  0.00    -0.335 SA 
HETATM   31  O   UNK A   2      -6.590  13.053  69.316  1.00  0.00    -0.107 OA 
HETATM   32  O   UNK A   2      -6.570  14.603  67.706  1.00  0.00    -0.149 OA 
ENDBRANCH  17  19
ENDBRANCH  15  17
ENDBRANCH   6  15
ENDBRANCH   4   6
ENDBRANCH   3   4
ENDBRANCH   2   3
TORSDOF 9
ENDMDL
MODEL      226
REMARK 921   NORMALIZED FREE ENERGY PREDICTED BY IDOCK:   -3.50 KCAL/MOL
REMARK 922        TOTAL FREE ENERGY PREDICTED BY IDOCK:   -6.69 KCAL/MOL
REMARK 923 INTER-LIGAND FREE ENERGY PREDICTED BY IDOCK:   -5.18 KCAL/MOL
REMARK 924 INTRA-LIGAND FREE ENERGY PREDICTED BY IDOCK:   -1.51 KCAL/MOL
REMARK 927      BINDING AFFINITY PREDICTED BY RF-SCORE:    0.00 PKD
ROOT
HETATM    1  C   UNK A   0     -11.369  11.023  67.693  1.00  0.00    -0.355 C  
HETATM    2  C   UNK A   0     -11.976  11.192  69.073  1.00  0.00    -0.320 C  
ENDROOT
BRANCH   2   3
HETATM    3  O   UNK A   0     -10.986  10.962  70.089  1.00  0.00    -0.230 OA 
BRANCH   3   4
HETATM    4  C   UNK A   0     -11.114   9.806  70.803  1.00  0.00    -0.345 C  
HETATM    5  O   UNK A   0     -12.155   9.389  71.296  1.00  0.00    -0.305 OA 
BRANCH   4   6
HETATM    6  C   UNK A   0      -9.759   9.079  70.894  1.00  0.00    -0.264 C  
BRANCH   6   7
HETATM    7  C   UNK A   0      -8.801   9.627  69.822  1.00  0.00    -0.224 C  
BRANCH   7   8
HETATM    8  C   UNK A   0      -7.406  10.010  70.324  1.00  0.00    -0.152 C  
BRANCH   8   9
HETATM    9  C   UNK A   0      -6.856  11.114  69.446  1.00  0.00    -0.125 A  
HETATM   10  C   UNK A   0      -7.325  11.288  68.136  1.00  0.00    -0.088 A  
HETATM   11  C   UNK A   0      -6.888  12.368  67.365  1.00  0.00    -0.147 A  
HETATM   12  C   UNK A   0      -5.981  13.284  67.896  1.00  0.00    -0.138 A  
HETATM   13  C   UNK A   0      -5.943  12.041  69.968  1.00  0.00    -0.159 A  
HETATM   14  C   UNK A   0      -5.507  13.118  69.195  1.00  0.00    -0.071 A  
ENDBRANCH   8   9
ENDBRANCH   7   8
ENDBRANCH   6   7
BRANCH   6  15
ATOM     15  N   ALA A   1     -10.008   7.614  70.738  1.00  0.00    -0.182 NA 
ATOM     16  H   ALA A   1     -10.859   7.450  70.201  1.00  0.00     0.000 HD 
BRANCH  15  17
ATOM     17  CA  ALA A   1      -8.873   6.872  70.150  1.00  0.00    -0.145 C  
ATOM     18  CB  ALA A   1      -8.040   6.182  71.229  1.00  0.00    -0.118 C  
BRANCH  17  19
ATOM     19  C   ALA A   1      -9.328   5.867  69.043  1.00  0.00    -0.123 C  
HETATM   20  C   UNK A   2      -7.744   7.182  65.912  1.00  0.00    -0.101 C  
ATOM     21  O   ALA A   1     -10.116   4.943  69.251  1.00  0.00    -0.209 OA 
HETATM   22  C   UNK A   2      -8.320   5.839  65.458  1.00  0.00    -0.140 C  
HETATM   23  N   UNK A   2      -8.775   6.039  67.774  1.00  0.00    -0.106 N  
HETATM   24  S   UNK A   2      -5.909   7.194  65.804  1.00  0.00    -0.037 SA 
HETATM   25  C   UNK A   2      -5.735   8.570  64.642  1.00  0.00    -0.059 C  
HETATM   26  C   UNK A   2      -9.297   5.377  66.564  1.00  0.00    -0.145 C  
HETATM   27  C   UNK A   2      -8.164   7.312  67.382  1.00  0.00    -0.116 C  
HETATM   28  C   UNK A   2      -9.433   3.841  66.422  1.00  0.00    -0.183 C  
HETATM   29  C   UNK A   2      -6.885   9.533  64.847  1.00  0.00    -0.102 C  
HETATM   30  S   UNK A   2      -8.408   8.560  64.909  1.00  0.00    -0.138 SA 
HETATM   31  O   UNK A   2      -9.634   3.149  67.557  1.00  0.00    -0.194 OA 
HETATM   32  O   UNK A   2      -9.466   3.276  65.333  1.00  0.00    -0.161 OA 
ENDBRANCH  17  19
ENDBRANCH  15  17
ENDBRANCH   6  15
ENDBRANCH   4   6
ENDBRANCH   3   4
ENDBRANCH   2   3
TORSDOF 9
ENDMDL
MODEL      227
REMARK 921   NORMALIZED FREE ENERGY PREDICTED BY IDOCK:   -3.50 KCAL/MOL
REMARK 922        TOTAL FREE ENERGY PREDICTED BY IDOCK:   -6.69 KCAL/MOL
REMARK 923 INTER-LIGAND FREE ENERGY PREDICTED BY IDOCK:   -5.52 KCAL/MOL
REMARK 924 INTRA-LIGAND FREE ENERGY PREDICTED BY IDOCK:   -1.17 KCAL/MOL
REMARK 927      BINDING AFFINITY PREDICTED BY RF-SCORE:    0.00 PKD
ROOT
HETATM    1  C   UNK A   0      -9.175   4.593  68.853  1.00  0.00    -0.181 C  
HETATM    2  C   UNK A   0      -9.511   5.949  68.260  1.00  0.00    -0.116 C  
ENDROOT
BRANCH   2   3
HETATM    3  O   UNK A   0      -9.855   6.880  69.297  1.00  0.00    -0.155 OA 
BRANCH   3   4
HETATM    4  C   UNK A   0      -8.836   7.651  69.776  1.00  0.00    -0.140 C  
HETATM    5  O   UNK A   0      -7.898   7.245  70.452  1.00  0.00    -0.096 OA 
BRANCH   4   6
HETATM    6  C   UNK A   0      -9.018   9.116  69.336  1.00  0.00    -0.147 C  
BRANCH   6   7
HETATM    7  C   UNK A   0      -7.775   9.935  69.728  1.00  0.00    -0.159 C  
BRANCH   7   8
HETATM    8  C   UNK A   0      -7.307  10.953  68.684  1.00  0.00    -0.101 C  
BRANCH   8   9
HETATM    9  C   UNK A   0      -7.263  10.277  67.330  1.00  0.00    -0.089 A  
HETATM   10  C   UNK A   0      -8.028  10.764  66.261  1.00  0.00    -0.160 A  
HETATM   11  C   UNK A   0      -7.909  10.199  64.988  1.00  0.00    -0.140 A  
HETATM   12  C   UNK A   0      -7.022   9.145  64.773  1.00  0.00    -0.086 A  
HETATM   13  C   UNK A   0      -6.375   9.216  67.101  1.00  0.00    -0.059 A  
HETATM   14  C   UNK A   0      -6.258   8.653  65.829  1.00  0.00    -0.055 A  
ENDBRANCH   8   9
ENDBRANCH   7   8
ENDBRANCH   6   7
BRANCH   6  15
ATOM     15  N   ALA A   1     -10.266   9.639  69.971  1.00  0.00    -0.237 NA 
ATOM     16  H   ALA A   1     -10.091   9.904  70.940  1.00  0.00     0.000 HD 
BRANCH  15  17
ATOM     17  CA  ALA A   1     -10.891  10.755  69.233  1.00  0.00    -0.242 C  
ATOM     18  CB  ALA A   1     -11.903  10.247  68.207  1.00  0.00     0.412 C  
BRANCH  17  19
ATOM     19  C   ALA A   1     -11.524  11.820  70.186  1.00  0.00    -0.081 C  
HETATM   20  C   UNK A   2     -10.758  15.094  68.531  1.00  0.00    -0.240 C  
ATOM     21  O   ALA A   1     -12.044  11.537  71.266  1.00  0.00    -0.186 OA 
HETATM   22  C   UNK A   2     -11.695  15.504  69.669  1.00  0.00    -0.371 C  
HETATM   23  N   UNK A   2     -11.502  13.144  69.749  1.00  0.00    -0.488 N  
HETATM   24  S   UNK A   2     -11.510  15.436  66.889  1.00  0.00     0.030 SA 
HETATM   25  C   UNK A   2     -10.249  16.575  66.268  1.00  0.00    -0.332 C  
HETATM   26  C   UNK A   2     -11.788  14.295  70.627  1.00  0.00    -0.281 C  
HETATM   27  C   UNK A   2     -10.578  13.579  68.699  1.00  0.00    -0.244 C  
HETATM   28  C   UNK A   2     -13.109  14.457  71.420  1.00  0.00    -0.346 C  
HETATM   29  C   UNK A   2      -8.911  16.199  66.869  1.00  0.00    -0.219 C  
HETATM   30  S   UNK A   2      -9.156  15.968  68.646  1.00  0.00    -0.225 SA 
HETATM   31  O   UNK A   2     -13.738  13.323  71.776  1.00  0.00    -0.341 OA 
HETATM   32  O   UNK A   2     -13.522  15.547  71.804  1.00  0.00    -0.446 OA 
ENDBRANCH  17  19
ENDBRANCH  15  17
ENDBRANCH   6  15
ENDBRANCH   4   6
ENDBRANCH   3   4
ENDBRANCH   2   3
TORSDOF 9
ENDMDL
MODEL      228
REMARK 921   NORMALIZED FREE ENERGY PREDICTED BY IDOCK:   -3.48 KCAL/MOL
REMARK 922        TOTAL FREE ENERGY PREDICTED BY IDOCK:   -6.66 KCAL/MOL
REMARK 923 INTER-LIGAND FREE ENERGY PREDICTED BY IDOCK:   -5.16 KCAL/MOL
REMARK 924 INTRA-LIGAND FREE ENERGY PREDICTED BY IDOCK:   -1.50 KCAL/MOL
REMARK 927      BINDING AFFINITY PREDICTED BY RF-SCORE:    0.00 PKD
ROOT
HETATM    1  C   UNK A   0      -7.632   5.961  62.729  1.00  0.00    -0.078 C  
HETATM    2  C   UNK A   0      -7.892   7.409  63.100  1.00  0.00    -0.126 C  
ENDROOT
BRANCH   2   3
HETATM    3  O   UNK A   0      -7.440   7.675  64.437  1.00  0.00    -0.085 OA 
BRANCH   3   4
HETATM    4  C   UNK A   0      -8.332   8.296  65.262  1.00  0.00    -0.166 C  
HETATM    5  O   UNK A   0      -9.261   9.005  64.894  1.00  0.00    -0.151 OA 
BRANCH   4   6
HETATM    6  C   UNK A   0      -8.020   7.970  66.734  1.00  0.00    -0.103 C  
BRANCH   6   7
HETATM    7  C   UNK A   0      -8.767   6.691  67.154  1.00  0.00    -0.111 C  
BRANCH   7   8
HETATM    8  C   UNK A   0      -7.911   5.422  67.211  1.00  0.00    -0.101 C  
BRANCH   8   9
HETATM    9  C   UNK A   0      -8.407   4.452  66.159  1.00  0.00    -0.113 A  
HETATM   10  C   UNK A   0      -7.798   3.201  65.994  1.00  0.00    -0.084 A  
HETATM   11  C   UNK A   0      -8.322   2.271  65.092  1.00  0.00    -0.092 A  
HETATM   12  C   UNK A   0      -9.460   2.583  64.350  1.00  0.00    -0.141 A  
HETATM   13  C   UNK A   0      -9.552   4.755  65.407  1.00  0.00    -0.152 A  
HETATM   14  C   UNK A   0     -10.072   3.824  64.506  1.00  0.00    -0.212 A  
ENDBRANCH   8   9
ENDBRANCH   7   8
ENDBRANCH   6   7
BRANCH   6  15
ATOM     15  N   ALA A   1      -8.409   9.152  67.563  1.00  0.00    -0.115 NA 
ATOM     16  H   ALA A   1      -9.273   9.566  67.213  1.00  0.00     0.000 HD 
BRANCH  15  17
ATOM     17  CA  ALA A   1      -8.520   8.861  69.007  1.00  0.00    -0.133 C  
ATOM     18  CB  ALA A   1      -7.641   9.799  69.833  1.00  0.00    -0.154 C  
BRANCH  17  19
ATOM     19  C   ALA A   1     -10.001   8.874  69.505  1.00  0.00    -0.191 C  
HETATM   20  C   UNK A   2     -10.058   6.332  72.258  1.00  0.00    -0.177 C  
ATOM     21  O   ALA A   1     -10.890   9.537  68.969  1.00  0.00    -0.219 OA 
HETATM   22  C   UNK A   2     -11.446   6.969  72.361  1.00  0.00    -0.300 C  
HETATM   23  N   UNK A   2     -10.291   8.102  70.630  1.00  0.00    -0.197 N  
HETATM   24  S   UNK A   2      -9.059   6.661  73.766  1.00  0.00    -0.160 SA 
HETATM   25  C   UNK A   2      -8.787   4.942  74.264  1.00  0.00    -0.112 C  
HETATM   26  C   UNK A   2     -11.664   7.774  71.059  1.00  0.00    -0.281 C  
HETATM   27  C   UNK A   2      -9.399   7.021  71.056  1.00  0.00    -0.159 C  
HETATM   28  C   UNK A   2     -12.740   8.842  71.372  1.00  0.00    -0.301 C  
HETATM   29  C   UNK A   2      -8.756   4.072  73.026  1.00  0.00    -0.099 C  
HETATM   30  S   UNK A   2     -10.177   4.525  72.004  1.00  0.00    -0.151 SA 
HETATM   31  O   UNK A   2     -12.634  10.011  70.716  1.00  0.00    -0.312 OA 
HETATM   32  O   UNK A   2     -13.706   8.618  72.095  1.00  0.00    -0.381 OA 
ENDBRANCH  17  19
ENDBRANCH  15  17
ENDBRANCH   6  15
ENDBRANCH   4   6
ENDBRANCH   3   4
ENDBRANCH   2   3
TORSDOF 9
ENDMDL
MODEL      229
REMARK 921   NORMALIZED FREE ENERGY PREDICTED BY IDOCK:   -3.48 KCAL/MOL
REMARK 922        TOTAL FREE ENERGY PREDICTED BY IDOCK:   -6.65 KCAL/MOL
REMARK 923 INTER-LIGAND FREE ENERGY PREDICTED BY IDOCK:   -4.91 KCAL/MOL
REMARK 924 INTRA-LIGAND FREE ENERGY PREDICTED BY IDOCK:   -1.75 KCAL/MOL
REMARK 927      BINDING AFFINITY PREDICTED BY RF-SCORE:    0.00 PKD
ROOT
HETATM    1  C   UNK A   0     -12.101  11.092  68.491  1.00  0.00    -0.129 C  
HETATM    2  C   UNK A   0     -11.639  10.699  69.882  1.00  0.00    -0.316 C  
ENDROOT
BRANCH   2   3
HETATM    3  O   UNK A   0     -10.210  10.559  69.917  1.00  0.00    -0.197 OA 
BRANCH   3   4
HETATM    4  C   UNK A   0      -9.733   9.377  70.405  1.00  0.00    -0.261 C  
HETATM    5  O   UNK A   0     -10.181   8.780  71.377  1.00  0.00    -0.227 OA 
BRANCH   4   6
HETATM    6  C   UNK A   0      -8.552   8.881  69.550  1.00  0.00    -0.134 C  
BRANCH   6   7
HETATM    7  C   UNK A   0      -8.806   9.212  68.069  1.00  0.00    -0.129 C  
BRANCH   7   8
HETATM    8  C   UNK A   0      -8.023  10.409  67.521  1.00  0.00    -0.106 C  
BRANCH   8   9
HETATM    9  C   UNK A   0      -8.936  11.222  66.628  1.00  0.00    -0.180 A  
HETATM   10  C   UNK A   0      -9.744  10.596  65.669  1.00  0.00    -0.283 A  
HETATM   11  C   UNK A   0     -10.657  11.340  64.917  1.00  0.00    -0.364 A  
HETATM   12  C   UNK A   0     -10.773  12.714  65.119  1.00  0.00    -0.321 A  
HETATM   13  C   UNK A   0      -9.061  12.605  66.822  1.00  0.00    -0.214 A  
HETATM   14  C   UNK A   0      -9.974  13.346  66.069  1.00  0.00    -0.300 A  
ENDBRANCH   8   9
ENDBRANCH   7   8
ENDBRANCH   6   7
BRANCH   6  15
ATOM     15  N   ALA A   1      -8.393   7.414  69.786  1.00  0.00    -0.133 NA 
ATOM     16  H   ALA A   1      -9.304   6.965  69.877  1.00  0.00     0.000 HD 
BRANCH  15  17
ATOM     17  CA  ALA A   1      -7.576   6.728  68.763  1.00  0.00    -0.105 C  
ATOM     18  CB  ALA A   1      -6.368   6.034  69.390  1.00  0.00    -0.041 C  
BRANCH  17  19
ATOM     19  C   ALA A   1      -8.418   5.742  67.892  1.00  0.00    -0.103 C  
HETATM   20  C   UNK A   2      -7.203   6.347  64.399  1.00  0.00    -0.065 C  
ATOM     21  O   ALA A   1      -9.325   5.041  68.346  1.00  0.00    -0.115 OA 
HETATM   22  C   UNK A   2      -8.111   5.126  64.232  1.00  0.00    -0.125 C  
HETATM   23  N   UNK A   2      -8.084   5.657  66.540  1.00  0.00    -0.105 N  
HETATM   24  S   UNK A   2      -5.454   5.939  64.004  1.00  0.00    -0.017 SA 
HETATM   25  C   UNK A   2      -5.223   7.117  62.650  1.00  0.00    -0.033 C  
HETATM   26  C   UNK A   2      -8.941   5.007  65.530  1.00  0.00    -0.151 C  
HETATM   27  C   UNK A   2      -7.312   6.715  65.885  1.00  0.00    -0.079 C  
HETATM   28  C   UNK A   2      -9.408   3.534  65.626  1.00  0.00    -0.158 C  
HETATM   29  C   UNK A   2      -6.098   8.328  62.898  1.00  0.00    -0.082 C  
HETATM   30  S   UNK A   2      -7.749   7.728  63.332  1.00  0.00    -0.135 SA 
HETATM   31  O   UNK A   2      -9.532   3.022  66.863  1.00  0.00    -0.150 OA 
HETATM   32  O   UNK A   2      -9.752   2.882  64.644  1.00  0.00    -0.148 OA 
ENDBRANCH  17  19
ENDBRANCH  15  17
ENDBRANCH   6  15
ENDBRANCH   4   6
ENDBRANCH   3   4
ENDBRANCH   2   3
TORSDOF 9
ENDMDL
MODEL      230
REMARK 921   NORMALIZED FREE ENERGY PREDICTED BY IDOCK:   -3.47 KCAL/MOL
REMARK 922        TOTAL FREE ENERGY PREDICTED BY IDOCK:   -6.64 KCAL/MOL
REMARK 923 INTER-LIGAND FREE ENERGY PREDICTED BY IDOCK:   -6.58 KCAL/MOL
REMARK 924 INTRA-LIGAND FREE ENERGY PREDICTED BY IDOCK:   -0.06 KCAL/MOL
REMARK 927      BINDING AFFINITY PREDICTED BY RF-SCORE:    0.00 PKD
ROOT
HETATM    1  C   UNK A   0     -12.216   7.412  71.443  1.00  0.00    -0.374 C  
HETATM    2  C   UNK A   0     -12.168   8.711  72.226  1.00  0.00    -0.378 C  
ENDROOT
BRANCH   2   3
HETATM    3  O   UNK A   0     -11.411   9.701  71.511  1.00  0.00    -0.377 OA 
BRANCH   3   4
HETATM    4  C   UNK A   0     -12.100  10.435  70.589  1.00  0.00    -0.348 C  
HETATM    5  O   UNK A   0     -13.278  10.274  70.293  1.00  0.00    -0.144 OA 
BRANCH   4   6
HETATM    6  C   UNK A   0     -11.191  11.515  69.974  1.00  0.00    -0.026 C  
BRANCH   6   7
HETATM    7  C   UNK A   0     -11.958  12.282  68.882  1.00  0.00    -0.300 C  
BRANCH   7   8
HETATM    8  C   UNK A   0     -12.052  13.796  69.090  1.00  0.00    -0.374 C  
BRANCH   8   9
HETATM    9  C   UNK A   0     -11.090  14.479  68.140  1.00  0.00    -0.280 A  
HETATM   10  C   UNK A   0      -9.767  14.740  68.524  1.00  0.00    -0.218 A  
HETATM   11  C   UNK A   0      -8.857  15.279  67.611  1.00  0.00    -0.180 A  
HETATM   12  C   UNK A   0      -9.260  15.559  66.307  1.00  0.00    -0.364 A  
HETATM   13  C   UNK A   0     -11.484  14.766  66.825  1.00  0.00    -0.343 A  
HETATM   14  C   UNK A   0     -10.572  15.305  65.915  1.00  0.00    -0.345 A  
ENDBRANCH   8   9
ENDBRANCH   7   8
ENDBRANCH   6   7
BRANCH   6  15
ATOM     15  N   ALA A   1      -9.967  10.841  69.440  1.00  0.00    -0.396 NA 
ATOM     16  H   ALA A   1      -9.426  10.428  70.200  1.00  0.00     0.000 HD 
BRANCH  15  17
ATOM     17  CA  ALA A   1     -10.244   9.836  68.394  1.00  0.00    -0.185 C  
ATOM     18  CB  ALA A   1     -11.035  10.442  67.235  1.00  0.00    -0.306 C  
BRANCH  17  19
ATOM     19  C   ALA A   1      -8.947   9.123  67.894  1.00  0.00    -0.128 C  
HETATM   20  C   UNK A   2      -8.705   6.061  70.042  1.00  0.00    -0.135 C  
ATOM     21  O   ALA A   1      -8.193   9.604  67.047  1.00  0.00    -0.116 OA 
HETATM   22  C   UNK A   2      -7.595   5.838  69.013  1.00  0.00    -0.089 C  
HETATM   23  N   UNK A   2      -8.671   7.869  68.438  1.00  0.00    -0.131 N  
HETATM   24  S   UNK A   2     -10.023   4.787  69.892  1.00  0.00    -0.219 SA 
HETATM   25  C   UNK A   2      -9.895   4.098  71.560  1.00  0.00    -0.184 C  
HETATM   26  C   UNK A   2      -7.368   7.191  68.301  1.00  0.00    -0.100 C  
HETATM   27  C   UNK A   2      -9.291   7.436  69.694  1.00  0.00    -0.149 C  
HETATM   28  C   UNK A   2      -6.711   6.871  66.937  1.00  0.00    -0.056 C  
HETATM   29  C   UNK A   2      -9.449   5.191  72.509  1.00  0.00    -0.145 C  
HETATM   30  S   UNK A   2      -8.043   6.035  71.746  1.00  0.00    -0.115 SA 
HETATM   31  O   UNK A   2      -7.012   7.694  65.917  1.00  0.00    -0.059 OA 
HETATM   32  O   UNK A   2      -5.875   5.983  66.795  1.00  0.00    -0.016 OA 
ENDBRANCH  17  19
ENDBRANCH  15  17
ENDBRANCH   6  15
ENDBRANCH   4   6
ENDBRANCH   3   4
ENDBRANCH   2   3
TORSDOF 9
ENDMDL
MODEL      231
REMARK 921   NORMALIZED FREE ENERGY PREDICTED BY IDOCK:   -3.44 KCAL/MOL
REMARK 922        TOTAL FREE ENERGY PREDICTED BY IDOCK:   -6.60 KCAL/MOL
REMARK 923 INTER-LIGAND FREE ENERGY PREDICTED BY IDOCK:   -7.02 KCAL/MOL
REMARK 924 INTRA-LIGAND FREE ENERGY PREDICTED BY IDOCK:    0.42 KCAL/MOL
REMARK 927      BINDING AFFINITY PREDICTED BY RF-SCORE:    0.00 PKD
ROOT
HETATM    1  C   UNK A   0      -8.292   8.754  71.182  1.00  0.00    -0.219 C  
HETATM    2  C   UNK A   0      -8.457   8.482  69.698  1.00  0.00    -0.130 C  
ENDROOT
BRANCH   2   3
HETATM    3  O   UNK A   0      -9.844   8.300  69.371  1.00  0.00    -0.178 OA 
BRANCH   3   4
HETATM    4  C   UNK A   0     -10.362   9.160  68.447  1.00  0.00    -0.206 C  
HETATM    5  O   UNK A   0     -10.796   8.840  67.347  1.00  0.00    -0.213 OA 
BRANCH   4   6
HETATM    6  C   UNK A   0     -10.342  10.603  68.986  1.00  0.00    -0.218 C  
BRANCH   6   7
HETATM    7  C   UNK A   0     -11.783  11.107  69.179  1.00  0.00    -0.408 C  
BRANCH   7   8
HETATM    8  C   UNK A   0     -12.217  11.307  70.634  1.00  0.00    -0.489 C  
BRANCH   8   9
HETATM    9  C   UNK A   0     -12.545   9.957  71.236  1.00  0.00    -0.480 A  
HETATM   10  C   UNK A   0     -11.553   9.192  71.866  1.00  0.00    -0.430 A  
HETATM   11  C   UNK A   0     -11.881   7.994  72.506  1.00  0.00    -0.419 A  
HETATM   12  C   UNK A   0     -13.203   7.552  72.523  1.00  0.00     0.364 A  
HETATM   13  C   UNK A   0     -13.871   9.501  71.259  1.00  0.00    -0.159 A  
HETATM   14  C   UNK A   0     -14.196   8.303  71.899  1.00  0.00    -0.535 A  
ENDBRANCH   8   9
ENDBRANCH   7   8
ENDBRANCH   6   7
BRANCH   6  15
ATOM     15  N   ALA A   1      -9.570  11.446  68.022  1.00  0.00    -0.177 NA 
ATOM     16  H   ALA A   1     -10.201  11.920  67.376  1.00  0.00     0.000 HD 
BRANCH  15  17
ATOM     17  CA  ALA A   1      -8.664  12.418  68.669  1.00  0.00     0.036 C  
ATOM     18  CB  ALA A   1      -7.246  11.862  68.789  1.00  0.00    -0.112 C  
BRANCH  17  19
ATOM     19  C   ALA A   1      -8.678  13.809  67.959  1.00  0.00    -0.181 C  
HETATM   20  C   UNK A   2     -10.722  13.236  64.870  1.00  0.00    -0.351 C  
ATOM     21  O   ALA A   1      -8.039  14.782  68.362  1.00  0.00    -0.131 OA 
HETATM   22  C   UNK A   2     -10.520  14.752  64.862  1.00  0.00    -0.398 C  
HETATM   23  N   UNK A   2      -9.485  13.928  66.827  1.00  0.00    -0.270 N  
HETATM   24  S   UNK A   2     -12.497  12.799  65.071  1.00  0.00    -0.453 SA 
HETATM   25  C   UNK A   2     -12.704  11.881  63.525  1.00  0.00    -0.405 C  
HETATM   26  C   UNK A   2      -9.400  15.059  65.883  1.00  0.00    -0.213 C  
HETATM   27  C   UNK A   2      -9.939  12.743  66.095  1.00  0.00    -0.266 C  
HETATM   28  C   UNK A   2      -9.575  16.538  66.304  1.00  0.00    -0.306 C  
HETATM   29  C   UNK A   2     -11.388  11.226  63.163  1.00  0.00     0.294 C  
HETATM   30  S   UNK A   2     -10.092  12.476  63.331  1.00  0.00     0.389 SA 
HETATM   31  O   UNK A   2      -9.228  16.849  67.565  1.00  0.00    -0.220 OA 
HETATM   32  O   UNK A   2      -9.910  17.417  65.515  1.00  0.00    -0.536 OA 
ENDBRANCH  17  19
ENDBRANCH  15  17
ENDBRANCH   6  15
ENDBRANCH   4   6
ENDBRANCH   3   4
ENDBRANCH   2   3
TORSDOF 9
ENDMDL
MODEL      232
REMARK 921   NORMALIZED FREE ENERGY PREDICTED BY IDOCK:   -3.44 KCAL/MOL
REMARK 922        TOTAL FREE ENERGY PREDICTED BY IDOCK:   -6.59 KCAL/MOL
REMARK 923 INTER-LIGAND FREE ENERGY PREDICTED BY IDOCK:   -6.73 KCAL/MOL
REMARK 924 INTRA-LIGAND FREE ENERGY PREDICTED BY IDOCK:    0.13 KCAL/MOL
REMARK 927      BINDING AFFINITY PREDICTED BY RF-SCORE:    0.00 PKD
ROOT
HETATM    1  C   UNK A   0     -10.625   4.335  64.861  1.00  0.00    -0.160 C  
HETATM    2  C   UNK A   0      -9.152   4.693  64.935  1.00  0.00    -0.154 C  
ENDROOT
BRANCH   2   3
HETATM    3  O   UNK A   0      -8.987   6.065  65.328  1.00  0.00    -0.065 OA 
BRANCH   3   4
HETATM    4  C   UNK A   0      -8.873   6.298  66.668  1.00  0.00    -0.132 C  
HETATM    5  O   UNK A   0      -8.290   5.572  67.465  1.00  0.00    -0.101 OA 
BRANCH   4   6
HETATM    6  C   UNK A   0      -9.569   7.619  67.045  1.00  0.00    -0.175 C  
BRANCH   6   7
HETATM    7  C   UNK A   0     -10.951   7.322  67.657  1.00  0.00    -0.181 C  
BRANCH   7   8
HETATM    8  C   UNK A   0     -10.935   6.459  68.921  1.00  0.00    -0.412 C  
BRANCH   8   9
HETATM    9  C   UNK A   0     -11.296   7.326  70.109  1.00  0.00    -0.236 A  
HETATM   10  C   UNK A   0     -10.684   8.573  70.299  1.00  0.00    -0.242 A  
HETATM   11  C   UNK A   0     -11.092   9.412  71.339  1.00  0.00    -0.450 A  
HETATM   12  C   UNK A   0     -12.116   9.014  72.196  1.00  0.00    -0.412 A  
HETATM   13  C   UNK A   0     -12.325   6.936  70.978  1.00  0.00    -0.401 A  
HETATM   14  C   UNK A   0     -12.730   7.776  72.017  1.00  0.00    -0.285 A  
ENDBRANCH   8   9
ENDBRANCH   7   8
ENDBRANCH   6   7
BRANCH   6  15
ATOM     15  N   ALA A   1      -9.663   8.462  65.814  1.00  0.00    -0.439 NA 
ATOM     16  H   ALA A   1     -10.456   8.173  65.242  1.00  0.00     0.000 HD 
BRANCH  15  17
ATOM     17  CA  ALA A   1      -9.720   9.913  66.085  1.00  0.00    -0.236 C  
ATOM     18  CB  ALA A   1     -10.910  10.267  66.975  1.00  0.00    -0.248 C  
BRANCH  17  19
ATOM     19  C   ALA A   1      -8.380  10.463  66.670  1.00  0.00    -0.127 C  
HETATM   20  C   UNK A   2      -9.131  14.050  67.453  1.00  0.00    -0.209 C  
ATOM     21  O   ALA A   1      -7.341   9.802  66.721  1.00  0.00    -0.090 OA 
HETATM   22  C   UNK A   2      -7.742  13.857  68.065  1.00  0.00    -0.151 C  
HETATM   23  N   UNK A   2      -8.402  11.763  67.175  1.00  0.00    -0.161 N  
HETATM   24  S   UNK A   2     -10.387  14.414  68.746  1.00  0.00    -0.232 SA 
HETATM   25  C   UNK A   2     -10.915  16.032  68.133  1.00  0.00    -0.339 C  
HETATM   26  C   UNK A   2      -7.185  12.532  67.496  1.00  0.00    -0.147 C  
HETATM   27  C   UNK A   2      -9.460  12.703  66.795  1.00  0.00    -0.237 C  
HETATM   28  C   UNK A   2      -6.103  12.042  68.490  1.00  0.00    -0.051 C  
HETATM   29  C   UNK A   2     -10.769  16.058  66.626  1.00  0.00    -0.247 C  
HETATM   30  S   UNK A   2      -9.131  15.405  66.225  1.00  0.00    -0.299 SA 
HETATM   31  O   UNK A   2      -5.962  10.711  68.616  1.00  0.00    -0.041 OA 
HETATM   32  O   UNK A   2      -5.333  12.808  69.062  1.00  0.00    -0.067 OA 
ENDBRANCH  17  19
ENDBRANCH  15  17
ENDBRANCH   6  15
ENDBRANCH   4   6
ENDBRANCH   3   4
ENDBRANCH   2   3
TORSDOF 9
ENDMDL
MODEL      233
REMARK 921   NORMALIZED FREE ENERGY PREDICTED BY IDOCK:   -3.42 KCAL/MOL
REMARK 922        TOTAL FREE ENERGY PREDICTED BY IDOCK:   -6.57 KCAL/MOL
REMARK 923 INTER-LIGAND FREE ENERGY PREDICTED BY IDOCK:   -5.61 KCAL/MOL
REMARK 924 INTRA-LIGAND FREE ENERGY PREDICTED BY IDOCK:   -0.96 KCAL/MOL
REMARK 927      BINDING AFFINITY PREDICTED BY RF-SCORE:    0.00 PKD
ROOT
HETATM    1  C   UNK A   0     -14.007   8.081  72.653  1.00  0.00     0.148 C  
HETATM    2  C   UNK A   0     -12.766   8.410  71.845  1.00  0.00    -0.355 C  
ENDROOT
BRANCH   2   3
HETATM    3  O   UNK A   0     -13.047   9.444  70.888  1.00  0.00    -0.199 OA 
BRANCH   3   4
HETATM    4  C   UNK A   0     -12.537  10.678  71.168  1.00  0.00    -0.423 C  
HETATM    5  O   UNK A   0     -12.957  11.440  72.031  1.00  0.00    -0.442 OA 
BRANCH   4   6
HETATM    6  C   UNK A   0     -11.338  10.984  70.251  1.00  0.00    -0.203 C  
BRANCH   6   7
HETATM    7  C   UNK A   0     -11.471  12.405  69.676  1.00  0.00    -0.264 C  
BRANCH   7   8
HETATM    8  C   UNK A   0     -10.701  12.660  68.377  1.00  0.00    -0.260 C  
BRANCH   8   9
HETATM    9  C   UNK A   0      -9.705  13.777  68.612  1.00  0.00    -0.140 A  
HETATM   10  C   UNK A   0     -10.101  14.975  69.223  1.00  0.00    -0.236 A  
HETATM   11  C   UNK A   0      -9.159  15.960  69.527  1.00  0.00    -0.158 A  
HETATM   12  C   UNK A   0      -7.813  15.757  69.226  1.00  0.00    -0.233 A  
HETATM   13  C   UNK A   0      -8.348  13.584  68.313  1.00  0.00    -0.165 A  
HETATM   14  C   UNK A   0      -7.409  14.571  68.618  1.00  0.00    -0.128 A  
ENDBRANCH   8   9
ENDBRANCH   7   8
ENDBRANCH   6   7
BRANCH   6  15
ATOM     15  N   ALA A   1     -11.294   9.940  69.182  1.00  0.00    -0.442 NA 
ATOM     16  H   ALA A   1     -11.413  10.365  68.262  1.00  0.00     0.000 HD 
BRANCH  15  17
ATOM     17  CA  ALA A   1     -10.078   9.101  69.212  1.00  0.00    -0.194 C  
ATOM     18  CB  ALA A   1      -9.652   8.791  70.646  1.00  0.00    -0.240 C  
BRANCH  17  19
ATOM     19  C   ALA A   1     -10.232   7.799  68.363  1.00  0.00    -0.200 C  
HETATM   20  C   UNK A   2      -7.652   8.160  65.669  1.00  0.00    -0.083 C  
ATOM     21  O   ALA A   1     -11.109   6.958  68.566  1.00  0.00    -0.168 OA 
HETATM   22  C   UNK A   2      -8.151   6.727  65.466  1.00  0.00    -0.128 C  
HETATM   23  N   UNK A   2      -9.297   7.599  67.348  1.00  0.00    -0.138 N  
HETATM   24  S   UNK A   2      -5.880   8.188  66.159  1.00  0.00    -0.041 SA 
HETATM   25  C   UNK A   2      -5.251   9.158  64.767  1.00  0.00    -0.045 C  
HETATM   26  C   UNK A   2      -9.456   6.590  66.283  1.00  0.00    -0.083 C  
HETATM   27  C   UNK A   2      -8.504   8.711  66.820  1.00  0.00    -0.115 C  
HETATM   28  C   UNK A   2      -9.651   5.079  66.559  1.00  0.00    -0.161 C  
HETATM   29  C   UNK A   2      -6.335  10.107  64.301  1.00  0.00    -0.126 C  
HETATM   30  S   UNK A   2      -7.866   9.155  64.149  1.00  0.00    -0.137 SA 
HETATM   31  O   UNK A   2     -10.248   4.753  67.719  1.00  0.00    -0.108 OA 
HETATM   32  O   UNK A   2      -9.379   4.213  65.733  1.00  0.00    -0.141 OA 
ENDBRANCH  17  19
ENDBRANCH  15  17
ENDBRANCH   6  15
ENDBRANCH   4   6
ENDBRANCH   3   4
ENDBRANCH   2   3
TORSDOF 9
ENDMDL
MODEL      234
REMARK 921   NORMALIZED FREE ENERGY PREDICTED BY IDOCK:   -3.40 KCAL/MOL
REMARK 922        TOTAL FREE ENERGY PREDICTED BY IDOCK:   -6.53 KCAL/MOL
REMARK 923 INTER-LIGAND FREE ENERGY PREDICTED BY IDOCK:   -6.13 KCAL/MOL
REMARK 924 INTRA-LIGAND FREE ENERGY PREDICTED BY IDOCK:   -0.41 KCAL/MOL
REMARK 927      BINDING AFFINITY PREDICTED BY RF-SCORE:    0.00 PKD
ROOT
HETATM    1  C   UNK A   0     -10.771  17.595  65.672  1.00  0.00    -0.084 C  
HETATM    2  C   UNK A   0     -11.145  16.189  65.241  1.00  0.00    -0.181 C  
ENDROOT
BRANCH   2   3
HETATM    3  O   UNK A   0     -11.511  15.394  66.380  1.00  0.00    -0.175 OA 
BRANCH   3   4
HETATM    4  C   UNK A   0     -10.671  14.364  66.689  1.00  0.00    -0.292 C  
HETATM    5  O   UNK A   0      -9.930  13.792  65.898  1.00  0.00    -0.297 OA 
BRANCH   4   6
HETATM    6  C   UNK A   0     -10.771  14.021  68.187  1.00  0.00    -0.246 C  
BRANCH   6   7
HETATM    7  C   UNK A   0     -10.757  15.316  69.020  1.00  0.00    -0.244 C  
BRANCH   7   8
HETATM    8  C   UNK A   0      -9.420  15.649  69.689  1.00  0.00    -0.243 C  
BRANCH   8   9
HETATM    9  C   UNK A   0      -8.503  16.277  68.660  1.00  0.00    -0.221 A  
HETATM   10  C   UNK A   0      -8.814  17.516  68.083  1.00  0.00    -0.263 A  
HETATM   11  C   UNK A   0      -7.917  18.137  67.210  1.00  0.00    -0.227 A  
HETATM   12  C   UNK A   0      -6.701  17.526  66.908  1.00  0.00    -0.220 A  
HETATM   13  C   UNK A   0      -7.277  15.672  68.347  1.00  0.00    -0.115 A  
HETATM   14  C   UNK A   0      -6.383  16.294  67.474  1.00  0.00    -0.189 A  
ENDBRANCH   8   9
ENDBRANCH   7   8
ENDBRANCH   6   7
BRANCH   6  15
ATOM     15  N   ALA A   1      -9.635  13.112  68.532  1.00  0.00    -0.368 NA 
ATOM     16  H   ALA A   1      -9.114  13.476  69.329  1.00  0.00     0.000 HD 
BRANCH  15  17
ATOM     17  CA  ALA A   1     -10.040  11.712  68.772  1.00  0.00    -0.156 C  
ATOM     18  CB  ALA A   1     -11.179  11.294  67.844  1.00  0.00    -0.353 C  
BRANCH  17  19
ATOM     19  C   ALA A   1      -8.835  10.721  68.686  1.00  0.00    -0.152 C  
HETATM   20  C   UNK A   2      -9.906   7.800  70.775  1.00  0.00    -0.180 C  
ATOM     21  O   ALA A   1      -7.777  10.989  68.113  1.00  0.00    -0.097 OA 
HETATM   22  C   UNK A   2      -8.613   7.296  70.132  1.00  0.00    -0.140 C  
HETATM   23  N   UNK A   2      -9.009   9.469  69.276  1.00  0.00    -0.151 N  
HETATM   24  S   UNK A   2     -11.357   6.817  70.218  1.00  0.00    -0.359 SA 
HETATM   25  C   UNK A   2     -11.886   6.211  71.839  1.00  0.00    -0.257 C  
HETATM   26  C   UNK A   2      -7.900   8.532  69.537  1.00  0.00    -0.097 C  
HETATM   27  C   UNK A   2     -10.054   9.244  70.278  1.00  0.00    -0.219 C  
HETATM   28  C   UNK A   2      -6.947   8.007  68.435  1.00  0.00    -0.072 C  
HETATM   29  C   UNK A   2     -11.523   7.240  72.889  1.00  0.00    -0.183 C  
HETATM   30  S   UNK A   2      -9.808   7.734  72.600  1.00  0.00    -0.251 SA 
HETATM   31  O   UNK A   2      -6.746   8.817  67.380  1.00  0.00    -0.064 OA 
HETATM   32  O   UNK A   2      -6.316   6.960  68.547  1.00  0.00    -0.029 OA 
ENDBRANCH  17  19
ENDBRANCH  15  17
ENDBRANCH   6  15
ENDBRANCH   4   6
ENDBRANCH   3   4
ENDBRANCH   2   3
TORSDOF 9
ENDMDL
MODEL      235
REMARK 921   NORMALIZED FREE ENERGY PREDICTED BY IDOCK:   -3.38 KCAL/MOL
REMARK 922        TOTAL FREE ENERGY PREDICTED BY IDOCK:   -6.51 KCAL/MOL
REMARK 923 INTER-LIGAND FREE ENERGY PREDICTED BY IDOCK:   -5.80 KCAL/MOL
REMARK 924 INTRA-LIGAND FREE ENERGY PREDICTED BY IDOCK:   -0.71 KCAL/MOL
REMARK 927      BINDING AFFINITY PREDICTED BY RF-SCORE:    0.00 PKD
ROOT
HETATM    1  C   UNK A   0      -7.250   6.616  63.377  1.00  0.00    -0.065 C  
HETATM    2  C   UNK A   0      -7.776   8.039  63.365  1.00  0.00    -0.140 C  
ENDROOT
BRANCH   2   3
HETATM    3  O   UNK A   0      -7.289   8.765  64.505  1.00  0.00    -0.097 OA 
BRANCH   3   4
HETATM    4  C   UNK A   0      -8.207   9.049  65.475  1.00  0.00    -0.122 C  
HETATM    5  O   UNK A   0      -9.370   9.376  65.274  1.00  0.00    -0.244 OA 
BRANCH   4   6
HETATM    6  C   UNK A   0      -7.580   8.885  66.872  1.00  0.00    -0.087 C  
BRANCH   6   7
HETATM    7  C   UNK A   0      -8.117   7.605  67.537  1.00  0.00    -0.120 C  
BRANCH   7   8
HETATM    8  C   UNK A   0      -7.209   6.378  67.422  1.00  0.00    -0.082 C  
BRANCH   8   9
HETATM    9  C   UNK A   0      -7.988   5.255  66.768  1.00  0.00    -0.104 A  
HETATM   10  C   UNK A   0      -7.453   3.962  66.691  1.00  0.00    -0.080 A  
HETATM   11  C   UNK A   0      -8.215   2.909  66.176  1.00  0.00    -0.085 A  
HETATM   12  C   UNK A   0      -9.518   3.140  65.737  1.00  0.00    -0.056 A  
HETATM   13  C   UNK A   0      -9.299   5.475  66.323  1.00  0.00    -0.166 A  
HETATM   14  C   UNK A   0     -10.058   4.422  65.809  1.00  0.00    -0.262 A  
ENDBRANCH   8   9
ENDBRANCH   7   8
ENDBRANCH   6   7
BRANCH   6  15
ATOM     15  N   ALA A   1      -7.893  10.112  67.666  1.00  0.00    -0.098 NA 
ATOM     16  H   ALA A   1      -8.853  10.413  67.497  1.00  0.00     0.000 HD 
BRANCH  15  17
ATOM     17  CA  ALA A   1      -7.642   9.969  69.115  1.00  0.00    -0.096 C  
ATOM     18  CB  ALA A   1      -6.767  11.104  69.643  1.00  0.00    -0.134 C  
BRANCH  17  19
ATOM     19  C   ALA A   1      -8.963   9.829  69.938  1.00  0.00    -0.229 C  
HETATM   20  C   UNK A   2     -11.279  12.325  68.373  1.00  0.00    -0.266 C  
ATOM     21  O   ALA A   1      -9.071   9.101  70.926  1.00  0.00    -0.230 OA 
HETATM   22  C   UNK A   2     -12.198  11.575  69.340  1.00  0.00    -0.273 C  
HETATM   23  N   UNK A   2     -10.062  10.561  69.489  1.00  0.00    -0.345 N  
HETATM   24  S   UNK A   2     -11.790  12.061  66.626  1.00  0.00     0.000 SA 
HETATM   25  C   UNK A   2     -12.108  13.790  66.196  1.00  0.00    -0.441 C  
HETATM   26  C   UNK A   2     -11.282  10.771  70.291  1.00  0.00    -0.245 C  
HETATM   27  C   UNK A   2      -9.892  11.707  68.592  1.00  0.00    -0.165 C  
HETATM   28  C   UNK A   2     -12.139   9.614  70.861  1.00  0.00    -0.300 C  
HETATM   29  C   UNK A   2     -11.186  14.675  67.008  1.00  0.00    -0.344 C  
HETATM   30  S   UNK A   2     -11.269  14.119  68.727  1.00  0.00    -0.285 SA 
HETATM   31  O   UNK A   2     -11.495   8.465  71.131  1.00  0.00    -0.263 OA 
HETATM   32  O   UNK A   2     -13.323   9.749  71.157  1.00  0.00    -0.373 OA 
ENDBRANCH  17  19
ENDBRANCH  15  17
ENDBRANCH   6  15
ENDBRANCH   4   6
ENDBRANCH   3   4
ENDBRANCH   2   3
TORSDOF 9
ENDMDL
MODEL      236
REMARK 921   NORMALIZED FREE ENERGY PREDICTED BY IDOCK:   -3.35 KCAL/MOL
REMARK 922        TOTAL FREE ENERGY PREDICTED BY IDOCK:   -6.46 KCAL/MOL
REMARK 923 INTER-LIGAND FREE ENERGY PREDICTED BY IDOCK:   -6.32 KCAL/MOL
REMARK 924 INTRA-LIGAND FREE ENERGY PREDICTED BY IDOCK:   -0.14 KCAL/MOL
REMARK 927      BINDING AFFINITY PREDICTED BY RF-SCORE:    0.00 PKD
ROOT
HETATM    1  C   UNK A   0      -6.778   5.739  64.750  1.00  0.00    -0.047 C  
HETATM    2  C   UNK A   0      -7.757   6.898  64.779  1.00  0.00    -0.115 C  
ENDROOT
BRANCH   2   3
HETATM    3  O   UNK A   0      -7.619   7.642  66.000  1.00  0.00    -0.083 OA 
BRANCH   3   4
HETATM    4  C   UNK A   0      -8.659   7.554  66.880  1.00  0.00    -0.124 C  
HETATM    5  O   UNK A   0      -9.846   7.607  66.580  1.00  0.00    -0.216 OA 
BRANCH   4   6
HETATM    6  C   UNK A   0      -8.134   7.361  68.314  1.00  0.00    -0.125 C  
BRANCH   6   7
HETATM    7  C   UNK A   0      -9.151   6.548  69.136  1.00  0.00    -0.136 C  
BRANCH   7   8
HETATM    8  C   UNK A   0      -8.822   5.061  69.297  1.00  0.00    -0.115 C  
BRANCH   8   9
HETATM    9  C   UNK A   0      -9.394   4.575  70.612  1.00  0.00    -0.223 A  
HETATM   10  C   UNK A   0     -10.243   5.393  71.372  1.00  0.00    -0.279 A  
HETATM   11  C   UNK A   0     -10.846   4.904  72.533  1.00  0.00    -0.234 A  
HETATM   12  C   UNK A   0     -10.608   3.593  72.944  1.00  0.00    -0.225 A  
HETATM   13  C   UNK A   0      -9.162   3.259  71.037  1.00  0.00    -0.199 A  
HETATM   14  C   UNK A   0      -9.766   2.773  72.198  1.00  0.00    -0.223 A  
ENDBRANCH   8   9
ENDBRANCH   7   8
ENDBRANCH   6   7
BRANCH   6  15
ATOM     15  N   ALA A   1      -7.882   8.713  68.901  1.00  0.00    -0.103 NA 
ATOM     16  H   ALA A   1      -8.564   9.387  68.554  1.00  0.00     0.000 HD 
BRANCH  15  17
ATOM     17  CA  ALA A   1      -7.843   8.728  70.378  1.00  0.00    -0.098 C  
ATOM     18  CB  ALA A   1      -6.775   9.689  70.897  1.00  0.00    -0.063 C  
BRANCH  17  19
ATOM     19  C   ALA A   1      -9.241   9.027  71.007  1.00  0.00    -0.264 C  
HETATM   20  C   UNK A   2     -10.789  11.501  68.656  1.00  0.00    -0.212 C  
ATOM     21  O   ALA A   1      -9.606   8.572  72.093  1.00  0.00    -0.262 OA 
HETATM   22  C   UNK A   2     -11.943  11.173  69.606  1.00  0.00    -0.429 C  
HETATM   23  N   UNK A   2     -10.104   9.834  70.266  1.00  0.00    -0.262 N  
HETATM   24  S   UNK A   2     -11.160  10.955  66.940  1.00  0.00    -0.073 SA 
HETATM   25  C   UNK A   2     -11.051  12.572  66.134  1.00  0.00    -0.298 C  
HETATM   26  C   UNK A   2     -11.326  10.444  70.822  1.00  0.00    -0.284 C  
HETATM   27  C   UNK A   2      -9.598  10.697  69.195  1.00  0.00    -0.177 C  
HETATM   28  C   UNK A   2     -12.468   9.627  71.475  1.00  0.00    -0.386 C  
HETATM   29  C   UNK A   2     -10.049  13.426  66.883  1.00  0.00    -0.255 C  
HETATM   30  S   UNK A   2     -10.429  13.294  68.646  1.00  0.00    -0.189 SA 
HETATM   31  O   UNK A   2     -12.118   8.467  72.059  1.00  0.00    -0.316 OA 
HETATM   32  O   UNK A   2     -13.619  10.046  71.561  1.00  0.00    -0.299 OA 
ENDBRANCH  17  19
ENDBRANCH  15  17
ENDBRANCH   6  15
ENDBRANCH   4   6
ENDBRANCH   3   4
ENDBRANCH   2   3
TORSDOF 9
ENDMDL
MODEL      237
REMARK 921   NORMALIZED FREE ENERGY PREDICTED BY IDOCK:   -3.35 KCAL/MOL
REMARK 922        TOTAL FREE ENERGY PREDICTED BY IDOCK:   -6.45 KCAL/MOL
REMARK 923 INTER-LIGAND FREE ENERGY PREDICTED BY IDOCK:   -6.00 KCAL/MOL
REMARK 924 INTRA-LIGAND FREE ENERGY PREDICTED BY IDOCK:   -0.45 KCAL/MOL
REMARK 927      BINDING AFFINITY PREDICTED BY RF-SCORE:    0.00 PKD
ROOT
HETATM    1  C   UNK A   0      -8.122  17.442  68.930  1.00  0.00    -0.183 C  
HETATM    2  C   UNK A   0      -7.269  17.048  67.739  1.00  0.00    -0.152 C  
ENDROOT
BRANCH   2   3
HETATM    3  O   UNK A   0      -6.456  15.907  68.057  1.00  0.00    -0.114 OA 
BRANCH   3   4
HETATM    4  C   UNK A   0      -6.982  15.025  68.957  1.00  0.00    -0.127 C  
HETATM    5  O   UNK A   0      -7.386  15.314  70.077  1.00  0.00    -0.133 OA 
BRANCH   4   6
HETATM    6  C   UNK A   0      -7.012  13.605  68.363  1.00  0.00    -0.104 C  
BRANCH   6   7
HETATM    7  C   UNK A   0      -8.075  13.528  67.252  1.00  0.00    -0.141 C  
BRANCH   7   8
HETATM    8  C   UNK A   0      -9.515  13.333  67.736  1.00  0.00    -0.208 C  
BRANCH   8   9
HETATM    9  C   UNK A   0     -10.454  13.519  66.563  1.00  0.00    -0.284 A  
HETATM   10  C   UNK A   0     -10.065  13.149  65.267  1.00  0.00    -0.250 A  
HETATM   11  C   UNK A   0     -10.969  13.229  64.205  1.00  0.00    -0.418 A  
HETATM   12  C   UNK A   0     -12.270  13.678  64.429  1.00  0.00    -0.436 A  
HETATM   13  C   UNK A   0     -11.765  13.969  66.775  1.00  0.00    -0.430 A  
HETATM   14  C   UNK A   0     -12.666  14.049  65.712  1.00  0.00    -0.487 A  
ENDBRANCH   8   9
ENDBRANCH   7   8
ENDBRANCH   6   7
BRANCH   6  15
ATOM     15  N   ALA A   1      -7.282  12.643  69.475  1.00  0.00    -0.302 NA 
ATOM     16  H   ALA A   1      -8.249  12.320  69.442  1.00  0.00     0.000 HD 
BRANCH  15  17
ATOM     17  CA  ALA A   1      -6.353  11.496  69.513  1.00  0.00    -0.116 C  
ATOM     18  CB  ALA A   1      -5.175  11.765  70.448  1.00  0.00    -0.107 C  
BRANCH  17  19
ATOM     19  C   ALA A   1      -7.075  10.156  69.869  1.00  0.00    -0.144 C  
HETATM   20  C   UNK A   2      -8.249   8.848  66.559  1.00  0.00    -0.114 C  
ATOM     21  O   ALA A   1      -7.249   9.767  71.025  1.00  0.00    -0.332 OA 
HETATM   22  C   UNK A   2      -8.556   7.686  67.507  1.00  0.00    -0.119 C  
HETATM   23  N   UNK A   2      -7.510   9.375  68.799  1.00  0.00    -0.075 N  
HETATM   24  S   UNK A   2      -6.983   8.376  65.312  1.00  0.00    -0.075 SA 
HETATM   25  C   UNK A   2      -7.981   8.652  63.827  1.00  0.00    -0.160 C  
HETATM   26  C   UNK A   2      -8.446   8.244  68.945  1.00  0.00    -0.128 C  
HETATM   27  C   UNK A   2      -7.681   9.951  67.462  1.00  0.00    -0.091 C  
HETATM   28  C   UNK A   2      -8.183   7.032  69.872  1.00  0.00    -0.130 C  
HETATM   29  C   UNK A   2      -8.973   9.762  64.102  1.00  0.00    -0.239 C  
HETATM   30  S   UNK A   2      -9.758   9.411  65.693  1.00  0.00    -0.197 SA 
HETATM   31  O   UNK A   2      -7.422   7.260  70.957  1.00  0.00    -0.074 OA 
HETATM   32  O   UNK A   2      -8.716   5.939  69.703  1.00  0.00    -0.125 OA 
ENDBRANCH  17  19
ENDBRANCH  15  17
ENDBRANCH   6  15
ENDBRANCH   4   6
ENDBRANCH   3   4
ENDBRANCH   2   3
TORSDOF 9
ENDMDL
MODEL      238
REMARK 921   NORMALIZED FREE ENERGY PREDICTED BY IDOCK:   -3.34 KCAL/MOL
REMARK 922        TOTAL FREE ENERGY PREDICTED BY IDOCK:   -6.45 KCAL/MOL
REMARK 923 INTER-LIGAND FREE ENERGY PREDICTED BY IDOCK:   -5.55 KCAL/MOL
REMARK 924 INTRA-LIGAND FREE ENERGY PREDICTED BY IDOCK:   -0.90 KCAL/MOL
REMARK 927      BINDING AFFINITY PREDICTED BY RF-SCORE:    0.00 PKD
ROOT
HETATM    1  C   UNK A   0     -10.814   9.063  69.984  1.00  0.00    -0.247 C  
HETATM    2  C   UNK A   0     -10.697   9.121  68.472  1.00  0.00    -0.116 C  
ENDROOT
BRANCH   2   3
HETATM    3  O   UNK A   0     -11.254  10.347  67.971  1.00  0.00    -0.298 OA 
BRANCH   3   4
HETATM    4  C   UNK A   0     -10.390  11.176  67.317  1.00  0.00    -0.208 C  
HETATM    5  O   UNK A   0     -10.161  11.154  66.113  1.00  0.00    -0.229 OA 
BRANCH   4   6
HETATM    6  C   UNK A   0      -9.743  12.166  68.304  1.00  0.00    -0.216 C  
BRANCH   6   7
HETATM    7  C   UNK A   0     -10.821  13.096  68.889  1.00  0.00    -0.240 C  
BRANCH   7   8
HETATM    8  C   UNK A   0     -10.773  14.545  68.396  1.00  0.00    -0.246 C  
BRANCH   8   9
HETATM    9  C   UNK A   0     -11.287  14.593  66.973  1.00  0.00    -0.362 A  
HETATM   10  C   UNK A   0     -10.601  15.316  65.986  1.00  0.00    -0.327 A  
HETATM   11  C   UNK A   0     -11.024  15.276  64.655  1.00  0.00    -0.322 A  
HETATM   12  C   UNK A   0     -12.133  14.511  64.298  1.00  0.00    -0.448 A  
HETATM   13  C   UNK A   0     -12.402  13.828  66.601  1.00  0.00    -0.403 A  
HETATM   14  C   UNK A   0     -12.822  13.790  65.270  1.00  0.00    -0.430 A  
ENDBRANCH   8   9
ENDBRANCH   7   8
ENDBRANCH   6   7
BRANCH   6  15
ATOM     15  N   ALA A   1      -8.678  12.919  67.575  1.00  0.00    -0.179 NA 
ATOM     16  H   ALA A   1      -8.918  13.908  67.512  1.00  0.00     0.000 HD 
BRANCH  15  17
ATOM     17  CA  ALA A   1      -7.326  12.749  68.145  1.00  0.00    -0.118 C  
ATOM     18  CB  ALA A   1      -7.091  13.704  69.314  1.00  0.00     0.018 C  
BRANCH  17  19
ATOM     19  C   ALA A   1      -7.030  11.268  68.543  1.00  0.00    -0.078 C  
HETATM   20  C   UNK A   2      -6.641   9.501  65.261  1.00  0.00    -0.082 C  
ATOM     21  O   ALA A   1      -7.046  10.864  69.707  1.00  0.00    -0.141 OA 
HETATM   22  C   UNK A   2      -6.225   8.429  66.271  1.00  0.00    -0.049 C  
HETATM   23  N   UNK A   2      -6.710  10.391  67.507  1.00  0.00    -0.070 N  
HETATM   24  S   UNK A   2      -5.236   9.980  64.177  1.00  0.00    -0.106 SA 
HETATM   25  C   UNK A   2      -5.978   9.524  62.590  1.00  0.00    -0.097 C  
HETATM   26  C   UNK A   2      -6.684   8.924  67.661  1.00  0.00    -0.066 C  
HETATM   27  C   UNK A   2      -7.052  10.706  66.117  1.00  0.00    -0.138 C  
HETATM   28  C   UNK A   2      -5.808   8.191  68.706  1.00  0.00    -0.043 C  
HETATM   29  C   UNK A   2      -7.479   9.703  62.682  1.00  0.00    -0.108 C  
HETATM   30  S   UNK A   2      -8.029   8.925  64.219  1.00  0.00    -0.154 SA 
HETATM   31  O   UNK A   2      -5.524   8.867  69.833  1.00  0.00    -0.029 OA 
HETATM   32  O   UNK A   2      -5.468   7.018  68.580  1.00  0.00    -0.016 OA 
ENDBRANCH  17  19
ENDBRANCH  15  17
ENDBRANCH   6  15
ENDBRANCH   4   6
ENDBRANCH   3   4
ENDBRANCH   2   3
TORSDOF 9
ENDMDL
MODEL      239
REMARK 921   NORMALIZED FREE ENERGY PREDICTED BY IDOCK:   -3.34 KCAL/MOL
REMARK 922        TOTAL FREE ENERGY PREDICTED BY IDOCK:   -6.45 KCAL/MOL
REMARK 923 INTER-LIGAND FREE ENERGY PREDICTED BY IDOCK:   -5.90 KCAL/MOL
REMARK 924 INTRA-LIGAND FREE ENERGY PREDICTED BY IDOCK:   -0.55 KCAL/MOL
REMARK 927      BINDING AFFINITY PREDICTED BY RF-SCORE:    0.00 PKD
ROOT
HETATM    1  C   UNK A   0     -13.782   9.128  72.457  1.00  0.00    -0.499 C  
HETATM    2  C   UNK A   0     -12.274   9.235  72.327  1.00  0.00    -0.235 C  
ENDROOT
BRANCH   2   3
HETATM    3  O   UNK A   0     -11.697   7.941  72.094  1.00  0.00    -0.296 OA 
BRANCH   3   4
HETATM    4  C   UNK A   0     -11.444   7.620  70.792  1.00  0.00    -0.277 C  
HETATM    5  O   UNK A   0     -11.951   6.686  70.181  1.00  0.00    -0.367 OA 
BRANCH   4   6
HETATM    6  C   UNK A   0     -10.435   8.610  70.181  1.00  0.00    -0.217 C  
BRANCH   6   7
HETATM    7  C   UNK A   0     -11.126   9.458  69.098  1.00  0.00    -0.039 C  
BRANCH   7   8
HETATM    8  C   UNK A   0     -10.402  10.753  68.719  1.00  0.00    -0.209 C  
BRANCH   8   9
HETATM    9  C   UNK A   0     -11.240  11.930  69.172  1.00  0.00    -0.314 A  
HETATM   10  C   UNK A   0     -12.079  11.825  70.290  1.00  0.00    -0.426 A  
HETATM   11  C   UNK A   0     -12.773  12.942  70.763  1.00  0.00    -0.229 A  
HETATM   12  C   UNK A   0     -12.632  14.173  70.125  1.00  0.00    -0.325 A  
HETATM   13  C   UNK A   0     -11.107  13.174  68.539  1.00  0.00    -0.296 A  
HETATM   14  C   UNK A   0     -11.801  14.288  69.013  1.00  0.00    -0.370 A  
ENDBRANCH   8   9
ENDBRANCH   7   8
ENDBRANCH   6   7
BRANCH   6  15
ATOM     15  N   ALA A   1      -9.285   7.823  69.638  1.00  0.00    -0.153 NA 
ATOM     16  H   ALA A   1      -9.016   8.171  68.718  1.00  0.00     0.000 HD 
BRANCH  15  17
ATOM     17  CA  ALA A   1      -8.114   7.775  70.537  1.00  0.00    -0.103 C  
ATOM     18  CB  ALA A   1      -7.335   6.471  70.366  1.00  0.00    -0.085 C  
BRANCH  17  19
ATOM     19  C   ALA A   1      -7.188   9.023  70.377  1.00  0.00    -0.069 C  
HETATM   20  C   UNK A   2      -6.849   9.438  66.668  1.00  0.00    -0.080 C  
ATOM     21  O   ALA A   1      -6.661   9.602  71.329  1.00  0.00    -0.293 OA 
HETATM   22  C   UNK A   2      -6.174  10.700  67.210  1.00  0.00    -0.056 C  
HETATM   23  N   UNK A   2      -6.989   9.495  69.080  1.00  0.00    -0.057 N  
HETATM   24  S   UNK A   2      -8.355   9.850  65.698  1.00  0.00    -0.143 SA 
HETATM   25  C   UNK A   2      -7.842   9.126  64.120  1.00  0.00    -0.128 C  
HETATM   26  C   UNK A   2      -5.938  10.466  68.720  1.00  0.00    -0.040 C  
HETATM   27  C   UNK A   2      -7.254   8.644  67.917  1.00  0.00    -0.088 C  
HETATM   28  C   UNK A   2      -5.808  11.864  69.372  1.00  0.00    -0.076 C  
HETATM   29  C   UNK A   2      -6.932   7.948  64.395  1.00  0.00    -0.068 C  
HETATM   30  S   UNK A   2      -5.705   8.477  65.614  1.00  0.00    -0.044 SA 
HETATM   31  O   UNK A   2      -6.257  11.983  70.633  1.00  0.00    -0.252 OA 
HETATM   32  O   UNK A   2      -5.233  12.800  68.823  1.00  0.00    -0.061 OA 
ENDBRANCH  17  19
ENDBRANCH  15  17
ENDBRANCH   6  15
ENDBRANCH   4   6
ENDBRANCH   3   4
ENDBRANCH   2   3
TORSDOF 9
ENDMDL
MODEL      240
REMARK 921   NORMALIZED FREE ENERGY PREDICTED BY IDOCK:   -3.32 KCAL/MOL
REMARK 922        TOTAL FREE ENERGY PREDICTED BY IDOCK:   -6.41 KCAL/MOL
REMARK 923 INTER-LIGAND FREE ENERGY PREDICTED BY IDOCK:   -6.92 KCAL/MOL
REMARK 924 INTRA-LIGAND FREE ENERGY PREDICTED BY IDOCK:    0.50 KCAL/MOL
REMARK 927      BINDING AFFINITY PREDICTED BY RF-SCORE:    0.00 PKD
ROOT
HETATM    1  C   UNK A   0      -6.204  15.374  68.928  1.00  0.00    -0.098 C  
HETATM    2  C   UNK A   0      -6.995  15.288  67.636  1.00  0.00    -0.185 C  
ENDROOT
BRANCH   2   3
HETATM    3  O   UNK A   0      -8.205  14.540  67.837  1.00  0.00    -0.134 OA 
BRANCH   3   4
HETATM    4  C   UNK A   0      -8.108  13.187  67.690  1.00  0.00    -0.176 C  
HETATM    5  O   UNK A   0      -7.099  12.523  67.898  1.00  0.00    -0.088 OA 
BRANCH   4   6
HETATM    6  C   UNK A   0      -9.456  12.597  67.235  1.00  0.00    -0.199 C  
BRANCH   6   7
HETATM    7  C   UNK A   0      -9.506  11.095  67.567  1.00  0.00    -0.178 C  
BRANCH   7   8
HETATM    8  C   UNK A   0      -9.062  10.722  68.984  1.00  0.00    -0.153 C  
BRANCH   8   9
HETATM    9  C   UNK A   0     -10.275  10.280  69.775  1.00  0.00    -0.262 A  
HETATM   10  C   UNK A   0     -10.167   9.288  70.760  1.00  0.00    -0.353 A  
HETATM   11  C   UNK A   0     -11.267   8.955  71.554  1.00  0.00    -0.396 A  
HETATM   12  C   UNK A   0     -12.484   9.612  71.373  1.00  0.00    -0.465 A  
HETATM   13  C   UNK A   0     -11.504  10.933  69.602  1.00  0.00    -0.377 A  
HETATM   14  C   UNK A   0     -12.602  10.598  70.397  1.00  0.00    -0.395 A  
ENDBRANCH   8   9
ENDBRANCH   7   8
ENDBRANCH   6   7
BRANCH   6  15
ATOM     15  N   ALA A   1      -9.607  12.861  65.772  1.00  0.00    -0.453 NA 
ATOM     16  H   ALA A   1      -9.550  11.990  65.243  1.00  0.00     0.000 HD 
BRANCH  15  17
ATOM     17  CA  ALA A   1     -10.836  13.601  65.419  1.00  0.00    -0.301 C  
ATOM     18  CB  ALA A   1     -12.058  13.019  66.127  1.00  0.00    -0.473 C  
BRANCH  17  19
ATOM     19  C   ALA A   1     -10.700  15.136  65.675  1.00  0.00    -0.363 C  
HETATM   20  C   UNK A   2     -11.539  15.534  69.305  1.00  0.00    -0.357 C  
ATOM     21  O   ALA A   1     -10.464  15.953  64.783  1.00  0.00    -0.538 OA 
HETATM   22  C   UNK A   2     -11.051  16.932  68.919  1.00  0.00    -0.128 C  
HETATM   23  N   UNK A   2     -10.834  15.567  66.995  1.00  0.00    -0.323 N  
HETATM   24  S   UNK A   2     -10.426  14.757  70.545  1.00  0.00     0.506 SA 
HETATM   25  C   UNK A   2     -11.643  14.530  71.866  1.00  0.00     0.207 C  
HETATM   26  C   UNK A   2     -11.018  16.981  67.374  1.00  0.00    -0.065 C  
HETATM   27  C   UNK A   2     -11.485  14.726  68.002  1.00  0.00    -0.331 C  
HETATM   28  C   UNK A   2     -10.027  18.106  66.986  1.00  0.00    -0.338 C  
HETATM   29  C   UNK A   2     -13.007  14.315  71.244  1.00  0.00    -0.352 C  
HETATM   30  S   UNK A   2     -13.237  15.589  69.981  1.00  0.00     0.696 SA 
HETATM   31  O   UNK A   2      -9.332  17.928  65.849  1.00  0.00    -0.520 OA 
HETATM   32  O   UNK A   2      -9.941  19.159  67.612  1.00  0.00    -0.324 OA 
ENDBRANCH  17  19
ENDBRANCH  15  17
ENDBRANCH   6  15
ENDBRANCH   4   6
ENDBRANCH   3   4
ENDBRANCH   2   3
TORSDOF 9
ENDMDL
MODEL      241
REMARK 921   NORMALIZED FREE ENERGY PREDICTED BY IDOCK:   -3.31 KCAL/MOL
REMARK 922        TOTAL FREE ENERGY PREDICTED BY IDOCK:   -6.40 KCAL/MOL
REMARK 923 INTER-LIGAND FREE ENERGY PREDICTED BY IDOCK:   -5.61 KCAL/MOL
REMARK 924 INTRA-LIGAND FREE ENERGY PREDICTED BY IDOCK:   -0.79 KCAL/MOL
REMARK 927      BINDING AFFINITY PREDICTED BY RF-SCORE:    0.00 PKD
ROOT
HETATM    1  C   UNK A   0      -8.998   4.673  65.060  1.00  0.00    -0.152 C  
HETATM    2  C   UNK A   0      -9.757   4.449  66.354  1.00  0.00    -0.215 C  
ENDROOT
BRANCH   2   3
HETATM    3  O   UNK A   0     -10.888   5.332  66.434  1.00  0.00    -0.292 OA 
BRANCH   3   4
HETATM    4  C   UNK A   0     -10.684   6.514  67.085  1.00  0.00    -0.368 C  
HETATM    5  O   UNK A   0     -11.023   7.617  66.672  1.00  0.00    -0.043 OA 
BRANCH   4   6
HETATM    6  C   UNK A   0      -9.975   6.271  68.430  1.00  0.00    -0.140 C  
BRANCH   6   7
HETATM    7  C   UNK A   0     -10.992   5.776  69.473  1.00  0.00    -0.374 C  
BRANCH   7   8
HETATM    8  C   UNK A   0     -10.423   4.855  70.557  1.00  0.00    -0.170 C  
BRANCH   8   9
HETATM    9  C   UNK A   0     -10.175   5.670  71.808  1.00  0.00    -0.253 A  
HETATM   10  C   UNK A   0      -8.981   5.531  72.530  1.00  0.00    -0.134 A  
HETATM   11  C   UNK A   0      -8.715   6.356  73.626  1.00  0.00    -0.131 A  
HETATM   12  C   UNK A   0      -9.638   7.328  74.008  1.00  0.00    -0.288 A  
HETATM   13  C   UNK A   0     -11.096   6.651  72.203  1.00  0.00    -0.288 A  
HETATM   14  C   UNK A   0     -10.828   7.474  73.299  1.00  0.00    -0.409 A  
ENDBRANCH   8   9
ENDBRANCH   7   8
ENDBRANCH   6   7
BRANCH   6  15
ATOM     15  N   ALA A   1      -9.313   7.547  68.842  1.00  0.00    -0.143 NA 
ATOM     16  H   ALA A   1      -9.896   8.052  69.509  1.00  0.00     0.000 HD 
BRANCH  15  17
ATOM     17  CA  ALA A   1      -7.948   7.369  69.376  1.00  0.00    -0.124 C  
ATOM     18  CB  ALA A   1      -7.187   6.288  68.610  1.00  0.00    -0.085 C  
BRANCH  17  19
ATOM     19  C   ALA A   1      -7.148   8.710  69.426  1.00  0.00    -0.053 C  
HETATM   20  C   UNK A   2      -8.118  10.467  66.261  1.00  0.00    -0.136 C  
ATOM     21  O   ALA A   1      -6.331   8.979  70.308  1.00  0.00    -0.040 OA 
HETATM   22  C   UNK A   2      -7.310  11.534  67.003  1.00  0.00    -0.145 C  
HETATM   23  N   UNK A   2      -7.415   9.637  68.419  1.00  0.00    -0.080 N  
HETATM   24  S   UNK A   2      -9.871  10.979  66.052  1.00  0.00    -0.240 SA 
HETATM   25  C   UNK A   2      -9.927  10.948  64.244  1.00  0.00    -0.333 C  
HETATM   26  C   UNK A   2      -6.564  10.812  68.149  1.00  0.00    -0.062 C  
HETATM   27  C   UNK A   2      -8.057   9.230  67.167  1.00  0.00    -0.109 C  
HETATM   28  C   UNK A   2      -6.232  11.889  69.211  1.00  0.00    -0.094 C  
HETATM   29  C   UNK A   2      -8.966   9.891  63.742  1.00  0.00    -0.250 C  
HETATM   30  S   UNK A   2      -7.399  10.119  64.615  1.00  0.00    -0.098 SA 
HETATM   31  O   UNK A   2      -6.218  11.483  70.492  1.00  0.00    -0.293 OA 
HETATM   32  O   UNK A   2      -5.893  13.030  68.914  1.00  0.00    -0.070 OA 
ENDBRANCH  17  19
ENDBRANCH  15  17
ENDBRANCH   6  15
ENDBRANCH   4   6
ENDBRANCH   3   4
ENDBRANCH   2   3
TORSDOF 9
ENDMDL
MODEL      242
REMARK 921   NORMALIZED FREE ENERGY PREDICTED BY IDOCK:   -3.30 KCAL/MOL
REMARK 922        TOTAL FREE ENERGY PREDICTED BY IDOCK:   -6.38 KCAL/MOL
REMARK 923 INTER-LIGAND FREE ENERGY PREDICTED BY IDOCK:   -5.50 KCAL/MOL
REMARK 924 INTRA-LIGAND FREE ENERGY PREDICTED BY IDOCK:   -0.87 KCAL/MOL
REMARK 927      BINDING AFFINITY PREDICTED BY RF-SCORE:    0.00 PKD
ROOT
HETATM    1  C   UNK A   0     -13.205   9.098  71.941  1.00  0.00    -0.479 C  
HETATM    2  C   UNK A   0     -11.932   9.148  71.117  1.00  0.00    -0.308 C  
ENDROOT
BRANCH   2   3
HETATM    3  O   UNK A   0     -10.817   9.532  71.936  1.00  0.00    -0.221 OA 
BRANCH   3   4
HETATM    4  C   UNK A   0      -9.750   8.680  71.937  1.00  0.00    -0.313 C  
HETATM    5  O   UNK A   0      -8.960   8.536  72.863  1.00  0.00    -0.300 OA 
BRANCH   4   6
HETATM    6  C   UNK A   0      -9.680   7.905  70.609  1.00  0.00    -0.173 C  
BRANCH   6   7
HETATM    7  C   UNK A   0      -9.619   6.393  70.890  1.00  0.00    -0.189 C  
BRANCH   7   8
HETATM    8  C   UNK A   0      -8.423   5.661  70.275  1.00  0.00    -0.123 C  
BRANCH   8   9
HETATM    9  C   UNK A   0      -7.983   4.564  71.222  1.00  0.00    -0.086 A  
HETATM   10  C   UNK A   0      -8.769   4.214  72.329  1.00  0.00    -0.118 A  
HETATM   11  C   UNK A   0      -8.409   3.136  73.142  1.00  0.00    -0.080 A  
HETATM   12  C   UNK A   0      -7.263   2.397  72.854  1.00  0.00    -0.032 A  
HETATM   13  C   UNK A   0      -6.832   3.813  70.943  1.00  0.00    -0.033 A  
HETATM   14  C   UNK A   0      -6.474   2.737  71.757  1.00  0.00    -0.015 A  
ENDBRANCH   8   9
ENDBRANCH   7   8
ENDBRANCH   6   7
BRANCH   6  15
ATOM     15  N   ALA A   1      -8.486   8.391  69.852  1.00  0.00    -0.124 NA 
ATOM     16  H   ALA A   1      -8.125   7.656  69.242  1.00  0.00     0.000 HD 
BRANCH  15  17
ATOM     17  CA  ALA A   1      -8.725   9.630  69.085  1.00  0.00    -0.151 C  
ATOM     18  CB  ALA A   1      -7.849  10.775  69.590  1.00  0.00     0.023 C  
BRANCH  17  19
ATOM     19  C   ALA A   1      -8.564   9.419  67.545  1.00  0.00    -0.122 C  
HETATM   20  C   UNK A   2     -10.265  12.396  66.033  1.00  0.00    -0.245 C  
ATOM     21  O   ALA A   1      -8.062   8.409  67.049  1.00  0.00    -0.102 OA 
HETATM   22  C   UNK A   2      -9.611  11.732  64.820  1.00  0.00    -0.110 C  
HETATM   23  N   UNK A   2      -8.999  10.456  66.720  1.00  0.00    -0.139 N  
HETATM   24  S   UNK A   2      -9.550  14.060  66.351  1.00  0.00    -0.260 SA 
HETATM   25  C   UNK A   2     -11.072  15.024  66.174  1.00  0.00    -0.329 C  
HETATM   26  C   UNK A   2      -9.186  10.313  65.264  1.00  0.00    -0.199 C  
HETATM   27  C   UNK A   2      -9.934  11.471  67.212  1.00  0.00    -0.191 C  
HETATM   28  C   UNK A   2      -8.062   9.863  64.299  1.00  0.00    -0.152 C  
HETATM   29  C   UNK A   2     -12.246  14.170  66.606  1.00  0.00    -0.418 C  
HETATM   30  S   UNK A   2     -12.072  12.558  65.805  1.00  0.00    -0.276 SA 
HETATM   31  O   UNK A   2      -7.116   9.059  64.813  1.00  0.00    -0.089 OA 
HETATM   32  O   UNK A   2      -8.073  10.127  63.100  1.00  0.00    -0.148 OA 
ENDBRANCH  17  19
ENDBRANCH  15  17
ENDBRANCH   6  15
ENDBRANCH   4   6
ENDBRANCH   3   4
ENDBRANCH   2   3
TORSDOF 9
ENDMDL
MODEL      243
REMARK 921   NORMALIZED FREE ENERGY PREDICTED BY IDOCK:   -3.26 KCAL/MOL
REMARK 922        TOTAL FREE ENERGY PREDICTED BY IDOCK:   -6.33 KCAL/MOL
REMARK 923 INTER-LIGAND FREE ENERGY PREDICTED BY IDOCK:   -5.85 KCAL/MOL
REMARK 924 INTRA-LIGAND FREE ENERGY PREDICTED BY IDOCK:   -0.47 KCAL/MOL
REMARK 927      BINDING AFFINITY PREDICTED BY RF-SCORE:    0.00 PKD
ROOT
HETATM    1  C   UNK A   0      -6.056   5.551  69.582  1.00  0.00    -0.021 C  
HETATM    2  C   UNK A   0      -5.888   6.807  68.746  1.00  0.00    -0.018 C  
ENDROOT
BRANCH   2   3
HETATM    3  O   UNK A   0      -6.753   6.767  67.600  1.00  0.00    -0.065 OA 
BRANCH   3   4
HETATM    4  C   UNK A   0      -8.048   7.145  67.810  1.00  0.00    -0.115 C  
HETATM    5  O   UNK A   0      -9.029   6.428  67.649  1.00  0.00    -0.115 OA 
BRANCH   4   6
HETATM    6  C   UNK A   0      -8.110   8.605  68.295  1.00  0.00    -0.118 C  
BRANCH   6   7
HETATM    7  C   UNK A   0      -9.033   8.707  69.523  1.00  0.00    -0.145 C  
BRANCH   7   8
HETATM    8  C   UNK A   0      -8.376   8.375  70.866  1.00  0.00    -0.149 C  
BRANCH   8   9
HETATM    9  C   UNK A   0      -9.331   7.527  71.679  1.00  0.00    -0.164 A  
HETATM   10  C   UNK A   0      -9.469   7.726  73.060  1.00  0.00    -0.311 A  
HETATM   11  C   UNK A   0     -10.422   7.010  73.788  1.00  0.00    -0.392 A  
HETATM   12  C   UNK A   0     -11.248   6.091  73.142  1.00  0.00    -0.177 A  
HETATM   13  C   UNK A   0     -10.166   6.599  71.041  1.00  0.00    -0.214 A  
HETATM   14  C   UNK A   0     -11.118   5.884  71.771  1.00  0.00    -0.324 A  
ENDBRANCH   8   9
ENDBRANCH   7   8
ENDBRANCH   6   7
BRANCH   6  15
ATOM     15  N   ALA A   1      -8.582   9.452  67.158  1.00  0.00    -0.127 NA 
ATOM     16  H   ALA A   1      -9.303  10.102  67.471  1.00  0.00     0.000 HD 
BRANCH  15  17
ATOM     17  CA  ALA A   1      -7.499  10.175  66.459  1.00  0.00    -0.109 C  
ATOM     18  CB  ALA A   1      -7.806  10.331  64.970  1.00  0.00    -0.133 C  
BRANCH  17  19
ATOM     19  C   ALA A   1      -7.173  11.549  67.126  1.00  0.00    -0.140 C  
HETATM   20  C   UNK A   2     -10.198  13.646  66.424  1.00  0.00    -0.292 C  
ATOM     21  O   ALA A   1      -6.088  11.806  67.651  1.00  0.00    -0.055 OA 
HETATM   22  C   UNK A   2      -9.394  14.527  67.382  1.00  0.00    -0.197 C  
HETATM   23  N   UNK A   2      -8.191  12.501  67.133  1.00  0.00    -0.236 N  
HETATM   24  S   UNK A   2     -11.800  13.137  67.168  1.00  0.00    -0.348 SA 
HETATM   25  C   UNK A   2     -12.896  13.872  65.929  1.00  0.00    -0.339 C  
HETATM   26  C   UNK A   2      -7.973  13.924  67.456  1.00  0.00    -0.179 C  
HETATM   27  C   UNK A   2      -9.324  12.403  66.209  1.00  0.00    -0.189 C  
HETATM   28  C   UNK A   2      -7.351  14.412  68.787  1.00  0.00    -0.131 C  
HETATM   29  C   UNK A   2     -12.193  13.866  64.588  1.00  0.00    -0.419 C  
HETATM   30  S   UNK A   2     -10.522  14.510  64.845  1.00  0.00    -0.345 SA 
HETATM   31  O   UNK A   2      -6.493  13.572  69.392  1.00  0.00    -0.105 OA 
HETATM   32  O   UNK A   2      -7.536  15.542  69.231  1.00  0.00    -0.179 OA 
ENDBRANCH  17  19
ENDBRANCH  15  17
ENDBRANCH   6  15
ENDBRANCH   4   6
ENDBRANCH   3   4
ENDBRANCH   2   3
TORSDOF 9
ENDMDL
MODEL      244
REMARK 921   NORMALIZED FREE ENERGY PREDICTED BY IDOCK:   -3.26 KCAL/MOL
REMARK 922        TOTAL FREE ENERGY PREDICTED BY IDOCK:   -6.32 KCAL/MOL
REMARK 923 INTER-LIGAND FREE ENERGY PREDICTED BY IDOCK:   -5.89 KCAL/MOL
REMARK 924 INTRA-LIGAND FREE ENERGY PREDICTED BY IDOCK:   -0.43 KCAL/MOL
REMARK 927      BINDING AFFINITY PREDICTED BY RF-SCORE:    0.00 PKD
ROOT
HETATM    1  C   UNK A   0     -11.787  12.443  63.498  1.00  0.00    -0.605 C  
HETATM    2  C   UNK A   0     -12.490  12.527  64.840  1.00  0.00    -0.450 C  
ENDROOT
BRANCH   2   3
HETATM    3  O   UNK A   0     -11.979  13.628  65.607  1.00  0.00    -0.354 OA 
BRANCH   3   4
HETATM    4  C   UNK A   0     -11.876  13.427  66.953  1.00  0.00    -0.403 C  
HETATM    5  O   UNK A   0     -12.704  12.850  67.648  1.00  0.00     0.352 OA 
BRANCH   4   6
HETATM    6  C   UNK A   0     -10.557  14.018  67.485  1.00  0.00    -0.260 C  
BRANCH   6   7
HETATM    7  C   UNK A   0     -10.556  15.546  67.293  1.00  0.00    -0.299 C  
BRANCH   7   8
HETATM    8  C   UNK A   0     -10.073  16.357  68.499  1.00  0.00    -0.248 C  
BRANCH   8   9
HETATM    9  C   UNK A   0      -9.491  17.665  68.005  1.00  0.00    -0.282 A  
HETATM   10  C   UNK A   0      -9.186  18.698  68.902  1.00  0.00    -0.249 A  
HETATM   11  C   UNK A   0      -8.557  19.863  68.454  1.00  0.00    -0.219 A  
HETATM   12  C   UNK A   0      -8.225  20.004  67.108  1.00  0.00    -0.365 A  
HETATM   13  C   UNK A   0      -9.153  17.818  66.653  1.00  0.00    -0.280 A  
HETATM   14  C   UNK A   0      -8.525  18.984  66.208  1.00  0.00    -0.289 A  
ENDBRANCH   8   9
ENDBRANCH   7   8
ENDBRANCH   6   7
BRANCH   6  15
ATOM     15  N   ALA A   1      -9.428  13.355  66.765  1.00  0.00    -0.255 NA 
ATOM     16  H   ALA A   1      -8.541  13.799  67.002  1.00  0.00     0.000 HD 
BRANCH  15  17
ATOM     17  CA  ALA A   1      -9.352  11.896  66.984  1.00  0.00    -0.188 C  
ATOM     18  CB  ALA A   1      -9.024  11.155  65.689  1.00  0.00    -0.195 C  
BRANCH  17  19
ATOM     19  C   ALA A   1      -8.361  11.517  68.131  1.00  0.00    -0.152 C  
HETATM   20  C   UNK A   2      -8.305   7.770  68.085  1.00  0.00    -0.124 C  
ATOM     21  O   ALA A   1      -7.849  12.346  68.885  1.00  0.00    -0.032 OA 
HETATM   22  C   UNK A   2      -7.193   8.110  69.079  1.00  0.00    -0.074 C  
HETATM   23  N   UNK A   2      -8.042  10.165  68.263  1.00  0.00    -0.101 N  
HETATM   24  S   UNK A   2      -7.634   6.928  66.594  1.00  0.00    -0.091 SA 
HETATM   25  C   UNK A   2      -8.569   5.385  66.738  1.00  0.00    -0.110 C  
HETATM   26  C   UNK A   2      -7.363   9.602  69.446  1.00  0.00    -0.081 C  
HETATM   27  C   UNK A   2      -8.893   9.127  67.677  1.00  0.00    -0.120 C  
HETATM   28  C   UNK A   2      -5.987  10.095  69.956  1.00  0.00    -0.058 C  
HETATM   29  C   UNK A   2      -9.900   5.677  67.398  1.00  0.00    -0.143 C  
HETATM   30  S   UNK A   2      -9.574   6.701  68.853  1.00  0.00    -0.128 SA 
HETATM   31  O   UNK A   2      -5.678  11.379  69.705  1.00  0.00    -0.060 OA 
HETATM   32  O   UNK A   2      -5.248   9.399  70.647  1.00  0.00    -0.029 OA 
ENDBRANCH  17  19
ENDBRANCH  15  17
ENDBRANCH   6  15
ENDBRANCH   4   6
ENDBRANCH   3   4
ENDBRANCH   2   3
TORSDOF 9
ENDMDL
MODEL      245
REMARK 921   NORMALIZED FREE ENERGY PREDICTED BY IDOCK:   -3.24 KCAL/MOL
REMARK 922        TOTAL FREE ENERGY PREDICTED BY IDOCK:   -6.29 KCAL/MOL
REMARK 923 INTER-LIGAND FREE ENERGY PREDICTED BY IDOCK:   -5.35 KCAL/MOL
REMARK 924 INTRA-LIGAND FREE ENERGY PREDICTED BY IDOCK:   -0.94 KCAL/MOL
REMARK 927      BINDING AFFINITY PREDICTED BY RF-SCORE:    0.00 PKD
ROOT
HETATM    1  C   UNK A   0     -14.339   8.345  71.577  1.00  0.00    -0.499 C  
HETATM    2  C   UNK A   0     -13.114   7.452  71.652  1.00  0.00    -0.364 C  
ENDROOT
BRANCH   2   3
HETATM    3  O   UNK A   0     -11.988   8.186  72.159  1.00  0.00    -0.317 OA 
BRANCH   3   4
HETATM    4  C   UNK A   0     -11.152   8.726  71.225  1.00  0.00    -0.278 C  
HETATM    5  O   UNK A   0     -11.470   9.565  70.390  1.00  0.00    -0.254 OA 
BRANCH   4   6
HETATM    6  C   UNK A   0      -9.734   8.143  71.371  1.00  0.00    -0.171 C  
BRANCH   6   7
HETATM    7  C   UNK A   0      -9.716   7.095  72.499  1.00  0.00    -0.180 C  
BRANCH   7   8
HETATM    8  C   UNK A   0      -8.522   6.137  72.483  1.00  0.00    -0.118 C  
BRANCH   8   9
HETATM    9  C   UNK A   0      -8.582   5.304  71.220  1.00  0.00    -0.132 A  
HETATM   10  C   UNK A   0      -7.421   5.038  70.480  1.00  0.00    -0.062 A  
HETATM   11  C   UNK A   0      -7.466   4.187  69.372  1.00  0.00    -0.054 A  
HETATM   12  C   UNK A   0      -8.670   3.594  68.996  1.00  0.00    -0.136 A  
HETATM   13  C   UNK A   0      -9.787   4.702  70.831  1.00  0.00    -0.272 A  
HETATM   14  C   UNK A   0      -9.829   3.853  69.723  1.00  0.00    -0.118 A  
ENDBRANCH   8   9
ENDBRANCH   7   8
ENDBRANCH   6   7
BRANCH   6  15
ATOM     15  N   ALA A   1      -8.792   9.274  71.631  1.00  0.00    -0.258 NA 
ATOM     16  H   ALA A   1      -8.373   9.185  72.557  1.00  0.00     0.000 HD 
BRANCH  15  17
ATOM     17  CA  ALA A   1      -7.746   9.432  70.601  1.00  0.00    -0.149 C  
ATOM     18  CB  ALA A   1      -6.601   8.443  70.813  1.00  0.00    -0.039 C  
BRANCH  17  19
ATOM     19  C   ALA A   1      -8.320   9.345  69.150  1.00  0.00    -0.125 C  
HETATM   20  C   UNK A   2      -8.424  12.908  67.994  1.00  0.00    -0.178 C  
ATOM     21  O   ALA A   1      -8.714   8.294  68.640  1.00  0.00    -0.132 OA 
HETATM   22  C   UNK A   2      -8.775  12.132  66.723  1.00  0.00    -0.183 C  
HETATM   23  N   UNK A   2      -8.352  10.529  68.415  1.00  0.00    -0.121 N  
HETATM   24  S   UNK A   2      -6.832  13.809  67.810  1.00  0.00    -0.179 SA 
HETATM   25  C   UNK A   2      -7.460  15.484  68.079  1.00  0.00    -0.127 C  
HETATM   26  C   UNK A   2      -9.111  10.688  67.160  1.00  0.00    -0.143 C  
HETATM   27  C   UNK A   2      -8.273  11.833  69.079  1.00  0.00     0.157 C  
HETATM   28  C   UNK A   2      -8.904   9.788  65.918  1.00  0.00    -0.150 C  
HETATM   29  C   UNK A   2      -8.647  15.418  69.017  1.00  0.00    -0.227 C  
HETATM   30  S   UNK A   2      -9.739  14.104  68.424  1.00  0.00    -0.224 SA 
HETATM   31  O   UNK A   2      -8.481   8.533  66.149  1.00  0.00    -0.118 OA 
HETATM   32  O   UNK A   2      -9.206  10.146  64.782  1.00  0.00    -0.200 OA 
ENDBRANCH  17  19
ENDBRANCH  15  17
ENDBRANCH   6  15
ENDBRANCH   4   6
ENDBRANCH   3   4
ENDBRANCH   2   3
TORSDOF 9
ENDMDL
MODEL      246
REMARK 921   NORMALIZED FREE ENERGY PREDICTED BY IDOCK:   -3.24 KCAL/MOL
REMARK 922        TOTAL FREE ENERGY PREDICTED BY IDOCK:   -6.29 KCAL/MOL
REMARK 923 INTER-LIGAND FREE ENERGY PREDICTED BY IDOCK:   -5.88 KCAL/MOL
REMARK 924 INTRA-LIGAND FREE ENERGY PREDICTED BY IDOCK:   -0.40 KCAL/MOL
REMARK 927      BINDING AFFINITY PREDICTED BY RF-SCORE:    0.00 PKD
ROOT
HETATM    1  C   UNK A   0      -8.553   3.916  66.008  1.00  0.00    -0.112 C  
HETATM    2  C   UNK A   0      -9.042   3.951  67.444  1.00  0.00    -0.156 C  
ENDROOT
BRANCH   2   3
HETATM    3  O   UNK A   0     -10.428   4.325  67.495  1.00  0.00     0.190 OA 
BRANCH   3   4
HETATM    4  C   UNK A   0     -10.688   5.663  67.573  1.00  0.00    -0.187 C  
HETATM    5  O   UNK A   0     -11.350   6.304  66.765  1.00  0.00    -0.229 OA 
BRANCH   4   6
HETATM    6  C   UNK A   0     -10.042   6.263  68.835  1.00  0.00    -0.168 C  
BRANCH   6   7
HETATM    7  C   UNK A   0     -11.138   6.752  69.799  1.00  0.00    -0.368 C  
BRANCH   7   8
HETATM    8  C   UNK A   0     -10.633   7.445  71.067  1.00  0.00    -0.234 C  
BRANCH   8   9
HETATM    9  C   UNK A   0     -11.296   8.802  71.179  1.00  0.00    -0.345 A  
HETATM   10  C   UNK A   0     -10.837   9.889  70.423  1.00  0.00    -0.380 A  
HETATM   11  C   UNK A   0     -11.514  11.111  70.454  1.00  0.00    -0.265 A  
HETATM   12  C   UNK A   0     -12.657  11.256  71.240  1.00  0.00    -0.487 A  
HETATM   13  C   UNK A   0     -12.447   8.960  71.966  1.00  0.00    -0.461 A  
HETATM   14  C   UNK A   0     -13.121  10.182  71.996  1.00  0.00    -0.538 A  
ENDBRANCH   8   9
ENDBRANCH   7   8
ENDBRANCH   6   7
BRANCH   6  15
ATOM     15  N   ALA A   1      -9.127   7.365  68.409  1.00  0.00    -0.133 NA 
ATOM     16  H   ALA A   1      -9.574   8.273  68.543  1.00  0.00     0.000 HD 
BRANCH  15  17
ATOM     17  CA  ALA A   1      -7.805   7.336  69.067  1.00  0.00    -0.118 C  
ATOM     18  CB  ALA A   1      -6.873   6.326  68.398  1.00  0.00    -0.071 C  
BRANCH  17  19
ATOM     19  C   ALA A   1      -7.151   8.752  69.154  1.00  0.00    -0.063 C  
HETATM   20  C   UNK A   2      -8.045  10.371  65.895  1.00  0.00    -0.149 C  
ATOM     21  O   ALA A   1      -6.436   9.111  70.092  1.00  0.00    -0.040 OA 
HETATM   22  C   UNK A   2      -7.410  11.522  66.679  1.00  0.00    -0.069 C  
HETATM   23  N   UNK A   2      -7.431   9.638  68.114  1.00  0.00    -0.081 N  
HETATM   24  S   UNK A   2      -9.819  10.700  65.545  1.00  0.00    -0.278 SA 
HETATM   25  C   UNK A   2      -9.732  10.647  63.738  1.00  0.00    -0.327 C  
HETATM   26  C   UNK A   2      -6.686  10.891  67.890  1.00  0.00    -0.064 C  
HETATM   27  C   UNK A   2      -7.930   9.155  66.824  1.00  0.00    -0.104 C  
HETATM   28  C   UNK A   2      -6.547  12.005  68.956  1.00  0.00    -0.092 C  
HETATM   29  C   UNK A   2      -8.632   9.689  63.329  1.00  0.00    -0.209 C  
HETATM   30  S   UNK A   2      -7.169  10.084  64.316  1.00  0.00    -0.115 SA 
HETATM   31  O   UNK A   2      -6.592  11.615  70.241  1.00  0.00    -0.154 OA 
HETATM   32  O   UNK A   2      -6.303  13.173  68.666  1.00  0.00    -0.072 OA 
ENDBRANCH  17  19
ENDBRANCH  15  17
ENDBRANCH   6  15
ENDBRANCH   4   6
ENDBRANCH   3   4
ENDBRANCH   2   3
TORSDOF 9
ENDMDL
MODEL      247
REMARK 921   NORMALIZED FREE ENERGY PREDICTED BY IDOCK:   -3.23 KCAL/MOL
REMARK 922        TOTAL FREE ENERGY PREDICTED BY IDOCK:   -6.27 KCAL/MOL
REMARK 923 INTER-LIGAND FREE ENERGY PREDICTED BY IDOCK:   -6.18 KCAL/MOL
REMARK 924 INTRA-LIGAND FREE ENERGY PREDICTED BY IDOCK:   -0.10 KCAL/MOL
REMARK 927      BINDING AFFINITY PREDICTED BY RF-SCORE:    0.00 PKD
ROOT
HETATM    1  C   UNK A   0     -13.671   8.972  72.314  1.00  0.00    -0.550 C  
HETATM    2  C   UNK A   0     -12.511   9.768  71.746  1.00  0.00    -0.398 C  
ENDROOT
BRANCH   2   3
HETATM    3  O   UNK A   0     -11.323   8.961  71.697  1.00  0.00    -0.288 OA 
BRANCH   3   4
HETATM    4  C   UNK A   0     -11.092   8.301  70.525  1.00  0.00    -0.249 C  
HETATM    5  O   UNK A   0     -11.468   7.164  70.266  1.00  0.00    -0.286 OA 
BRANCH   4   6
HETATM    6  C   UNK A   0     -10.297   9.194  69.555  1.00  0.00    -0.215 C  
BRANCH   6   7
HETATM    7  C   UNK A   0     -11.268  10.006  68.679  1.00  0.00    -0.175 C  
BRANCH   7   8
HETATM    8  C   UNK A   0     -10.652  10.631  67.424  1.00  0.00    -0.304 C  
BRANCH   8   9
HETATM    9  C   UNK A   0     -10.951  12.116  67.421  1.00  0.00    -0.308 A  
HETATM   10  C   UNK A   0     -11.686  12.698  66.379  1.00  0.00    -0.466 A  
HETATM   11  C   UNK A   0     -12.044  14.047  66.431  1.00  0.00    -0.483 A  
HETATM   12  C   UNK A   0     -11.674  14.826  67.527  1.00  0.00    -0.370 A  
HETATM   13  C   UNK A   0     -10.584  12.909  68.518  1.00  0.00    -0.270 A  
HETATM   14  C   UNK A   0     -10.943  14.258  68.567  1.00  0.00    -0.267 A  
ENDBRANCH   8   9
ENDBRANCH   7   8
ENDBRANCH   6   7
BRANCH   6  15
ATOM     15  N   ALA A   1      -9.401   8.315  68.743  1.00  0.00    -0.144 NA 
ATOM     16  H   ALA A   1      -9.710   8.289  67.771  1.00  0.00     0.000 HD 
BRANCH  15  17
ATOM     17  CA  ALA A   1      -7.971   8.676  68.824  1.00  0.00    -0.114 C  
ATOM     18  CB  ALA A   1      -7.206   7.720  69.738  1.00  0.00    -0.067 C  
BRANCH  17  19
ATOM     19  C   ALA A   1      -7.303   8.785  67.416  1.00  0.00    -0.081 C  
HETATM   20  C   UNK A   2      -7.780   5.383  65.917  1.00  0.00    -0.091 C  
ATOM     21  O   ALA A   1      -6.695   9.784  67.030  1.00  0.00    -0.073 OA 
HETATM   22  C   UNK A   2      -7.217   6.190  64.745  1.00  0.00    -0.063 C  
HETATM   23  N   UNK A   2      -7.443   7.686  66.569  1.00  0.00    -0.090 N  
HETATM   24  S   UNK A   2      -9.495   4.816  65.575  1.00  0.00    -0.148 SA 
HETATM   25  C   UNK A   2      -9.200   3.035  65.703  1.00  0.00    -0.129 C  
HETATM   26  C   UNK A   2      -6.651   7.501  65.338  1.00  0.00    -0.045 C  
HETATM   27  C   UNK A   2      -7.799   6.366  67.096  1.00  0.00    -0.108 C  
HETATM   28  C   UNK A   2      -6.614   8.532  64.183  1.00  0.00    -0.071 C  
HETATM   29  C   UNK A   2      -8.081   2.794  66.694  1.00  0.00    -0.082 C  
HETATM   30  S   UNK A   2      -6.734   3.929  66.282  1.00  0.00    -0.054 SA 
HETATM   31  O   UNK A   2      -6.816   9.818  64.520  1.00  0.00    -0.106 OA 
HETATM   32  O   UNK A   2      -6.314   8.228  63.032  1.00  0.00    -0.084 OA 
ENDBRANCH  17  19
ENDBRANCH  15  17
ENDBRANCH   6  15
ENDBRANCH   4   6
ENDBRANCH   3   4
ENDBRANCH   2   3
TORSDOF 9
ENDMDL
MODEL      248
REMARK 921   NORMALIZED FREE ENERGY PREDICTED BY IDOCK:   -3.22 KCAL/MOL
REMARK 922        TOTAL FREE ENERGY PREDICTED BY IDOCK:   -6.26 KCAL/MOL
REMARK 923 INTER-LIGAND FREE ENERGY PREDICTED BY IDOCK:   -6.08 KCAL/MOL
REMARK 924 INTRA-LIGAND FREE ENERGY PREDICTED BY IDOCK:   -0.18 KCAL/MOL
REMARK 927      BINDING AFFINITY PREDICTED BY RF-SCORE:    0.00 PKD
ROOT
HETATM    1  C   UNK A   0     -10.862   9.076  71.016  1.00  0.00    -0.345 C  
HETATM    2  C   UNK A   0     -10.080   9.962  70.065  1.00  0.00    -0.260 C  
ENDROOT
BRANCH   2   3
HETATM    3  O   UNK A   0      -9.651   9.212  68.917  1.00  0.00    -0.149 OA 
BRANCH   3   4
HETATM    4  C   UNK A   0     -10.156   9.611  67.714  1.00  0.00    -0.187 C  
HETATM    5  O   UNK A   0     -11.221  10.196  67.552  1.00  0.00    -0.265 OA 
BRANCH   4   6
HETATM    6  C   UNK A   0      -9.191   9.235  66.574  1.00  0.00    -0.161 C  
BRANCH   6   7
HETATM    7  C   UNK A   0      -9.800   9.642  65.220  1.00  0.00    -0.269 C  
BRANCH   7   8
HETATM    8  C   UNK A   0      -9.226  10.920  64.603  1.00  0.00    -0.223 C  
BRANCH   8   9
HETATM    9  C   UNK A   0     -10.288  11.999  64.639  1.00  0.00    -0.325 A  
HETATM   10  C   UNK A   0     -10.186  13.076  65.530  1.00  0.00    -0.296 A  
HETATM   11  C   UNK A   0     -11.115  14.120  65.490  1.00  0.00    -0.310 A  
HETATM   12  C   UNK A   0     -12.152  14.096  64.559  1.00  0.00    -0.489 A  
HETATM   13  C   UNK A   0     -11.336  11.986  63.707  1.00  0.00    -0.526 A  
HETATM   14  C   UNK A   0     -12.263  13.030  63.670  1.00  0.00    -0.568 A  
ENDBRANCH   8   9
ENDBRANCH   7   8
ENDBRANCH   6   7
BRANCH   6  15
ATOM     15  N   ALA A   1      -8.925   7.766  66.658  1.00  0.00    -0.141 NA 
ATOM     16  H   ALA A   1      -9.786   7.238  66.520  1.00  0.00     0.000 HD 
BRANCH  15  17
ATOM     17  CA  ALA A   1      -7.873   7.294  65.735  1.00  0.00    -0.108 C  
ATOM     18  CB  ALA A   1      -6.535   7.126  66.455  1.00  0.00    -0.051 C  
BRANCH  17  19
ATOM     19  C   ALA A   1      -8.285   5.992  64.977  1.00  0.00    -0.136 C  
HETATM   20  C   UNK A   2      -8.160   3.327  67.609  1.00  0.00    -0.080 C  
ATOM     21  O   ALA A   1      -8.485   5.950  63.762  1.00  0.00    -0.041 OA 
HETATM   22  C   UNK A   2      -8.782   2.594  66.419  1.00  0.00    -0.124 C  
HETATM   23  N   UNK A   2      -8.450   4.842  65.749  1.00  0.00    -0.118 N  
HETATM   24  S   UNK A   2      -9.338   3.438  69.016  1.00  0.00    -0.144 SA 
HETATM   25  C   UNK A   2      -8.349   2.547  70.241  1.00  0.00    -0.041 C  
HETATM   26  C   UNK A   2      -8.554   3.486  65.177  1.00  0.00    -0.111 C  
HETATM   27  C   UNK A   2      -7.862   4.739  67.087  1.00  0.00    -0.095 C  
HETATM   28  C   UNK A   2      -9.624   3.079  64.134  1.00  0.00    -0.146 C  
HETATM   29  C   UNK A   2      -6.881   2.772  69.944  1.00  0.00    -0.034 C  
HETATM   30  S   UNK A   2      -6.634   2.493  68.174  1.00  0.00    -0.036 SA 
HETATM   31  O   UNK A   2     -10.075   4.053  63.325  1.00  0.00    -0.166 OA 
HETATM   32  O   UNK A   2      -9.977   1.915  63.967  1.00  0.00    -0.132 OA 
ENDBRANCH  17  19
ENDBRANCH  15  17
ENDBRANCH   6  15
ENDBRANCH   4   6
ENDBRANCH   3   4
ENDBRANCH   2   3
TORSDOF 9
ENDMDL
MODEL      249
REMARK 921   NORMALIZED FREE ENERGY PREDICTED BY IDOCK:   -3.21 KCAL/MOL
REMARK 922        TOTAL FREE ENERGY PREDICTED BY IDOCK:   -6.24 KCAL/MOL
REMARK 923 INTER-LIGAND FREE ENERGY PREDICTED BY IDOCK:   -5.66 KCAL/MOL
REMARK 924 INTRA-LIGAND FREE ENERGY PREDICTED BY IDOCK:   -0.58 KCAL/MOL
REMARK 927      BINDING AFFINITY PREDICTED BY RF-SCORE:    0.00 PKD
ROOT
HETATM    1  C   UNK A   0      -8.479   2.370  65.862  1.00  0.00    -0.100 C  
HETATM    2  C   UNK A   0      -8.565   2.956  67.259  1.00  0.00    -0.104 C  
ENDROOT
BRANCH   2   3
HETATM    3  O   UNK A   0      -9.878   3.487  67.502  1.00  0.00    -0.106 OA 
BRANCH   3   4
HETATM    4  C   UNK A   0     -10.179   4.659  66.870  1.00  0.00    -0.155 C  
HETATM    5  O   UNK A   0     -10.881   4.764  65.871  1.00  0.00    -0.304 OA 
BRANCH   4   6
HETATM    6  C   UNK A   0      -9.522   5.846  67.598  1.00  0.00    -0.110 C  
BRANCH   6   7
HETATM    7  C   UNK A   0     -10.577   6.592  68.436  1.00  0.00    -0.296 C  
BRANCH   7   8
HETATM    8  C   UNK A   0     -10.210   6.807  69.907  1.00  0.00    -0.211 C  
BRANCH   8   9
HETATM    9  C   UNK A   0     -11.325   7.581  70.578  1.00  0.00    -0.279 A  
HETATM   10  C   UNK A   0     -12.482   6.928  71.027  1.00  0.00    -0.364 A  
HETATM   11  C   UNK A   0     -13.463   7.629  71.734  1.00  0.00    -0.379 A  
HETATM   12  C   UNK A   0     -13.294   8.987  72.001  1.00  0.00    -0.494 A  
HETATM   13  C   UNK A   0     -11.168   8.947  70.853  1.00  0.00    -0.334 A  
HETATM   14  C   UNK A   0     -12.149   9.645  71.559  1.00  0.00    -0.482 A  
ENDBRANCH   8   9
ENDBRANCH   7   8
ENDBRANCH   6   7
BRANCH   6  15
ATOM     15  N   ALA A   1      -8.888   6.727  66.570  1.00  0.00    -0.138 NA 
ATOM     16  H   ALA A   1      -9.293   7.663  66.601  1.00  0.00     0.000 HD 
BRANCH  15  17
ATOM     17  CA  ALA A   1      -7.415   6.795  66.664  1.00  0.00    -0.079 C  
ATOM     18  CB  ALA A   1      -6.833   7.737  65.611  1.00  0.00    -0.053 C  
BRANCH  17  19
ATOM     19  C   ALA A   1      -6.927   7.167  68.101  1.00  0.00    -0.076 C  
HETATM   20  C   UNK A   2      -8.018  10.724  68.543  1.00  0.00    -0.130 C  
ATOM     21  O   ALA A   1      -6.253   6.411  68.804  1.00  0.00    -0.027 OA 
HETATM   22  C   UNK A   2      -7.514  10.352  69.939  1.00  0.00    -0.134 C  
HETATM   23  N   UNK A   2      -7.313   8.414  68.592  1.00  0.00    -0.087 N  
HETATM   24  S   UNK A   2      -9.821  11.086  68.557  1.00  0.00    -0.197 SA 
HETATM   25  C   UNK A   2      -9.737  12.794  67.964  1.00  0.00    -0.220 C  
HETATM   26  C   UNK A   2      -6.716   9.037  69.789  1.00  0.00    -0.049 C  
HETATM   27  C   UNK A   2      -7.760   9.477  67.688  1.00  0.00    -0.095 C  
HETATM   28  C   UNK A   2      -6.700   8.365  71.184  1.00  0.00    -0.052 C  
HETATM   29  C   UNK A   2      -8.538  12.939  67.051  1.00  0.00    -0.169 C  
HETATM   30  S   UNK A   2      -7.124  12.177  67.883  1.00  0.00    -0.113 SA 
HETATM   31  O   UNK A   2      -6.693   7.020  71.202  1.00  0.00    -0.054 OA 
HETATM   32  O   UNK A   2      -6.593   9.004  72.227  1.00  0.00    -0.270 OA 
ENDBRANCH  17  19
ENDBRANCH  15  17
ENDBRANCH   6  15
ENDBRANCH   4   6
ENDBRANCH   3   4
ENDBRANCH   2   3
TORSDOF 9
ENDMDL
MODEL      250
REMARK 921   NORMALIZED FREE ENERGY PREDICTED BY IDOCK:   -3.17 KCAL/MOL
REMARK 922        TOTAL FREE ENERGY PREDICTED BY IDOCK:   -6.18 KCAL/MOL
REMARK 923 INTER-LIGAND FREE ENERGY PREDICTED BY IDOCK:   -7.47 KCAL/MOL
REMARK 924 INTRA-LIGAND FREE ENERGY PREDICTED BY IDOCK:    1.29 KCAL/MOL
REMARK 927      BINDING AFFINITY PREDICTED BY RF-SCORE:    0.00 PKD
ROOT
HETATM    1  C   UNK A   0     -14.014  14.560  72.104  1.00  0.00    -0.597 C  
HETATM    2  C   UNK A   0     -13.251  15.460  71.149  1.00  0.00    -0.513 C  
ENDROOT
BRANCH   2   3
HETATM    3  O   UNK A   0     -11.976  14.884  70.825  1.00  0.00    -0.275 OA 
BRANCH   3   4
HETATM    4  C   UNK A   0     -11.554  15.040  69.537  1.00  0.00    -0.311 C  
HETATM    5  O   UNK A   0     -11.956  15.898  68.759  1.00  0.00    -0.368 OA 
BRANCH   4   6
HETATM    6  C   UNK A   0     -10.482  13.990  69.191  1.00  0.00    -0.086 C  
BRANCH   6   7
HETATM    7  C   UNK A   0     -10.014  14.183  67.737  1.00  0.00    -0.235 C  
BRANCH   7   8
HETATM    8  C   UNK A   0      -8.666  14.891  67.573  1.00  0.00    -0.197 C  
BRANCH   8   9
HETATM    9  C   UNK A   0      -7.666  14.262  68.521  1.00  0.00    -0.137 A  
HETATM   10  C   UNK A   0      -7.332  12.904  68.415  1.00  0.00    -0.119 A  
HETATM   11  C   UNK A   0      -6.337  12.353  69.226  1.00  0.00    -0.106 A  
HETATM   12  C   UNK A   0      -5.666  13.155  70.149  1.00  0.00    -0.141 A  
HETATM   13  C   UNK A   0      -6.984  15.057  69.453  1.00  0.00    -0.172 A  
HETATM   14  C   UNK A   0      -5.990  14.504  70.263  1.00  0.00    -0.158 A  
ENDBRANCH   8   9
ENDBRANCH   7   8
ENDBRANCH   6   7
BRANCH   6  15
ATOM     15  N   ALA A   1     -11.069  12.635  69.423  1.00  0.00    -0.447 NA 
ATOM     16  H   ALA A   1     -11.851  12.690  70.075  1.00  0.00     0.000 HD 
BRANCH  15  17
ATOM     17  CA  ALA A   1     -11.474  11.937  68.185  1.00  0.00    -0.320 C  
ATOM     18  CB  ALA A   1     -11.872  12.928  67.092  1.00  0.00    -0.424 C  
BRANCH  17  19
ATOM     19  C   ALA A   1     -10.386  10.934  67.684  1.00  0.00    -0.197 C  
HETATM   20  C   UNK A   2     -10.368   8.235  70.284  1.00  0.00    -0.209 C  
ATOM     21  O   ALA A   1      -9.681  11.138  66.694  1.00  0.00    -0.189 OA 
HETATM   22  C   UNK A   2      -9.453   7.663  69.200  1.00  0.00    -0.154 C  
HETATM   23  N   UNK A   2     -10.250   9.746  68.402  1.00  0.00    -0.177 N  
HETATM   24  S   UNK A   2     -11.883   7.214  70.489  1.00  0.00    -0.194 SA 
HETATM   25  C   UNK A   2     -11.653   6.771  72.228  1.00  0.00    -0.273 C  
HETATM   26  C   UNK A   2      -9.103   8.830  68.250  1.00  0.00    -0.141 C  
HETATM   27  C   UNK A   2     -10.762   9.626  69.769  1.00  0.00    -0.245 C  
HETATM   28  C   UNK A   2      -8.690   8.195  66.899  1.00  0.00    -0.129 C  
HETATM   29  C   UNK A   2     -10.914   7.893  72.927  1.00  0.00    -0.388 C  
HETATM   30  S   UNK A   2      -9.502   8.345  71.892  1.00  0.00    -0.279 SA 
HETATM   31  O   UNK A   2      -8.984   8.898  65.791  1.00  0.00    -0.178 OA 
HETATM   32  O   UNK A   2      -8.036   7.159  66.826  1.00  0.00    -0.109 OA 
ENDBRANCH  17  19
ENDBRANCH  15  17
ENDBRANCH   6  15
ENDBRANCH   4   6
ENDBRANCH   3   4
ENDBRANCH   2   3
TORSDOF 9
ENDMDL
MODEL      251
REMARK 921   NORMALIZED FREE ENERGY PREDICTED BY IDOCK:   -3.16 KCAL/MOL
REMARK 922        TOTAL FREE ENERGY PREDICTED BY IDOCK:   -6.17 KCAL/MOL
REMARK 923 INTER-LIGAND FREE ENERGY PREDICTED BY IDOCK:   -6.56 KCAL/MOL
REMARK 924 INTRA-LIGAND FREE ENERGY PREDICTED BY IDOCK:    0.39 KCAL/MOL
REMARK 927      BINDING AFFINITY PREDICTED BY RF-SCORE:    0.00 PKD
ROOT
HETATM    1  C   UNK A   0      -8.982  11.183  64.691  1.00  0.00    -0.010 C  
HETATM    2  C   UNK A   0     -10.105  11.121  63.673  1.00  0.00    -0.379 C  
ENDROOT
BRANCH   2   3
HETATM    3  O   UNK A   0     -11.381  11.223  64.325  1.00  0.00    -0.250 OA 
BRANCH   3   4
HETATM    4  C   UNK A   0     -11.839  12.488  64.556  1.00  0.00    -0.383 C  
HETATM    5  O   UNK A   0     -12.091  13.319  63.691  1.00  0.00    -0.509 OA 
BRANCH   4   6
HETATM    6  C   UNK A   0     -12.012  12.729  66.067  1.00  0.00    -0.432 C  
BRANCH   6   7
HETATM    7  C   UNK A   0     -11.230  13.987  66.487  1.00  0.00    -0.326 C  
BRANCH   7   8
HETATM    8  C   UNK A   0     -10.462  14.686  65.361  1.00  0.00    -0.400 C  
BRANCH   8   9
HETATM    9  C   UNK A   0     -10.112  16.090  65.809  1.00  0.00    -0.393 A  
HETATM   10  C   UNK A   0      -8.878  16.363  66.414  1.00  0.00    -0.346 A  
HETATM   11  C   UNK A   0      -8.520  17.675  66.734  1.00  0.00    -0.274 A  
HETATM   12  C   UNK A   0      -9.391  18.726  66.449  1.00  0.00    -0.321 A  
HETATM   13  C   UNK A   0     -10.980  17.155  65.527  1.00  0.00     0.064 A  
HETATM   14  C   UNK A   0     -10.620  18.465  65.848  1.00  0.00    -0.313 A  
ENDBRANCH   8   9
ENDBRANCH   7   8
ENDBRANCH   6   7
BRANCH   6  15
ATOM     15  N   ALA A   1     -11.548  11.505  66.788  1.00  0.00    -0.492 NA 
ATOM     16  H   ALA A   1     -10.708  11.128  66.349  1.00  0.00     0.000 HD 
BRANCH  15  17
ATOM     17  CA  ALA A   1     -11.330  11.708  68.235  1.00  0.00    -0.285 C  
ATOM     18  CB  ALA A   1     -12.266  10.832  69.067  1.00  0.00    -0.046 C  
BRANCH  17  19
ATOM     19  C   ALA A   1      -9.837  11.507  68.647  1.00  0.00    -0.177 C  
HETATM   20  C   UNK A   2      -9.334   7.798  68.474  1.00  0.00    -0.147 C  
ATOM     21  O   ALA A   1      -9.109  12.427  69.024  1.00  0.00     0.211 OA 
HETATM   22  C   UNK A   2      -7.915   8.318  68.713  1.00  0.00    -0.114 C  
HETATM   23  N   UNK A   2      -9.327  10.213  68.548  1.00  0.00    -0.147 N  
HETATM   24  S   UNK A   2      -9.478   6.976  66.836  1.00  0.00    -0.167 SA 
HETATM   25  C   UNK A   2      -9.978   5.338  67.421  1.00  0.00    -0.174 C  
HETATM   26  C   UNK A   2      -8.049   9.793  69.154  1.00  0.00    -0.107 C  
HETATM   27  C   UNK A   2     -10.218   9.052  68.490  1.00  0.00    -0.200 C  
HETATM   28  C   UNK A   2      -6.693  10.474  68.847  1.00  0.00    -0.060 C  
HETATM   29  C   UNK A   2     -10.762   5.495  68.707  1.00  0.00    -0.125 C  
HETATM   30  S   UNK A   2      -9.834   6.618  69.779  1.00  0.00    -0.163 SA 
HETATM   31  O   UNK A   2      -6.738  11.773  68.504  1.00  0.00    -0.061 OA 
HETATM   32  O   UNK A   2      -5.616   9.907  69.005  1.00  0.00    -0.036 OA 
ENDBRANCH  17  19
ENDBRANCH  15  17
ENDBRANCH   6  15
ENDBRANCH   4   6
ENDBRANCH   3   4
ENDBRANCH   2   3
TORSDOF 9
ENDMDL
MODEL      252
REMARK 921   NORMALIZED FREE ENERGY PREDICTED BY IDOCK:   -3.11 KCAL/MOL
REMARK 922        TOTAL FREE ENERGY PREDICTED BY IDOCK:   -6.09 KCAL/MOL
REMARK 923 INTER-LIGAND FREE ENERGY PREDICTED BY IDOCK:   -5.47 KCAL/MOL
REMARK 924 INTRA-LIGAND FREE ENERGY PREDICTED BY IDOCK:   -0.62 KCAL/MOL
REMARK 927      BINDING AFFINITY PREDICTED BY RF-SCORE:    0.00 PKD
ROOT
HETATM    1  C   UNK A   0      -6.696   4.638  67.133  1.00  0.00    -0.051 C  
HETATM    2  C   UNK A   0      -6.587   5.894  66.289  1.00  0.00    -0.055 C  
ENDROOT
BRANCH   2   3
HETATM    3  O   UNK A   0      -7.865   6.238  65.732  1.00  0.00    -0.094 OA 
BRANCH   3   4
HETATM    4  C   UNK A   0      -8.946   5.594  66.262  1.00  0.00    -0.140 C  
HETATM    5  O   UNK A   0      -9.438   4.560  65.825  1.00  0.00    -0.148 OA 
BRANCH   4   6
HETATM    6  C   UNK A   0      -9.460   6.342  67.506  1.00  0.00    -0.112 C  
BRANCH   6   7
HETATM    7  C   UNK A   0     -10.245   5.373  68.408  1.00  0.00    -0.229 C  
BRANCH   7   8
HETATM    8  C   UNK A   0      -9.709   5.227  69.835  1.00  0.00    -0.260 C  
BRANCH   8   9
HETATM    9  C   UNK A   0      -8.828   3.997  69.901  1.00  0.00    -0.138 A  
HETATM   10  C   UNK A   0      -7.731   3.946  70.773  1.00  0.00    -0.051 A  
HETATM   11  C   UNK A   0      -6.983   2.773  70.903  1.00  0.00    -0.033 A  
HETATM   12  C   UNK A   0      -7.325   1.641  70.165  1.00  0.00    -0.036 A  
HETATM   13  C   UNK A   0      -9.162   2.852  69.163  1.00  0.00    -0.220 A  
HETATM   14  C   UNK A   0      -8.411   1.682  69.294  1.00  0.00    -0.079 A  
ENDBRANCH   8   9
ENDBRANCH   7   8
ENDBRANCH   6   7
BRANCH   6  15
ATOM     15  N   ALA A   1     -10.297   7.490  67.043  1.00  0.00    -0.299 NA 
ATOM     16  H   ALA A   1     -11.205   7.481  67.506  1.00  0.00     0.000 HD 
BRANCH  15  17
ATOM     17  CA  ALA A   1      -9.647   8.808  67.201  1.00  0.00    -0.175 C  
ATOM     18  CB  ALA A   1     -10.642   9.948  66.992  1.00  0.00    -0.272 C  
BRANCH  17  19
ATOM     19  C   ALA A   1      -8.896   8.941  68.564  1.00  0.00    -0.134 C  
HETATM   20  C   UNK A   2     -11.616   8.700  71.131  1.00  0.00    -0.281 C  
ATOM     21  O   ALA A   1      -7.689   9.175  68.653  1.00  0.00    -0.090 OA 
HETATM   22  C   UNK A   2     -10.346   8.673  71.984  1.00  0.00    -0.416 C  
HETATM   23  N   UNK A   2      -9.655   8.758  69.720  1.00  0.00    -0.169 N  
HETATM   24  S   UNK A   2     -12.546   7.120  71.266  1.00  0.00    -0.344 SA 
HETATM   25  C   UNK A   2     -14.092   7.796  71.922  1.00  0.00    -0.360 C  
HETATM   26  C   UNK A   2      -9.185   9.124  71.069  1.00  0.00    -0.252 C  
HETATM   27  C   UNK A   2     -11.116   8.870  69.690  1.00  0.00    -0.046 C  
HETATM   28  C   UNK A   2      -7.882   8.571  71.699  1.00  0.00    -0.124 C  
HETATM   29  C   UNK A   2     -14.276   9.202  71.392  1.00  0.00    -0.058 C  
HETATM   30  S   UNK A   2     -12.712  10.081  71.619  1.00  0.00    -0.457 SA 
HETATM   31  O   UNK A   2      -6.899   8.235  70.846  1.00  0.00    -0.040 OA 
HETATM   32  O   UNK A   2      -7.697   8.533  72.912  1.00  0.00    -0.308 OA 
ENDBRANCH  17  19
ENDBRANCH  15  17
ENDBRANCH   6  15
ENDBRANCH   4   6
ENDBRANCH   3   4
ENDBRANCH   2   3
TORSDOF 9
ENDMDL
MODEL      253
REMARK 921   NORMALIZED FREE ENERGY PREDICTED BY IDOCK:   -3.09 KCAL/MOL
REMARK 922        TOTAL FREE ENERGY PREDICTED BY IDOCK:   -6.07 KCAL/MOL
REMARK 923 INTER-LIGAND FREE ENERGY PREDICTED BY IDOCK:   -5.95 KCAL/MOL
REMARK 924 INTRA-LIGAND FREE ENERGY PREDICTED BY IDOCK:   -0.11 KCAL/MOL
REMARK 927      BINDING AFFINITY PREDICTED BY RF-SCORE:    0.00 PKD
ROOT
HETATM    1  C   UNK A   0      -5.439  10.058  67.065  1.00  0.00    -0.042 C  
HETATM    2  C   UNK A   0      -6.078  10.683  68.291  1.00  0.00    -0.046 C  
ENDROOT
BRANCH   2   3
HETATM    3  O   UNK A   0      -7.385  10.129  68.514  1.00  0.00    -0.078 OA 
BRANCH   3   4
HETATM    4  C   UNK A   0      -7.437   8.786  68.752  1.00  0.00    -0.084 C  
HETATM    5  O   UNK A   0      -6.917   8.215  69.703  1.00  0.00    -0.047 OA 
BRANCH   4   6
HETATM    6  C   UNK A   0      -8.258   8.079  67.658  1.00  0.00    -0.124 C  
BRANCH   6   7
HETATM    7  C   UNK A   0      -7.328   7.216  66.785  1.00  0.00    -0.084 C  
BRANCH   7   8
HETATM    8  C   UNK A   0      -7.930   6.742  65.459  1.00  0.00    -0.119 C  
BRANCH   8   9
HETATM    9  C   UNK A   0      -7.112   7.313  64.320  1.00  0.00    -0.063 A  
HETATM   10  C   UNK A   0      -7.037   8.698  64.115  1.00  0.00    -0.090 A  
HETATM   11  C   UNK A   0      -6.202   9.224  63.125  1.00  0.00    -0.090 A  
HETATM   12  C   UNK A   0      -5.434   8.370  62.334  1.00  0.00    -0.071 A  
HETATM   13  C   UNK A   0      -6.335   6.465  63.517  1.00  0.00    -0.026 A  
HETATM   14  C   UNK A   0      -5.502   6.993  62.529  1.00  0.00    -0.036 A  
ENDBRANCH   8   9
ENDBRANCH   7   8
ENDBRANCH   6   7
BRANCH   6  15
ATOM     15  N   ALA A   1      -8.972   9.125  66.865  1.00  0.00    -0.122 NA 
ATOM     16  H   ALA A   1      -8.616   9.155  65.909  1.00  0.00     0.000 HD 
BRANCH  15  17
ATOM     17  CA  ALA A   1     -10.442   8.979  66.867  1.00  0.00    -0.223 C  
ATOM     18  CB  ALA A   1     -10.862   7.584  67.326  1.00  0.00    -0.297 C  
BRANCH  17  19
ATOM     19  C   ALA A   1     -11.150  10.096  67.698  1.00  0.00    -0.206 C  
HETATM   20  C   UNK A   2     -11.382   8.656  71.150  1.00  0.00    -0.275 C  
ATOM     21  O   ALA A   1     -11.585  11.137  67.202  1.00  0.00    -0.495 OA 
HETATM   22  C   UNK A   2     -11.847  10.099  71.356  1.00  0.00    -0.414 C  
HETATM   23  N   UNK A   2     -11.258   9.883  69.072  1.00  0.00    -0.423 N  
HETATM   24  S   UNK A   2      -9.819   8.320  72.059  1.00  0.00    -0.286 SA 
HETATM   25  C   UNK A   2     -10.429   6.987  73.120  1.00  0.00    -0.303 C  
HETATM   26  C   UNK A   2     -12.133  10.680  69.953  1.00  0.00    -0.299 C  
HETATM   27  C   UNK A   2     -11.123   8.540  69.642  1.00  0.00    -0.009 C  
HETATM   28  C   UNK A   2     -12.039  12.220  70.083  1.00  0.00    -0.287 C  
HETATM   29  C   UNK A   2     -11.521   6.237  72.386  1.00  0.00    -0.293 C  
HETATM   30  S   UNK A   2     -12.657   7.464  71.697  1.00  0.00    -0.363 SA 
HETATM   31  O   UNK A   2     -11.589  12.888  69.006  1.00  0.00    -0.282 OA 
HETATM   32  O   UNK A   2     -12.448  12.829  71.068  1.00  0.00    -0.376 OA 
ENDBRANCH  17  19
ENDBRANCH  15  17
ENDBRANCH   6  15
ENDBRANCH   4   6
ENDBRANCH   3   4
ENDBRANCH   2   3
TORSDOF 9
ENDMDL
MODEL      254
REMARK 921   NORMALIZED FREE ENERGY PREDICTED BY IDOCK:   -3.09 KCAL/MOL
REMARK 922        TOTAL FREE ENERGY PREDICTED BY IDOCK:   -6.07 KCAL/MOL
REMARK 923 INTER-LIGAND FREE ENERGY PREDICTED BY IDOCK:   -6.43 KCAL/MOL
REMARK 924 INTRA-LIGAND FREE ENERGY PREDICTED BY IDOCK:    0.36 KCAL/MOL
REMARK 927      BINDING AFFINITY PREDICTED BY RF-SCORE:    0.00 PKD
ROOT
HETATM    1  C   UNK A   0      -6.471  13.933  68.431  1.00  0.00    -0.103 C  
HETATM    2  C   UNK A   0      -7.501  13.258  67.545  1.00  0.00    -0.157 C  
ENDROOT
BRANCH   2   3
HETATM    3  O   UNK A   0      -8.446  12.525  68.340  1.00  0.00    -0.168 OA 
BRANCH   3   4
HETATM    4  C   UNK A   0      -8.170  11.203  68.537  1.00  0.00    -0.149 C  
HETATM    5  O   UNK A   0      -7.111  10.652  68.260  1.00  0.00    -0.078 OA 
BRANCH   4   6
HETATM    6  C   UNK A   0      -9.377  10.490  69.174  1.00  0.00    -0.187 C  
BRANCH   6   7
HETATM    7  C   UNK A   0      -8.901   9.243  69.940  1.00  0.00    -0.196 C  
BRANCH   7   8
HETATM    8  C   UNK A   0      -9.338   9.168  71.406  1.00  0.00    -0.246 C  
BRANCH   8   9
HETATM    9  C   UNK A   0      -8.567   8.058  72.089  1.00  0.00    -0.206 A  
HETATM   10  C   UNK A   0      -7.391   7.547  71.521  1.00  0.00    -0.075 A  
HETATM   11  C   UNK A   0      -6.631   6.593  72.203  1.00  0.00    -0.058 A  
HETATM   12  C   UNK A   0      -7.037   6.144  73.459  1.00  0.00    -0.080 A  
HETATM   13  C   UNK A   0      -8.965   7.598  73.352  1.00  0.00    -0.281 A  
HETATM   14  C   UNK A   0      -8.204   6.645  74.031  1.00  0.00    -0.135 A  
ENDBRANCH   8   9
ENDBRANCH   7   8
ENDBRANCH   6   7
BRANCH   6  15
ATOM     15  N   ALA A   1     -10.344  10.153  68.086  1.00  0.00    -0.175 NA 
ATOM     16  H   ALA A   1     -10.522   9.149  68.063  1.00  0.00     0.000 HD 
BRANCH  15  17
ATOM     17  CA  ALA A   1     -11.615  10.904  68.159  1.00  0.00    -0.241 C  
ATOM     18  CB  ALA A   1     -12.067  11.093  69.607  1.00  0.00    -0.406 C  
BRANCH  17  19
ATOM     19  C   ALA A   1     -11.548  12.265  67.395  1.00  0.00    -0.355 C  
HETATM   20  C   UNK A   2     -12.140  14.835  70.057  1.00  0.00    -0.329 C  
ATOM     21  O   ALA A   1     -11.425  12.349  66.172  1.00  0.00    -0.339 OA 
HETATM   22  C   UNK A   2     -11.762  15.689  68.845  1.00  0.00    -0.396 C  
HETATM   23  N   UNK A   2     -11.609  13.423  68.170  1.00  0.00    -0.319 N  
HETATM   24  S   UNK A   2     -10.898  14.996  71.403  1.00  0.00     0.484 SA 
HETATM   25  C   UNK A   2     -12.000  15.641  72.685  1.00  0.00    -0.473 C  
HETATM   26  C   UNK A   2     -11.845  14.766  67.607  1.00  0.00    -0.292 C  
HETATM   27  C   UNK A   2     -12.136  13.392  69.536  1.00  0.00    -0.278 C  
HETATM   28  C   UNK A   2     -10.950  15.405  66.517  1.00  0.00    -0.271 C  
HETATM   29  C   UNK A   2     -13.391  15.088  72.459  1.00  0.00    -0.424 C  
HETATM   30  S   UNK A   2     -13.785  15.300  70.707  1.00  0.00    -0.010 SA 
HETATM   31  O   UNK A   2     -10.332  14.558  65.676  1.00  0.00    -0.310 OA 
HETATM   32  O   UNK A   2     -10.879  16.618  66.344  1.00  0.00    -0.174 OA 
ENDBRANCH  17  19
ENDBRANCH  15  17
ENDBRANCH   6  15
ENDBRANCH   4   6
ENDBRANCH   3   4
ENDBRANCH   2   3
TORSDOF 9
ENDMDL
MODEL      255
REMARK 921   NORMALIZED FREE ENERGY PREDICTED BY IDOCK:   -3.08 KCAL/MOL
REMARK 922        TOTAL FREE ENERGY PREDICTED BY IDOCK:   -6.05 KCAL/MOL
REMARK 923 INTER-LIGAND FREE ENERGY PREDICTED BY IDOCK:   -5.87 KCAL/MOL
REMARK 924 INTRA-LIGAND FREE ENERGY PREDICTED BY IDOCK:   -0.18 KCAL/MOL
REMARK 927      BINDING AFFINITY PREDICTED BY RF-SCORE:    0.00 PKD
ROOT
HETATM    1  C   UNK A   0     -13.910   9.382  71.657  1.00  0.00    -0.329 C  
HETATM    2  C   UNK A   0     -12.676  10.252  71.801  1.00  0.00    -0.433 C  
ENDROOT
BRANCH   2   3
HETATM    3  O   UNK A   0     -11.494   9.439  71.882  1.00  0.00    -0.373 OA 
BRANCH   3   4
HETATM    4  C   UNK A   0     -11.060   8.891  70.710  1.00  0.00    -0.261 C  
HETATM    5  O   UNK A   0     -11.353   7.775  70.299  1.00  0.00    -0.252 OA 
BRANCH   4   6
HETATM    6  C   UNK A   0     -10.152   9.882  69.957  1.00  0.00    -0.260 C  
BRANCH   6   7
HETATM    7  C   UNK A   0     -10.806  10.275  68.620  1.00  0.00    -0.272 C  
BRANCH   7   8
HETATM    8  C   UNK A   0      -9.955  11.168  67.713  1.00  0.00    -0.193 C  
BRANCH   8   9
HETATM    9  C   UNK A   0     -10.873  12.078  66.925  1.00  0.00    -0.302 A  
HETATM   10  C   UNK A   0     -10.985  13.438  67.248  1.00  0.00    -0.286 A  
HETATM   11  C   UNK A   0     -11.756  14.293  66.456  1.00  0.00    -0.409 A  
HETATM   12  C   UNK A   0     -12.419  13.797  65.334  1.00  0.00    -0.532 A  
HETATM   13  C   UNK A   0     -11.545  11.591  65.794  1.00  0.00     0.034 A  
HETATM   14  C   UNK A   0     -12.315  12.448  65.005  1.00  0.00    -0.441 A  
ENDBRANCH   8   9
ENDBRANCH   7   8
ENDBRANCH   6   7
BRANCH   6  15
ATOM     15  N   ALA A   1      -8.817   9.235  69.768  1.00  0.00    -0.153 NA 
ATOM     16  H   ALA A   1      -8.700   8.933  68.802  1.00  0.00     0.000 HD 
BRANCH  15  17
ATOM     17  CA  ALA A   1      -7.679  10.077  70.191  1.00  0.00    -0.143 C  
ATOM     18  CB  ALA A   1      -6.833   9.376  71.253  1.00  0.00     0.010 C  
BRANCH  17  19
ATOM     19  C   ALA A   1      -6.809  10.551  68.983  1.00  0.00    -0.068 C  
HETATM   20  C   UNK A   2      -6.904   7.662  66.599  1.00  0.00    -0.066 C  
ATOM     21  O   ALA A   1      -6.192  11.618  68.971  1.00  0.00    -0.056 OA 
HETATM   22  C   UNK A   2      -6.203   8.749  65.781  1.00  0.00    -0.056 C  
HETATM   23  N   UNK A   2      -6.770   9.713  67.869  1.00  0.00    -0.065 N  
HETATM   24  S   UNK A   2      -8.521   7.202  65.854  1.00  0.00    -0.144 SA 
HETATM   25  C   UNK A   2      -8.172   5.450  65.562  1.00  0.00    -0.127 C  
HETATM   26  C   UNK A   2      -5.791   9.859  66.775  1.00  0.00    -0.054 C  
HETATM   27  C   UNK A   2      -7.145   8.300  67.973  1.00  0.00    -0.086 C  
HETATM   28  C   UNK A   2      -5.623  11.156  65.947  1.00  0.00    -0.078 C  
HETATM   29  C   UNK A   2      -7.208   4.959  66.621  1.00  0.00    -0.080 C  
HETATM   30  S   UNK A   2      -5.864   6.164  66.737  1.00  0.00    -0.021 SA 
HETATM   31  O   UNK A   2      -5.928  12.309  66.569  1.00  0.00    -0.112 OA 
HETATM   32  O   UNK A   2      -5.138  11.165  64.820  1.00  0.00    -0.258 OA 
ENDBRANCH  17  19
ENDBRANCH  15  17
ENDBRANCH   6  15
ENDBRANCH   4   6
ENDBRANCH   3   4
ENDBRANCH   2   3
TORSDOF 9
ENDMDL
MODEL      256
REMARK 921   NORMALIZED FREE ENERGY PREDICTED BY IDOCK:   -3.02 KCAL/MOL
REMARK 922        TOTAL FREE ENERGY PREDICTED BY IDOCK:   -5.95 KCAL/MOL
REMARK 923 INTER-LIGAND FREE ENERGY PREDICTED BY IDOCK:   -4.37 KCAL/MOL
REMARK 924 INTRA-LIGAND FREE ENERGY PREDICTED BY IDOCK:   -1.58 KCAL/MOL
REMARK 927      BINDING AFFINITY PREDICTED BY RF-SCORE:    0.00 PKD
ROOT
HETATM    1  C   UNK A   0     -12.564   7.336  71.542  1.00  0.00    -0.415 C  
HETATM    2  C   UNK A   0     -11.723   6.751  70.423  1.00  0.00    -0.363 C  
ENDROOT
BRANCH   2   3
HETATM    3  O   UNK A   0     -10.392   7.291  70.458  1.00  0.00    -0.203 OA 
BRANCH   3   4
HETATM    4  C   UNK A   0      -9.538   6.850  69.489  1.00  0.00    -0.148 C  
HETATM    5  O   UNK A   0      -9.680   7.028  68.285  1.00  0.00    -0.133 OA 
BRANCH   4   6
HETATM    6  C   UNK A   0      -8.350   6.102  70.121  1.00  0.00    -0.128 C  
BRANCH   6   7
HETATM    7  C   UNK A   0      -8.061   6.672  71.522  1.00  0.00    -0.111 C  
BRANCH   7   8
HETATM    8  C   UNK A   0      -7.601   5.648  72.563  1.00  0.00    -0.098 C  
BRANCH   8   9
HETATM    9  C   UNK A   0      -8.773   4.757  72.921  1.00  0.00    -0.114 A  
HETATM   10  C   UNK A   0      -9.966   5.305  73.414  1.00  0.00    -0.185 A  
HETATM   11  C   UNK A   0     -11.076   4.489  73.648  1.00  0.00    -0.369 A  
HETATM   12  C   UNK A   0     -11.005   3.122  73.388  1.00  0.00    -0.302 A  
HETATM   13  C   UNK A   0      -8.714   3.380  72.665  1.00  0.00    -0.094 A  
HETATM   14  C   UNK A   0      -9.824   2.568  72.900  1.00  0.00    -0.182 A  
ENDBRANCH   8   9
ENDBRANCH   7   8
ENDBRANCH   6   7
BRANCH   6  15
ATOM     15  N   ALA A   1      -7.178   6.233  69.202  1.00  0.00    -0.084 NA 
ATOM     16  H   ALA A   1      -6.378   6.628  69.696  1.00  0.00     0.000 HD 
BRANCH  15  17
ATOM     17  CA  ALA A   1      -6.801   4.973  68.528  1.00  0.00    -0.055 C  
ATOM     18  CB  ALA A   1      -6.630   3.835  69.532  1.00  0.00    -0.034 C  
BRANCH  17  19
ATOM     19  C   ALA A   1      -7.795   4.589  67.386  1.00  0.00    -0.089 C  
HETATM   20  C   UNK A   2      -7.085   7.084  64.682  1.00  0.00    -0.061 C  
ATOM     21  O   ALA A   1      -8.648   3.707  67.499  1.00  0.00    -0.094 OA 
HETATM   22  C   UNK A   2      -8.048   6.112  63.997  1.00  0.00    -0.074 C  
HETATM   23  N   UNK A   2      -7.666   5.281  66.182  1.00  0.00    -0.087 N  
HETATM   24  S   UNK A   2      -5.428   7.056  63.885  1.00  0.00    -0.033 SA 
HETATM   25  C   UNK A   2      -5.358   8.796  63.393  1.00  0.00    -0.063 C  
HETATM   26  C   UNK A   2      -8.683   5.252  65.114  1.00  0.00    -0.146 C  
HETATM   27  C   UNK A   2      -6.962   6.565  66.121  1.00  0.00    -0.062 C  
HETATM   28  C   UNK A   2      -9.180   3.948  64.443  1.00  0.00    -0.147 C  
HETATM   29  C   UNK A   2      -6.146   9.620  64.389  1.00  0.00    -0.089 C  
HETATM   30  S   UNK A   2      -7.734   8.793  64.647  1.00  0.00    -0.126 SA 
HETATM   31  O   UNK A   2      -9.139   2.834  65.194  1.00  0.00    -0.138 OA 
HETATM   32  O   UNK A   2      -9.687   3.930  63.325  1.00  0.00    -0.142 OA 
ENDBRANCH  17  19
ENDBRANCH  15  17
ENDBRANCH   6  15
ENDBRANCH   4   6
ENDBRANCH   3   4
ENDBRANCH   2   3
TORSDOF 9
ENDMDL
MODEL      257
REMARK 921   NORMALIZED FREE ENERGY PREDICTED BY IDOCK:   -2.90 KCAL/MOL
REMARK 922        TOTAL FREE ENERGY PREDICTED BY IDOCK:   -5.77 KCAL/MOL
REMARK 923 INTER-LIGAND FREE ENERGY PREDICTED BY IDOCK:   -4.93 KCAL/MOL
REMARK 924 INTRA-LIGAND FREE ENERGY PREDICTED BY IDOCK:   -0.84 KCAL/MOL
REMARK 927      BINDING AFFINITY PREDICTED BY RF-SCORE:    0.00 PKD
ROOT
HETATM    1  C   UNK A   0      -6.486   4.773  70.971  1.00  0.00    -0.027 C  
HETATM    2  C   UNK A   0      -7.360   6.013  70.982  1.00  0.00    -0.080 C  
ENDROOT
BRANCH   2   3
HETATM    3  O   UNK A   0      -7.785   6.341  69.649  1.00  0.00    -0.095 OA 
BRANCH   3   4
HETATM    4  C   UNK A   0      -7.235   7.465  69.103  1.00  0.00    -0.084 C  
HETATM    5  O   UNK A   0      -6.239   8.042  69.523  1.00  0.00    -0.033 OA 
BRANCH   4   6
HETATM    6  C   UNK A   0      -8.038   7.908  67.866  1.00  0.00    -0.129 C  
BRANCH   6   7
HETATM    7  C   UNK A   0      -8.250   6.708  66.926  1.00  0.00    -0.113 C  
BRANCH   7   8
HETATM    8  C   UNK A   0      -6.971   6.075  66.372  1.00  0.00    -0.067 C  
BRANCH   8   9
HETATM    9  C   UNK A   0      -7.180   4.581  66.248  1.00  0.00    -0.076 A  
HETATM   10  C   UNK A   0      -6.138   3.685  66.525  1.00  0.00    -0.024 A  
HETATM   11  C   UNK A   0      -6.364   2.306  66.506  1.00  0.00    -0.024 A  
HETATM   12  C   UNK A   0      -7.634   1.811  66.211  1.00  0.00    -0.062 A  
HETATM   13  C   UNK A   0      -8.452   4.070  65.952  1.00  0.00    -0.109 A  
HETATM   14  C   UNK A   0      -8.675   2.693  65.933  1.00  0.00    -0.127 A  
ENDBRANCH   8   9
ENDBRANCH   7   8
ENDBRANCH   6   7
BRANCH   6  15
ATOM     15  N   ALA A   1      -7.292   9.022  67.204  1.00  0.00    -0.086 NA 
ATOM     16  H   ALA A   1      -7.212   8.854  66.202  1.00  0.00     0.000 HD 
BRANCH  15  17
ATOM     17  CA  ALA A   1      -7.861  10.361  67.462  1.00  0.00    -0.106 C  
ATOM     18  CB  ALA A   1      -6.766  11.422  67.560  1.00  0.00    -0.078 C  
BRANCH  17  19
ATOM     19  C   ALA A   1      -8.952  10.755  66.416  1.00  0.00    -0.166 C  
HETATM   20  C   UNK A   2     -10.813  13.565  68.056  1.00  0.00    -0.250 C  
ATOM     21  O   ALA A   1      -9.134  10.142  65.363  1.00  0.00    -0.164 OA 
HETATM   22  C   UNK A   2     -11.398  13.555  66.642  1.00  0.00    -0.344 C  
HETATM   23  N   UNK A   2      -9.726  11.878  66.710  1.00  0.00    -0.200 N  
HETATM   24  S   UNK A   2      -9.906  15.128  68.393  1.00  0.00    -0.228 SA 
HETATM   25  C   UNK A   2     -10.892  15.690  69.803  1.00  0.00    -0.308 C  
HETATM   26  C   UNK A   2     -10.968  12.221  65.991  1.00  0.00    -0.292 C  
HETATM   27  C   UNK A   2      -9.823  12.393  68.078  1.00  0.00    -0.205 C  
HETATM   28  C   UNK A   2     -11.038  12.431  64.459  1.00  0.00    -0.316 C  
HETATM   29  C   UNK A   2     -11.423  14.480  70.543  1.00  0.00    -0.185 C  
HETATM   30  S   UNK A   2     -12.122  13.352  69.315  1.00  0.00    -0.200 SA 
HETATM   31  O   UNK A   2     -10.144  11.753  63.718  1.00  0.00    -0.325 OA 
HETATM   32  O   UNK A   2     -11.921  13.092  63.920  1.00  0.00    -0.428 OA 
ENDBRANCH  17  19
ENDBRANCH  15  17
ENDBRANCH   6  15
ENDBRANCH   4   6
ENDBRANCH   3   4
ENDBRANCH   2   3
TORSDOF 9
ENDMDL
MODEL      258
REMARK 921   NORMALIZED FREE ENERGY PREDICTED BY IDOCK:   -2.62 KCAL/MOL
REMARK 922        TOTAL FREE ENERGY PREDICTED BY IDOCK:   -5.35 KCAL/MOL
REMARK 923 INTER-LIGAND FREE ENERGY PREDICTED BY IDOCK:   -5.35 KCAL/MOL
REMARK 924 INTRA-LIGAND FREE ENERGY PREDICTED BY IDOCK:   -0.00 KCAL/MOL
REMARK 927      BINDING AFFINITY PREDICTED BY RF-SCORE:    0.00 PKD
ROOT
HETATM    1  C   UNK A   0      -6.807   5.968  65.227  1.00  0.00    -0.051 C  
HETATM    2  C   UNK A   0      -7.880   6.968  64.840  1.00  0.00    -0.126 C  
ENDROOT
BRANCH   2   3
HETATM    3  O   UNK A   0      -8.165   7.850  65.938  1.00  0.00    -0.111 OA 
BRANCH   3   4
HETATM    4  C   UNK A   0      -9.098   7.413  66.833  1.00  0.00    -0.141 C  
HETATM    5  O   UNK A   0     -10.277   7.194  66.578  1.00  0.00    -0.173 OA 
BRANCH   4   6
HETATM    6  C   UNK A   0      -8.460   7.217  68.221  1.00  0.00    -0.124 C  
BRANCH   6   7
HETATM    7  C   UNK A   0      -9.462   6.523  69.161  1.00  0.00    -0.136 C  
BRANCH   7   8
HETATM    8  C   UNK A   0      -9.737   5.049  68.853  1.00  0.00    -0.234 C  
BRANCH   8   9
HETATM    9  C   UNK A   0      -8.427   4.290  68.892  1.00  0.00    -0.097 A  
HETATM   10  C   UNK A   0      -7.954   3.616  67.757  1.00  0.00    -0.081 A  
HETATM   11  C   UNK A   0      -6.699   3.002  67.768  1.00  0.00    -0.044 A  
HETATM   12  C   UNK A   0      -5.905   3.058  68.913  1.00  0.00    -0.023 A  
HETATM   13  C   UNK A   0      -7.619   4.339  70.037  1.00  0.00    -0.049 A  
HETATM   14  C   UNK A   0      -6.366   3.724  70.046  1.00  0.00    -0.028 A  
ENDBRANCH   8   9
ENDBRANCH   7   8
ENDBRANCH   6   7
BRANCH   6  15
ATOM     15  N   ALA A   1      -8.037   8.557  68.730  1.00  0.00    -0.119 NA 
ATOM     16  H   ALA A   1      -8.620   9.292  68.332  1.00  0.00     0.000 HD 
BRANCH  15  17
ATOM     17  CA  ALA A   1      -8.011   8.657  70.204  1.00  0.00    -0.103 C  
ATOM     18  CB  ALA A   1      -6.869   9.553  70.681  1.00  0.00    -0.115 C  
BRANCH  17  19
ATOM     19  C   ALA A   1      -9.384   9.111  70.795  1.00  0.00    -0.264 C  
HETATM   20  C   UNK A   2     -10.681  11.579  68.291  1.00  0.00    -0.211 C  
ATOM     21  O   ALA A   1      -9.800   8.749  71.896  1.00  0.00    -0.287 OA 
HETATM   22  C   UNK A   2     -11.870  11.406  69.238  1.00  0.00    -0.417 C  
HETATM   23  N   UNK A   2     -10.164   9.948  69.997  1.00  0.00    -0.259 N  
HETATM   24  S   UNK A   2     -11.079  10.976  66.601  1.00  0.00    -0.036 SA 
HETATM   25  C   UNK A   2     -10.818  12.532  65.713  1.00  0.00    -0.276 C  
HETATM   26  C   UNK A   2     -11.334  10.692  70.500  1.00  0.00    -0.267 C  
HETATM   27  C   UNK A   2      -9.572  10.705  68.891  1.00  0.00    -0.196 C  
HETATM   28  C   UNK A   2     -12.551  10.014  71.178  1.00  0.00    -0.381 C  
HETATM   29  C   UNK A   2      -9.754  13.334  66.431  1.00  0.00    -0.276 C  
HETATM   30  S   UNK A   2     -10.164  13.331  68.193  1.00  0.00    -0.247 SA 
HETATM   31  O   UNK A   2     -12.311   8.862  71.828  1.00  0.00    -0.313 OA 
HETATM   32  O   UNK A   2     -13.661  10.536  71.222  1.00  0.00    -0.160 OA 
ENDBRANCH  17  19
ENDBRANCH  15  17
ENDBRANCH   6  15
ENDBRANCH   4   6
ENDBRANCH   3   4
ENDBRANCH   2   3
TORSDOF 9
ENDMDL
MODEL      259
REMARK 921   NORMALIZED FREE ENERGY PREDICTED BY IDOCK:   -2.51 KCAL/MOL
REMARK 922        TOTAL FREE ENERGY PREDICTED BY IDOCK:   -5.17 KCAL/MOL
REMARK 923 INTER-LIGAND FREE ENERGY PREDICTED BY IDOCK:   -4.82 KCAL/MOL
REMARK 924 INTRA-LIGAND FREE ENERGY PREDICTED BY IDOCK:   -0.35 KCAL/MOL
REMARK 927      BINDING AFFINITY PREDICTED BY RF-SCORE:    0.00 PKD
ROOT
HETATM    1  C   UNK A   0     -10.904  11.465  66.442  1.00  0.00    -0.323 C  
HETATM    2  C   UNK A   0     -10.463  10.557  67.576  1.00  0.00    -0.239 C  
ENDROOT
BRANCH   2   3
HETATM    3  O   UNK A   0     -11.134   9.289  67.495  1.00  0.00    -0.101 OA 
BRANCH   3   4
HETATM    4  C   UNK A   0     -10.333   8.193  67.350  1.00  0.00    -0.281 C  
HETATM    5  O   UNK A   0     -10.022   7.680  66.281  1.00  0.00    -0.118 OA 
BRANCH   4   6
HETATM    6  C   UNK A   0      -9.856   7.691  68.724  1.00  0.00    -0.164 C  
BRANCH   6   7
HETATM    7  C   UNK A   0      -8.615   6.796  68.550  1.00  0.00    -0.125 C  
BRANCH   7   8
HETATM    8  C   UNK A   0      -8.872   5.291  68.666  1.00  0.00    -0.103 C  
BRANCH   8   9
HETATM    9  C   UNK A   0      -7.606   4.616  69.151  1.00  0.00    -0.056 A  
HETATM   10  C   UNK A   0      -6.753   5.259  70.058  1.00  0.00    -0.044 A  
HETATM   11  C   UNK A   0      -5.640   4.594  70.579  1.00  0.00    -0.015 A  
HETATM   12  C   UNK A   0      -5.372   3.280  70.199  1.00  0.00    -0.008 A  
HETATM   13  C   UNK A   0      -7.326   3.294  68.776  1.00  0.00    -0.049 A  
HETATM   14  C   UNK A   0      -6.212   2.632  69.297  1.00  0.00    -0.028 A  
ENDBRANCH   8   9
ENDBRANCH   7   8
ENDBRANCH   6   7
BRANCH   6  15
ATOM     15  N   ALA A   1     -10.991   6.966  69.373  1.00  0.00    -0.353 NA 
ATOM     16  H   ALA A   1     -10.737   5.997  69.561  1.00  0.00     0.000 HD 
BRANCH  15  17
ATOM     17  CA  ALA A   1     -11.495   7.617  70.600  1.00  0.00    -0.258 C  
ATOM     18  CB  ALA A   1     -12.687   6.859  71.183  1.00  0.00    -0.331 C  
BRANCH  17  19
ATOM     19  C   ALA A   1     -10.373   7.832  71.665  1.00  0.00    -0.197 C  
HETATM   20  C   UNK A   2      -9.678   4.387  72.964  1.00  0.00    -0.135 C  
ATOM     21  O   ALA A   1      -9.957   8.944  71.995  1.00  0.00    -0.329 OA 
HETATM   22  C   UNK A   2      -8.571   5.220  73.614  1.00  0.00    -0.111 C  
HETATM   23  N   UNK A   2      -9.818   6.685  72.232  1.00  0.00    -0.154 N  
HETATM   24  S   UNK A   2      -8.984   3.142  71.802  1.00  0.00    -0.099 SA 
HETATM   25  C   UNK A   2      -9.626   1.657  72.613  1.00  0.00    -0.079 C  
HETATM   26  C   UNK A   2      -8.968   6.703  73.438  1.00  0.00    -0.124 C  
HETATM   27  C   UNK A   2     -10.519   5.400  72.176  1.00  0.00    -0.218 C  
HETATM   28  C   UNK A   2      -7.663   7.529  73.550  1.00  0.00    -0.108 C  
HETATM   29  C   UNK A   2     -10.936   1.998  73.293  1.00  0.00    -0.172 C  
HETATM   30  S   UNK A   2     -10.686   3.527  74.225  1.00  0.00    -0.076 SA 
HETATM   31  O   UNK A   2      -7.598   8.653  72.815  1.00  0.00    -0.338 OA 
HETATM   32  O   UNK A   2      -6.767   7.248  74.341  1.00  0.00    -0.087 OA 
ENDBRANCH  17  19
ENDBRANCH  15  17
ENDBRANCH   6  15
ENDBRANCH   4   6
ENDBRANCH   3   4
ENDBRANCH   2   3
TORSDOF 9
ENDMDL
MODEL      260
REMARK 921   NORMALIZED FREE ENERGY PREDICTED BY IDOCK:   -2.46 KCAL/MOL
REMARK 922        TOTAL FREE ENERGY PREDICTED BY IDOCK:   -5.11 KCAL/MOL
REMARK 923 INTER-LIGAND FREE ENERGY PREDICTED BY IDOCK:   -3.99 KCAL/MOL
REMARK 924 INTRA-LIGAND FREE ENERGY PREDICTED BY IDOCK:   -1.11 KCAL/MOL
REMARK 927      BINDING AFFINITY PREDICTED BY RF-SCORE:    0.00 PKD
ROOT
HETATM    1  C   UNK A   0     -11.752  10.801  69.161  1.00  0.00    -0.368 C  
HETATM    2  C   UNK A   0     -10.942   9.555  69.467  1.00  0.00    -0.195 C  
ENDROOT
BRANCH   2   3
HETATM    3  O   UNK A   0      -9.681   9.593  68.781  1.00  0.00    -0.156 OA 
BRANCH   3   4
HETATM    4  C   UNK A   0      -8.571   9.692  69.568  1.00  0.00    -0.172 C  
HETATM    5  O   UNK A   0      -8.573   9.739  70.793  1.00  0.00    -0.183 OA 
BRANCH   4   6
HETATM    6  C   UNK A   0      -7.298   9.721  68.701  1.00  0.00    -0.074 C  
BRANCH   6   7
HETATM    7  C   UNK A   0      -7.316  10.962  67.792  1.00  0.00    -0.093 C  
BRANCH   7   8
HETATM    8  C   UNK A   0      -6.005  11.753  67.738  1.00  0.00    -0.057 C  
BRANCH   8   9
HETATM    9  C   UNK A   0      -6.235  13.120  68.348  1.00  0.00    -0.083 A  
HETATM   10  C   UNK A   0      -6.903  14.122  67.631  1.00  0.00    -0.196 A  
HETATM   11  C   UNK A   0      -7.200  15.347  68.235  1.00  0.00    -0.118 A  
HETATM   12  C   UNK A   0      -6.834  15.579  69.560  1.00  0.00    -0.186 A  
HETATM   13  C   UNK A   0      -5.871  13.366  69.680  1.00  0.00    -0.112 A  
HETATM   14  C   UNK A   0      -6.168  14.591  70.280  1.00  0.00    -0.176 A  
ENDBRANCH   8   9
ENDBRANCH   7   8
ENDBRANCH   6   7
BRANCH   6  15
ATOM     15  N   ALA A   1      -7.239   8.447  67.921  1.00  0.00    -0.090 NA 
ATOM     16  H   ALA A   1      -6.894   8.620  66.978  1.00  0.00     0.000 HD 
BRANCH  15  17
ATOM     17  CA  ALA A   1      -6.452   7.380  68.574  1.00  0.00    -0.041 C  
ATOM     18  CB  ALA A   1      -5.338   7.963  69.441  1.00  0.00    -0.026 C  
BRANCH  17  19
ATOM     19  C   ALA A   1      -7.349   6.386  69.379  1.00  0.00    -0.092 C  
HETATM   20  C   UNK A   2      -8.782   4.123  66.759  1.00  0.00    -0.114 C  
ATOM     21  O   ALA A   1      -7.547   6.483  70.592  1.00  0.00    -0.097 OA 
HETATM   22  C   UNK A   2      -9.227   3.453  68.061  1.00  0.00    -0.238 C  
HETATM   23  N   UNK A   2      -7.918   5.333  68.664  1.00  0.00    -0.086 N  
HETATM   24  S   UNK A   2      -7.629   3.047  65.814  1.00  0.00    -0.074 SA 
HETATM   25  C   UNK A   2      -8.615   2.890  64.304  1.00  0.00    -0.094 C  
HETATM   26  C   UNK A   2      -9.002   4.483  69.192  1.00  0.00    -0.100 C  
HETATM   27  C   UNK A   2      -8.040   5.390  67.205  1.00  0.00    -0.101 C  
HETATM   28  C   UNK A   2      -8.891   3.678  70.510  1.00  0.00    -0.080 C  
HETATM   29  C   UNK A   2      -9.431   4.152  64.118  1.00  0.00    -0.156 C  
HETATM   30  S   UNK A   2     -10.217   4.532  65.702  1.00  0.00    -0.212 SA 
HETATM   31  O   UNK A   2      -8.078   4.183  71.455  1.00  0.00    -0.074 OA 
HETATM   32  O   UNK A   2      -9.579   2.688  70.743  1.00  0.00    -0.149 OA 
ENDBRANCH  17  19
ENDBRANCH  15  17
ENDBRANCH   6  15
ENDBRANCH   4   6
ENDBRANCH   3   4
ENDBRANCH   2   3
TORSDOF 9
ENDMDL
MODEL      261
REMARK 921   NORMALIZED FREE ENERGY PREDICTED BY IDOCK:   -2.45 KCAL/MOL
REMARK 922        TOTAL FREE ENERGY PREDICTED BY IDOCK:   -5.08 KCAL/MOL
REMARK 923 INTER-LIGAND FREE ENERGY PREDICTED BY IDOCK:   -3.59 KCAL/MOL
REMARK 924 INTRA-LIGAND FREE ENERGY PREDICTED BY IDOCK:   -1.48 KCAL/MOL
REMARK 927      BINDING AFFINITY PREDICTED BY RF-SCORE:    0.00 PKD
ROOT
HETATM    1  C   UNK A   0      -8.544   5.372  68.106  1.00  0.00    -0.096 C  
HETATM    2  C   UNK A   0      -9.224   6.728  68.136  1.00  0.00    -0.121 C  
ENDROOT
BRANCH   2   3
HETATM    3  O   UNK A   0      -8.369   7.705  68.752  1.00  0.00    -0.127 OA 
BRANCH   3   4
HETATM    4  C   UNK A   0      -7.497   8.349  67.923  1.00  0.00    -0.098 C  
HETATM    5  O   UNK A   0      -6.409   7.914  67.563  1.00  0.00    -0.052 OA 
BRANCH   4   6
HETATM    6  C   UNK A   0      -8.076   9.707  67.484  1.00  0.00    -0.114 C  
BRANCH   6   7
HETATM    7  C   UNK A   0      -6.935  10.643  67.047  1.00  0.00    -0.095 C  
BRANCH   7   8
HETATM    8  C   UNK A   0      -7.365  12.058  66.650  1.00  0.00     0.126 C  
BRANCH   8   9
HETATM    9  C   UNK A   0      -6.650  13.053  67.540  1.00  0.00    -0.160 A  
HETATM   10  C   UNK A   0      -6.885  14.429  67.411  1.00  0.00    -0.052 A  
HETATM   11  C   UNK A   0      -6.300  15.335  68.300  1.00  0.00    -0.118 A  
HETATM   12  C   UNK A   0      -5.478  14.873  69.327  1.00  0.00    -0.093 A  
HETATM   13  C   UNK A   0      -5.821  12.601  68.577  1.00  0.00    -0.060 A  
HETATM   14  C   UNK A   0      -5.237  13.508  69.463  1.00  0.00    -0.084 A  
ENDBRANCH   8   9
ENDBRANCH   7   8
ENDBRANCH   6   7
BRANCH   6  15
ATOM     15  N   ALA A   1      -8.863  10.266  68.626  1.00  0.00    -0.130 NA 
ATOM     16  H   ALA A   1      -8.309  10.949  69.142  1.00  0.00     0.000 HD 
BRANCH  15  17
ATOM     17  CA  ALA A   1     -10.163  10.845  68.231  1.00  0.00    -0.173 C  
ATOM     18  CB  ALA A   1     -10.924   9.913  67.288  1.00  0.00    -0.187 C  
BRANCH  17  19
ATOM     19  C   ALA A   1     -11.033  11.252  69.463  1.00  0.00    -0.191 C  
HETATM   20  C   UNK A   2     -11.050  14.998  69.370  1.00  0.00    -0.278 C  
ATOM     21  O   ALA A   1     -11.479  10.439  70.275  1.00  0.00    -0.277 OA 
HETATM   22  C   UNK A   2     -12.063  14.685  70.473  1.00  0.00    -0.388 C  
HETATM   23  N   UNK A   2     -11.321  12.609  69.607  1.00  0.00    -0.479 N  
HETATM   24  S   UNK A   2     -11.853  15.829  67.940  1.00  0.00     0.279 SA 
HETATM   25  C   UNK A   2     -10.891  17.362  67.969  1.00  0.00    -0.281 C  
HETATM   26  C   UNK A   2     -11.875  13.196  70.842  1.00  0.00     0.256 C  
HETATM   27  C   UNK A   2     -10.520  13.628  68.925  1.00  0.00    -0.150 C  
HETATM   28  C   UNK A   2     -13.201  12.728  71.491  1.00  0.00    -0.239 C  
HETATM   29  C   UNK A   2      -9.506  17.061  68.500  1.00  0.00    -0.269 C  
HETATM   30  S   UNK A   2      -9.699  16.061  69.995  1.00  0.00     0.423 SA 
HETATM   31  O   UNK A   2     -13.548  11.445  71.289  1.00  0.00     0.179 OA 
HETATM   32  O   UNK A   2     -13.860  13.442  72.240  1.00  0.00    -0.546 OA 
ENDBRANCH  17  19
ENDBRANCH  15  17
ENDBRANCH   6  15
ENDBRANCH   4   6
ENDBRANCH   3   4
ENDBRANCH   2   3
TORSDOF 9
ENDMDL
MODEL      262
REMARK 921   NORMALIZED FREE ENERGY PREDICTED BY IDOCK:   -2.32 KCAL/MOL
REMARK 922        TOTAL FREE ENERGY PREDICTED BY IDOCK:   -4.89 KCAL/MOL
REMARK 923 INTER-LIGAND FREE ENERGY PREDICTED BY IDOCK:   -5.38 KCAL/MOL
REMARK 924 INTRA-LIGAND FREE ENERGY PREDICTED BY IDOCK:    0.48 KCAL/MOL
REMARK 927      BINDING AFFINITY PREDICTED BY RF-SCORE:    0.00 PKD
ROOT
HETATM    1  C   UNK A   0      -8.976   2.107  69.467  1.00  0.00    -0.156 C  
HETATM    2  C   UNK A   0      -9.014   3.235  68.453  1.00  0.00    -0.135 C  
ENDROOT
BRANCH   2   3
HETATM    3  O   UNK A   0      -7.686   3.702  68.169  1.00  0.00    -0.064 OA 
BRANCH   3   4
HETATM    4  C   UNK A   0      -7.037   4.330  69.193  1.00  0.00    -0.051 C  
HETATM    5  O   UNK A   0      -6.318   3.780  70.019  1.00  0.00    -0.026 OA 
BRANCH   4   6
HETATM    6  C   UNK A   0      -7.323   5.843  69.162  1.00  0.00    -0.083 C  
BRANCH   6   7
HETATM    7  C   UNK A   0      -7.713   6.328  70.570  1.00  0.00    -0.101 C  
BRANCH   7   8
HETATM    8  C   UNK A   0      -8.629   5.385  71.357  1.00  0.00    -0.131 C  
BRANCH   8   9
HETATM    9  C   UNK A   0      -9.972   6.057  71.548  1.00  0.00    -0.212 A  
HETATM   10  C   UNK A   0     -10.199   6.911  72.636  1.00  0.00    -0.210 A  
HETATM   11  C   UNK A   0     -11.406   7.606  72.753  1.00  0.00    -0.419 A  
HETATM   12  C   UNK A   0     -12.395   7.455  71.782  1.00  0.00    -0.365 A  
HETATM   13  C   UNK A   0     -10.975   5.913  70.578  1.00  0.00    -0.362 A  
HETATM   14  C   UNK A   0     -12.180   6.608  70.698  1.00  0.00    -0.262 A  
ENDBRANCH   8   9
ENDBRANCH   7   8
ENDBRANCH   6   7
BRANCH   6  15
ATOM     15  N   ALA A   1      -8.401   6.091  68.157  1.00  0.00    -0.112 NA 
ATOM     16  H   ALA A   1      -9.261   5.615  68.430  1.00  0.00     0.000 HD 
BRANCH  15  17
ATOM     17  CA  ALA A   1      -8.661   7.522  67.897  1.00  0.00    -0.121 C  
ATOM     18  CB  ALA A   1      -7.768   8.415  68.757  1.00  0.00    -0.102 C  
BRANCH  17  19
ATOM     19  C   ALA A   1      -8.545   7.882  66.381  1.00  0.00    -0.147 C  
HETATM   20  C   UNK A   2      -9.882  11.377  66.171  1.00  0.00    -0.222 C  
ATOM     21  O   ALA A   1      -8.178   7.080  65.521  1.00  0.00    -0.126 OA 
HETATM   22  C   UNK A   2      -9.330  11.143  64.763  1.00  0.00    -0.209 C  
HETATM   23  N   UNK A   2      -8.859   9.193  66.022  1.00  0.00    -0.157 N  
HETATM   24  S   UNK A   2      -8.963  12.713  67.037  1.00  0.00    -0.215 SA 
HETATM   25  C   UNK A   2     -10.356  13.835  67.314  1.00  0.00    -0.253 C  
HETATM   26  C   UNK A   2      -9.079   9.624  64.629  1.00  0.00    -0.235 C  
HETATM   27  C   UNK A   2      -9.654  10.049  66.906  1.00  0.00    -0.175 C  
HETATM   28  C   UNK A   2      -8.031   9.444  63.503  1.00  0.00    -0.141 C  
HETATM   29  C   UNK A   2     -11.621  13.017  67.468  1.00  0.00    -0.356 C  
HETATM   30  S   UNK A   2     -11.658  11.811  66.121  1.00  0.00    -0.006 SA 
HETATM   31  O   UNK A   2      -7.186   8.407  63.630  1.00  0.00    -0.090 OA 
HETATM   32  O   UNK A   2      -8.023  10.135  62.488  1.00  0.00    -0.128 OA 
ENDBRANCH  17  19
ENDBRANCH  15  17
ENDBRANCH   6  15
ENDBRANCH   4   6
ENDBRANCH   3   4
ENDBRANCH   2   3
TORSDOF 9
ENDMDL
MODEL      263
REMARK 921   NORMALIZED FREE ENERGY PREDICTED BY IDOCK:   -2.21 KCAL/MOL
REMARK 922        TOTAL FREE ENERGY PREDICTED BY IDOCK:   -4.72 KCAL/MOL
REMARK 923 INTER-LIGAND FREE ENERGY PREDICTED BY IDOCK:   -5.28 KCAL/MOL
REMARK 924 INTRA-LIGAND FREE ENERGY PREDICTED BY IDOCK:    0.56 KCAL/MOL
REMARK 927      BINDING AFFINITY PREDICTED BY RF-SCORE:    0.00 PKD
ROOT
HETATM    1  C   UNK A   0      -5.650  14.578  72.415  1.00  0.00     0.011 C  
HETATM    2  C   UNK A   0      -5.128  15.135  71.104  1.00  0.00    -0.149 C  
ENDROOT
BRANCH   2   3
HETATM    3  O   UNK A   0      -5.606  14.351  69.999  1.00  0.00    -0.100 OA 
BRANCH   3   4
HETATM    4  C   UNK A   0      -6.739  14.803  69.386  1.00  0.00    -0.149 C  
HETATM    5  O   UNK A   0      -7.800  15.046  69.950  1.00  0.00    -0.114 OA 
BRANCH   4   6
HETATM    6  C   UNK A   0      -6.498  14.983  67.876  1.00  0.00    -0.159 C  
BRANCH   6   7
HETATM    7  C   UNK A   0      -7.449  16.059  67.321  1.00  0.00    -0.236 C  
BRANCH   7   8
HETATM    8  C   UNK A   0      -7.456  17.384  68.088  1.00  0.00    -0.208 C  
BRANCH   8   9
HETATM    9  C   UNK A   0      -8.455  18.318  67.437  1.00  0.00    -0.249 A  
HETATM   10  C   UNK A   0      -9.650  17.826  66.895  1.00  0.00    -0.288 A  
HETATM   11  C   UNK A   0     -10.612  18.703  66.386  1.00  0.00    -0.399 A  
HETATM   12  C   UNK A   0     -10.388  20.078  66.416  1.00  0.00    -0.573 A  
HETATM   13  C   UNK A   0      -8.240  19.704  67.461  1.00  0.00    -0.332 A  
HETATM   14  C   UNK A   0      -9.203  20.578  66.950  1.00  0.00    -0.400 A  
ENDBRANCH   8   9
ENDBRANCH   7   8
ENDBRANCH   6   7
BRANCH   6  15
ATOM     15  N   ALA A   1      -6.692  13.657  67.214  1.00  0.00    -0.439 NA 
ATOM     16  H   ALA A   1      -5.841  13.099  67.272  1.00  0.00     0.000 HD 
BRANCH  15  17
ATOM     17  CA  ALA A   1      -7.848  12.894  67.729  1.00  0.00    -0.158 C  
ATOM     18  CB  ALA A   1      -8.981  12.841  66.706  1.00  0.00    -0.188 C  
BRANCH  17  19
ATOM     19  C   ALA A   1      -7.448  11.466  68.220  1.00  0.00    -0.101 C  
HETATM   20  C   UNK A   2      -7.056   9.494  65.057  1.00  0.00    -0.109 C  
ATOM     21  O   ALA A   1      -7.402  11.146  69.409  1.00  0.00    -0.118 OA 
HETATM   22  C   UNK A   2      -6.542   8.524  66.123  1.00  0.00    -0.057 C  
HETATM   23  N   UNK A   2      -7.108  10.537  67.236  1.00  0.00    -0.086 N  
HETATM   24  S   UNK A   2      -5.718   9.976  63.892  1.00  0.00    -0.133 SA 
HETATM   25  C   UNK A   2      -6.481   9.364  62.369  1.00  0.00    -0.096 C  
HETATM   26  C   UNK A   2      -6.986   9.089  67.492  1.00  0.00    -0.078 C  
HETATM   27  C   UNK A   2      -7.513  10.731  65.841  1.00  0.00    -0.099 C  
HETATM   28  C   UNK A   2      -6.033   8.486  68.552  1.00  0.00    -0.045 C  
HETATM   29  C   UNK A   2      -7.986   9.459  62.502  1.00  0.00    -0.122 C  
HETATM   30  S   UNK A   2      -8.437   8.762  64.108  1.00  0.00    -0.051 SA 
HETATM   31  O   UNK A   2      -5.756   9.258  69.618  1.00  0.00    -0.033 OA 
HETATM   32  O   UNK A   2      -5.626   7.329  68.497  1.00  0.00    -0.020 OA 
ENDBRANCH  17  19
ENDBRANCH  15  17
ENDBRANCH   6  15
ENDBRANCH   4   6
ENDBRANCH   3   4
ENDBRANCH   2   3
TORSDOF 9
ENDMDL
MODEL      264
REMARK 921   NORMALIZED FREE ENERGY PREDICTED BY IDOCK:   -2.19 KCAL/MOL
REMARK 922        TOTAL FREE ENERGY PREDICTED BY IDOCK:   -4.69 KCAL/MOL
REMARK 923 INTER-LIGAND FREE ENERGY PREDICTED BY IDOCK:   -5.30 KCAL/MOL
REMARK 924 INTRA-LIGAND FREE ENERGY PREDICTED BY IDOCK:    0.61 KCAL/MOL
REMARK 927      BINDING AFFINITY PREDICTED BY RF-SCORE:    0.00 PKD
ROOT
HETATM    1  C   UNK A   0      -6.636   4.284  68.606  1.00  0.00    -0.045 C  
HETATM    2  C   UNK A   0      -6.894   5.738  68.958  1.00  0.00    -0.062 C  
ENDROOT
BRANCH   2   3
HETATM    3  O   UNK A   0      -6.388   6.602  67.927  1.00  0.00    -0.043 OA 
BRANCH   3   4
HETATM    4  C   UNK A   0      -7.321   7.290  67.208  1.00  0.00    -0.098 C  
HETATM    5  O   UNK A   0      -8.061   6.805  66.360  1.00  0.00    -0.103 OA 
BRANCH   4   6
HETATM    6  C   UNK A   0      -7.329   8.774  67.619  1.00  0.00    -0.085 C  
BRANCH   6   7
HETATM    7  C   UNK A   0      -8.216   8.965  68.863  1.00  0.00    -0.117 C  
BRANCH   7   8
HETATM    8  C   UNK A   0      -8.054   7.900  69.952  1.00  0.00    -0.118 C  
BRANCH   8   9
HETATM    9  C   UNK A   0      -9.352   7.791  70.724  1.00  0.00    -0.162 A  
HETATM   10  C   UNK A   0     -10.290   8.834  70.702  1.00  0.00    -0.253 A  
HETATM   11  C   UNK A   0     -11.527   8.688  71.333  1.00  0.00    -0.352 A  
HETATM   12  C   UNK A   0     -11.840   7.498  71.990  1.00  0.00    -0.331 A  
HETATM   13  C   UNK A   0      -9.679   6.600  71.388  1.00  0.00    -0.181 A  
HETATM   14  C   UNK A   0     -10.916   6.457  72.018  1.00  0.00    -0.289 A  
ENDBRANCH   8   9
ENDBRANCH   7   8
ENDBRANCH   6   7
BRANCH   6  15
ATOM     15  N   ALA A   1      -7.807   9.576  66.452  1.00  0.00    -0.097 NA 
ATOM     16  H   ALA A   1      -8.815   9.473  66.336  1.00  0.00     0.000 HD 
BRANCH  15  17
ATOM     17  CA  ALA A   1      -7.436  11.005  66.514  1.00  0.00    -0.145 C  
ATOM     18  CB  ALA A   1      -6.200  11.296  65.664  1.00  0.00     0.336 C  
BRANCH  17  19
ATOM     19  C   ALA A   1      -8.626  11.946  66.142  1.00  0.00     0.052 C  
HETATM   20  C   UNK A   2      -7.766  15.199  67.792  1.00  0.00    -0.149 C  
ATOM     21  O   ALA A   1      -9.622  11.567  65.523  1.00  0.00    -0.222 OA 
HETATM   22  C   UNK A   2      -8.989  15.564  66.949  1.00  0.00    -0.272 C  
HETATM   23  N   UNK A   2      -8.511  13.283  66.522  1.00  0.00    -0.399 N  
HETATM   24  S   UNK A   2      -6.267  16.096  67.218  1.00  0.00    -0.102 SA 
HETATM   25  C   UNK A   2      -5.901  16.979  68.755  1.00  0.00    -0.146 C  
HETATM   26  C   UNK A   2      -9.640  14.233  66.508  1.00  0.00    -0.297 C  
HETATM   27  C   UNK A   2      -7.571  13.694  67.567  1.00  0.00    -0.170 C  
HETATM   28  C   UNK A   2     -10.479  14.545  65.245  1.00  0.00    -0.390 C  
HETATM   29  C   UNK A   2      -6.366  16.140  69.926  1.00  0.00    -0.138 C  
HETATM   30  S   UNK A   2      -8.045  15.575  69.560  1.00  0.00    -0.128 SA 
HETATM   31  O   UNK A   2     -10.574  13.564  64.330  1.00  0.00    -0.419 OA 
HETATM   32  O   UNK A   2     -11.117  15.585  65.112  1.00  0.00    -0.376 OA 
ENDBRANCH  17  19
ENDBRANCH  15  17
ENDBRANCH   6  15
ENDBRANCH   4   6
ENDBRANCH   3   4
ENDBRANCH   2   3
TORSDOF 9
ENDMDL
MODEL      265
REMARK 921   NORMALIZED FREE ENERGY PREDICTED BY IDOCK:   -2.12 KCAL/MOL
REMARK 922        TOTAL FREE ENERGY PREDICTED BY IDOCK:   -4.58 KCAL/MOL
REMARK 923 INTER-LIGAND FREE ENERGY PREDICTED BY IDOCK:   -4.12 KCAL/MOL
REMARK 924 INTRA-LIGAND FREE ENERGY PREDICTED BY IDOCK:   -0.45 KCAL/MOL
REMARK 927      BINDING AFFINITY PREDICTED BY RF-SCORE:    0.00 PKD
ROOT
HETATM    1  C   UNK A   0      -6.912   4.862  66.586  1.00  0.00    -0.067 C  
HETATM    2  C   UNK A   0      -7.867   5.859  65.956  1.00  0.00    -0.105 C  
ENDROOT
BRANCH   2   3
HETATM    3  O   UNK A   0      -7.214   7.122  65.753  1.00  0.00    -0.070 OA 
BRANCH   3   4
HETATM    4  C   UNK A   0      -7.957   8.093  65.146  1.00  0.00    -0.126 C  
HETATM    5  O   UNK A   0      -8.168   8.173  63.941  1.00  0.00    -0.143 OA 
BRANCH   4   6
HETATM    6  C   UNK A   0      -8.513   9.077  66.192  1.00  0.00    -0.127 C  
BRANCH   6   7
HETATM    7  C   UNK A   0      -8.812  10.432  65.525  1.00  0.00    -0.193 C  
BRANCH   7   8
HETATM    8  C   UNK A   0      -8.311  11.661  66.289  1.00  0.00    -0.027 C  
BRANCH   8   9
HETATM    9  C   UNK A   0      -9.507  12.458  66.766  1.00  0.00    -0.228 A  
HETATM   10  C   UNK A   0     -10.450  12.952  65.854  1.00  0.00    -0.294 A  
HETATM   11  C   UNK A   0     -11.602  13.600  66.307  1.00  0.00    -0.372 A  
HETATM   12  C   UNK A   0     -11.822  13.759  67.675  1.00  0.00    -0.413 A  
HETATM   13  C   UNK A   0      -9.739  12.624  68.139  1.00  0.00    -0.219 A  
HETATM   14  C   UNK A   0     -10.891  13.273  68.589  1.00  0.00    -0.285 A  
ENDBRANCH   8   9
ENDBRANCH   7   8
ENDBRANCH   6   7
BRANCH   6  15
ATOM     15  N   ALA A   1      -7.512   9.195  67.295  1.00  0.00    -0.087 NA 
ATOM     16  H   ALA A   1      -7.537  10.130  67.702  1.00  0.00     0.000 HD 
BRANCH  15  17
ATOM     17  CA  ALA A   1      -7.655   8.168  68.347  1.00  0.00    -0.105 C  
ATOM     18  CB  ALA A   1      -6.417   8.110  69.241  1.00  0.00    -0.039 C  
BRANCH  17  19
ATOM     19  C   ALA A   1      -8.961   8.350  69.184  1.00  0.00    -0.147 C  
HETATM   20  C   UNK A   2      -9.492   5.002  70.784  1.00  0.00    -0.169 C  
ATOM     21  O   ALA A   1      -9.639   9.378  69.167  1.00  0.00    -0.156 OA 
HETATM   22  C   UNK A   2     -10.555   5.870  71.461  1.00  0.00    -0.300 C  
HETATM   23  N   UNK A   2      -9.337   7.283  70.001  1.00  0.00    -0.155 N  
HETATM   24  S   UNK A   2      -8.243   4.409  71.995  1.00  0.00    -0.101 SA 
HETATM   25  C   UNK A   2      -8.500   2.632  71.769  1.00  0.00    -0.064 C  
HETATM   26  C   UNK A   2     -10.667   7.168  70.629  1.00  0.00    -0.235 C  
HETATM   27  C   UNK A   2      -8.812   5.935  69.772  1.00  0.00    -0.128 C  
HETATM   28  C   UNK A   2     -11.265   8.246  71.566  1.00  0.00    -0.262 C  
HETATM   29  C   UNK A   2      -8.936   2.377  70.341  1.00  0.00    -0.094 C  
HETATM   30  S   UNK A   2     -10.248   3.559  69.952  1.00  0.00     1.273 SA 
HETATM   31  O   UNK A   2     -10.862   9.512  71.359  1.00  0.00    -0.347 OA 
HETATM   32  O   UNK A   2     -12.141   7.997  72.389  1.00  0.00    -0.340 OA 
ENDBRANCH  17  19
ENDBRANCH  15  17
ENDBRANCH   6  15
ENDBRANCH   4   6
ENDBRANCH   3   4
ENDBRANCH   2   3
TORSDOF 9
ENDMDL
MODEL      266
REMARK 921   NORMALIZED FREE ENERGY PREDICTED BY IDOCK:   -2.10 KCAL/MOL
REMARK 922        TOTAL FREE ENERGY PREDICTED BY IDOCK:   -4.55 KCAL/MOL
REMARK 923 INTER-LIGAND FREE ENERGY PREDICTED BY IDOCK:   -4.72 KCAL/MOL
REMARK 924 INTRA-LIGAND FREE ENERGY PREDICTED BY IDOCK:    0.17 KCAL/MOL
REMARK 927      BINDING AFFINITY PREDICTED BY RF-SCORE:    0.00 PKD
ROOT
HETATM    1  C   UNK A   0     -10.579   9.194  68.874  1.00  0.00    -0.214 C  
HETATM    2  C   UNK A   0     -10.136   7.805  68.454  1.00  0.00    -0.192 C  
ENDROOT
BRANCH   2   3
HETATM    3  O   UNK A   0      -8.778   7.567  68.858  1.00  0.00    -0.132 OA 
BRANCH   3   4
HETATM    4  C   UNK A   0      -7.823   8.310  68.228  1.00  0.00    -0.118 C  
HETATM    5  O   UNK A   0      -7.394   9.389  68.618  1.00  0.00    -0.074 OA 
BRANCH   4   6
HETATM    6  C   UNK A   0      -7.342   7.596  66.951  1.00  0.00    -0.090 C  
BRANCH   6   7
HETATM    7  C   UNK A   0      -5.823   7.358  67.029  1.00  0.00    -0.034 C  
BRANCH   7   8
HETATM    8  C   UNK A   0      -5.369   6.376  68.113  1.00  0.00    -0.008 C  
BRANCH   8   9
HETATM    9  C   UNK A   0      -5.960   5.014  67.815  1.00  0.00    -0.023 A  
HETATM   10  C   UNK A   0      -7.255   4.685  68.242  1.00  0.00    -0.065 A  
HETATM   11  C   UNK A   0      -7.832   3.466  67.879  1.00  0.00    -0.072 A  
HETATM   12  C   UNK A   0      -7.123   2.565  67.086  1.00  0.00    -0.052 A  
HETATM   13  C   UNK A   0      -5.256   4.100  67.018  1.00  0.00    -0.012 A  
HETATM   14  C   UNK A   0      -5.836   2.882  66.658  1.00  0.00    -0.023 A  
ENDBRANCH   8   9
ENDBRANCH   7   8
ENDBRANCH   6   7
BRANCH   6  15
ATOM     15  N   ALA A   1      -7.726   8.436  65.777  1.00  0.00    -0.091 NA 
ATOM     16  H   ALA A   1      -8.521   8.026  65.287  1.00  0.00     0.000 HD 
BRANCH  15  17
ATOM     17  CA  ALA A   1      -7.996   9.849  66.113  1.00  0.00    -0.109 C  
ATOM     18  CB  ALA A   1      -6.835  10.752  65.699  1.00  0.00    -0.023 C  
BRANCH  17  19
ATOM     19  C   ALA A   1      -9.353  10.352  65.526  1.00  0.00    -0.197 C  
HETATM   20  C   UNK A   2      -9.919  13.642  67.230  1.00  0.00    -0.240 C  
ATOM     21  O   ALA A   1     -10.048   9.685  64.758  1.00  0.00    -0.007 OA 
HETATM   22  C   UNK A   2     -11.037  13.608  66.186  1.00  0.00    -0.299 C  
HETATM   23  N   UNK A   2      -9.758  11.636  65.893  1.00  0.00    -0.229 N  
HETATM   24  S   UNK A   2      -8.735  15.008  66.898  1.00  0.00    -0.257 SA 
HETATM   25  C   UNK A   2      -8.946  15.905  68.456  1.00  0.00    -0.199 C  
HETATM   26  C   UNK A   2     -11.122  12.153  65.670  1.00  0.00    -0.316 C  
HETATM   27  C   UNK A   2      -9.196  12.297  67.073  1.00  0.00    -0.205 C  
HETATM   28  C   UNK A   2     -11.795  12.214  64.277  1.00  0.00    -0.378 C  
HETATM   29  C   UNK A   2      -9.289  14.916  69.549  1.00  0.00     0.023 C  
HETATM   30  S   UNK A   2     -10.596  13.837  68.918  1.00  0.00    -0.157 SA 
HETATM   31  O   UNK A   2     -11.404  11.292  63.380  1.00  0.00    -0.272 OA 
HETATM   32  O   UNK A   2     -12.714  12.985  64.018  1.00  0.00    -0.656 OA 
ENDBRANCH  17  19
ENDBRANCH  15  17
ENDBRANCH   6  15
ENDBRANCH   4   6
ENDBRANCH   3   4
ENDBRANCH   2   3
TORSDOF 9
ENDMDL
MODEL      267
REMARK 921   NORMALIZED FREE ENERGY PREDICTED BY IDOCK:   -1.78 KCAL/MOL
REMARK 922        TOTAL FREE ENERGY PREDICTED BY IDOCK:   -4.06 KCAL/MOL
REMARK 923 INTER-LIGAND FREE ENERGY PREDICTED BY IDOCK:   -6.37 KCAL/MOL
REMARK 924 INTRA-LIGAND FREE ENERGY PREDICTED BY IDOCK:    2.30 KCAL/MOL
REMARK 927      BINDING AFFINITY PREDICTED BY RF-SCORE:    0.00 PKD
ROOT
HETATM    1  C   UNK A   0      -5.205  12.756  70.426  1.00  0.00    -0.119 C  
HETATM    2  C   UNK A   0      -6.517  12.167  69.940  1.00  0.00    -0.009 C  
ENDROOT
BRANCH   2   3
HETATM    3  O   UNK A   0      -6.921  12.788  68.709  1.00  0.00    -0.091 OA 
BRANCH   3   4
HETATM    4  C   UNK A   0      -7.387  14.067  68.804  1.00  0.00    -0.127 C  
HETATM    5  O   UNK A   0      -6.690  15.076  68.813  1.00  0.00    -0.093 OA 
BRANCH   4   6
HETATM    6  C   UNK A   0      -8.924  14.074  68.887  1.00  0.00     0.060 C  
BRANCH   6   7
HETATM    7  C   UNK A   0      -9.368  14.476  70.305  1.00  0.00     1.359 C  
BRANCH   7   8
HETATM    8  C   UNK A   0     -10.480  15.527  70.369  1.00  0.00    -0.222 C  
BRANCH   8   9
HETATM    9  C   UNK A   0     -11.546  15.050  71.333  1.00  0.00    -0.397 A  
HETATM   10  C   UNK A   0     -11.745  15.698  72.561  1.00  0.00    -0.567 A  
HETATM   11  C   UNK A   0     -12.794  15.317  73.401  1.00  0.00    -0.667 A  
HETATM   12  C   UNK A   0     -13.655  14.288  73.022  1.00  0.00    -0.206 A  
HETATM   13  C   UNK A   0     -12.418  14.016  70.963  1.00  0.00    -0.444 A  
HETATM   14  C   UNK A   0     -13.465  13.637  71.805  1.00  0.00    -0.465 A  
ENDBRANCH   8   9
ENDBRANCH   7   8
ENDBRANCH   6   7
BRANCH   6  15
ATOM     15  N   ALA A   1      -9.415  12.716  68.502  1.00  0.00    -0.377 NA 
ATOM     16  H   ALA A   1     -10.371  12.575  68.829  1.00  0.00     0.000 HD 
BRANCH  15  17
ATOM     17  CA  ALA A   1      -9.314  12.429  67.056  1.00  0.00    -0.204 C  
ATOM     18  CB  ALA A   1      -9.292  10.925  66.788  1.00  0.00    -0.185 C  
BRANCH  17  19
ATOM     19  C   ALA A   1     -10.428  13.145  66.228  1.00  0.00    -0.285 C  
HETATM   20  C   UNK A   2      -9.615  16.788  66.565  1.00  0.00    -0.266 C  
ATOM     21  O   ALA A   1     -11.372  12.550  65.706  1.00  0.00    -0.306 OA 
HETATM   22  C   UNK A   2     -10.737  16.789  65.525  1.00  0.00    -0.206 C  
HETATM   23  N   UNK A   2     -10.302  14.525  66.069  1.00  0.00    -0.296 N  
HETATM   24  S   UNK A   2      -8.036  17.397  65.845  1.00  0.00     0.171 SA 
HETATM   25  C   UNK A   2      -7.789  18.811  66.947  1.00  0.00    -0.242 C  
HETATM   26  C   UNK A   2     -11.390  15.389  65.572  1.00  0.00    -0.164 C  
HETATM   27  C   UNK A   2      -9.453  15.315  66.964  1.00  0.00    -0.223 C  
HETATM   28  C   UNK A   2     -12.091  15.179  64.207  1.00  0.00    -0.261 C  
HETATM   29  C   UNK A   2      -8.394  18.492  68.298  1.00  0.00    -0.322 C  
HETATM   30  S   UNK A   2     -10.049  17.822  68.009  1.00  0.00    -0.376 SA 
HETATM   31  O   UNK A   2     -12.134  13.919  63.741  1.00  0.00    -0.475 OA 
HETATM   32  O   UNK A   2     -12.676  16.083  63.617  1.00  0.00    -0.360 OA 
ENDBRANCH  17  19
ENDBRANCH  15  17
ENDBRANCH   6  15
ENDBRANCH   4   6
ENDBRANCH   3   4
ENDBRANCH   2   3
TORSDOF 9
ENDMDL
MODEL      268
REMARK 921   NORMALIZED FREE ENERGY PREDICTED BY IDOCK:   -1.77 KCAL/MOL
REMARK 922        TOTAL FREE ENERGY PREDICTED BY IDOCK:   -4.05 KCAL/MOL
REMARK 923 INTER-LIGAND FREE ENERGY PREDICTED BY IDOCK:   -3.20 KCAL/MOL
REMARK 924 INTRA-LIGAND FREE ENERGY PREDICTED BY IDOCK:   -0.85 KCAL/MOL
REMARK 927      BINDING AFFINITY PREDICTED BY RF-SCORE:    0.00 PKD
ROOT
HETATM    1  C   UNK A   0      -6.741   4.873  71.309  1.00  0.00    -0.039 C  
HETATM    2  C   UNK A   0      -6.994   5.511  69.956  1.00  0.00    -0.061 C  
ENDROOT
BRANCH   2   3
HETATM    3  O   UNK A   0      -7.594   6.806  70.115  1.00  0.00    -0.094 OA 
BRANCH   3   4
HETATM    4  C   UNK A   0      -7.157   7.781  69.265  1.00  0.00    -0.076 C  
HETATM    5  O   UNK A   0      -7.128   7.693  68.043  1.00  0.00    -0.080 OA 
BRANCH   4   6
HETATM    6  C   UNK A   0      -6.712   9.024  70.056  1.00  0.00    -0.044 C  
BRANCH   6   7
HETATM    7  C   UNK A   0      -7.460   9.080  71.401  1.00  0.00    -0.071 C  
BRANCH   7   8
HETATM    8  C   UNK A   0      -8.948   9.428  71.308  1.00  0.00     0.081 C  
BRANCH   8   9
HETATM    9  C   UNK A   0      -9.740   8.388  72.073  1.00  0.00    -0.353 A  
HETATM   10  C   UNK A   0     -10.724   7.622  71.432  1.00  0.00    -0.247 A  
HETATM   11  C   UNK A   0     -11.381   6.596  72.117  1.00  0.00    -0.309 A  
HETATM   12  C   UNK A   0     -11.060   6.327  73.446  1.00  0.00    -0.071 A  
HETATM   13  C   UNK A   0      -9.427   8.108  73.411  1.00  0.00    -0.237 A  
HETATM   14  C   UNK A   0     -10.086   7.084  74.093  1.00  0.00    -0.290 A  
ENDBRANCH   8   9
ENDBRANCH   7   8
ENDBRANCH   6   7
BRANCH   6  15
ATOM     15  N   ALA A   1      -6.974  10.229  69.211  1.00  0.00    -0.064 NA 
ATOM     16  H   ALA A   1      -7.968  10.309  68.999  1.00  0.00     0.000 HD 
BRANCH  15  17
ATOM     17  CA  ALA A   1      -6.464  11.489  69.790  1.00  0.00    -0.125 C  
ATOM     18  CB  ALA A   1      -5.136  11.272  70.513  1.00  0.00    -0.096 C  
BRANCH  17  19
ATOM     19  C   ALA A   1      -6.361  12.633  68.730  1.00  0.00    -0.080 C  
HETATM   20  C   UNK A   2      -9.727  14.278  68.837  1.00  0.00    -0.115 C  
ATOM     21  O   ALA A   1      -5.379  12.799  68.006  1.00  0.00    -0.074 OA 
HETATM   22  C   UNK A   2      -8.926  15.212  67.928  1.00  0.00    -0.174 C  
HETATM   23  N   UNK A   2      -7.445  13.507  68.643  1.00  0.00    -0.116 N  
HETATM   24  S   UNK A   2     -10.232  15.126  70.388  1.00  0.00     0.274 SA 
HETATM   25  C   UNK A   2     -12.023  14.954  70.196  1.00  0.00    -0.317 C  
HETATM   26  C   UNK A   2      -7.642  14.450  67.526  1.00  0.00    -0.193 C  
HETATM   27  C   UNK A   2      -8.759  13.137  69.177  1.00  0.00     0.668 C  
HETATM   28  C   UNK A   2      -6.599  15.520  67.118  1.00  0.00     0.070 C  
HETATM   29  C   UNK A   2     -12.313  13.681  69.429  1.00  0.00    -0.153 C  
HETATM   30  S   UNK A   2     -11.220  13.650  67.989  1.00  0.00    -0.283 SA 
HETATM   31  O   UNK A   2      -5.311  15.231  67.373  1.00  0.00    -0.336 OA 
HETATM   32  O   UNK A   2      -6.900  16.536  66.498  1.00  0.00    -0.192 OA 
ENDBRANCH  17  19
ENDBRANCH  15  17
ENDBRANCH   6  15
ENDBRANCH   4   6
ENDBRANCH   3   4
ENDBRANCH   2   3
TORSDOF 9
ENDMDL
MODEL      269
REMARK 921   NORMALIZED FREE ENERGY PREDICTED BY IDOCK:   -1.77 KCAL/MOL
REMARK 922        TOTAL FREE ENERGY PREDICTED BY IDOCK:   -4.05 KCAL/MOL
REMARK 923 INTER-LIGAND FREE ENERGY PREDICTED BY IDOCK:   -3.61 KCAL/MOL
REMARK 924 INTRA-LIGAND FREE ENERGY PREDICTED BY IDOCK:   -0.43 KCAL/MOL
REMARK 927      BINDING AFFINITY PREDICTED BY RF-SCORE:    0.00 PKD
ROOT
HETATM    1  C   UNK A   0     -13.294   9.315  72.026  1.00  0.00    -0.518 C  
HETATM    2  C   UNK A   0     -11.883   8.764  71.935  1.00  0.00    -0.367 C  
ENDROOT
BRANCH   2   3
HETATM    3  O   UNK A   0     -11.882   7.345  72.156  1.00  0.00    -0.283 OA 
BRANCH   3   4
HETATM    4  C   UNK A   0     -11.752   6.563  71.045  1.00  0.00    -0.343 C  
HETATM    5  O   UNK A   0     -12.459   5.601  70.769  1.00  0.00     1.569 OA 
BRANCH   4   6
HETATM    6  C   UNK A   0     -10.593   7.067  70.166  1.00  0.00    -0.228 C  
BRANCH   6   7
HETATM    7  C   UNK A   0     -11.123   7.445  68.771  1.00  0.00     0.104 C  
BRANCH   7   8
HETATM    8  C   UNK A   0     -10.229   8.391  67.965  1.00  0.00    -0.263 C  
BRANCH   8   9
HETATM    9  C   UNK A   0     -10.810   9.788  68.032  1.00  0.00    -0.276 A  
HETATM   10  C   UNK A   0     -11.178  10.353  69.262  1.00  0.00    -0.304 A  
HETATM   11  C   UNK A   0     -11.620  11.676  69.330  1.00  0.00    -0.385 A  
HETATM   12  C   UNK A   0     -11.696  12.447  68.170  1.00  0.00    -0.408 A  
HETATM   13  C   UNK A   0     -10.892  10.573  66.873  1.00  0.00    -0.252 A  
HETATM   14  C   UNK A   0     -11.334  11.895  66.944  1.00  0.00    -0.392 A  
ENDBRANCH   8   9
ENDBRANCH   7   8
ENDBRANCH   6   7
BRANCH   6  15
ATOM     15  N   ALA A   1      -9.555   5.993  70.107  1.00  0.00    -0.160 NA 
ATOM     16  H   ALA A   1      -9.286   5.808  69.141  1.00  0.00     0.000 HD 
BRANCH  15  17
ATOM     17  CA  ALA A   1      -8.362   6.266  70.934  1.00  0.00    -0.127 C  
ATOM     18  CB  ALA A   1      -7.444   5.047  71.007  1.00  0.00    -0.077 C  
BRANCH  17  19
ATOM     19  C   ALA A   1      -7.590   7.540  70.465  1.00  0.00    -0.085 C  
HETATM   20  C   UNK A   2      -6.634   6.774  66.924  1.00  0.00    -0.044 C  
ATOM     21  O   ALA A   1      -7.324   8.485  71.211  1.00  0.00    -0.074 OA 
HETATM   22  C   UNK A   2      -6.236   8.244  67.068  1.00  0.00    -0.055 C  
HETATM   23  N   UNK A   2      -7.218   7.590  69.122  1.00  0.00    -0.082 N  
HETATM   24  S   UNK A   2      -7.977   6.563  65.686  1.00  0.00    -0.121 SA 
HETATM   25  C   UNK A   2      -7.096   5.470  64.544  1.00  0.00    -0.050 C  
HETATM   26  C   UNK A   2      -6.252   8.564  68.580  1.00  0.00    -0.053 C  
HETATM   27  C   UNK A   2      -7.156   6.372  68.309  1.00  0.00    -0.083 C  
HETATM   28  C   UNK A   2      -6.423  10.098  68.708  1.00  0.00    -0.052 C  
HETATM   29  C   UNK A   2      -6.109   4.633  65.331  1.00  0.00    -0.026 C  
HETATM   30  S   UNK A   2      -5.203   5.747  66.431  1.00  0.00    -0.009 SA 
HETATM   31  O   UNK A   2      -7.107  10.539  69.778  1.00  0.00    -0.126 OA 
HETATM   32  O   UNK A   2      -5.882  10.891  67.943  1.00  0.00    -0.046 OA 
ENDBRANCH  17  19
ENDBRANCH  15  17
ENDBRANCH   6  15
ENDBRANCH   4   6
ENDBRANCH   3   4
ENDBRANCH   2   3
TORSDOF 9
ENDMDL
MODEL      270
REMARK 921   NORMALIZED FREE ENERGY PREDICTED BY IDOCK:   -1.75 KCAL/MOL
REMARK 922        TOTAL FREE ENERGY PREDICTED BY IDOCK:   -4.01 KCAL/MOL
REMARK 923 INTER-LIGAND FREE ENERGY PREDICTED BY IDOCK:   -4.44 KCAL/MOL
REMARK 924 INTRA-LIGAND FREE ENERGY PREDICTED BY IDOCK:    0.42 KCAL/MOL
REMARK 927      BINDING AFFINITY PREDICTED BY RF-SCORE:    0.00 PKD
ROOT
HETATM    1  C   UNK A   0      -5.161  12.444  71.367  1.00  0.00    -0.085 C  
HETATM    2  C   UNK A   0      -6.221  11.686  70.588  1.00  0.00     0.269 C  
ENDROOT
BRANCH   2   3
HETATM    3  O   UNK A   0      -6.210  12.083  69.207  1.00  0.00    -0.078 OA 
BRANCH   3   4
HETATM    4  C   UNK A   0      -7.049  13.105  68.868  1.00  0.00    -0.075 C  
HETATM    5  O   UNK A   0      -6.829  14.295  69.059  1.00  0.00    -0.098 OA 
BRANCH   4   6
HETATM    6  C   UNK A   0      -8.319  12.555  68.193  1.00  0.00    -0.175 C  
BRANCH   6   7
HETATM    7  C   UNK A   0      -9.393  12.268  69.257  1.00  0.00     0.803 C  
BRANCH   7   8
HETATM    8  C   UNK A   0     -10.759  12.909  68.998  1.00  0.00    -0.132 C  
BRANCH   8   9
HETATM    9  C   UNK A   0     -11.676  12.591  70.160  1.00  0.00    -0.255 A  
HETATM   10  C   UNK A   0     -12.431  13.599  70.776  1.00  0.00    -0.432 A  
HETATM   11  C   UNK A   0     -13.349  13.284  71.781  1.00  0.00    -0.479 A  
HETATM   12  C   UNK A   0     -13.522  11.959  72.178  1.00  0.00    -0.300 A  
HETATM   13  C   UNK A   0     -11.859  11.262  70.569  1.00  0.00    -0.421 A  
HETATM   14  C   UNK A   0     -12.776  10.950  71.574  1.00  0.00    -0.533 A  
ENDBRANCH   8   9
ENDBRANCH   7   8
ENDBRANCH   6   7
BRANCH   6  15
ATOM     15  N   ALA A   1      -7.941  11.330  67.423  1.00  0.00    -0.126 NA 
ATOM     16  H   ALA A   1      -8.584  10.565  67.629  1.00  0.00     0.000 HD 
BRANCH  15  17
ATOM     17  CA  ALA A   1      -7.841  11.545  65.965  1.00  0.00     0.217 C  
ATOM     18  CB  ALA A   1      -6.792  10.628  65.338  1.00  0.00    -0.020 C  
BRANCH  17  19
ATOM     19  C   ALA A   1      -9.223  11.413  65.247  1.00  0.00    -0.129 C  
HETATM   20  C   UNK A   2     -10.837  14.757  65.757  1.00  0.00    -0.331 C  
ATOM     21  O   ALA A   1      -9.628  10.363  64.747  1.00  0.00    -0.241 OA 
HETATM   22  C   UNK A   2     -11.797  14.065  64.787  1.00  0.00    -0.415 C  
HETATM   23  N   UNK A   2     -10.000  12.568  65.166  1.00  0.00    -0.417 N  
HETATM   24  S   UNK A   2     -10.051  16.229  64.985  1.00  0.00     0.593 SA 
HETATM   25  C   UNK A   2     -10.649  17.474  66.155  1.00  0.00    -0.211 C  
HETATM   26  C   UNK A   2     -11.425  12.565  64.786  1.00  0.00    -0.323 C  
HETATM   27  C   UNK A   2      -9.758  13.707  66.056  1.00  0.00    -0.222 C  
HETATM   28  C   UNK A   2     -11.954  11.977  63.455  1.00  0.00    -0.471 C  
HETATM   29  C   UNK A   2     -10.808  16.831  67.516  1.00  0.00    -0.216 C  
HETATM   30  S   UNK A   2     -11.699  15.274  67.285  1.00  0.00     0.050 SA 
HETATM   31  O   UNK A   2     -11.239  10.974  62.916  1.00  0.00     0.335 OA 
HETATM   32  O   UNK A   2     -13.021  12.320  62.955  1.00  0.00    -0.516 OA 
ENDBRANCH  17  19
ENDBRANCH  15  17
ENDBRANCH   6  15
ENDBRANCH   4   6
ENDBRANCH   3   4
ENDBRANCH   2   3
TORSDOF 9
ENDMDL
MODEL      271
REMARK 921   NORMALIZED FREE ENERGY PREDICTED BY IDOCK:   -1.73 KCAL/MOL
REMARK 922        TOTAL FREE ENERGY PREDICTED BY IDOCK:   -3.99 KCAL/MOL
REMARK 923 INTER-LIGAND FREE ENERGY PREDICTED BY IDOCK:   -4.06 KCAL/MOL
REMARK 924 INTRA-LIGAND FREE ENERGY PREDICTED BY IDOCK:    0.07 KCAL/MOL
REMARK 927      BINDING AFFINITY PREDICTED BY RF-SCORE:    0.00 PKD
ROOT
HETATM    1  C   UNK A   0      -5.466  10.866  66.278  1.00  0.00    -0.120 C  
HETATM    2  C   UNK A   0      -6.249  11.086  67.559  1.00  0.00    -0.054 C  
ENDROOT
BRANCH   2   3
HETATM    3  O   UNK A   0      -7.442  10.285  67.563  1.00  0.00    -0.089 OA 
BRANCH   3   4
HETATM    4  C   UNK A   0      -7.327   9.038  68.105  1.00  0.00    -0.083 C  
HETATM    5  O   UNK A   0      -6.681   8.758  69.108  1.00  0.00    -0.049 OA 
BRANCH   4   6
HETATM    6  C   UNK A   0      -8.140   8.019  67.285  1.00  0.00    -0.121 C  
BRANCH   6   7
HETATM    7  C   UNK A   0      -7.371   7.649  66.004  1.00  0.00    -0.077 C  
BRANCH   7   8
HETATM    8  C   UNK A   0      -8.241   7.377  64.773  1.00  0.00    -0.060 C  
BRANCH   8   9
HETATM    9  C   UNK A   0      -8.050   5.936  64.350  1.00  0.00    -0.128 A  
HETATM   10  C   UNK A   0      -8.350   4.885  65.227  1.00  0.00    -0.131 A  
HETATM   11  C   UNK A   0      -8.267   3.557  64.798  1.00  0.00    -0.090 A  
HETATM   12  C   UNK A   0      -7.886   3.270  63.488  1.00  0.00    -0.076 A  
HETATM   13  C   UNK A   0      -7.667   5.634  63.035  1.00  0.00    -0.084 A  
HETATM   14  C   UNK A   0      -7.584   4.307  62.609  1.00  0.00    -0.053 A  
ENDBRANCH   8   9
ENDBRANCH   7   8
ENDBRANCH   6   7
BRANCH   6  15
ATOM     15  N   ALA A   1      -9.476   8.621  66.991  1.00  0.00    -0.160 NA 
ATOM     16  H   ALA A   1      -9.657   8.618  65.987  1.00  0.00     0.000 HD 
BRANCH  15  17
ATOM     17  CA  ALA A   1     -10.593   7.988  67.721  1.00  0.00    -0.170 C  
ATOM     18  CB  ALA A   1     -10.804   6.543  67.271  1.00  0.00    -0.463 C  
BRANCH  17  19
ATOM     19  C   ALA A   1     -10.425   8.089  69.271  1.00  0.00    -0.215 C  
HETATM   20  C   UNK A   2      -8.756   4.871  70.218  1.00  0.00    -0.098 C  
ATOM     21  O   ALA A   1     -10.873   9.021  69.941  1.00  0.00    -0.228 OA 
HETATM   22  C   UNK A   2      -8.723   5.663  71.527  1.00  0.00    -0.133 C  
HETATM   23  N   UNK A   2      -9.706   7.068  69.892  1.00  0.00    -0.163 N  
HETATM   24  S   UNK A   2      -7.059   4.552  69.587  1.00  0.00    -0.051 SA 
HETATM   25  C   UNK A   2      -7.123   2.744  69.598  1.00  0.00    -0.040 C  
HETATM   26  C   UNK A   2      -9.695   6.853  71.351  1.00  0.00    -0.174 C  
HETATM   27  C   UNK A   2      -9.501   5.778  69.230  1.00  0.00    -0.129 C  
HETATM   28  C   UNK A   2      -9.262   7.935  72.371  1.00  0.00    -0.181 C  
HETATM   29  C   UNK A   2      -8.549   2.302  69.347  1.00  0.00    -0.061 C  
HETATM   30  S   UNK A   2      -9.620   3.274  70.434  1.00  0.00    -0.073 SA 
HETATM   31  O   UNK A   2      -9.451   9.215  72.005  1.00  0.00    -0.323 OA 
HETATM   32  O   UNK A   2      -8.863   7.661  73.499  1.00  0.00    -0.180 OA 
ENDBRANCH  17  19
ENDBRANCH  15  17
ENDBRANCH   6  15
ENDBRANCH   4   6
ENDBRANCH   3   4
ENDBRANCH   2   3
TORSDOF 9
ENDMDL
MODEL      272
REMARK 921   NORMALIZED FREE ENERGY PREDICTED BY IDOCK:   -1.68 KCAL/MOL
REMARK 922        TOTAL FREE ENERGY PREDICTED BY IDOCK:   -3.91 KCAL/MOL
REMARK 923 INTER-LIGAND FREE ENERGY PREDICTED BY IDOCK:   -4.06 KCAL/MOL
REMARK 924 INTRA-LIGAND FREE ENERGY PREDICTED BY IDOCK:    0.15 KCAL/MOL
REMARK 927      BINDING AFFINITY PREDICTED BY RF-SCORE:    0.00 PKD
ROOT
HETATM    1  C   UNK A   0      -7.534   7.934  64.937  1.00  0.00    -0.082 C  
HETATM    2  C   UNK A   0      -8.512   9.032  64.564  1.00  0.00    -0.175 C  
ENDROOT
BRANCH   2   3
HETATM    3  O   UNK A   0      -9.376   9.334  65.671  1.00  0.00    -0.217 OA 
BRANCH   3   4
HETATM    4  C   UNK A   0      -9.601  10.658  65.914  1.00  0.00    -0.205 C  
HETATM    5  O   UNK A   0      -8.778  11.555  65.769  1.00  0.00    -0.133 OA 
BRANCH   4   6
HETATM    6  C   UNK A   0     -11.050  10.879  66.388  1.00  0.00    -0.007 C  
BRANCH   6   7
HETATM    7  C   UNK A   0     -11.161  12.233  67.110  1.00  0.00    -0.330 C  
BRANCH   7   8
HETATM    8  C   UNK A   0     -11.968  13.305  66.371  1.00  0.00    -0.465 C  
BRANCH   8   9
HETATM    9  C   UNK A   0     -11.130  14.562  66.268  1.00  0.00    -0.332 A  
HETATM   10  C   UNK A   0     -11.371  15.503  65.257  1.00  0.00    -0.189 A  
HETATM   11  C   UNK A   0     -10.662  16.707  65.226  1.00  0.00    -0.219 A  
HETATM   12  C   UNK A   0      -9.708  16.981  66.205  1.00  0.00    -0.302 A  
HETATM   13  C   UNK A   0     -10.168  14.849  67.247  1.00  0.00    -0.241 A  
HETATM   14  C   UNK A   0      -9.461  16.052  67.213  1.00  0.00    -0.220 A  
ENDBRANCH   8   9
ENDBRANCH   7   8
ENDBRANCH   6   7
BRANCH   6  15
ATOM     15  N   ALA A   1     -11.429   9.733  67.270  1.00  0.00    -0.101 NA 
ATOM     16  H   ALA A   1     -11.005   8.867  66.934  1.00  0.00     0.000 HD 
BRANCH  15  17
ATOM     17  CA  ALA A   1     -11.113   9.945  68.697  1.00  0.00    -0.134 C  
ATOM     18  CB  ALA A   1     -11.852   8.944  69.585  1.00  0.00     0.701 C  
BRANCH  17  19
ATOM     19  C   ALA A   1      -9.576   9.935  68.976  1.00  0.00    -0.186 C  
HETATM   20  C   UNK A   2      -8.563   6.377  68.378  1.00  0.00    -0.115 C  
ATOM     21  O   ALA A   1      -8.958  10.916  69.393  1.00  0.00    -0.049 OA 
HETATM   22  C   UNK A   2      -7.218   7.082  68.566  1.00  0.00    -0.091 C  
HETATM   23  N   UNK A   2      -8.897   8.748  68.704  1.00  0.00    -0.137 N  
HETATM   24  S   UNK A   2      -8.731   5.699  66.677  1.00  0.00    -0.120 SA 
HETATM   25  C   UNK A   2      -8.937   3.957  67.122  1.00  0.00    -0.138 C  
HETATM   26  C   UNK A   2      -7.524   8.472  69.169  1.00  0.00    -0.088 C  
HETATM   27  C   UNK A   2      -9.614   7.476  68.590  1.00  0.00    -0.151 C  
HETATM   28  C   UNK A   2      -6.312   9.377  68.837  1.00  0.00    -0.043 C  
HETATM   29  C   UNK A   2      -9.620   3.873  68.471  1.00  0.00    -0.111 C  
HETATM   30  S   UNK A   2      -8.773   5.019  69.585  1.00  0.00    -0.091 SA 
HETATM   31  O   UNK A   2      -6.572  10.680  68.636  1.00  0.00    -0.054 OA 
HETATM   32  O   UNK A   2      -5.154   8.967  68.855  1.00  0.00    -0.033 OA 
ENDBRANCH  17  19
ENDBRANCH  15  17
ENDBRANCH   6  15
ENDBRANCH   4   6
ENDBRANCH   3   4
ENDBRANCH   2   3
TORSDOF 9
ENDMDL
MODEL      273
REMARK 921   NORMALIZED FREE ENERGY PREDICTED BY IDOCK:   -1.67 KCAL/MOL
REMARK 922        TOTAL FREE ENERGY PREDICTED BY IDOCK:   -3.89 KCAL/MOL
REMARK 923 INTER-LIGAND FREE ENERGY PREDICTED BY IDOCK:   -4.29 KCAL/MOL
REMARK 924 INTRA-LIGAND FREE ENERGY PREDICTED BY IDOCK:    0.39 KCAL/MOL
REMARK 927      BINDING AFFINITY PREDICTED BY RF-SCORE:    0.00 PKD
ROOT
HETATM    1  C   UNK A   0      -5.225   6.467  67.253  1.00  0.00    -0.008 C  
HETATM    2  C   UNK A   0      -5.788   7.726  66.618  1.00  0.00    -0.040 C  
ENDROOT
BRANCH   2   3
HETATM    3  O   UNK A   0      -7.061   8.055  67.196  1.00  0.00    -0.079 OA 
BRANCH   3   4
HETATM    4  C   UNK A   0      -7.472   9.348  67.049  1.00  0.00    -0.091 C  
HETATM    5  O   UNK A   0      -6.823  10.338  67.369  1.00  0.00    -0.075 OA 
BRANCH   4   6
HETATM    6  C   UNK A   0      -8.870   9.398  66.408  1.00  0.00    -0.145 C  
BRANCH   6   7
HETATM    7  C   UNK A   0      -9.712  10.499  67.078  1.00  0.00    -0.212 C  
BRANCH   7   8
HETATM    8  C   UNK A   0     -10.870  11.042  66.236  1.00  0.00    -0.234 C  
BRANCH   8   9
HETATM    9  C   UNK A   0     -10.797  12.554  66.223  1.00  0.00    -0.299 A  
HETATM   10  C   UNK A   0      -9.836  13.233  66.986  1.00  0.00    -0.242 A  
HETATM   11  C   UNK A   0      -9.708  14.621  66.893  1.00  0.00    -0.249 A  
HETATM   12  C   UNK A   0     -10.536  15.343  66.035  1.00  0.00    -0.330 A  
HETATM   13  C   UNK A   0     -11.624  13.291  65.363  1.00  0.00    -0.346 A  
HETATM   14  C   UNK A   0     -11.494  14.678  65.273  1.00  0.00    -0.361 A  
ENDBRANCH   8   9
ENDBRANCH   7   8
ENDBRANCH   6   7
BRANCH   6  15
ATOM     15  N   ALA A   1      -9.492   8.046  66.545  1.00  0.00    -0.203 NA 
ATOM     16  H   ALA A   1      -8.775   7.321  66.550  1.00  0.00     0.000 HD 
BRANCH  15  17
ATOM     17  CA  ALA A   1     -10.376   7.909  67.721  1.00  0.00    -0.226 C  
ATOM     18  CB  ALA A   1     -11.338   6.733  67.559  1.00  0.00    -0.064 C  
BRANCH  17  19
ATOM     19  C   ALA A   1      -9.577   7.819  69.060  1.00  0.00    -0.155 C  
HETATM   20  C   UNK A   2      -8.620   4.204  69.308  1.00  0.00    -0.078 C  
ATOM     21  O   ALA A   1      -9.442   8.769  69.833  1.00  0.00    -0.163 OA 
HETATM   22  C   UNK A   2      -7.846   4.836  70.468  1.00  0.00    -0.062 C  
HETATM   23  N   UNK A   2      -8.979   6.593  69.352  1.00  0.00    -0.134 N  
HETATM   24  S   UNK A   2      -7.480   3.517  68.040  1.00  0.00    -0.061 SA 
HETATM   25  C   UNK A   2      -8.027   1.794  68.119  1.00  0.00    -0.057 C  
HETATM   26  C   UNK A   2      -8.439   6.248  70.681  1.00  0.00    -0.134 C  
HETATM   27  C   UNK A   2      -9.420   5.361  68.695  1.00  0.00    -0.123 C  
HETATM   28  C   UNK A   2      -7.353   7.081  71.405  1.00  0.00    -0.080 C  
HETATM   29  C   UNK A   2      -9.495   1.762  68.490  1.00  0.00    -0.173 C  
HETATM   30  S   UNK A   2      -9.726   2.873  69.899  1.00  0.00     0.250 SA 
HETATM   31  O   UNK A   2      -7.315   8.395  71.121  1.00  0.00    -0.060 OA 
HETATM   32  O   UNK A   2      -6.625   6.610  72.274  1.00  0.00    -0.057 OA 
ENDBRANCH  17  19
ENDBRANCH  15  17
ENDBRANCH   6  15
ENDBRANCH   4   6
ENDBRANCH   3   4
ENDBRANCH   2   3
TORSDOF 9
ENDMDL
MODEL      274
REMARK 921   NORMALIZED FREE ENERGY PREDICTED BY IDOCK:   -1.66 KCAL/MOL
REMARK 922        TOTAL FREE ENERGY PREDICTED BY IDOCK:   -3.88 KCAL/MOL
REMARK 923 INTER-LIGAND FREE ENERGY PREDICTED BY IDOCK:   -4.80 KCAL/MOL
REMARK 924 INTRA-LIGAND FREE ENERGY PREDICTED BY IDOCK:    0.92 KCAL/MOL
REMARK 927      BINDING AFFINITY PREDICTED BY RF-SCORE:    0.00 PKD
ROOT
HETATM    1  C   UNK A   0      -6.329   5.739  69.748  1.00  0.00    -0.034 C  
HETATM    2  C   UNK A   0      -7.316   6.818  70.151  1.00  0.00    -0.085 C  
ENDROOT
BRANCH   2   3
HETATM    3  O   UNK A   0      -7.804   7.512  68.992  1.00  0.00    -0.115 OA 
BRANCH   3   4
HETATM    4  C   UNK A   0      -7.376   8.798  68.835  1.00  0.00    -0.078 C  
HETATM    5  O   UNK A   0      -6.574   9.371  69.564  1.00  0.00    -0.042 OA 
BRANCH   4   6
HETATM    6  C   UNK A   0      -8.032   9.436  67.597  1.00  0.00    -0.099 C  
BRANCH   6   7
HETATM    7  C   UNK A   0      -8.243   8.367  66.510  1.00  0.00    -0.105 C  
BRANCH   7   8
HETATM    8  C   UNK A   0      -6.967   7.687  66.004  1.00  0.00    -0.065 C  
BRANCH   8   9
HETATM    9  C   UNK A   0      -7.354   6.548  65.084  1.00  0.00    -0.078 A  
HETATM   10  C   UNK A   0      -7.527   6.763  63.710  1.00  0.00    -0.091 A  
HETATM   11  C   UNK A   0      -7.785   5.691  62.851  1.00  0.00    -0.083 A  
HETATM   12  C   UNK A   0      -7.870   4.395  63.359  1.00  0.00    -0.076 A  
HETATM   13  C   UNK A   0      -7.442   5.240  65.583  1.00  0.00    -0.081 A  
HETATM   14  C   UNK A   0      -7.701   4.171  64.723  1.00  0.00    -0.078 A  
ENDBRANCH   8   9
ENDBRANCH   7   8
ENDBRANCH   6   7
BRANCH   6  15
ATOM     15  N   ALA A   1      -7.155  10.554  67.131  1.00  0.00    -0.088 NA 
ATOM     16  H   ALA A   1      -7.110  10.573  66.113  1.00  0.00     0.000 HD 
BRANCH  15  17
ATOM     17  CA  ALA A   1      -7.541  11.878  67.658  1.00  0.00    -0.136 C  
ATOM     18  CB  ALA A   1      -6.478  12.932  67.349  1.00  0.00    -0.126 C  
BRANCH  17  19
ATOM     19  C   ALA A   1      -8.955  12.326  67.167  1.00  0.00    -0.192 C  
HETATM   20  C   UNK A   2      -8.832  16.068  67.324  1.00  0.00    -0.190 C  
ATOM     21  O   ALA A   1      -9.864  11.535  66.910  1.00  0.00    -0.194 OA 
HETATM   22  C   UNK A   2     -10.166  15.805  66.623  1.00  0.00    -0.290 C  
HETATM   23  N   UNK A   2      -9.156  13.696  66.999  1.00  0.00    -0.241 N  
HETATM   24  S   UNK A   2      -7.656  16.947  66.217  1.00  0.00    -0.198 SA 
HETATM   25  C   UNK A   2      -7.416  18.426  67.231  1.00  0.00    -0.217 C  
HETATM   26  C   UNK A   2     -10.488  14.307  66.823  1.00  0.00    -0.273 C  
HETATM   27  C   UNK A   2      -8.277  14.674  67.645  1.00  0.00    -0.171 C  
HETATM   28  C   UNK A   2     -11.468  13.907  65.693  1.00  0.00    -0.318 C  
HETATM   29  C   UNK A   2      -7.565  18.050  68.690  1.00  0.00    -0.290 C  
HETATM   30  S   UNK A   2      -9.067  17.055  68.846  1.00  0.00    -0.153 SA 
HETATM   31  O   UNK A   2     -11.378  12.645  65.238  1.00  0.00    -0.297 OA 
HETATM   32  O   UNK A   2     -12.358  14.653  65.293  1.00  0.00    -0.319 OA 
ENDBRANCH  17  19
ENDBRANCH  15  17
ENDBRANCH   6  15
ENDBRANCH   4   6
ENDBRANCH   3   4
ENDBRANCH   2   3
TORSDOF 9
ENDMDL
MODEL      275
REMARK 921   NORMALIZED FREE ENERGY PREDICTED BY IDOCK:   -1.55 KCAL/MOL
REMARK 922        TOTAL FREE ENERGY PREDICTED BY IDOCK:   -3.71 KCAL/MOL
REMARK 923 INTER-LIGAND FREE ENERGY PREDICTED BY IDOCK:   -3.69 KCAL/MOL
REMARK 924 INTRA-LIGAND FREE ENERGY PREDICTED BY IDOCK:   -0.02 KCAL/MOL
REMARK 927      BINDING AFFINITY PREDICTED BY RF-SCORE:    0.00 PKD
ROOT
HETATM    1  C   UNK A   0     -11.732  11.420  64.434  1.00  0.00     0.002 C  
HETATM    2  C   UNK A   0     -10.514  12.235  64.829  1.00  0.00    -0.296 C  
ENDROOT
BRANCH   2   3
HETATM    3  O   UNK A   0      -9.865  11.648  65.969  1.00  0.00    -0.216 OA 
BRANCH   3   4
HETATM    4  C   UNK A   0      -9.400  12.519  66.911  1.00  0.00    -0.219 C  
HETATM    5  O   UNK A   0      -8.565  13.394  66.715  1.00  0.00    -0.152 OA 
BRANCH   4   6
HETATM    6  C   UNK A   0     -10.085  12.261  68.266  1.00  0.00    -0.218 C  
BRANCH   6   7
HETATM    7  C   UNK A   0     -10.225  13.584  69.040  1.00  0.00     0.025 C  
BRANCH   7   8
HETATM    8  C   UNK A   0     -11.390  14.477  68.604  1.00  0.00    -0.300 C  
BRANCH   8   9
HETATM    9  C   UNK A   0     -10.958  15.925  68.699  1.00  0.00    -0.320 A  
HETATM   10  C   UNK A   0     -11.117  16.645  69.892  1.00  0.00    -0.125 A  
HETATM   11  C   UNK A   0     -10.626  17.948  70.005  1.00  0.00     1.114 A  
HETATM   12  C   UNK A   0      -9.969  18.542  68.928  1.00  0.00    -0.383 A  
HETATM   13  C   UNK A   0     -10.295  16.534  67.623  1.00  0.00    -0.291 A  
HETATM   14  C   UNK A   0      -9.806  17.836  67.739  1.00  0.00    -0.295 A  
ENDBRANCH   8   9
ENDBRANCH   7   8
ENDBRANCH   6   7
BRANCH   6  15
ATOM     15  N   ALA A   1      -9.273  11.251  69.011  1.00  0.00    -0.391 NA 
ATOM     16  H   ALA A   1      -9.817  10.844  69.771  1.00  0.00     0.000 HD 
BRANCH  15  17
ATOM     17  CA  ALA A   1      -8.703  10.190  68.154  1.00  0.00    -0.122 C  
ATOM     18  CB  ALA A   1      -7.193  10.070  68.349  1.00  0.00    -0.073 C  
BRANCH  17  19
ATOM     19  C   ALA A   1      -9.420   8.816  68.352  1.00  0.00    -0.141 C  
HETATM   20  C   UNK A   2      -7.535   6.476  66.113  1.00  0.00    -0.081 C  
ATOM     21  O   ALA A   1     -10.434   8.674  69.037  1.00  0.00    -0.216 OA 
HETATM   22  C   UNK A   2      -8.462   5.531  66.881  1.00  0.00    -0.110 C  
HETATM   23  N   UNK A   2      -8.842   7.712  67.726  1.00  0.00    -0.126 N  
HETATM   24  S   UNK A   2      -5.769   6.137  66.497  1.00  0.00    -0.017 SA 
HETATM   25  C   UNK A   2      -5.220   5.739  64.819  1.00  0.00    -0.010 C  
HETATM   26  C   UNK A   2      -9.528   6.415  67.569  1.00  0.00    -0.117 C  
HETATM   27  C   UNK A   2      -7.902   7.878  66.615  1.00  0.00    -0.102 C  
HETATM   28  C   UNK A   2     -10.087   5.594  68.757  1.00  0.00    -0.186 C  
HETATM   29  C   UNK A   2      -6.057   6.523  63.830  1.00  0.00    -0.034 C  
HETATM   30  S   UNK A   2      -7.791   6.330  64.308  1.00  0.00    -0.109 SA 
HETATM   31  O   UNK A   2     -10.471   6.292  69.840  1.00  0.00    -0.193 OA 
HETATM   32  O   UNK A   2     -10.276   4.383  68.695  1.00  0.00     0.013 OA 
ENDBRANCH  17  19
ENDBRANCH  15  17
ENDBRANCH   6  15
ENDBRANCH   4   6
ENDBRANCH   3   4
ENDBRANCH   2   3
TORSDOF 9
ENDMDL
MODEL      276
REMARK 921   NORMALIZED FREE ENERGY PREDICTED BY IDOCK:   -1.46 KCAL/MOL
REMARK 922        TOTAL FREE ENERGY PREDICTED BY IDOCK:   -3.57 KCAL/MOL
REMARK 923 INTER-LIGAND FREE ENERGY PREDICTED BY IDOCK:   -5.05 KCAL/MOL
REMARK 924 INTRA-LIGAND FREE ENERGY PREDICTED BY IDOCK:    1.47 KCAL/MOL
REMARK 927      BINDING AFFINITY PREDICTED BY RF-SCORE:    0.00 PKD
ROOT
HETATM    1  C   UNK A   0      -5.365   9.797  70.411  1.00  0.00    -0.039 C  
HETATM    2  C   UNK A   0      -5.219  11.307  70.440  1.00  0.00    -0.098 C  
ENDROOT
BRANCH   2   3
HETATM    3  O   UNK A   0      -6.509  11.938  70.418  1.00  0.00    -0.149 OA 
BRANCH   3   4
HETATM    4  C   UNK A   0      -7.358  11.537  69.428  1.00  0.00     0.053 C  
HETATM    5  O   UNK A   0      -8.009  10.498  69.431  1.00  0.00    -0.153 OA 
BRANCH   4   6
HETATM    6  C   UNK A   0      -7.401  12.583  68.300  1.00  0.00    -0.115 C  
BRANCH   6   7
HETATM    7  C   UNK A   0      -6.718  12.020  67.040  1.00  0.00    -0.099 C  
BRANCH   7   8
HETATM    8  C   UNK A   0      -6.243  10.568  67.148  1.00  0.00    -0.063 C  
BRANCH   8   9
HETATM    9  C   UNK A   0      -6.716   9.809  65.926  1.00  0.00    -0.091 A  
HETATM   10  C   UNK A   0      -5.896   8.849  65.316  1.00  0.00    -0.051 A  
HETATM   11  C   UNK A   0      -6.375   8.081  64.251  1.00  0.00    -0.061 A  
HETATM   12  C   UNK A   0      -7.677   8.264  63.788  1.00  0.00    -0.145 A  
HETATM   13  C   UNK A   0      -8.024   9.984  65.451  1.00  0.00    -0.141 A  
HETATM   14  C   UNK A   0      -8.500   9.216  64.387  1.00  0.00    -0.198 A  
ENDBRANCH   8   9
ENDBRANCH   7   8
ENDBRANCH   6   7
BRANCH   6  15
ATOM     15  N   ALA A   1      -6.738  13.828  68.796  1.00  0.00    -0.097 NA 
ATOM     16  H   ALA A   1      -5.751  13.835  68.538  1.00  0.00     0.000 HD 
BRANCH  15  17
ATOM     17  CA  ALA A   1      -7.398  15.075  68.358  1.00  0.00    -0.112 C  
ATOM     18  CB  ALA A   1      -7.470  15.160  66.834  1.00  0.00     0.085 C  
BRANCH  17  19
ATOM     19  C   ALA A   1      -8.804  15.266  69.012  1.00  0.00    -0.226 C  
HETATM   20  C   UNK A   2     -11.163  13.648  66.591  1.00  0.00    -0.313 C  
ATOM     21  O   ALA A   1      -8.988  15.912  70.045  1.00  0.00     0.150 OA 
HETATM   22  C   UNK A   2     -12.069  13.961  67.784  1.00  0.00    -0.328 C  
HETATM   23  N   UNK A   2      -9.880  14.641  68.382  1.00  0.00    -0.214 N  
HETATM   24  S   UNK A   2     -11.021  11.835  66.318  1.00  0.00    -0.299 SA 
HETATM   25  C   UNK A   2     -11.685  11.783  64.635  1.00  0.00    -0.164 C  
HETATM   26  C   UNK A   2     -11.291  14.944  68.689  1.00  0.00    -0.292 C  
HETATM   27  C   UNK A   2      -9.790  14.208  66.985  1.00  0.00    -0.258 C  
HETATM   28  C   UNK A   2     -11.902  14.821  70.106  1.00  0.00    -0.307 C  
HETATM   29  C   UNK A   2     -11.354  13.085  63.937  1.00  0.00    -0.410 C  
HETATM   30  S   UNK A   2     -11.787  14.434  65.062  1.00  0.00    -0.415 SA 
HETATM   31  O   UNK A   2     -11.062  15.006  71.140  1.00  0.00    -0.267 OA 
HETATM   32  O   UNK A   2     -13.104  14.669  70.299  1.00  0.00    -0.230 OA 
ENDBRANCH  17  19
ENDBRANCH  15  17
ENDBRANCH   6  15
ENDBRANCH   4   6
ENDBRANCH   3   4
ENDBRANCH   2   3
TORSDOF 9
ENDMDL
MODEL      277
REMARK 921   NORMALIZED FREE ENERGY PREDICTED BY IDOCK:   -1.44 KCAL/MOL
REMARK 922        TOTAL FREE ENERGY PREDICTED BY IDOCK:   -3.54 KCAL/MOL
REMARK 923 INTER-LIGAND FREE ENERGY PREDICTED BY IDOCK:   -3.36 KCAL/MOL
REMARK 924 INTRA-LIGAND FREE ENERGY PREDICTED BY IDOCK:   -0.18 KCAL/MOL
REMARK 927      BINDING AFFINITY PREDICTED BY RF-SCORE:    0.00 PKD
ROOT
HETATM    1  C   UNK A   0     -11.143  10.992  66.220  1.00  0.00    -0.106 C  
HETATM    2  C   UNK A   0     -10.159   9.993  66.799  1.00  0.00    -0.226 C  
ENDROOT
BRANCH   2   3
HETATM    3  O   UNK A   0     -10.114   8.806  65.992  1.00  0.00    -0.228 OA 
BRANCH   3   4
HETATM    4  C   UNK A   0      -8.871   8.344  65.670  1.00  0.00    -0.156 C  
HETATM    5  O   UNK A   0      -8.372   8.375  64.551  1.00  0.00    -0.166 OA 
BRANCH   4   6
HETATM    6  C   UNK A   0      -8.166   7.784  66.919  1.00  0.00    -0.116 C  
BRANCH   6   7
HETATM    7  C   UNK A   0      -6.644   7.973  66.786  1.00  0.00    -0.056 C  
BRANCH   7   8
HETATM    8  C   UNK A   0      -6.192   9.378  66.377  1.00  0.00    -0.064 C  
BRANCH   8   9
HETATM    9  C   UNK A   0      -6.097  10.240  67.618  1.00  0.00    -0.056 A  
HETATM   10  C   UNK A   0      -6.429  11.602  67.572  1.00  0.00    -0.087 A  
HETATM   11  C   UNK A   0      -6.436  12.370  68.740  1.00  0.00    -0.084 A  
HETATM   12  C   UNK A   0      -6.113  11.783  69.963  1.00  0.00    -0.158 A  
HETATM   13  C   UNK A   0      -5.774   9.662  68.854  1.00  0.00    -0.036 A  
HETATM   14  C   UNK A   0      -5.781  10.431  70.019  1.00  0.00    -0.055 A  
ENDBRANCH   8   9
ENDBRANCH   7   8
ENDBRANCH   6   7
BRANCH   6  15
ATOM     15  N   ALA A   1      -8.549   6.346  67.062  1.00  0.00    -0.111 NA 
ATOM     16  H   ALA A   1      -7.767   5.802  67.426  1.00  0.00     0.000 HD 
BRANCH  15  17
ATOM     17  CA  ALA A   1      -9.758   6.127  67.881  1.00  0.00    -0.116 C  
ATOM     18  CB  ALA A   1     -10.107   4.642  67.973  1.00  0.00    -0.077 C  
BRANCH  17  19
ATOM     19  C   ALA A   1      -9.647   6.780  69.296  1.00  0.00    -0.144 C  
HETATM   20  C   UNK A   2      -7.392   4.464  71.193  1.00  0.00    -0.048 C  
ATOM     21  O   ALA A   1     -10.284   7.779  69.633  1.00  0.00    -0.196 OA 
HETATM   22  C   UNK A   2      -7.545   5.645  72.154  1.00  0.00    -0.101 C  
HETATM   23  N   UNK A   2      -8.753   6.191  70.190  1.00  0.00    -0.139 N  
HETATM   24  S   UNK A   2      -5.653   4.286  70.626  1.00  0.00    -0.013 SA 
HETATM   25  C   UNK A   2      -5.357   2.613  71.250  1.00  0.00    -0.004 C  
HETATM   26  C   UNK A   2      -8.730   6.492  71.634  1.00  0.00    -0.132 C  
HETATM   27  C   UNK A   2      -8.281   4.818  69.993  1.00  0.00    -0.068 C  
HETATM   28  C   UNK A   2      -8.542   7.918  72.207  1.00  0.00    -0.145 C  
HETATM   29  C   UNK A   2      -6.662   1.845  71.231  1.00  0.00    -0.023 C  
HETATM   30  S   UNK A   2      -7.927   2.901  71.976  1.00  0.00    -0.055 SA 
HETATM   31  O   UNK A   2      -8.974   8.935  71.440  1.00  0.00    -0.217 OA 
HETATM   32  O   UNK A   2      -8.120   8.127  73.341  1.00  0.00    -0.174 OA 
ENDBRANCH  17  19
ENDBRANCH  15  17
ENDBRANCH   6  15
ENDBRANCH   4   6
ENDBRANCH   3   4
ENDBRANCH   2   3
TORSDOF 9
ENDMDL
MODEL      278
REMARK 921   NORMALIZED FREE ENERGY PREDICTED BY IDOCK:   -1.39 KCAL/MOL
REMARK 922        TOTAL FREE ENERGY PREDICTED BY IDOCK:   -3.47 KCAL/MOL
REMARK 923 INTER-LIGAND FREE ENERGY PREDICTED BY IDOCK:   -3.25 KCAL/MOL
REMARK 924 INTRA-LIGAND FREE ENERGY PREDICTED BY IDOCK:   -0.22 KCAL/MOL
REMARK 927      BINDING AFFINITY PREDICTED BY RF-SCORE:    0.00 PKD
ROOT
HETATM    1  C   UNK A   0      -8.849  12.370  64.784  1.00  0.00     1.311 C  
HETATM    2  C   UNK A   0      -9.980  11.451  65.208  1.00  0.00    -0.258 C  
ENDROOT
BRANCH   2   3
HETATM    3  O   UNK A   0     -11.251  12.033  64.878  1.00  0.00    -0.314 OA 
BRANCH   3   4
HETATM    4  C   UNK A   0     -11.460  13.309  65.317  1.00  0.00    -0.295 C  
HETATM    5  O   UNK A   0     -11.573  14.295  64.599  1.00  0.00    -0.378 OA 
BRANCH   4   6
HETATM    6  C   UNK A   0     -11.552  13.340  66.854  1.00  0.00    -0.364 C  
BRANCH   6   7
HETATM    7  C   UNK A   0     -10.303  14.025  67.437  1.00  0.00    -0.259 C  
BRANCH   7   8
HETATM    8  C   UNK A   0     -10.573  15.292  68.254  1.00  0.00    -0.244 C  
BRANCH   8   9
HETATM    9  C   UNK A   0     -10.025  16.485  67.500  1.00  0.00    -0.255 A  
HETATM   10  C   UNK A   0     -10.627  16.921  66.311  1.00  0.00    -0.191 A  
HETATM   11  C   UNK A   0     -10.179  18.081  65.673  1.00  0.00     0.033 A  
HETATM   12  C   UNK A   0      -9.128  18.816  66.219  1.00  0.00    -0.250 A  
HETATM   13  C   UNK A   0      -8.968  17.233  68.039  1.00  0.00    -0.242 A  
HETATM   14  C   UNK A   0      -8.522  18.391  67.399  1.00  0.00    -0.257 A  
ENDBRANCH   8   9
ENDBRANCH   7   8
ENDBRANCH   6   7
BRANCH   6  15
ATOM     15  N   ALA A   1     -11.705  11.934  67.338  1.00  0.00    -0.566 NA 
ATOM     16  H   ALA A   1     -11.419  11.273  66.616  1.00  0.00     0.000 HD 
BRANCH  15  17
ATOM     17  CA  ALA A   1     -10.999  11.656  68.605  1.00  0.00    -0.220 C  
ATOM     18  CB  ALA A   1     -11.983  11.397  69.745  1.00  0.00    -0.422 C  
BRANCH  17  19
ATOM     19  C   ALA A   1      -9.961  10.496  68.467  1.00  0.00    -0.170 C  
HETATM   20  C   UNK A   2      -6.663  12.138  69.150  1.00  0.00    -0.100 C  
ATOM     21  O   ALA A   1     -10.263   9.357  68.108  1.00  0.00    -0.181 OA 
HETATM   22  C   UNK A   2      -6.292  10.655  69.085  1.00  0.00    -0.053 C  
HETATM   23  N   UNK A   2      -8.640  10.794  68.798  1.00  0.00    -0.150 N  
HETATM   24  S   UNK A   2      -6.366  12.829  70.828  1.00  0.00     1.074 SA 
HETATM   25  C   UNK A   2      -5.171  14.106  70.364  1.00  0.00    -0.101 C  
HETATM   26  C   UNK A   2      -7.500   9.921  68.459  1.00  0.00    -0.082 C  
HETATM   27  C   UNK A   2      -8.166  12.180  68.846  1.00  0.00     0.165 C  
HETATM   28  C   UNK A   2      -7.397   8.440  68.900  1.00  0.00    -0.090 C  
HETATM   29  C   UNK A   2      -5.479  14.579  68.959  1.00  0.00    -0.088 C  
HETATM   30  S   UNK A   2      -5.712  13.112  67.928  1.00  0.00    -0.130 SA 
HETATM   31  O   UNK A   2      -8.558   7.785  69.078  1.00  0.00    -0.134 OA 
HETATM   32  O   UNK A   2      -6.326   7.847  68.986  1.00  0.00    -0.035 OA 
ENDBRANCH  17  19
ENDBRANCH  15  17
ENDBRANCH   6  15
ENDBRANCH   4   6
ENDBRANCH   3   4
ENDBRANCH   2   3
TORSDOF 9
ENDMDL
MODEL      279
REMARK 921   NORMALIZED FREE ENERGY PREDICTED BY IDOCK:   -1.00 KCAL/MOL
REMARK 922        TOTAL FREE ENERGY PREDICTED BY IDOCK:   -2.88 KCAL/MOL
REMARK 923 INTER-LIGAND FREE ENERGY PREDICTED BY IDOCK:   -2.19 KCAL/MOL
REMARK 924 INTRA-LIGAND FREE ENERGY PREDICTED BY IDOCK:   -0.69 KCAL/MOL
REMARK 927      BINDING AFFINITY PREDICTED BY RF-SCORE:    0.00 PKD
ROOT
HETATM    1  C   UNK A   0     -13.297  13.909  66.189  1.00  0.00     1.134 C  
HETATM    2  C   UNK A   0     -12.381  12.743  66.511  1.00  0.00     0.069 C  
ENDROOT
BRANCH   2   3
HETATM    3  O   UNK A   0     -11.413  13.123  67.502  1.00  0.00    -0.291 OA 
BRANCH   3   4
HETATM    4  C   UNK A   0     -10.116  12.790  67.235  1.00  0.00    -0.226 C  
HETATM    5  O   UNK A   0      -9.581  12.856  66.134  1.00  0.00    -0.260 OA 
BRANCH   4   6
HETATM    6  C   UNK A   0      -9.404  12.330  68.520  1.00  0.00    -0.099 C  
BRANCH   6   7
HETATM    7  C   UNK A   0      -9.974  13.089  69.732  1.00  0.00     1.647 C  
BRANCH   7   8
HETATM    8  C   UNK A   0     -10.306  14.563  69.484  1.00  0.00    -0.028 C  
BRANCH   8   9
HETATM    9  C   UNK A   0     -11.428  14.973  70.414  1.00  0.00    -0.321 A  
HETATM   10  C   UNK A   0     -12.737  15.128  69.936  1.00  0.00    -0.128 A  
HETATM   11  C   UNK A   0     -13.785  15.409  70.816  1.00  0.00    -0.186 A  
HETATM   12  C   UNK A   0     -13.535  15.534  72.182  1.00  0.00    -0.587 A  
HETATM   13  C   UNK A   0     -11.190  15.102  71.790  1.00  0.00    -0.299 A  
HETATM   14  C   UNK A   0     -12.239  15.384  72.667  1.00  0.00    -0.516 A  
ENDBRANCH   8   9
ENDBRANCH   7   8
ENDBRANCH   6   7
BRANCH   6  15
ATOM     15  N   ALA A   1      -7.938  12.559  68.345  1.00  0.00    -0.164 NA 
ATOM     16  H   ALA A   1      -7.567  13.113  69.117  1.00  0.00     0.000 HD 
BRANCH  15  17
ATOM     17  CA  ALA A   1      -7.153  11.319  68.173  1.00  0.00    -0.071 C  
ATOM     18  CB  ALA A   1      -5.874  11.576  67.379  1.00  0.00    -0.081 C  
BRANCH  17  19
ATOM     19  C   ALA A   1      -6.854  10.611  69.533  1.00  0.00    -0.109 C  
HETATM   20  C   UNK A   2      -8.688   7.352  69.286  1.00  0.00    -0.137 C  
ATOM     21  O   ALA A   1      -6.226  11.143  70.450  1.00  0.00    -0.199 OA 
HETATM   22  C   UNK A   2      -7.884   7.187  70.578  1.00  0.00    -0.100 C  
HETATM   23  N   UNK A   2      -7.313   9.301  69.673  1.00  0.00    -0.064 N  
HETATM   24  S   UNK A   2      -8.150   6.146  68.006  1.00  0.00    -0.114 SA 
HETATM   25  C   UNK A   2      -9.733   5.297  67.783  1.00  0.00    -0.140 C  
HETATM   26  C   UNK A   2      -7.372   8.593  70.966  1.00  0.00    -0.083 C  
HETATM   27  C   UNK A   2      -8.370   8.774  68.806  1.00  0.00    -0.124 C  
HETATM   28  C   UNK A   2      -6.140   8.381  71.880  1.00  0.00    -0.055 C  
HETATM   29  C   UNK A   2     -10.857   6.278  68.046  1.00  0.00    -0.326 C  
HETATM   30  S   UNK A   2     -10.479   7.140  69.590  1.00  0.00    -0.234 SA 
HETATM   31  O   UNK A   2      -5.169   9.308  71.804  1.00  0.00    -0.048 OA 
HETATM   32  O   UNK A   2      -6.080   7.481  72.713  1.00  0.00    -0.049 OA 
ENDBRANCH  17  19
ENDBRANCH  15  17
ENDBRANCH   6  15
ENDBRANCH   4   6
ENDBRANCH   3   4
ENDBRANCH   2   3
TORSDOF 9
ENDMDL
MODEL      280
REMARK 921   NORMALIZED FREE ENERGY PREDICTED BY IDOCK:   -0.92 KCAL/MOL
REMARK 922        TOTAL FREE ENERGY PREDICTED BY IDOCK:   -2.75 KCAL/MOL
REMARK 923 INTER-LIGAND FREE ENERGY PREDICTED BY IDOCK:   -5.12 KCAL/MOL
REMARK 924 INTRA-LIGAND FREE ENERGY PREDICTED BY IDOCK:    2.37 KCAL/MOL
REMARK 927      BINDING AFFINITY PREDICTED BY RF-SCORE:    0.00 PKD
ROOT
HETATM    1  C   UNK A   0      -8.040   7.946  68.822  1.00  0.00    -0.126 C  
HETATM    2  C   UNK A   0      -7.880   6.545  69.382  1.00  0.00    -0.106 C  
ENDROOT
BRANCH   2   3
HETATM    3  O   UNK A   0      -8.182   6.527  70.786  1.00  0.00    -0.121 OA 
BRANCH   3   4
HETATM    4  C   UNK A   0      -8.133   7.730  71.428  1.00  0.00    -0.099 C  
HETATM    5  O   UNK A   0      -7.114   8.271  71.842  1.00  0.00    -0.074 OA 
BRANCH   4   6
HETATM    6  C   UNK A   0      -9.546   8.331  71.551  1.00  0.00    -0.188 C  
BRANCH   6   7
HETATM    7  C   UNK A   0     -10.312   7.631  72.687  1.00  0.00    -0.332 C  
BRANCH   7   8
HETATM    8  C   UNK A   0      -9.440   6.910  73.718  1.00  0.00    -0.237 C  
BRANCH   8   9
HETATM    9  C   UNK A   0      -9.438   5.428  73.405  1.00  0.00    -0.137 A  
HETATM   10  C   UNK A   0      -8.398   4.601  73.853  1.00  0.00    -0.104 A  
HETATM   11  C   UNK A   0      -8.452   3.220  73.647  1.00  0.00    -0.074 A  
HETATM   12  C   UNK A   0      -9.546   2.654  72.994  1.00  0.00    -0.142 A  
HETATM   13  C   UNK A   0     -10.533   4.847  72.749  1.00  0.00    -0.257 A  
HETATM   14  C   UNK A   0     -10.583   3.467  72.544  1.00  0.00    -0.069 A  
ENDBRANCH   8   9
ENDBRANCH   7   8
ENDBRANCH   6   7
BRANCH   6  15
ATOM     15  N   ALA A   1     -10.229   8.182  70.230  1.00  0.00    -0.197 NA 
ATOM     16  H   ALA A   1     -10.320   7.197  69.982  1.00  0.00     0.000 HD 
BRANCH  15  17
ATOM     17  CA  ALA A   1     -11.540   8.859  70.153  1.00  0.00     0.042 C  
ATOM     18  CB  ALA A   1     -12.500   8.334  71.220  1.00  0.00    -0.264 C  
BRANCH  17  19
ATOM     19  C   ALA A   1     -11.412  10.415  70.211  1.00  0.00    -0.325 C  
HETATM   20  C   UNK A   2      -9.935  11.330  66.890  1.00  0.00    -0.207 C  
ATOM     21  O   ALA A   1     -11.673  11.079  71.215  1.00  0.00    -0.062 OA 
HETATM   22  C   UNK A   2     -10.276  12.695  67.493  1.00  0.00    -0.215 C  
HETATM   23  N   UNK A   2     -11.001  11.054  69.041  1.00  0.00    -0.216 N  
HETATM   24  S   UNK A   2     -10.926  11.002  65.377  1.00  0.00     0.069 SA 
HETATM   25  C   UNK A   2      -9.553  10.818  64.213  1.00  0.00    -0.283 C  
HETATM   26  C   UNK A   2     -10.557  12.460  68.995  1.00  0.00    -0.049 C  
HETATM   27  C   UNK A   2     -10.319  10.316  67.976  1.00  0.00    -0.181 C  
HETATM   28  C   UNK A   2     -11.428  13.647  69.475  1.00  0.00    -0.263 C  
HETATM   29  C   UNK A   2      -8.355  10.259  64.953  1.00  0.00    -0.172 C  
HETATM   30  S   UNK A   2      -8.158  11.217  66.475  1.00  0.00    -0.152 SA 
HETATM   31  O   UNK A   2     -12.320  13.384  70.446  1.00  0.00    -0.336 OA 
HETATM   32  O   UNK A   2     -11.258  14.797  69.079  1.00  0.00    -0.244 OA 
ENDBRANCH  17  19
ENDBRANCH  15  17
ENDBRANCH   6  15
ENDBRANCH   4   6
ENDBRANCH   3   4
ENDBRANCH   2   3
TORSDOF 9
ENDMDL
MODEL      281
REMARK 921   NORMALIZED FREE ENERGY PREDICTED BY IDOCK:   -0.51 KCAL/MOL
REMARK 922        TOTAL FREE ENERGY PREDICTED BY IDOCK:   -2.12 KCAL/MOL
REMARK 923 INTER-LIGAND FREE ENERGY PREDICTED BY IDOCK:   -5.01 KCAL/MOL
REMARK 924 INTRA-LIGAND FREE ENERGY PREDICTED BY IDOCK:    2.89 KCAL/MOL
REMARK 927      BINDING AFFINITY PREDICTED BY RF-SCORE:    0.00 PKD
ROOT
HETATM    1  C   UNK A   0     -12.320  14.471  69.872  1.00  0.00    -0.347 C  
HETATM    2  C   UNK A   0     -12.252  14.875  68.411  1.00  0.00    -0.018 C  
ENDROOT
BRANCH   2   3
HETATM    3  O   UNK A   0     -11.026  14.416  67.819  1.00  0.00    -0.263 OA 
BRANCH   3   4
HETATM    4  C   UNK A   0     -11.138  13.797  66.607  1.00  0.00    -0.311 C  
HETATM    5  O   UNK A   0     -10.707  14.234  65.547  1.00  0.00    -0.302 OA 
BRANCH   4   6
HETATM    6  C   UNK A   0     -11.876  12.454  66.756  1.00  0.00    -0.315 C  
BRANCH   6   7
HETATM    7  C   UNK A   0     -11.819  11.988  68.222  1.00  0.00    -0.351 C  
BRANCH   7   8
HETATM    8  C   UNK A   0     -12.356  10.578  68.482  1.00  0.00     0.955 C  
BRANCH   8   9
HETATM    9  C   UNK A   0     -11.952  10.152  69.878  1.00  0.00    -0.156 A  
HETATM   10  C   UNK A   0     -12.904  10.061  70.904  1.00  0.00    -0.408 A  
HETATM   11  C   UNK A   0     -12.544   9.572  72.163  1.00  0.00    -0.411 A  
HETATM   12  C   UNK A   0     -11.232   9.168  72.406  1.00  0.00     0.186 A  
HETATM   13  C   UNK A   0     -10.636   9.742  70.136  1.00  0.00    -0.337 A  
HETATM   14  C   UNK A   0     -10.280   9.255  71.394  1.00  0.00    -0.371 A  
ENDBRANCH   8   9
ENDBRANCH   7   8
ENDBRANCH   6   7
BRANCH   6  15
ATOM     15  N   ALA A   1     -11.243  11.472  65.824  1.00  0.00    -0.223 NA 
ATOM     16  H   ALA A   1     -11.713  11.484  64.919  1.00  0.00     0.000 HD 
BRANCH  15  17
ATOM     17  CA  ALA A   1      -9.787  11.656  65.656  1.00  0.00    -0.240 C  
ATOM     18  CB  ALA A   1      -9.085  11.798  67.006  1.00  0.00    -0.187 C  
BRANCH  17  19
ATOM     19  C   ALA A   1      -9.140  10.532  64.786  1.00  0.00    -0.211 C  
HETATM   20  C   UNK A   2      -8.925   7.596  67.105  1.00  0.00    -0.126 C  
ATOM     21  O   ALA A   1      -8.737  10.713  63.636  1.00  0.00    -0.176 OA 
HETATM   22  C   UNK A   2      -8.520   6.991  65.759  1.00  0.00    -0.154 C  
HETATM   23  N   UNK A   2      -9.053   9.264  65.362  1.00  0.00    -0.213 N  
HETATM   24  S   UNK A   2     -10.492   6.860  67.725  1.00  0.00    -0.250 SA 
HETATM   25  C   UNK A   2      -9.853   6.183  69.277  1.00  0.00    -0.149 C  
HETATM   26  C   UNK A   2      -8.229   8.174  64.808  1.00  0.00    -0.133 C  
HETATM   27  C   UNK A   2      -9.147   9.086  66.813  1.00  0.00    -0.145 C  
HETATM   28  C   UNK A   2      -8.384   7.633  63.365  1.00  0.00     0.145 C  
HETATM   29  C   UNK A   2      -8.717   7.059  69.763  1.00  0.00    -0.142 C  
HETATM   30  S   UNK A   2      -7.616   7.354  68.359  1.00  0.00    -0.117 SA 
HETATM   31  O   UNK A   2      -8.838   8.502  62.445  1.00  0.00    -0.136 OA 
HETATM   32  O   UNK A   2      -8.020   6.508  63.036  1.00  0.00    -0.104 OA 
ENDBRANCH  17  19
ENDBRANCH  15  17
ENDBRANCH   6  15
ENDBRANCH   4   6
ENDBRANCH   3   4
ENDBRANCH   2   3
TORSDOF 9
ENDMDL
MODEL      282
REMARK 921   NORMALIZED FREE ENERGY PREDICTED BY IDOCK:   -0.49 KCAL/MOL
REMARK 922        TOTAL FREE ENERGY PREDICTED BY IDOCK:   -2.10 KCAL/MOL
REMARK 923 INTER-LIGAND FREE ENERGY PREDICTED BY IDOCK:   -5.85 KCAL/MOL
REMARK 924 INTRA-LIGAND FREE ENERGY PREDICTED BY IDOCK:    3.75 KCAL/MOL
REMARK 927      BINDING AFFINITY PREDICTED BY RF-SCORE:    0.00 PKD
ROOT
HETATM    1  C   UNK A   0     -11.890  14.375  64.760  1.00  0.00    -0.439 C  
HETATM    2  C   UNK A   0     -10.736  13.481  65.175  1.00  0.00    -0.341 C  
ENDROOT
BRANCH   2   3
HETATM    3  O   UNK A   0      -9.926  14.134  66.165  1.00  0.00    -0.292 OA 
BRANCH   3   4
HETATM    4  C   UNK A   0     -10.294  13.943  67.466  1.00  0.00    -0.245 C  
HETATM    5  O   UNK A   0     -11.360  14.294  67.958  1.00  0.00    -0.268 OA 
BRANCH   4   6
HETATM    6  C   UNK A   0      -9.182  13.207  68.236  1.00  0.00    -0.194 C  
BRANCH   6   7
HETATM    7  C   UNK A   0      -8.265  12.466  67.246  1.00  0.00    -0.184 C  
BRANCH   7   8
HETATM    8  C   UNK A   0      -6.766  12.726  67.422  1.00  0.00    -0.138 C  
BRANCH   8   9
HETATM    9  C   UNK A   0      -6.578  14.100  68.030  1.00  0.00    -0.156 A  
HETATM   10  C   UNK A   0      -6.751  15.256  67.257  1.00  0.00    -0.059 A  
HETATM   11  C   UNK A   0      -6.674  16.521  67.847  1.00  0.00    -0.154 A  
HETATM   12  C   UNK A   0      -6.425  16.640  69.213  1.00  0.00    -0.205 A  
HETATM   13  C   UNK A   0      -6.328  14.233  69.404  1.00  0.00    -0.120 A  
HETATM   14  C   UNK A   0      -6.250  15.498  69.990  1.00  0.00    -0.139 A  
ENDBRANCH   8   9
ENDBRANCH   7   8
ENDBRANCH   6   7
BRANCH   6  15
ATOM     15  N   ALA A   1      -9.831  12.280  69.213  1.00  0.00    -0.163 NA 
ATOM     16  H   ALA A   1     -10.440  12.796  69.847  1.00  0.00     0.000 HD 
BRANCH  15  17
ATOM     17  CA  ALA A   1     -10.566  11.164  68.582  1.00  0.00    -0.193 C  
ATOM     18  CB  ALA A   1     -11.538  11.669  67.518  1.00  0.00    -0.345 C  
BRANCH  17  19
ATOM     19  C   ALA A   1      -9.610  10.067  68.014  1.00  0.00    -0.138 C  
HETATM   20  C   UNK A   2      -9.327   7.574  70.799  1.00  0.00    -0.162 C  
ATOM     21  O   ALA A   1      -9.051  10.156  66.920  1.00  0.00    -0.141 OA 
HETATM   22  C   UNK A   2      -8.609   6.871  69.645  1.00  0.00    -0.134 C  
HETATM   23  N   UNK A   2      -9.422   8.930  68.801  1.00  0.00    -0.144 N  
HETATM   24  S   UNK A   2     -10.839   6.658  71.302  1.00  0.00    -0.247 SA 
HETATM   25  C   UNK A   2     -10.374   6.334  73.021  1.00  0.00    -0.212 C  
HETATM   26  C   UNK A   2      -8.352   7.943  68.561  1.00  0.00    -0.128 C  
HETATM   27  C   UNK A   2      -9.731   8.942  70.233  1.00  0.00    -0.185 C  
HETATM   28  C   UNK A   2      -8.172   7.187  67.222  1.00  0.00    -0.119 C  
HETATM   29  C   UNK A   2      -9.492   7.463  73.511  1.00  0.00    -0.256 C  
HETATM   30  S   UNK A   2      -8.229   7.755  72.250  1.00  0.00    -0.129 SA 
HETATM   31  O   UNK A   2      -8.595   7.819  66.113  1.00  0.00    -0.136 OA 
HETATM   32  O   UNK A   2      -7.583   6.113  67.141  1.00  0.00    -0.090 OA 
ENDBRANCH  17  19
ENDBRANCH  15  17
ENDBRANCH   6  15
ENDBRANCH   4   6
ENDBRANCH   3   4
ENDBRANCH   2   3
TORSDOF 9
ENDMDL
MODEL      283
REMARK 921   NORMALIZED FREE ENERGY PREDICTED BY IDOCK:   -0.27 KCAL/MOL
REMARK 922        TOTAL FREE ENERGY PREDICTED BY IDOCK:   -1.75 KCAL/MOL
REMARK 923 INTER-LIGAND FREE ENERGY PREDICTED BY IDOCK:   -5.42 KCAL/MOL
REMARK 924 INTRA-LIGAND FREE ENERGY PREDICTED BY IDOCK:    3.67 KCAL/MOL
REMARK 927      BINDING AFFINITY PREDICTED BY RF-SCORE:    0.00 PKD
ROOT
HETATM    1  C   UNK A   0     -12.050  14.235  64.303  1.00  0.00    -0.467 C  
HETATM    2  C   UNK A   0     -11.089  13.134  64.711  1.00  0.00    -0.330 C  
ENDROOT
BRANCH   2   3
HETATM    3  O   UNK A   0     -10.364  13.512  65.892  1.00  0.00    -0.286 OA 
BRANCH   3   4
HETATM    4  C   UNK A   0     -10.703  12.857  67.041  1.00  0.00    -0.257 C  
HETATM    5  O   UNK A   0     -11.812  12.869  67.562  1.00  0.00    -0.360 OA 
BRANCH   4   6
HETATM    6  C   UNK A   0      -9.493  12.081  67.594  1.00  0.00    -0.185 C  
BRANCH   6   7
HETATM    7  C   UNK A   0      -9.240  10.829  66.733  1.00  0.00    -0.174 C  
BRANCH   7   8
HETATM    8  C   UNK A   0      -7.813  10.679  66.200  1.00  0.00    -0.152 C  
BRANCH   8   9
HETATM    9  C   UNK A   0      -7.837   9.768  64.991  1.00  0.00    -0.128 A  
HETATM   10  C   UNK A   0      -7.717   8.378  65.138  1.00  0.00    -0.097 A  
HETATM   11  C   UNK A   0      -7.839   7.535  64.030  1.00  0.00    -0.127 A  
HETATM   12  C   UNK A   0      -8.086   8.073  62.768  1.00  0.00    -0.139 A  
HETATM   13  C   UNK A   0      -8.084  10.296  63.716  1.00  0.00    -0.143 A  
HETATM   14  C   UNK A   0      -8.205   9.452  62.611  1.00  0.00    -0.159 A  
ENDBRANCH   8   9
ENDBRANCH   7   8
ENDBRANCH   6   7
BRANCH   6  15
ATOM     15  N   ALA A   1      -9.774  11.740  69.022  1.00  0.00    -0.412 NA 
ATOM     16  H   ALA A   1     -10.122  12.557  69.523  1.00  0.00     0.000 HD 
BRANCH  15  17
ATOM     17  CA  ALA A   1     -10.690  10.594  69.196  1.00  0.00    -0.228 C  
ATOM     18  CB  ALA A   1     -12.096  10.926  68.699  1.00  0.00    -0.065 C  
BRANCH  17  19
ATOM     19  C   ALA A   1     -10.142   9.287  68.539  1.00  0.00    -0.190 C  
HETATM   20  C   UNK A   2      -7.437   8.159  70.875  1.00  0.00    -0.061 C  
ATOM     21  O   ALA A   1     -10.519   8.870  67.443  1.00  0.00    -0.258 OA 
HETATM   22  C   UNK A   2      -7.548   6.986  69.899  1.00  0.00    -0.102 C  
HETATM   23  N   UNK A   2      -9.195   8.568  69.268  1.00  0.00    -0.153 N  
HETATM   24  S   UNK A   2      -7.913   7.658  72.579  1.00  0.00    -0.117 SA 
HETATM   25  C   UNK A   2      -6.345   8.040  73.399  1.00  0.00    -0.089 C  
HETATM   26  C   UNK A   2      -8.373   7.488  68.691  1.00  0.00    -0.129 C  
HETATM   27  C   UNK A   2      -8.441   9.197  70.355  1.00  0.00    -0.199 C  
HETATM   28  C   UNK A   2      -8.969   6.233  68.008  1.00  0.00    -0.114 C  
HETATM   29  C   UNK A   2      -5.683   9.195  72.678  1.00  0.00    -0.030 C  
HETATM   30  S   UNK A   2      -5.739   8.836  70.906  1.00  0.00    -0.037 SA 
HETATM   31  O   UNK A   2     -10.170   6.381  67.423  1.00  0.00    -0.140 OA 
HETATM   32  O   UNK A   2      -8.349   5.178  67.902  1.00  0.00    -0.098 OA 
ENDBRANCH  17  19
ENDBRANCH  15  17
ENDBRANCH   6  15
ENDBRANCH   4   6
ENDBRANCH   3   4
ENDBRANCH   2   3
TORSDOF 9
ENDMDL
MODEL      284
REMARK 921   NORMALIZED FREE ENERGY PREDICTED BY IDOCK:   -0.06 KCAL/MOL
REMARK 922        TOTAL FREE ENERGY PREDICTED BY IDOCK:   -1.44 KCAL/MOL
REMARK 923 INTER-LIGAND FREE ENERGY PREDICTED BY IDOCK:   -3.44 KCAL/MOL
REMARK 924 INTRA-LIGAND FREE ENERGY PREDICTED BY IDOCK:    2.00 KCAL/MOL
REMARK 927      BINDING AFFINITY PREDICTED BY RF-SCORE:    0.00 PKD
ROOT
HETATM    1  C   UNK A   0      -6.190  14.241  73.571  1.00  0.00     0.724 C  
HETATM    2  C   UNK A   0      -5.150  14.475  72.492  1.00  0.00    -0.211 C  
ENDROOT
BRANCH   2   3
HETATM    3  O   UNK A   0      -5.315  13.532  71.421  1.00  0.00    -0.168 OA 
BRANCH   3   4
HETATM    4  C   UNK A   0      -6.051  13.957  70.353  1.00  0.00    -0.143 C  
HETATM    5  O   UNK A   0      -7.152  14.491  70.420  1.00  0.00     0.056 OA 
BRANCH   4   6
HETATM    6  C   UNK A   0      -5.297  13.686  69.038  1.00  0.00    -0.070 C  
BRANCH   6   7
HETATM    7  C   UNK A   0      -6.063  14.313  67.859  1.00  0.00    -0.157 C  
BRANCH   7   8
HETATM    8  C   UNK A   0      -7.339  15.071  68.237  1.00  0.00    -0.111 C  
BRANCH   8   9
HETATM    9  C   UNK A   0      -7.212  16.504  67.766  1.00  0.00    -0.156 A  
HETATM   10  C   UNK A   0      -7.836  16.930  66.585  1.00  0.00    -0.298 A  
HETATM   11  C   UNK A   0      -7.799  18.275  66.208  1.00  0.00    -0.279 A  
HETATM   12  C   UNK A   0      -7.139  19.206  67.009  1.00  0.00    -0.213 A  
HETATM   13  C   UNK A   0      -6.551  17.451  68.563  1.00  0.00    -0.184 A  
HETATM   14  C   UNK A   0      -6.515  18.794  68.184  1.00  0.00    -0.227 A  
ENDBRANCH   8   9
ENDBRANCH   7   8
ENDBRANCH   6   7
BRANCH   6  15
ATOM     15  N   ALA A   1      -5.140  12.207  68.891  1.00  0.00    -0.054 NA 
ATOM     16  H   ALA A   1      -4.501  11.842  69.597  1.00  0.00     0.000 HD 
BRANCH  15  17
ATOM     17  CA  ALA A   1      -6.417  11.463  68.913  1.00  0.00    -0.062 C  
ATOM     18  CB  ALA A   1      -6.711  10.821  67.558  1.00  0.00    -0.073 C  
BRANCH  17  19
ATOM     19  C   ALA A   1      -6.475  10.415  70.071  1.00  0.00    -0.126 C  
HETATM   20  C   UNK A   2      -8.686   7.702  68.733  1.00  0.00    -0.128 C  
ATOM     21  O   ALA A   1      -5.954  10.594  71.173  1.00  0.00    -0.320 OA 
HETATM   22  C   UNK A   2      -8.163   7.096  70.037  1.00  0.00    -0.136 C  
HETATM   23  N   UNK A   2      -7.137   9.218  69.800  1.00  0.00    -0.059 N  
HETATM   24  S   UNK A   2      -8.106   6.748  67.272  1.00  0.00    -0.118 SA 
HETATM   25  C   UNK A   2      -9.728   6.283  66.617  1.00  0.00    -0.155 C  
HETATM   26  C   UNK A   2      -7.532   8.253  70.844  1.00  0.00    -0.064 C  
HETATM   27  C   UNK A   2      -8.084   9.112  68.687  1.00  0.00    -0.102 C  
HETATM   28  C   UNK A   2      -6.531   7.609  71.835  1.00  0.00    -0.042 C  
HETATM   29  C   UNK A   2     -10.727   7.367  66.965  1.00  0.00    -0.319 C  
HETATM   30  S   UNK A   2     -10.514   7.761  68.718  1.00  0.00    -0.142 SA 
HETATM   31  O   UNK A   2      -5.439   8.331  72.139  1.00  0.00    -0.035 OA 
HETATM   32  O   UNK A   2      -6.754   6.545  72.405  1.00  0.00    -0.062 OA 
ENDBRANCH  17  19
ENDBRANCH  15  17
ENDBRANCH   6  15
ENDBRANCH   4   6
ENDBRANCH   3   4
ENDBRANCH   2   3
TORSDOF 9
ENDMDL
MODEL      285
REMARK 921   NORMALIZED FREE ENERGY PREDICTED BY IDOCK:    0.14 KCAL/MOL
REMARK 922        TOTAL FREE ENERGY PREDICTED BY IDOCK:   -1.13 KCAL/MOL
REMARK 923 INTER-LIGAND FREE ENERGY PREDICTED BY IDOCK:   -2.56 KCAL/MOL
REMARK 924 INTRA-LIGAND FREE ENERGY PREDICTED BY IDOCK:    1.44 KCAL/MOL
REMARK 927      BINDING AFFINITY PREDICTED BY RF-SCORE:    0.00 PKD
ROOT
HETATM    1  C   UNK A   0      -6.267  14.284  73.836  1.00  0.00     0.648 C  
HETATM    2  C   UNK A   0      -5.271  14.520  72.716  1.00  0.00    -0.186 C  
ENDROOT
BRANCH   2   3
HETATM    3  O   UNK A   0      -5.474  13.573  71.655  1.00  0.00    -0.227 OA 
BRANCH   3   4
HETATM    4  C   UNK A   0      -6.275  13.982  70.629  1.00  0.00    -0.096 C  
HETATM    5  O   UNK A   0      -7.385  14.486  70.754  1.00  0.00     0.641 OA 
BRANCH   4   6
HETATM    6  C   UNK A   0      -5.582  13.736  69.276  1.00  0.00    -0.080 C  
BRANCH   6   7
HETATM    7  C   UNK A   0      -6.439  14.319  68.138  1.00  0.00    -0.135 C  
BRANCH   7   8
HETATM    8  C   UNK A   0      -7.764  14.951  68.574  1.00  0.00    -0.123 C  
BRANCH   8   9
HETATM    9  C   UNK A   0      -8.884  14.358  67.744  1.00  0.00    -0.186 A  
HETATM   10  C   UNK A   0      -8.769  14.260  66.351  1.00  0.00     0.116 A  
HETATM   11  C   UNK A   0      -9.761  13.622  65.601  1.00  0.00    -0.119 A  
HETATM   12  C   UNK A   0     -10.875  13.077  66.237  1.00  0.00    -0.295 A  
HETATM   13  C   UNK A   0     -10.009  13.806  68.373  1.00  0.00    -0.229 A  
HETATM   14  C   UNK A   0     -10.999  13.171  67.621  1.00  0.00    -0.282 A  
ENDBRANCH   8   9
ENDBRANCH   7   8
ENDBRANCH   6   7
BRANCH   6  15
ATOM     15  N   ALA A   1      -5.366  12.264  69.127  1.00  0.00    -0.062 NA 
ATOM     16  H   ALA A   1      -4.677  11.933  69.802  1.00  0.00     0.000 HD 
BRANCH  15  17
ATOM     17  CA  ALA A   1      -6.605  11.464  69.215  1.00  0.00    -0.106 C  
ATOM     18  CB  ALA A   1      -7.001  10.899  67.852  1.00  0.00    -0.073 C  
BRANCH  17  19
ATOM     19  C   ALA A   1      -6.514  10.342  70.298  1.00  0.00    -0.141 C  
HETATM   20  C   UNK A   2      -8.716   7.615  68.974  1.00  0.00    -0.136 C  
ATOM     21  O   ALA A   1      -5.905  10.475  71.361  1.00  0.00    -0.314 OA 
HETATM   22  C   UNK A   2      -8.053   6.953  70.183  1.00  0.00    -0.127 C  
HETATM   23  N   UNK A   2      -7.145   9.134  70.005  1.00  0.00    -0.053 N  
HETATM   24  S   UNK A   2      -8.228   6.787  67.406  1.00  0.00    -0.122 SA 
HETATM   25  C   UNK A   2      -9.880   6.286  66.863  1.00  0.00    -0.156 C  
HETATM   26  C   UNK A   2      -7.402   8.085  71.010  1.00  0.00    -0.059 C  
HETATM   27  C   UNK A   2      -8.182   9.053  68.973  1.00  0.00    -0.119 C  
HETATM   28  C   UNK A   2      -6.290   7.429  71.864  1.00  0.00    -0.039 C  
HETATM   29  C   UNK A   2     -10.890   7.294  67.370  1.00  0.00    -0.247 C  
HETATM   30  S   UNK A   2     -10.539   7.585  69.121  1.00  0.00    -0.159 SA 
HETATM   31  O   UNK A   2      -5.207   8.183  72.121  1.00  0.00    -0.035 OA 
HETATM   32  O   UNK A   2      -6.414   6.321  72.377  1.00  0.00    -0.056 OA 
ENDBRANCH  17  19
ENDBRANCH  15  17
ENDBRANCH   6  15
ENDBRANCH   4   6
ENDBRANCH   3   4
ENDBRANCH   2   3
TORSDOF 9
ENDMDL
MODEL      286
REMARK 921   NORMALIZED FREE ENERGY PREDICTED BY IDOCK:    0.46 KCAL/MOL
REMARK 922        TOTAL FREE ENERGY PREDICTED BY IDOCK:   -0.64 KCAL/MOL
REMARK 923 INTER-LIGAND FREE ENERGY PREDICTED BY IDOCK:   -5.52 KCAL/MOL
REMARK 924 INTRA-LIGAND FREE ENERGY PREDICTED BY IDOCK:    4.88 KCAL/MOL
REMARK 927      BINDING AFFINITY PREDICTED BY RF-SCORE:    0.00 PKD
ROOT
HETATM    1  C   UNK A   0     -12.447  14.547  69.944  1.00  0.00    -0.300 C  
HETATM    2  C   UNK A   0     -11.495  14.903  68.816  1.00  0.00    -0.307 C  
ENDROOT
BRANCH   2   3
HETATM    3  O   UNK A   0     -10.150  14.533  69.158  1.00  0.00    -0.214 OA 
BRANCH   3   4
HETATM    4  C   UNK A   0      -9.295  14.338  68.112  1.00  0.00    -0.206 C  
HETATM    5  O   UNK A   0      -8.208  14.886  67.975  1.00  0.00    -0.130 OA 
BRANCH   4   6
HETATM    6  C   UNK A   0      -9.881  13.315  67.122  1.00  0.00    -0.237 C  
BRANCH   6   7
HETATM    7  C   UNK A   0     -11.165  12.700  67.708  1.00  0.00    -0.319 C  
BRANCH   7   8
HETATM    8  C   UNK A   0     -11.512  11.299  67.196  1.00  0.00    -0.217 C  
BRANCH   8   9
HETATM    9  C   UNK A   0     -11.202  11.230  65.716  1.00  0.00    -0.084 A  
HETATM   10  C   UNK A   0     -11.934  11.990  64.793  1.00  0.00    -0.310 A  
HETATM   11  C   UNK A   0     -11.579  11.999  63.441  1.00  0.00    -0.495 A  
HETATM   12  C   UNK A   0     -10.489  11.250  63.001  1.00  0.00    -0.183 A  
HETATM   13  C   UNK A   0     -10.107  10.481  65.260  1.00  0.00    -0.369 A  
HETATM   14  C   UNK A   0      -9.755  10.491  63.909  1.00  0.00    -0.384 A  
ENDBRANCH   8   9
ENDBRANCH   7   8
ENDBRANCH   6   7
BRANCH   6  15
ATOM     15  N   ALA A   1      -8.834  12.286  66.845  1.00  0.00    -0.204 NA 
ATOM     16  H   ALA A   1      -8.200  12.607  66.113  1.00  0.00     0.000 HD 
BRANCH  15  17
ATOM     17  CA  ALA A   1      -8.075  11.865  68.040  1.00  0.00    -0.151 C  
ATOM     18  CB  ALA A   1      -9.009  11.526  69.201  1.00  0.00     0.264 C  
BRANCH  17  19
ATOM     19  C   ALA A   1      -7.086  10.694  67.737  1.00  0.00    -0.083 C  
HETATM   20  C   UNK A   2      -9.013   7.613  68.652  1.00  0.00    -0.133 C  
ATOM     21  O   ALA A   1      -5.921  10.869  67.378  1.00  0.00    -0.044 OA 
HETATM   22  C   UNK A   2      -7.757   7.040  67.992  1.00  0.00    -0.113 C  
HETATM   23  N   UNK A   2      -7.588   9.399  67.867  1.00  0.00    -0.087 N  
HETATM   24  S   UNK A   2     -10.521   7.210  67.680  1.00  0.00    -0.255 SA 
HETATM   25  C   UNK A   2     -11.403   6.284  68.961  1.00  0.00    -0.242 C  
HETATM   26  C   UNK A   2      -6.735   8.196  67.900  1.00  0.00    -0.065 C  
HETATM   27  C   UNK A   2      -8.800   9.133  68.646  1.00  0.00    -0.133 C  
HETATM   28  C   UNK A   2      -5.742   7.822  66.772  1.00  0.00    -0.032 C  
HETATM   29  C   UNK A   2     -11.017   6.834  70.318  1.00  0.00    -0.291 C  
HETATM   30  S   UNK A   2      -9.214   6.979  70.355  1.00  0.00    -0.155 SA 
HETATM   31  O   UNK A   2      -5.227   8.841  66.063  1.00  0.00    -0.030 OA 
HETATM   32  O   UNK A   2      -5.350   6.673  66.588  1.00  0.00    -0.012 OA 
ENDBRANCH  17  19
ENDBRANCH  15  17
ENDBRANCH   6  15
ENDBRANCH   4   6
ENDBRANCH   3   4
ENDBRANCH   2   3
TORSDOF 9
ENDMDL
MODEL      287
REMARK 921   NORMALIZED FREE ENERGY PREDICTED BY IDOCK:    1.33 KCAL/MOL
REMARK 922        TOTAL FREE ENERGY PREDICTED BY IDOCK:    0.69 KCAL/MOL
REMARK 923 INTER-LIGAND FREE ENERGY PREDICTED BY IDOCK:   -1.26 KCAL/MOL
REMARK 924 INTRA-LIGAND FREE ENERGY PREDICTED BY IDOCK:    1.95 KCAL/MOL
REMARK 927      BINDING AFFINITY PREDICTED BY RF-SCORE:    0.00 PKD
ROOT
HETATM    1  C   UNK A   0      -8.732  12.399  64.728  1.00  0.00     1.612 C  
HETATM    2  C   UNK A   0      -9.770  11.293  64.771  1.00  0.00    -0.256 C  
ENDROOT
BRANCH   2   3
HETATM    3  O   UNK A   0     -11.067  11.807  64.431  1.00  0.00    -0.316 OA 
BRANCH   3   4
HETATM    4  C   UNK A   0     -11.585  12.744  65.278  1.00  0.00    -0.344 C  
HETATM    5  O   UNK A   0     -11.855  13.900  64.975  1.00  0.00    -0.341 OA 
BRANCH   4   6
HETATM    6  C   UNK A   0     -11.799  12.141  66.679  1.00  0.00    -0.237 C  
BRANCH   6   7
HETATM    7  C   UNK A   0     -10.748  12.702  67.654  1.00  0.00    -0.239 C  
BRANCH   7   8
HETATM    8  C   UNK A   0     -11.050  12.482  69.139  1.00  0.00    -0.254 C  
BRANCH   8   9
HETATM    9  C   UNK A   0     -11.326  13.824  69.784  1.00  0.00    -0.200 A  
HETATM   10  C   UNK A   0     -12.457  14.012  70.591  1.00  0.00    -0.435 A  
HETATM   11  C   UNK A   0     -12.655  15.221  71.264  1.00  0.00    -0.449 A  
HETATM   12  C   UNK A   0     -11.723  16.251  71.137  1.00  0.00    -0.353 A  
HETATM   13  C   UNK A   0     -10.397  14.868  69.664  1.00  0.00    -0.144 A  
HETATM   14  C   UNK A   0     -10.597  16.074  70.336  1.00  0.00    -0.127 A  
ENDBRANCH   8   9
ENDBRANCH   7   8
ENDBRANCH   6   7
BRANCH   6  15
ATOM     15  N   ALA A   1     -11.726  10.653  66.560  1.00  0.00     0.454 NA 
ATOM     16  H   ALA A   1     -11.399  10.384  65.632  1.00  0.00     0.000 HD 
BRANCH  15  17
ATOM     17  CA  ALA A   1     -10.907  10.007  67.606  1.00  0.00    -0.278 C  
ATOM     18  CB  ALA A   1     -11.743   9.055  68.459  1.00  0.00     1.398 C  
BRANCH  17  19
ATOM     19  C   ALA A   1      -9.644   9.297  67.020  1.00  0.00    -0.171 C  
HETATM   20  C   UNK A   2      -6.796  11.500  68.059  1.00  0.00    -0.064 C  
ATOM     21  O   ALA A   1      -9.701   8.296  66.304  1.00  0.00    -0.230 OA 
HETATM   22  C   UNK A   2      -6.081  10.285  67.465  1.00  0.00    -0.053 C  
HETATM   23  N   UNK A   2      -8.405   9.836  67.365  1.00  0.00    -0.114 N  
HETATM   24  S   UNK A   2      -6.440  11.673  69.855  1.00  0.00    -0.022 SA 
HETATM   25  C   UNK A   2      -5.681  13.315  69.802  1.00  0.00    -0.114 C  
HETATM   26  C   UNK A   2      -7.145   9.478  66.686  1.00  0.00    -0.086 C  
HETATM   27  C   UNK A   2      -8.290  11.208  67.866  1.00  0.00    -0.129 C  
HETATM   28  C   UNK A   2      -6.614   8.028  66.580  1.00  0.00    -0.055 C  
HETATM   29  C   UNK A   2      -6.298  14.104  68.667  1.00  0.00    -0.089 C  
HETATM   30  S   UNK A   2      -6.305  13.040  67.204  1.00  0.00     0.477 SA 
HETATM   31  O   UNK A   2      -7.536   7.049  66.579  1.00  0.00    -0.078 OA 
HETATM   32  O   UNK A   2      -5.428   7.768  66.399  1.00  0.00    -0.024 OA 
ENDBRANCH  17  19
ENDBRANCH  15  17
ENDBRANCH   6  15
ENDBRANCH   4   6
ENDBRANCH   3   4
ENDBRANCH   2   3
TORSDOF 9
ENDMDL
MODEL      288
REMARK 921   NORMALIZED FREE ENERGY PREDICTED BY IDOCK:    1.68 KCAL/MOL
REMARK 922        TOTAL FREE ENERGY PREDICTED BY IDOCK:    1.22 KCAL/MOL
REMARK 923 INTER-LIGAND FREE ENERGY PREDICTED BY IDOCK:   -3.77 KCAL/MOL
REMARK 924 INTRA-LIGAND FREE ENERGY PREDICTED BY IDOCK:    4.99 KCAL/MOL
REMARK 927      BINDING AFFINITY PREDICTED BY RF-SCORE:    0.00 PKD
ROOT
HETATM    1  C   UNK A   0     -12.691  15.096  63.856  1.00  0.00     0.667 C  
HETATM    2  C   UNK A   0     -11.806  13.958  64.330  1.00  0.00    -0.429 C  
ENDROOT
BRANCH   2   3
HETATM    3  O   UNK A   0     -10.987  14.382  65.432  1.00  0.00    -0.309 OA 
BRANCH   3   4
HETATM    4  C   UNK A   0     -11.422  14.028  66.676  1.00  0.00    -0.364 C  
HETATM    5  O   UNK A   0     -12.549  13.629  66.946  1.00  0.00    -0.233 OA 
BRANCH   4   6
HETATM    6  C   UNK A   0     -10.288  14.184  67.706  1.00  0.00    -0.242 C  
BRANCH   6   7
HETATM    7  C   UNK A   0      -8.960  13.700  67.095  1.00  0.00    -0.235 C  
BRANCH   7   8
HETATM    8  C   UNK A   0      -8.230  14.724  66.221  1.00  0.00     0.707 C  
BRANCH   8   9
HETATM    9  C   UNK A   0      -7.932  15.953  67.054  1.00  0.00    -0.270 A  
HETATM   10  C   UNK A   0      -7.907  17.227  66.470  1.00  0.00    -0.322 A  
HETATM   11  C   UNK A   0      -7.731  18.366  67.260  1.00  0.00    -0.228 A  
HETATM   12  C   UNK A   0      -7.581  18.242  68.641  1.00  0.00    -0.311 A  
HETATM   13  C   UNK A   0      -7.779  15.841  68.444  1.00  0.00    -0.128 A  
HETATM   14  C   UNK A   0      -7.602  16.980  69.231  1.00  0.00    -0.055 A  
ENDBRANCH   8   9
ENDBRANCH   7   8
ENDBRANCH   6   7
BRANCH   6  15
ATOM     15  N   ALA A   1     -10.663  13.413  68.930  1.00  0.00    -0.352 NA 
ATOM     16  H   ALA A   1     -11.594  13.681  69.250  1.00  0.00     0.000 HD 
BRANCH  15  17
ATOM     17  CA  ALA A   1     -10.572  11.948  68.768  1.00  0.00    -0.206 C  
ATOM     18  CB  ALA A   1     -11.953  11.320  68.588  1.00  0.00    -0.314 C  
BRANCH  17  19
ATOM     19  C   ALA A   1      -9.599  11.536  67.617  1.00  0.00    -0.171 C  
HETATM   20  C   UNK A   2      -6.466  10.507  69.399  1.00  0.00    -0.062 C  
ATOM     21  O   ALA A   1      -9.872  11.660  66.422  1.00  0.00    -0.199 OA 
HETATM   22  C   UNK A   2      -6.175  10.107  67.951  1.00  0.00    -0.057 C  
HETATM   23  N   UNK A   2      -8.377  10.980  67.998  1.00  0.00    -0.120 N  
HETATM   24  S   UNK A   2      -6.534   9.036  70.499  1.00  0.00    -0.058 SA 
HETATM   25  C   UNK A   2      -5.192   9.501  71.621  1.00  0.00    -0.068 C  
HETATM   26  C   UNK A   2      -7.241  10.803  67.073  1.00  0.00    -0.109 C  
HETATM   27  C   UNK A   2      -7.850  11.168  69.352  1.00  0.00     0.073 C  
HETATM   28  C   UNK A   2      -7.330   9.993  65.756  1.00  0.00    -0.117 C  
HETATM   29  C   UNK A   2      -5.133  11.011  71.715  1.00  0.00     0.033 C  
HETATM   30  S   UNK A   2      -5.200  11.666  70.031  1.00  0.00    -0.089 SA 
HETATM   31  O   UNK A   2      -8.535   9.944  65.162  1.00  0.00    -0.135 OA 
HETATM   32  O   UNK A   2      -6.345   9.504  65.211  1.00  0.00    -0.068 OA 
ENDBRANCH  17  19
ENDBRANCH  15  17
ENDBRANCH   6  15
ENDBRANCH   4   6
ENDBRANCH   3   4
ENDBRANCH   2   3
TORSDOF 9
ENDMDL
MODEL      289
REMARK 921   NORMALIZED FREE ENERGY PREDICTED BY IDOCK:    3.49 KCAL/MOL
REMARK 922        TOTAL FREE ENERGY PREDICTED BY IDOCK:    3.99 KCAL/MOL
REMARK 923 INTER-LIGAND FREE ENERGY PREDICTED BY IDOCK:   -1.63 KCAL/MOL
REMARK 924 INTRA-LIGAND FREE ENERGY PREDICTED BY IDOCK:    5.61 KCAL/MOL
REMARK 927      BINDING AFFINITY PREDICTED BY RF-SCORE:    0.00 PKD
ROOT
HETATM    1  C   UNK A   0     -10.962   6.878  73.528  1.00  0.00    -0.153 C  
HETATM    2  C   UNK A   0     -10.502   7.229  72.126  1.00  0.00    -0.203 C  
ENDROOT
BRANCH   2   3
HETATM    3  O   UNK A   0      -9.534   8.290  72.165  1.00  0.00    -0.205 OA 
BRANCH   3   4
HETATM    4  C   UNK A   0      -9.118   8.770  70.956  1.00  0.00    -0.218 C  
HETATM    5  O   UNK A   0      -8.735   9.914  70.743  1.00  0.00    -0.072 OA 
BRANCH   4   6
HETATM    6  C   UNK A   0      -9.184   7.664  69.888  1.00  0.00    -0.147 C  
BRANCH   6   7
HETATM    7  C   UNK A   0      -9.940   6.444  70.445  1.00  0.00    -0.213 C  
BRANCH   7   8
HETATM    8  C   UNK A   0      -9.060   5.358  71.070  1.00  0.00    -0.167 C  
BRANCH   8   9
HETATM    9  C   UNK A   0      -8.814   4.277  70.038  1.00  0.00    -0.126 A  
HETATM   10  C   UNK A   0      -9.727   4.059  68.996  1.00  0.00    -0.161 A  
HETATM   11  C   UNK A   0      -9.447   3.129  67.992  1.00  0.00    -0.218 A  
HETATM   12  C   UNK A   0      -8.252   2.411  68.019  1.00  0.00    -0.075 A  
HETATM   13  C   UNK A   0      -7.616   3.547  70.055  1.00  0.00    -0.044 A  
HETATM   14  C   UNK A   0      -7.340   2.618  69.050  1.00  0.00    -0.044 A  
ENDBRANCH   8   9
ENDBRANCH   7   8
ENDBRANCH   6   7
BRANCH   6  15
ATOM     15  N   ALA A   1      -7.785   7.327  69.483  1.00  0.00    -0.110 NA 
ATOM     16  H   ALA A   1      -7.508   6.424  69.866  1.00  0.00     0.000 HD 
BRANCH  15  17
ATOM     17  CA  ALA A   1      -7.558   7.363  68.023  1.00  0.00    -0.114 C  
ATOM     18  CB  ALA A   1      -6.326   6.548  67.631  1.00  0.00    -0.043 C  
BRANCH  17  19
ATOM     19  C   ALA A   1      -8.820   6.924  67.213  1.00  0.00    -0.118 C  
HETATM   20  C   UNK A   2      -7.474   4.551  64.644  1.00  0.00    -0.072 C  
ATOM     21  O   ALA A   1      -9.942   7.396  67.400  1.00  0.00    -0.154 OA 
HETATM   22  C   UNK A   2      -8.987   4.413  64.467  1.00  0.00    -0.151 C  
HETATM   23  N   UNK A   2      -8.635   5.927  66.255  1.00  0.00    -0.127 N  
HETATM   24  S   UNK A   2      -6.723   2.976  65.224  1.00  0.00    -0.041 SA 
HETATM   25  C   UNK A   2      -5.597   2.709  63.832  1.00  0.00    -0.009 C  
HETATM   26  C   UNK A   2      -9.633   5.599  65.220  1.00  0.00     0.372 C  
HETATM   27  C   UNK A   2      -7.302   5.621  65.730  1.00  0.00    -0.073 C  
HETATM   28  C   UNK A   2     -11.090   5.183  65.539  1.00  0.00     0.452 C  
HETATM   29  C   UNK A   2      -5.175   4.053  63.278  1.00  0.00    -0.005 C  
HETATM   30  S   UNK A   2      -6.668   5.055  63.082  1.00  0.00    -0.030 SA 
HETATM   31  O   UNK A   2     -11.617   5.667  66.677  1.00  0.00     0.562 OA 
HETATM   32  O   UNK A   2     -11.780   4.533  64.759  1.00  0.00     0.084 OA 
ENDBRANCH  17  19
ENDBRANCH  15  17
ENDBRANCH   6  15
ENDBRANCH   4   6
ENDBRANCH   3   4
ENDBRANCH   2   3
TORSDOF 9
ENDMDL
MODEL      290
REMARK 921   NORMALIZED FREE ENERGY PREDICTED BY IDOCK:    9.04 KCAL/MOL
REMARK 922        TOTAL FREE ENERGY PREDICTED BY IDOCK:   12.45 KCAL/MOL
REMARK 923 INTER-LIGAND FREE ENERGY PREDICTED BY IDOCK:    3.64 KCAL/MOL
REMARK 924 INTRA-LIGAND FREE ENERGY PREDICTED BY IDOCK:    8.81 KCAL/MOL
REMARK 927      BINDING AFFINITY PREDICTED BY RF-SCORE:    0.00 PKD
ROOT
HETATM    1  C   UNK A   0      -8.499   5.470  68.617  1.00  0.00    -0.104 C  
HETATM    2  C   UNK A   0      -9.170   6.250  69.732  1.00  0.00    -0.146 C  
ENDROOT
BRANCH   2   3
HETATM    3  O   UNK A   0      -8.308   7.299  70.202  1.00  0.00    -0.132 OA 
BRANCH   3   4
HETATM    4  C   UNK A   0      -7.658   8.019  69.242  1.00  0.00    -0.096 C  
HETATM    5  O   UNK A   0      -6.863   8.927  69.456  1.00  0.00    -0.046 OA 
BRANCH   4   6
HETATM    6  C   UNK A   0      -8.051   7.522  67.839  1.00  0.00    -0.119 C  
BRANCH   6   7
HETATM    7  C   UNK A   0      -8.195   8.721  66.884  1.00  0.00    -0.108 C  
BRANCH   7   8
HETATM    8  C   UNK A   0      -7.175   8.775  65.743  1.00  0.00    -0.084 C  
BRANCH   8   9
HETATM    9  C   UNK A   0      -7.538   7.727  64.713  1.00  0.00    -0.108 A  
HETATM   10  C   UNK A   0      -8.104   8.094  63.484  1.00  0.00    -0.113 A  
HETATM   11  C   UNK A   0      -8.345   7.134  62.499  1.00  0.00     0.023 A  
HETATM   12  C   UNK A   0      -8.021   5.798  62.732  1.00  0.00    -0.103 A  
HETATM   13  C   UNK A   0      -7.217   6.380  64.936  1.00  0.00    -0.067 A  
HETATM   14  C   UNK A   0      -7.459   5.422  63.950  1.00  0.00    -0.061 A  
ENDBRANCH   8   9
ENDBRANCH   7   8
ENDBRANCH   6   7
BRANCH   6  15
ATOM     15  N   ALA A   1      -9.319   6.739  67.963  1.00  0.00    -0.120 NA 
ATOM     16  H   ALA A   1      -9.497   6.498  68.938  1.00  0.00     0.000 HD 
BRANCH  15  17
ATOM     17  CA  ALA A   1     -10.496   7.407  67.370  1.00  0.00    -0.296 C  
ATOM     18  CB  ALA A   1     -11.287   6.451  66.478  1.00  0.00     0.484 C  
BRANCH  17  19
ATOM     19  C   ALA A   1     -11.408   8.075  68.448  1.00  0.00     0.859 C  
HETATM   20  C   UNK A   2     -11.073  11.746  67.777  1.00  0.00    -0.243 C  
ATOM     21  O   ALA A   1     -11.982   7.442  69.336  1.00  0.00     0.556 OA 
HETATM   22  C   UNK A   2     -12.185  11.697  68.827  1.00  0.00    -0.048 C  
HETATM   23  N   UNK A   2     -11.579   9.456  68.357  1.00  0.00    -0.014 N  
HETATM   24  S   UNK A   2     -11.695  12.398  66.175  1.00  0.00    -0.369 SA 
HETATM   25  C   UNK A   2     -10.600  13.834  66.047  1.00  0.00    -0.290 C  
HETATM   26  C   UNK A   2     -12.160  10.277  69.436  1.00  0.00     0.094 C  
HETATM   27  C   UNK A   2     -10.642  10.285  67.595  1.00  0.00    -0.263 C  
HETATM   28  C   UNK A   2     -13.565  10.027  70.037  1.00  0.00     1.117 C  
HETATM   29  C   UNK A   2      -9.288  13.513  66.732  1.00  0.00    -0.257 C  
HETATM   30  S   UNK A   2      -9.676  12.784  68.341  1.00  0.00    -0.140 SA 
HETATM   31  O   UNK A   2     -14.014   8.760  70.007  1.00  0.00     1.873 OA 
HETATM   32  O   UNK A   2     -14.207  10.903  70.610  1.00  0.00     1.959 OA 
ENDBRANCH  17  19
ENDBRANCH  15  17
ENDBRANCH   6  15
ENDBRANCH   4   6
ENDBRANCH   3   4
ENDBRANCH   2   3
TORSDOF 9
ENDMDL
MODEL      291
REMARK 921   NORMALIZED FREE ENERGY PREDICTED BY IDOCK:    9.71 KCAL/MOL
REMARK 922        TOTAL FREE ENERGY PREDICTED BY IDOCK:   13.48 KCAL/MOL
REMARK 923 INTER-LIGAND FREE ENERGY PREDICTED BY IDOCK:    5.26 KCAL/MOL
REMARK 924 INTRA-LIGAND FREE ENERGY PREDICTED BY IDOCK:    8.22 KCAL/MOL
REMARK 927      BINDING AFFINITY PREDICTED BY RF-SCORE:    0.00 PKD
ROOT
HETATM    1  C   UNK A   0      -6.721  10.694  69.428  1.00  0.00    -0.083 C  
HETATM    2  C   UNK A   0      -7.034   9.273  69.862  1.00  0.00    -0.061 C  
ENDROOT
BRANCH   2   3
HETATM    3  O   UNK A   0      -7.556   9.259  71.200  1.00  0.00    -0.261 OA 
BRANCH   3   4
HETATM    4  C   UNK A   0      -8.596   8.406  71.430  1.00  0.00    -0.164 C  
HETATM    5  O   UNK A   0      -8.563   7.436  72.179  1.00  0.00    -0.111 OA 
BRANCH   4   6
HETATM    6  C   UNK A   0      -9.835   8.840  70.626  1.00  0.00    -0.194 C  
BRANCH   6   7
HETATM    7  C   UNK A   0      -9.412   9.272  69.210  1.00  0.00    -0.160 C  
BRANCH   7   8
HETATM    8  C   UNK A   0      -9.185   8.129  68.217  1.00  0.00    -0.134 C  
BRANCH   8   9
HETATM    9  C   UNK A   0      -8.224   8.598  67.145  1.00  0.00    -0.107 A  
HETATM   10  C   UNK A   0      -6.855   8.310  67.233  1.00  0.00    -0.070 A  
HETATM   11  C   UNK A   0      -5.989   8.659  66.193  1.00  0.00    -0.048 A  
HETATM   12  C   UNK A   0      -6.484   9.295  65.056  1.00  0.00    -0.070 A  
HETATM   13  C   UNK A   0      -8.710   9.239  65.996  1.00  0.00    -0.175 A  
HETATM   14  C   UNK A   0      -7.843   9.587  64.959  1.00  0.00    -0.117 A  
ENDBRANCH   8   9
ENDBRANCH   7   8
ENDBRANCH   6   7
BRANCH   6  15
ATOM     15  N   ALA A   1     -10.514   9.940  71.376  1.00  0.00    -0.054 NA 
ATOM     16  H   ALA A   1     -10.101  10.049  72.303  1.00  0.00     0.000 HD 
BRANCH  15  17
ATOM     17  CA  ALA A   1     -10.531  11.232  70.661  1.00  0.00     2.153 C  
ATOM     18  CB  ALA A   1      -9.157  11.901  70.687  1.00  0.00     6.668 C  
BRANCH  17  19
ATOM     19  C   ALA A   1     -11.078  11.099  69.204  1.00  0.00    -0.248 C  
HETATM   20  C   UNK A   2     -10.426  14.458  67.675  1.00  0.00    -0.245 C  
ATOM     21  O   ALA A   1     -11.667  10.099  68.790  1.00  0.00    -0.060 OA 
HETATM   22  C   UNK A   2     -10.900  13.631  66.478  1.00  0.00    -0.283 C  
HETATM   23  N   UNK A   2     -10.851  12.176  68.347  1.00  0.00    -0.214 N  
HETATM   24  S   UNK A   2      -8.680  14.995  67.468  1.00  0.00    -0.195 SA 
HETATM   25  C   UNK A   2      -8.959  16.782  67.530  1.00  0.00    -0.205 C  
HETATM   26  C   UNK A   2     -11.533  12.342  67.050  1.00  0.00    -0.354 C  
HETATM   27  C   UNK A   2     -10.522  13.504  68.873  1.00  0.00    -0.126 C  
HETATM   28  C   UNK A   2     -11.487  11.285  65.919  1.00  0.00     0.223 C  
HETATM   29  C   UNK A   2     -10.155  17.061  68.416  1.00  0.00    -0.302 C  
HETATM   30  S   UNK A   2     -11.479  15.934  67.917  1.00  0.00    -0.102 SA 
HETATM   31  O   UNK A   2     -11.334  10.004  66.300  1.00  0.00     0.480 OA 
HETATM   32  O   UNK A   2     -11.683  11.565  64.740  1.00  0.00    -0.117 OA 
ENDBRANCH  17  19
ENDBRANCH  15  17
ENDBRANCH   6  15
ENDBRANCH   4   6
ENDBRANCH   3   4
ENDBRANCH   2   3
TORSDOF 9
ENDMDL
MODEL      292
REMARK 921   NORMALIZED FREE ENERGY PREDICTED BY IDOCK:   11.70 KCAL/MOL
REMARK 922        TOTAL FREE ENERGY PREDICTED BY IDOCK:   16.51 KCAL/MOL
REMARK 923 INTER-LIGAND FREE ENERGY PREDICTED BY IDOCK:    7.84 KCAL/MOL
REMARK 924 INTRA-LIGAND FREE ENERGY PREDICTED BY IDOCK:    8.67 KCAL/MOL
REMARK 927      BINDING AFFINITY PREDICTED BY RF-SCORE:    0.00 PKD
ROOT
HETATM    1  C   UNK A   0      -8.367  12.762  65.013  1.00  0.00     3.071 C  
HETATM    2  C   UNK A   0      -9.806  12.407  64.689  1.00  0.00    -0.076 C  
ENDROOT
BRANCH   2   3
HETATM    3  O   UNK A   0     -10.453  13.497  64.014  1.00  0.00    -0.273 OA 
BRANCH   3   4
HETATM    4  C   UNK A   0     -10.472  14.690  64.677  1.00  0.00    -0.175 C  
HETATM    5  O   UNK A   0     -10.118  15.766  64.210  1.00  0.00     0.502 OA 
BRANCH   4   6
HETATM    6  C   UNK A   0     -11.020  14.502  66.104  1.00  0.00    -0.322 C  
BRANCH   6   7
HETATM    7  C   UNK A   0      -9.869  14.603  67.121  1.00  0.00    -0.237 C  
BRANCH   7   8
HETATM    8  C   UNK A   0     -10.072  13.817  68.420  1.00  0.00    -0.241 C  
BRANCH   8   9
HETATM    9  C   UNK A   0     -10.394  14.791  69.534  1.00  0.00    -0.127 A  
HETATM   10  C   UNK A   0     -11.420  14.519  70.450  1.00  0.00    -0.259 A  
HETATM   11  C   UNK A   0     -11.647  15.371  71.534  1.00  0.00    -0.475 A  
HETATM   12  C   UNK A   0     -10.849  16.500  71.713  1.00  0.00     1.269 A  
HETATM   13  C   UNK A   0      -9.598  15.930  69.725  1.00  0.00    -0.084 A  
HETATM   14  C   UNK A   0      -9.828  16.780  70.808  1.00  0.00     2.585 A  
ENDBRANCH   8   9
ENDBRANCH   7   8
ENDBRANCH   6   7
BRANCH   6  15
ATOM     15  N   ALA A   1     -11.715  13.180  66.164  1.00  0.00    -0.362 NA 
ATOM     16  H   ALA A   1     -11.358  12.554  65.442  1.00  0.00     0.000 HD 
BRANCH  15  17
ATOM     17  CA  ALA A   1     -11.656  12.531  67.489  1.00  0.00    -0.361 C  
ATOM     18  CB  ALA A   1     -13.037  12.463  68.139  1.00  0.00     3.742 C  
BRANCH  17  19
ATOM     19  C   ALA A   1     -10.977  11.125  67.434  1.00  0.00    -0.290 C  
HETATM   20  C   UNK A   2      -7.412  11.796  68.374  1.00  0.00    -0.105 C  
ATOM     21  O   ALA A   1     -11.558  10.107  67.053  1.00  0.00     0.127 OA 
HETATM   22  C   UNK A   2      -7.468  10.268  68.340  1.00  0.00    -0.090 C  
HETATM   23  N   UNK A   2      -9.653  11.049  67.868  1.00  0.00    -0.169 N  
HETATM   24  S   UNK A   2      -7.061  12.415  70.069  1.00  0.00     1.244 SA 
HETATM   25  C   UNK A   2      -5.524  13.297  69.701  1.00  0.00    -0.094 C  
HETATM   26  C   UNK A   2      -8.781   9.885  67.621  1.00  0.00    -0.121 C  
HETATM   27  C   UNK A   2      -8.816  12.249  67.952  1.00  0.00    -0.178 C  
HETATM   28  C   UNK A   2      -9.131   8.445  68.069  1.00  0.00    -0.137 C  
HETATM   29  C   UNK A   2      -5.581  13.805  68.275  1.00  0.00    -0.109 C  
HETATM   30  S   UNK A   2      -6.137  12.438  67.230  1.00  0.00    -0.087 SA 
HETATM   31  O   UNK A   2     -10.439   8.144  68.156  1.00  0.00    -0.210 OA 
HETATM   32  O   UNK A   2      -8.279   7.579  68.240  1.00  0.00    -0.123 OA 
ENDBRANCH  17  19
ENDBRANCH  15  17
ENDBRANCH   6  15
ENDBRANCH   4   6
ENDBRANCH   3   4
ENDBRANCH   2   3
TORSDOF 9
ENDMDL
MODEL      293
REMARK 921   NORMALIZED FREE ENERGY PREDICTED BY IDOCK:   15.92 KCAL/MOL
REMARK 922        TOTAL FREE ENERGY PREDICTED BY IDOCK:   22.95 KCAL/MOL
REMARK 923 INTER-LIGAND FREE ENERGY PREDICTED BY IDOCK:   12.46 KCAL/MOL
REMARK 924 INTRA-LIGAND FREE ENERGY PREDICTED BY IDOCK:   10.49 KCAL/MOL
REMARK 927      BINDING AFFINITY PREDICTED BY RF-SCORE:    0.00 PKD
ROOT
HETATM    1  C   UNK A   0     -10.574  10.796  69.996  1.00  0.00    -0.053 C  
HETATM    2  C   UNK A   0     -11.422   9.800  69.228  1.00  0.00     0.072 C  
ENDROOT
BRANCH   2   3
HETATM    3  O   UNK A   0     -12.464  10.477  68.506  1.00  0.00    -0.009 OA 
BRANCH   3   4
HETATM    4  C   UNK A   0     -12.399  10.401  67.145  1.00  0.00     4.358 C  
HETATM    5  O   UNK A   0     -13.365  10.344  66.393  1.00  0.00    10.571 OA 
BRANCH   4   6
HETATM    6  C   UNK A   0     -10.933  10.412  66.675  1.00  0.00     0.003 C  
BRANCH   6   7
HETATM    7  C   UNK A   0     -10.202  11.626  67.277  1.00  0.00    -0.226 C  
BRANCH   7   8
HETATM    8  C   UNK A   0     -10.977  12.946  67.230  1.00  0.00    -0.289 C  
BRANCH   8   9
HETATM    9  C   UNK A   0     -10.182  14.004  67.966  1.00  0.00    -0.238 A  
HETATM   10  C   UNK A   0     -10.657  14.554  69.165  1.00  0.00    -0.242 A  
HETATM   11  C   UNK A   0      -9.874  15.455  69.891  1.00  0.00    -0.191 A  
HETATM   12  C   UNK A   0      -8.610  15.814  69.426  1.00  0.00    -0.225 A  
HETATM   13  C   UNK A   0      -8.909  14.373  67.508  1.00  0.00    -0.197 A  
HETATM   14  C   UNK A   0      -8.129  15.274  68.235  1.00  0.00    -0.137 A  
ENDBRANCH   8   9
ENDBRANCH   7   8
ENDBRANCH   6   7
BRANCH   6  15
ATOM     15  N   ALA A   1     -10.926  10.429  65.180  1.00  0.00     0.357 NA 
ATOM     16  H   ALA A   1     -11.785  10.846  64.823  1.00  0.00     0.000 HD 
BRANCH  15  17
ATOM     17  CA  ALA A   1      -9.744  11.093  64.594  1.00  0.00    -0.262 C  
ATOM     18  CB  ALA A   1     -10.132  12.379  63.866  1.00  0.00    -0.349 C  
BRANCH  17  19
ATOM     19  C   ALA A   1      -8.618  11.346  65.648  1.00  0.00     0.044 C  
HETATM   20  C   UNK A   2      -8.443   8.139  67.580  1.00  0.00    -0.126 C  
ATOM     21  O   ALA A   1      -8.053  12.432  65.788  1.00  0.00     0.883 OA 
HETATM   22  C   UNK A   2      -7.238   8.918  68.113  1.00  0.00    -0.079 C  
HETATM   23  N   UNK A   2      -8.242  10.259  66.437  1.00  0.00    -0.125 N  
HETATM   24  S   UNK A   2      -7.915   6.617  66.693  1.00  0.00    -0.107 SA 
HETATM   25  C   UNK A   2      -8.776   5.412  67.733  1.00  0.00    -0.106 C  
HETATM   26  C   UNK A   2      -7.417  10.384  67.653  1.00  0.00    -0.089 C  
HETATM   27  C   UNK A   2      -9.118   9.094  66.587  1.00  0.00    -0.148 C  
HETATM   28  C   UNK A   2      -6.009  11.029  67.668  1.00  0.00    -0.044 C  
HETATM   29  C   UNK A   2     -10.033   6.049  68.285  1.00  0.00    -0.147 C  
HETATM   30  S   UNK A   2      -9.582   7.676  68.933  1.00  0.00    -0.152 SA 
HETATM   31  O   UNK A   2      -5.773  11.976  66.744  1.00  0.00    -0.249 OA 
HETATM   32  O   UNK A   2      -5.175  10.779  68.533  1.00  0.00    -0.041 OA 
ENDBRANCH  17  19
ENDBRANCH  15  17
ENDBRANCH   6  15
ENDBRANCH   4   6
ENDBRANCH   3   4
ENDBRANCH   2   3
TORSDOF 9
ENDMDL
MODEL      294
REMARK 921   NORMALIZED FREE ENERGY PREDICTED BY IDOCK:   17.79 KCAL/MOL
REMARK 922        TOTAL FREE ENERGY PREDICTED BY IDOCK:   25.81 KCAL/MOL
REMARK 923 INTER-LIGAND FREE ENERGY PREDICTED BY IDOCK:   22.13 KCAL/MOL
REMARK 924 INTRA-LIGAND FREE ENERGY PREDICTED BY IDOCK:    3.68 KCAL/MOL
REMARK 927      BINDING AFFINITY PREDICTED BY RF-SCORE:    0.00 PKD
ROOT
HETATM    1  C   UNK A   0     -14.075  13.834  67.137  1.00  0.00    10.058 C  
HETATM    2  C   UNK A   0     -13.470  12.443  67.098  1.00  0.00     6.958 C  
ENDROOT
BRANCH   2   3
HETATM    3  O   UNK A   0     -12.177  12.440  67.723  1.00  0.00    -0.395 OA 
BRANCH   3   4
HETATM    4  C   UNK A   0     -11.270  11.549  67.226  1.00  0.00    -0.301 C  
HETATM    5  O   UNK A   0     -11.368  10.964  66.154  1.00  0.00    -0.023 OA 
BRANCH   4   6
HETATM    6  C   UNK A   0     -10.086  11.388  68.197  1.00  0.00    -0.189 C  
BRANCH   6   7
HETATM    7  C   UNK A   0     -10.049  12.577  69.174  1.00  0.00     0.293 C  
BRANCH   7   8
HETATM    8  C   UNK A   0     -10.655  13.879  68.644  1.00  0.00    -0.265 C  
BRANCH   8   9
HETATM    9  C   UNK A   0      -9.831  14.358  67.467  1.00  0.00    -0.220 A  
HETATM   10  C   UNK A   0      -9.019  15.495  67.575  1.00  0.00    -0.196 A  
HETATM   11  C   UNK A   0      -8.185  15.874  66.519  1.00  0.00    -0.307 A  
HETATM   12  C   UNK A   0      -8.155  15.118  65.349  1.00  0.00     4.182 A  
HETATM   13  C   UNK A   0      -9.792  13.606  66.284  1.00  0.00    -0.310 A  
HETATM   14  C   UNK A   0      -8.958  13.987  65.231  1.00  0.00     1.639 A  
ENDBRANCH   8   9
ENDBRANCH   7   8
ENDBRANCH   6   7
BRANCH   6  15
ATOM     15  N   ALA A   1      -8.834  11.279  67.388  1.00  0.00    -0.143 NA 
ATOM     16  H   ALA A   1      -8.248  12.103  67.521  1.00  0.00     0.000 HD 
BRANCH  15  17
ATOM     17  CA  ALA A   1      -8.061  10.046  67.644  1.00  0.00    -0.110 C  
ATOM     18  CB  ALA A   1      -6.882   9.919  66.680  1.00  0.00    -0.084 C  
BRANCH  17  19
ATOM     19  C   ALA A   1      -7.602   9.928  69.132  1.00  0.00    -0.090 C  
HETATM   20  C   UNK A   2      -9.820   7.267  70.562  1.00  0.00    -0.183 C  
ATOM     21  O   ALA A   1      -6.759  10.669  69.642  1.00  0.00    -0.084 OA 
HETATM   22  C   UNK A   2      -8.818   7.511  71.692  1.00  0.00    -0.128 C  
HETATM   23  N   UNK A   2      -8.179   8.907  69.888  1.00  0.00    -0.111 N  
HETATM   24  S   UNK A   2      -9.673   5.561  69.894  1.00  0.00    -0.189 SA 
HETATM   25  C   UNK A   2     -11.358   5.006  70.251  1.00  0.00     1.810 C  
HETATM   26  C   UNK A   2      -8.081   8.829  71.358  1.00  0.00    -0.142 C  
HETATM   27  C   UNK A   2      -9.431   8.273  69.470  1.00  0.00    -0.162 C  
HETATM   28  C   UNK A   2      -6.737   8.793  72.124  1.00  0.00    -0.019 C  
HETATM   29  C   UNK A   2     -12.291   6.197  70.181  1.00  0.00     1.294 C  
HETATM   30  S   UNK A   2     -11.537   7.538  71.131  1.00  0.00    -0.288 SA 
HETATM   31  O   UNK A   2      -5.694   9.406  71.536  1.00  0.00    -0.067 OA 
HETATM   32  O   UNK A   2      -6.630   8.329  73.256  1.00  0.00    -0.097 OA 
ENDBRANCH  17  19
ENDBRANCH  15  17
ENDBRANCH   6  15
ENDBRANCH   4   6
ENDBRANCH   3   4
ENDBRANCH   2   3
TORSDOF 9
ENDMDL
MODEL      295
REMARK 921   NORMALIZED FREE ENERGY PREDICTED BY IDOCK:   18.23 KCAL/MOL
REMARK 922        TOTAL FREE ENERGY PREDICTED BY IDOCK:   26.48 KCAL/MOL
REMARK 923 INTER-LIGAND FREE ENERGY PREDICTED BY IDOCK:   21.35 KCAL/MOL
REMARK 924 INTRA-LIGAND FREE ENERGY PREDICTED BY IDOCK:    5.14 KCAL/MOL
REMARK 927      BINDING AFFINITY PREDICTED BY RF-SCORE:    0.00 PKD
ROOT
HETATM    1  C   UNK A   0      -9.836  11.770  70.973  1.00  0.00     7.353 C  
HETATM    2  C   UNK A   0      -9.081  11.179  69.797  1.00  0.00     0.974 C  
ENDROOT
BRANCH   2   3
HETATM    3  O   UNK A   0      -9.986  10.523  68.896  1.00  0.00    -0.185 OA 
BRANCH   3   4
HETATM    4  C   UNK A   0     -10.494  11.292  67.888  1.00  0.00    -0.188 C  
HETATM    5  O   UNK A   0     -10.667  10.921  66.733  1.00  0.00    -0.258 OA 
BRANCH   4   6
HETATM    6  C   UNK A   0     -10.838  12.700  68.408  1.00  0.00    -0.245 C  
BRANCH   6   7
HETATM    7  C   UNK A   0     -12.364  12.846  68.548  1.00  0.00     0.201 C  
BRANCH   7   8
HETATM    8  C   UNK A   0     -12.939  12.434  69.906  1.00  0.00     0.859 C  
BRANCH   8   9
HETATM    9  C   UNK A   0     -12.920  13.634  70.828  1.00  0.00    -0.205 A  
HETATM   10  C   UNK A   0     -11.747  14.382  71.008  1.00  0.00    -0.256 A  
HETATM   11  C   UNK A   0     -11.761  15.546  71.781  1.00  0.00    -0.509 A  
HETATM   12  C   UNK A   0     -12.945  15.973  72.379  1.00  0.00    -0.440 A  
HETATM   13  C   UNK A   0     -14.105  14.075  71.435  1.00  0.00    -0.163 A  
HETATM   14  C   UNK A   0     -14.115  15.237  72.207  1.00  0.00    -0.651 A  
ENDBRANCH   8   9
ENDBRANCH   7   8
ENDBRANCH   6   7
BRANCH   6  15
ATOM     15  N   ALA A   1     -10.256  13.698  67.459  1.00  0.00    -0.239 NA 
ATOM     16  H   ALA A   1     -10.205  14.619  67.895  1.00  0.00     0.000 HD 
BRANCH  15  17
ATOM     17  CA  ALA A   1      -8.941  13.310  66.911  1.00  0.00    -0.207 C  
ATOM     18  CB  ALA A   1      -9.092  12.390  65.701  1.00  0.00     0.250 C  
BRANCH  17  19
ATOM     19  C   ALA A   1      -8.042  14.545  66.586  1.00  0.00     0.350 C  
HETATM   20  C   UNK A   2      -9.496  17.302  68.666  1.00  0.00    -0.278 C  
ATOM     21  O   ALA A   1      -7.146  14.527  65.740  1.00  0.00     4.333 OA 
HETATM   22  C   UNK A   2      -8.220  17.938  68.111  1.00  0.00    -0.269 C  
HETATM   23  N   UNK A   2      -8.276  15.704  67.326  1.00  0.00    -0.174 N  
HETATM   24  S   UNK A   2      -9.422  17.143  70.496  1.00  0.00     3.475 SA 
HETATM   25  C   UNK A   2     -10.867  18.156  70.894  1.00  0.00     2.606 C  
HETATM   26  C   UNK A   2      -7.730  17.025  66.964  1.00  0.00    -0.186 C  
HETATM   27  C   UNK A   2      -9.541  15.903  68.039  1.00  0.00    -0.211 C  
HETATM   28  C   UNK A   2      -6.217  17.305  66.789  1.00  0.00    -0.200 C  
HETATM   29  C   UNK A   2     -11.871  18.044  69.766  1.00  0.00     5.574 C  
HETATM   30  S   UNK A   2     -10.974  18.280  68.213  1.00  0.00     0.437 SA 
HETATM   31  O   UNK A   2      -5.456  16.269  66.395  1.00  0.00    -0.056 OA 
HETATM   32  O   UNK A   2      -5.734  18.428  66.896  1.00  0.00    -0.143 OA 
ENDBRANCH  17  19
ENDBRANCH  15  17
ENDBRANCH   6  15
ENDBRANCH   4   6
ENDBRANCH   3   4
ENDBRANCH   2   3
TORSDOF 9
ENDMDL
MODEL      296
REMARK 921   NORMALIZED FREE ENERGY PREDICTED BY IDOCK:   29.66 KCAL/MOL
REMARK 922        TOTAL FREE ENERGY PREDICTED BY IDOCK:   43.92 KCAL/MOL
REMARK 923 INTER-LIGAND FREE ENERGY PREDICTED BY IDOCK:   40.97 KCAL/MOL
REMARK 924 INTRA-LIGAND FREE ENERGY PREDICTED BY IDOCK:    2.95 KCAL/MOL
REMARK 927      BINDING AFFINITY PREDICTED BY RF-SCORE:    0.00 PKD
ROOT
HETATM    1  C   UNK A   0     -14.078  13.819  67.115  1.00  0.00    10.058 C  
HETATM    2  C   UNK A   0     -13.598  12.386  66.986  1.00  0.00     7.951 C  
ENDROOT
BRANCH   2   3
HETATM    3  O   UNK A   0     -12.257  12.258  67.484  1.00  0.00    -0.457 OA 
BRANCH   3   4
HETATM    4  C   UNK A   0     -11.715  11.006  67.437  1.00  0.00     0.158 C  
HETATM    5  O   UNK A   0     -12.152  10.069  66.780  1.00  0.00     2.299 OA 
BRANCH   4   6
HETATM    6  C   UNK A   0     -10.456  10.933  68.321  1.00  0.00    -0.179 C  
BRANCH   6   7
HETATM    7  C   UNK A   0      -9.862  12.342  68.501  1.00  0.00    -0.157 C  
BRANCH   7   8
HETATM    8  C   UNK A   0     -10.051  13.288  67.312  1.00  0.00    -0.234 C  
BRANCH   8   9
HETATM    9  C   UNK A   0      -9.299  12.731  66.121  1.00  0.00    -0.114 A  
HETATM   10  C   UNK A   0      -8.138  13.358  65.649  1.00  0.00     3.134 A  
HETATM   11  C   UNK A   0      -7.393  12.785  64.615  1.00  0.00     8.464 A  
HETATM   12  C   UNK A   0      -7.802  11.580  64.045  1.00  0.00     1.617 A  
HETATM   13  C   UNK A   0      -9.700  11.519  65.540  1.00  0.00    -0.259 A  
HETATM   14  C   UNK A   0      -8.955  10.949  64.506  1.00  0.00    -0.130 A  
ENDBRANCH   8   9
ENDBRANCH   7   8
ENDBRANCH   6   7
BRANCH   6  15
ATOM     15  N   ALA A   1      -9.492   9.989  67.678  1.00  0.00    -0.143 NA 
ATOM     16  H   ALA A   1      -8.660  10.487  67.362  1.00  0.00     0.000 HD 
BRANCH  15  17
ATOM     17  CA  ALA A   1      -9.118   8.841  68.529  1.00  0.00    -0.138 C  
ATOM     18  CB  ALA A   1      -8.222   7.858  67.776  1.00  0.00    -0.129 C  
BRANCH  17  19
ATOM     19  C   ALA A   1      -8.475   9.286  69.881  1.00  0.00    -0.163 C  
HETATM   20  C   UNK A   2     -11.131   8.582  72.429  1.00  0.00    -0.327 C  
ATOM     21  O   ALA A   1      -7.372   9.830  69.960  1.00  0.00    -0.106 OA 
HETATM   22  C   UNK A   2      -9.928   8.961  73.295  1.00  0.00     1.534 C  
HETATM   23  N   UNK A   2      -9.202   9.017  71.041  1.00  0.00    -0.248 N  
HETATM   24  S   UNK A   2     -11.630   6.834  72.706  1.00  0.00     0.022 SA 
HETATM   25  C   UNK A   2     -13.319   7.144  73.277  1.00  0.00     2.780 C  
HETATM   26  C   UNK A   2      -8.889   9.612  72.354  1.00  0.00     2.984 C  
HETATM   27  C   UNK A   2     -10.641   8.745  70.985  1.00  0.00    -0.230 C  
HETATM   28  C   UNK A   2      -7.512   9.474  73.048  1.00  0.00     1.895 C  
HETATM   29  C   UNK A   2     -13.839   8.401  72.612  1.00  0.00    -0.051 C  
HETATM   30  S   UNK A   2     -12.561   9.671  72.771  1.00  0.00     0.992 SA 
HETATM   31  O   UNK A   2      -6.445   9.327  72.242  1.00  0.00    -0.296 OA 
HETATM   32  O   UNK A   2      -7.365   9.594  74.261  1.00  0.00     0.442 OA 
ENDBRANCH  17  19
ENDBRANCH  15  17
ENDBRANCH   6  15
ENDBRANCH   4   6
ENDBRANCH   3   4
ENDBRANCH   2   3
TORSDOF 9
ENDMDL
MODEL      297
REMARK 921   NORMALIZED FREE ENERGY PREDICTED BY IDOCK:   30.46 KCAL/MOL
REMARK 922        TOTAL FREE ENERGY PREDICTED BY IDOCK:   45.13 KCAL/MOL
REMARK 923 INTER-LIGAND FREE ENERGY PREDICTED BY IDOCK:   40.51 KCAL/MOL
REMARK 924 INTRA-LIGAND FREE ENERGY PREDICTED BY IDOCK:    4.62 KCAL/MOL
REMARK 927      BINDING AFFINITY PREDICTED BY RF-SCORE:    0.00 PKD
ROOT
HETATM    1  C   UNK A   0     -11.776  12.507  68.945  1.00  0.00    -0.367 C  
HETATM    2  C   UNK A   0     -11.646  13.221  70.278  1.00  0.00    -0.021 C  
ENDROOT
BRANCH   2   3
HETATM    3  O   UNK A   0     -10.612  12.618  71.072  1.00  0.00     3.858 OA 
BRANCH   3   4
HETATM    4  C   UNK A   0      -9.338  13.037  70.821  1.00  0.00     8.037 C  
HETATM    5  O   UNK A   0      -8.882  14.135  71.118  1.00  0.00     4.034 OA 
BRANCH   4   6
HETATM    6  C   UNK A   0      -8.536  11.926  70.117  1.00  0.00     3.500 C  
BRANCH   6   7
HETATM    7  C   UNK A   0      -7.111  11.866  70.696  1.00  0.00     2.456 C  
BRANCH   7   8
HETATM    8  C   UNK A   0      -6.398  10.519  70.541  1.00  0.00    -0.090 C  
BRANCH   8   9
HETATM    9  C   UNK A   0      -7.435   9.415  70.546  1.00  0.00    -0.154 A  
HETATM   10  C   UNK A   0      -8.486   9.422  71.474  1.00  0.00     0.446 A  
HETATM   11  C   UNK A   0      -9.494   8.457  71.410  1.00  0.00    -0.251 A  
HETATM   12  C   UNK A   0      -9.462   7.478  70.418  1.00  0.00    -0.161 A  
HETATM   13  C   UNK A   0      -7.413   8.425  69.553  1.00  0.00    -0.088 A  
HETATM   14  C   UNK A   0      -8.422   7.462  69.492  1.00  0.00    -0.133 A  
ENDBRANCH   8   9
ENDBRANCH   7   8
ENDBRANCH   6   7
BRANCH   6  15
ATOM     15  N   ALA A   1      -8.541  12.210  68.649  1.00  0.00    -0.348 NA 
ATOM     16  H   ALA A   1      -9.294  12.855  68.412  1.00  0.00     0.000 HD 
BRANCH  15  17
ATOM     17  CA  ALA A   1      -7.249  12.706  68.131  1.00  0.00    -0.109 C  
ATOM     18  CB  ALA A   1      -7.333  13.018  66.637  1.00  0.00     0.905 C  
BRANCH  17  19
ATOM     19  C   ALA A   1      -6.710  13.926  68.944  1.00  0.00    -0.106 C  
HETATM   20  C   UNK A   2      -7.287  16.857  66.682  1.00  0.00    -0.263 C  
ATOM     21  O   ALA A   1      -6.146  13.816  70.035  1.00  0.00    -0.133 OA 
HETATM   22  C   UNK A   2      -6.837  17.522  67.985  1.00  0.00    -0.190 C  
HETATM   23  N   UNK A   2      -6.914  15.189  68.390  1.00  0.00    -0.103 N  
HETATM   24  S   UNK A   2      -9.021  17.307  66.267  1.00  0.00    -0.175 SA 
HETATM   25  C   UNK A   2      -8.699  18.088  64.666  1.00  0.00     5.874 C  
HETATM   26  C   UNK A   2      -6.232  16.407  68.868  1.00  0.00    -0.145 C  
HETATM   27  C   UNK A   2      -7.210  15.351  66.965  1.00  0.00    -0.037 C  
HETATM   28  C   UNK A   2      -6.307  16.909  70.331  1.00  0.00     0.549 C  
HETATM   29  C   UNK A   2      -7.495  17.426  64.031  1.00  0.00    10.514 C  
HETATM   30  S   UNK A   2      -6.199  17.327  65.289  1.00  0.00     1.889 SA 
HETATM   31  O   UNK A   2      -6.489  15.973  71.279  1.00  0.00     1.226 OA 
HETATM   32  O   UNK A   2      -6.107  18.080  70.641  1.00  0.00     0.102 OA 
ENDBRANCH  17  19
ENDBRANCH  15  17
ENDBRANCH   6  15
ENDBRANCH   4   6
ENDBRANCH   3   4
ENDBRANCH   2   3
TORSDOF 9
ENDMDL
MODEL      298
REMARK 921   NORMALIZED FREE ENERGY PREDICTED BY IDOCK:   62.83 KCAL/MOL
REMARK 922        TOTAL FREE ENERGY PREDICTED BY IDOCK:   94.54 KCAL/MOL
REMARK 923 INTER-LIGAND FREE ENERGY PREDICTED BY IDOCK:   91.12 KCAL/MOL
REMARK 924 INTRA-LIGAND FREE ENERGY PREDICTED BY IDOCK:    3.42 KCAL/MOL
REMARK 927      BINDING AFFINITY PREDICTED BY RF-SCORE:    0.00 PKD
ROOT
HETATM    1  C   UNK A   0      -8.350  17.176  69.939  1.00  0.00     1.544 C  
HETATM    2  C   UNK A   0      -7.663  16.677  68.682  1.00  0.00    -0.224 C  
ENDROOT
BRANCH   2   3
HETATM    3  O   UNK A   0      -7.128  15.360  68.890  1.00  0.00    -0.116 OA 
BRANCH   3   4
HETATM    4  C   UNK A   0      -7.970  14.451  69.462  1.00  0.00     0.232 C  
HETATM    5  O   UNK A   0      -8.590  14.619  70.506  1.00  0.00     1.173 OA 
BRANCH   4   6
HETATM    6  C   UNK A   0      -8.049  13.177  68.601  1.00  0.00    -0.014 C  
BRANCH   6   7
HETATM    7  C   UNK A   0      -8.367  13.552  67.143  1.00  0.00    -0.151 C  
BRANCH   7   8
HETATM    8  C   UNK A   0      -8.706  15.026  66.905  1.00  0.00    -0.285 C  
BRANCH   8   9
HETATM    9  C   UNK A   0      -7.796  15.567  65.822  1.00  0.00     2.433 A  
HETATM   10  C   UNK A   0      -6.402  15.510  65.962  1.00  0.00     4.245 A  
HETATM   11  C   UNK A   0      -5.568  15.919  64.918  1.00  0.00     9.798 A  
HETATM   12  C   UNK A   0      -6.119  16.386  63.726  1.00  0.00    13.552 A  
HETATM   13  C   UNK A   0      -8.338  16.040  64.618  1.00  0.00     7.114 A  
HETATM   14  C   UNK A   0      -7.502  16.449  63.578  1.00  0.00    19.944 A  
ENDBRANCH   8   9
ENDBRANCH   7   8
ENDBRANCH   6   7
BRANCH   6  15
ATOM     15  N   ALA A   1      -9.087  12.280  69.196  1.00  0.00    -0.120 NA 
ATOM     16  H   ALA A   1      -9.951  12.325  68.656  1.00  0.00     0.000 HD 
BRANCH  15  17
ATOM     17  CA  ALA A   1      -8.648  10.878  69.355  1.00  0.00     0.110 C  
ATOM     18  CB  ALA A   1      -7.707  10.722  70.549  1.00  0.00     1.484 C  
BRANCH  17  19
ATOM     19  C   ALA A   1      -9.849   9.883  69.435  1.00  0.00    -0.217 C  
HETATM   20  C   UNK A   2     -11.940  10.738  66.445  1.00  0.00     2.114 C  
ATOM     21  O   ALA A   1     -10.021   9.103  70.373  1.00  0.00    -0.188 OA 
HETATM   22  C   UNK A   2     -12.614   9.470  66.974  1.00  0.00     9.629 C  
HETATM   23  N   UNK A   2     -10.739   9.887  68.361  1.00  0.00    -0.230 N  
HETATM   24  S   UNK A   2     -11.222  10.466  64.774  1.00  0.00     2.039 SA 
HETATM   25  C   UNK A   2     -12.174  11.722  63.885  1.00  0.00    -0.297 C  
HETATM   26  C   UNK A   2     -12.061   9.233  68.398  1.00  0.00     2.856 C  
HETATM   27  C   UNK A   2     -10.809  11.025  67.441  1.00  0.00    -0.274 C  
HETATM   28  C   UNK A   2     -12.262   7.729  68.707  1.00  0.00     3.148 C  
HETATM   29  C   UNK A   2     -12.492  12.859  64.834  1.00  0.00    -0.478 C  
HETATM   30  S   UNK A   2     -13.122  12.131  66.365  1.00  0.00     4.827 SA 
HETATM   31  O   UNK A   2     -11.340   7.150  69.497  1.00  0.00    -0.140 OA 
HETATM   32  O   UNK A   2     -13.257   7.105  68.350  1.00  0.00     7.609 OA 
ENDBRANCH  17  19
ENDBRANCH  15  17
ENDBRANCH   6  15
ENDBRANCH   4   6
ENDBRANCH   3   4
ENDBRANCH   2   3
TORSDOF 9
ENDMDL
