MODEL        1
REMARK 921   NORMALIZED FREE ENERGY PREDICTED BY IDOCK:   -6.04 KCAL/MOL
REMARK 922        TOTAL FREE ENERGY PREDICTED BY IDOCK:  -11.84 KCAL/MOL
REMARK 923 INTER-LIGAND FREE ENERGY PREDICTED BY IDOCK:   -9.21 KCAL/MOL
REMARK 924 INTRA-LIGAND FREE ENERGY PREDICTED BY IDOCK:   -2.63 KCAL/MOL
REMARK 927      BINDING AFFINITY PREDICTED BY RF-SCORE:    0.00 PKD
ROOT
HETATM    1  C   UNL     1     -10.132   4.794  67.557  1.00  0.00    -0.161 C  
HETATM    2  C   UNL     1      -9.639   3.795  66.735  1.00  0.00    -0.205 C  
HETATM    3  C   UNL     1      -8.438   3.436  65.897  1.00  0.00    -0.110 C  
HETATM    4  C   UNL     1      -7.186   3.934  65.839  1.00  0.00    -0.071 C  
HETATM    5  C   UNL     1      -6.831   5.112  66.638  1.00  0.00    -0.063 C  
HETATM    6  O   UNL     1      -7.140   9.042  73.669  1.00  0.00    -0.347 OA 
HETATM    7  C   UNL     1      -6.271   4.587  68.009  1.00  0.00    -0.036 C  
HETATM    8  C   UNL     1     -12.330   6.892  70.238  1.00  0.00     0.018 C  
HETATM    9  C   UNL     1      -7.268   5.200  68.968  1.00  0.00    -0.057 C  
HETATM   10  C   UNL     1      -6.328   3.056  68.282  1.00  0.00    -0.032 C  
HETATM   11  C   UNL     1      -7.008   5.212  70.447  1.00  0.00    -0.049 C  
HETATM   12  C   UNL     1     -10.346   6.153  68.541  1.00  0.00    -0.248 C  
HETATM   13  C   UNL     1     -10.953   6.250  70.158  1.00  0.00    -0.347 C  
HETATM   14  C   UNL     1      -7.318   6.665  70.897  1.00  0.00    -0.082 C  
HETATM   15  C   UNL     1      -8.034   4.212  71.125  1.00  0.00    -0.071 C  
HETATM   16  C   UNL     1      -7.769   2.734  71.006  1.00  0.00    -0.039 C  
HETATM   17  O   UNL     1     -10.136   6.892  71.309  1.00  0.00    -0.191 OA 
HETATM   18  O   UNL     1     -11.224   8.845  71.953  1.00  0.00    -0.338 OA 
HETATM   19  C   UNL     1      -7.457   6.892  72.438  1.00  0.00    -0.087 C  
HETATM   20  C   UNL     1      -7.951   8.328  72.731  1.00  0.00    -0.137 C  
HETATM   21  H   UNL     1      -7.443   9.924  73.850  1.00  0.00     0.000 HD 
HETATM   22  C   UNL     1     -10.344   8.008  72.111  1.00  0.00    -0.254 C  
HETATM   23  O   UNL     1      -8.638   1.968  70.709  1.00  0.00    -0.049 OA 
HETATM   24  C   UNL     1      -9.354   8.163  73.282  1.00  0.00    -0.308 C  
ENDROOT
BRANCH   5  25
HETATM   25  O   UNL     1      -6.213   6.169  65.882  1.00  0.00    -0.035 OA 
BRANCH  25  26
HETATM   26  C   UNL     1      -7.023   6.481  64.714  1.00  0.00    -0.055 C  
HETATM   27  C   UNL     1      -7.726   9.330  64.800  1.00  0.00    -0.111 C  
HETATM   28  C   UNL     1      -6.277   8.709  64.691  1.00  0.00    -0.066 C  
HETATM   29  C   UNL     1      -8.526   8.281  65.663  1.00  0.00    -0.173 C  
HETATM   30  O   UNL     1      -6.363   7.491  63.959  1.00  0.00    -0.048 OA 
HETATM   31  C   UNL     1      -8.468   6.911  64.991  1.00  0.00     0.011 C  
HETATM   32  C   UNL     1      -5.152   9.528  64.082  1.00  0.00    -0.059 C  
BRANCH  27  33
HETATM   33  N   UNL     1      -8.433   9.655  63.552  1.00  0.00    -0.173 NA 
HETATM   34  C   UNL     1      -9.700  10.356  63.788  1.00  0.00    -0.290 C  
HETATM   35  C   UNL     1      -7.634  10.453  62.620  1.00  0.00    -0.140 C  
ENDBRANCH  27  33
ENDBRANCH  25  26
ENDBRANCH   5  25
BRANCH  14  36
HETATM   36  O   UNL     1      -7.095   7.810  70.022  1.00  0.00    -0.053 OA 
BRANCH  36  37
HETATM   37  C   UNL     1      -7.859   9.007  70.104  1.00  0.00    -0.100 C  
HETATM   38  C   UNL     1     -10.981   9.934  68.377  1.00  0.00    -0.235 C  
HETATM   39  C   UNL     1      -7.402  11.481  69.312  1.00  0.00    -0.009 C  
HETATM   40  C   UNL     1      -9.676  10.169  69.160  1.00  0.00    -0.215 C  
HETATM   41  O   UNL     1      -8.959   8.945  69.228  1.00  0.00    -0.140 OA 
HETATM   42  H   UNL     1      -5.562  11.140  71.078  1.00  0.00     0.000 HD 
HETATM   43  C   UNL     1      -6.892  10.176  69.951  1.00  0.00    -0.124 C  
HETATM   44  O   UNL     1      -6.164  10.412  71.174  1.00  0.00    -0.328 OA 
HETATM   45  C   UNL     1      -8.734  11.159  68.460  1.00  0.00    -0.161 C  
BRANCH  45  46
HETATM   46  O   UNL     1      -9.537  12.307  68.107  1.00  0.00    -0.203 OA 
BRANCH  46  47
HETATM   47  C   UNL     1      -9.002  12.913  66.948  1.00  0.00    -0.210 C  
HETATM   48  C   UNL     1      -9.991  12.807  65.804  1.00  0.00    -0.259 C  
HETATM   49  C   UNL     1      -8.005  16.311  66.459  1.00  0.00    -0.326 C  
HETATM   50  O   UNL     1      -8.411  14.160  67.165  1.00  0.00    -0.206 OA 
HETATM   51  H   UNL     1     -10.486  17.108  65.545  1.00  0.00     0.000 HD 
HETATM   52  C   UNL     1     -10.985  13.932  65.838  1.00  0.00    -0.284 C  
HETATM   53  C   UNL     1     -12.013  13.687  64.729  1.00  0.00    -0.426 C  
HETATM   54  O   UNL     1     -11.723  13.971  67.069  1.00  0.00    -0.355 OA 
HETATM   55  C   UNL     1     -10.144  15.193  65.674  1.00  0.00    -0.363 C  
HETATM   56  O   UNL     1     -11.010  16.322  65.647  1.00  0.00    -0.231 OA 
HETATM   57  H   UNL     1     -12.351  14.683  67.091  1.00  0.00     0.000 HD 
HETATM   58  C   UNL     1      -9.115  15.332  66.821  1.00  0.00    -0.256 C  
ENDBRANCH  46  47
ENDBRANCH  45  46
BRANCH  39  59
HETATM   59  N   UNL     1      -6.189  12.132  68.649  1.00  0.00    -0.056 NA 
HETATM   60  C   UNL     1      -5.596  13.317  69.211  1.00  0.00    -0.079 C  
HETATM   61  C   UNL     1      -5.266  11.485  67.734  1.00  0.00    -0.049 C  
ENDBRANCH  39  59
ENDBRANCH  36  37
ENDBRANCH  14  36
BRANCH  19  62
HETATM   62  O   UNL     1      -6.429   6.501  73.337  1.00  0.00    -0.064 OA 
HETATM   63  C   UNL     1      -6.699   5.617  74.412  1.00  0.00    -0.080 C  
ENDBRANCH  19  62
TORSDOF 9
ENDMDL
MODEL        2
REMARK 921   NORMALIZED FREE ENERGY PREDICTED BY IDOCK:   -3.97 KCAL/MOL
REMARK 922        TOTAL FREE ENERGY PREDICTED BY IDOCK:   -8.69 KCAL/MOL
REMARK 923 INTER-LIGAND FREE ENERGY PREDICTED BY IDOCK:   -7.11 KCAL/MOL
REMARK 924 INTRA-LIGAND FREE ENERGY PREDICTED BY IDOCK:   -1.58 KCAL/MOL
REMARK 927      BINDING AFFINITY PREDICTED BY RF-SCORE:    0.00 PKD
ROOT
HETATM    1  C   UNL     1      -5.507  10.989  66.192  1.00  0.00    -0.140 C  
HETATM    2  C   UNL     1      -5.203   9.978  65.297  1.00  0.00    -0.060 C  
HETATM    3  C   UNL     1      -5.427   8.507  65.049  1.00  0.00    -0.043 C  
HETATM    4  C   UNL     1      -6.299   7.619  65.568  1.00  0.00    -0.042 C  
HETATM    5  C   UNL     1      -7.196   8.026  66.656  1.00  0.00    -0.081 C  
HETATM    6  O   UNL     1     -12.233  13.490  69.779  1.00  0.00    -0.313 OA 
HETATM    7  C   UNL     1      -8.524   8.537  65.990  1.00  0.00    -0.150 C  
HETATM    8  C   UNL     1      -6.009  14.606  67.949  1.00  0.00    -0.151 C  
HETATM    9  C   UNL     1      -8.547   9.969  66.479  1.00  0.00    -0.131 C  
HETATM   10  C   UNL     1      -8.573   8.634  64.438  1.00  0.00    -0.068 C  
HETATM   11  C   UNL     1      -9.779  10.815  66.332  1.00  0.00    -0.241 C  
HETATM   12  C   UNL     1      -6.149  11.946  67.430  1.00  0.00    -0.119 C  
HETATM   13  C   UNL     1      -6.875  13.514  67.340  1.00  0.00    -0.050 C  
HETATM   14  C   UNL     1      -9.980  11.477  67.721  1.00  0.00    -0.183 C  
HETATM   15  C   UNL     1      -9.469  11.930  65.249  1.00  0.00    -0.089 C  
HETATM   16  C   UNL     1      -9.469  11.530  63.797  1.00  0.00    -0.134 C  
HETATM   17  O   UNL     1      -8.309  13.790  67.861  1.00  0.00    -0.147 OA 
HETATM   18  O   UNL     1      -8.136  15.184  69.716  1.00  0.00    -0.179 OA 
HETATM   19  C   UNL     1     -10.990  12.670  67.775  1.00  0.00    -0.234 C  
HETATM   20  C   UNL     1     -10.950  13.351  69.162  1.00  0.00    -0.168 C  
HETATM   21  H   UNL     1     -12.209  13.909  70.632  1.00  0.00     0.000 HD 
HETATM   22  C   UNL     1      -8.808  14.595  68.879  1.00  0.00    -0.136 C  
HETATM   23  O   UNL     1      -8.596  11.874  63.055  1.00  0.00     0.178 OA 
HETATM   24  C   UNL     1     -10.344  14.720  68.917  1.00  0.00    -0.243 C  
ENDROOT
BRANCH   5  25
HETATM   25  O   UNL     1      -7.167   7.152  67.799  1.00  0.00    -0.086 OA 
BRANCH  25  26
HETATM   26  C   UNL     1      -6.371   5.973  67.499  1.00  0.00    -0.041 C  
HETATM   27  C   UNL     1      -7.059   3.868  69.427  1.00  0.00    -0.046 C  
HETATM   28  C   UNL     1      -8.019   4.540  68.368  1.00  0.00    -0.079 C  
HETATM   29  C   UNL     1      -6.061   5.022  69.823  1.00  0.00    -0.022 C  
HETATM   30  O   UNL     1      -7.250   4.889  67.221  1.00  0.00    -0.071 OA 
HETATM   31  C   UNL     1      -5.361   5.549  68.572  1.00  0.00    -0.003 C  
HETATM   32  C   UNL     1      -9.247   3.790  67.882  1.00  0.00    -0.218 C  
BRANCH  27  33
HETATM   33  N   UNL     1      -6.343   2.646  69.032  1.00  0.00    -0.029 NA 
HETATM   34  C   UNL     1      -5.234   2.324  69.936  1.00  0.00    -0.011 C  
HETATM   35  C   UNL     1      -7.209   1.469  68.930  1.00  0.00    -0.039 C  
ENDBRANCH  27  33
ENDBRANCH  25  26
ENDBRANCH   5  25
BRANCH  14  36
HETATM   36  O   UNL     1      -9.595  10.809  68.959  1.00  0.00    -0.197 OA 
BRANCH  36  37
HETATM   37  C   UNL     1      -9.225   9.437  69.015  1.00  0.00    -0.145 C  
HETATM   38  C   UNL     1     -11.350   6.425  69.082  1.00  0.00    -0.366 C  
HETATM   39  C   UNL     1      -8.118   7.955  70.896  1.00  0.00    -0.101 C  
HETATM   40  C   UNL     1     -10.066   7.253  69.275  1.00  0.00    -0.183 C  
HETATM   41  O   UNL     1     -10.374   8.624  69.072  1.00  0.00    -0.208 OA 
HETATM   42  H   UNL     1      -6.252   9.654  70.388  1.00  0.00     0.000 HD 
HETATM   43  C   UNL     1      -8.193   9.288  70.127  1.00  0.00    -0.167 C  
HETATM   44  O   UNL     1      -6.895   9.746  69.695  1.00  0.00    -0.058 OA 
HETATM   45  C   UNL     1      -9.510   7.163  70.703  1.00  0.00    -0.161 C  
BRANCH  45  46
HETATM   46  O   UNL     1      -9.477   5.759  71.041  1.00  0.00    -0.161 OA 
BRANCH  46  47
HETATM   47  C   UNL     1      -9.291   5.618  72.435  1.00  0.00    -0.143 C  
HETATM   48  C   UNL     1     -10.452   4.850  73.037  1.00  0.00    -0.251 C  
HETATM   49  C   UNL     1      -6.630   3.993  74.183  1.00  0.00    -0.044 C  
HETATM   50  O   UNL     1      -8.004   5.226  72.813  1.00  0.00    -0.100 OA 
HETATM   51  H   UNL     1      -7.917   1.551  74.261  1.00  0.00     0.000 HD 
HETATM   52  C   UNL     1     -10.233   3.368  72.937  1.00  0.00    -0.164 C  
HETATM   53  C   UNL     1     -11.494   2.669  73.456  1.00  0.00    -0.238 C  
HETATM   54  O   UNL     1     -10.060   2.932  71.580  1.00  0.00    -0.138 OA 
HETATM   55  C   UNL     1      -8.970   3.110  73.751  1.00  0.00    -0.075 C  
HETATM   56  O   UNL     1      -8.704   1.711  73.754  1.00  0.00    -0.057 OA 
HETATM   57  H   UNL     1      -9.922   1.995  71.516  1.00  0.00     0.000 HD 
HETATM   58  C   UNL     1      -7.763   3.885  73.170  1.00  0.00    -0.075 C  
ENDBRANCH  46  47
ENDBRANCH  45  46
BRANCH  39  59
HETATM   59  N   UNL     1      -7.600   8.299  72.291  1.00  0.00    -0.120 NA 
HETATM   60  C   UNL     1      -8.518   8.562  73.369  1.00  0.00     0.015 C  
HETATM   61  C   UNL     1      -6.278   7.998  72.810  1.00  0.00    -0.071 C  
ENDBRANCH  39  59
ENDBRANCH  36  37
ENDBRANCH  14  36
BRANCH  19  62
HETATM   62  O   UNL     1     -12.322  12.530  67.300  1.00  0.00    -0.359 OA 
HETATM   63  C   UNL     1     -12.778  13.270  66.181  1.00  0.00     0.027 C  
ENDBRANCH  19  62
TORSDOF 9
ENDMDL
MODEL        3
REMARK 921   NORMALIZED FREE ENERGY PREDICTED BY IDOCK:   -3.19 KCAL/MOL
REMARK 922        TOTAL FREE ENERGY PREDICTED BY IDOCK:   -7.50 KCAL/MOL
REMARK 923 INTER-LIGAND FREE ENERGY PREDICTED BY IDOCK:   -7.10 KCAL/MOL
REMARK 924 INTRA-LIGAND FREE ENERGY PREDICTED BY IDOCK:   -0.40 KCAL/MOL
REMARK 927      BINDING AFFINITY PREDICTED BY RF-SCORE:    0.00 PKD
ROOT
HETATM    1  C   UNL     1      -9.265   2.934  70.768  1.00  0.00    -0.205 C  
HETATM    2  C   UNL     1      -8.316   1.932  70.659  1.00  0.00    -0.074 C  
HETATM    3  C   UNL     1      -7.167   1.478  69.795  1.00  0.00    -0.036 C  
HETATM    4  C   UNL     1      -6.442   2.100  68.843  1.00  0.00    -0.029 C  
HETATM    5  C   UNL     1      -6.806   3.455  68.417  1.00  0.00    -0.046 C  
HETATM    6  O   UNL     1      -9.053  10.944  70.378  1.00  0.00     0.617 OA 
HETATM    7  C   UNL     1      -5.989   4.454  69.314  1.00  0.00    -0.022 C  
HETATM    8  C   UNL     1     -12.160   5.415  72.141  1.00  0.00     0.415 C  
HETATM    9  C   UNL     1      -7.116   5.202  69.993  1.00  0.00    -0.058 C  
HETATM   10  C   UNL     1      -5.133   3.864  70.471  1.00  0.00     0.000 C  
HETATM   11  C   UNL     1      -6.851   6.465  70.761  1.00  0.00    -0.063 C  
HETATM   12  C   UNL     1     -10.188   4.343  70.616  1.00  0.00    -0.097 C  
HETATM   13  C   UNL     1     -10.672   5.474  71.833  1.00  0.00    -0.231 C  
HETATM   14  C   UNL     1      -7.930   7.468  70.271  1.00  0.00    -0.103 C  
HETATM   15  C   UNL     1      -7.075   6.149  72.298  1.00  0.00    -0.084 C  
HETATM   16  C   UNL     1      -6.005   5.381  73.029  1.00  0.00    -0.028 C  
HETATM   17  O   UNL     1     -10.334   6.984  71.737  1.00  0.00    -0.198 OA 
HETATM   18  O   UNL     1     -12.327   8.142  71.423  1.00  0.00    -0.301 OA 
HETATM   19  C   UNL     1      -8.111   8.759  71.134  1.00  0.00    -0.157 C  
HETATM   20  C   UNL     1      -9.335   9.568  70.646  1.00  0.00    -0.199 C  
HETATM   21  H   UNL     1      -9.805  11.442  70.079  1.00  0.00     0.000 HD 
HETATM   22  C   UNL     1     -11.118   8.126  71.624  1.00  0.00    -0.255 C  
HETATM   23  O   UNL     1      -6.276   4.466  73.749  1.00  0.00    -0.036 OA 
HETATM   24  C   UNL     1     -10.357   9.458  71.763  1.00  0.00    -0.029 C  
ENDROOT
BRANCH   5  25
HETATM   25  O   UNL     1      -6.951   3.605  66.993  1.00  0.00    -0.053 OA 
BRANCH  25  26
HETATM   26  C   UNL     1      -8.199   3.000  66.557  1.00  0.00    -0.087 C  
HETATM   27  C   UNL     1      -8.646   3.710  63.743  1.00  0.00    -0.091 C  
HETATM   28  C   UNL     1      -7.450   2.863  64.333  1.00  0.00    -0.074 C  
HETATM   29  C   UNL     1      -8.993   4.732  64.892  1.00  0.00    -0.151 C  
HETATM   30  O   UNL     1      -7.927   2.134  65.460  1.00  0.00    -0.076 OA 
HETATM   31  C   UNL     1      -9.322   3.972  66.175  1.00  0.00    -0.174 C  
HETATM   32  C   UNL     1      -6.707   1.885  63.440  1.00  0.00    -0.022 C  
BRANCH  27  33
HETATM   33  N   UNL     1      -9.842   2.987  63.282  1.00  0.00    -0.100 NA 
HETATM   34  C   UNL     1     -10.810   3.866  62.617  1.00  0.00    -0.091 C  
HETATM   35  C   UNL     1      -9.539   1.872  62.383  1.00  0.00    -0.089 C  
ENDBRANCH  27  33
ENDBRANCH  25  26
ENDBRANCH   5  25
BRANCH  14  36
HETATM   36  O   UNL     1      -8.451   7.438  68.909  1.00  0.00    -0.128 OA 
BRANCH  36  37
HETATM   37  C   UNL     1      -8.148   8.436  67.943  1.00  0.00    -0.123 C  
HETATM   38  C   UNL     1      -5.688  11.179  68.080  1.00  0.00    -0.045 C  
HETATM   39  C   UNL     1      -9.498  10.508  67.025  1.00  0.00    -0.163 C  
HETATM   40  C   UNL     1      -6.928  10.417  67.577  1.00  0.00    -0.084 C  
HETATM   41  O   UNL     1      -7.166   9.315  68.440  1.00  0.00    -0.075 OA 
HETATM   42  H   UNL     1     -10.961   8.536  66.255  1.00  0.00     0.000 HD 
HETATM   43  C   UNL     1      -9.470   9.036  67.478  1.00  0.00    -0.137 C  
HETATM   44  O   UNL     1     -10.137   8.162  66.544  1.00  0.00    -0.267 OA 
HETATM   45  C   UNL     1      -8.208  11.265  67.630  1.00  0.00    -0.120 C  
BRANCH  45  46
HETATM   46  O   UNL     1      -7.885  12.530  67.013  1.00  0.00    -0.147 OA 
BRANCH  46  47
HETATM   47  C   UNL     1      -7.860  13.540  68.001  1.00  0.00    -0.147 C  
HETATM   48  C   UNL     1      -7.386  14.847  67.396  1.00  0.00    -0.222 C  
HETATM   49  C   UNL     1     -10.565  14.823  69.956  1.00  0.00    -0.043 C  
HETATM   50  O   UNL     1      -8.998  13.588  68.810  1.00  0.00    -0.058 OA 
HETATM   51  H   UNL     1     -11.174  16.820  68.149  1.00  0.00     0.000 HD 
HETATM   52  C   UNL     1      -8.524  15.599  66.768  1.00  0.00    -0.272 C  
HETATM   53  C   UNL     1      -7.946  16.840  66.080  1.00  0.00    -0.273 C  
HETATM   54  O   UNL     1      -9.180  14.839  65.742  1.00  0.00    -0.513 OA 
HETATM   55  C   UNL     1      -9.479  15.884  67.922  1.00  0.00    -0.213 C  
HETATM   56  O   UNL     1     -10.579  16.643  67.430  1.00  0.00    -0.318 OA 
HETATM   57  H   UNL     1      -9.900  15.314  65.345  1.00  0.00     0.000 HD 
HETATM   58  C   UNL     1      -9.979  14.572  68.572  1.00  0.00    -0.238 C  
ENDBRANCH  46  47
ENDBRANCH  45  46
BRANCH  39  59
HETATM   59  N   UNL     1     -10.909  11.015  67.316  1.00  0.00    -0.265 NA 
HETATM   60  C   UNL     1     -11.529  10.764  68.590  1.00  0.00    -0.295 C  
HETATM   61  C   UNL     1     -11.589  12.094  66.621  1.00  0.00    -0.350 C  
ENDBRANCH  39  59
ENDBRANCH  36  37
ENDBRANCH  14  36
BRANCH  19  62
HETATM   62  O   UNL     1      -7.011   9.607  71.433  1.00  0.00    -0.325 OA 
HETATM   63  C   UNL     1      -5.698   9.270  71.019  1.00  0.00    -0.055 C  
ENDBRANCH  19  62
TORSDOF 9
ENDMDL
MODEL        4
REMARK 921   NORMALIZED FREE ENERGY PREDICTED BY IDOCK:   -2.98 KCAL/MOL
REMARK 922        TOTAL FREE ENERGY PREDICTED BY IDOCK:   -7.19 KCAL/MOL
REMARK 923 INTER-LIGAND FREE ENERGY PREDICTED BY IDOCK:   -6.04 KCAL/MOL
REMARK 924 INTRA-LIGAND FREE ENERGY PREDICTED BY IDOCK:   -1.14 KCAL/MOL
REMARK 927      BINDING AFFINITY PREDICTED BY RF-SCORE:    0.00 PKD
ROOT
HETATM    1  C   UNL     1      -9.304   6.657  66.397  1.00  0.00    -0.175 C  
HETATM    2  C   UNL     1      -8.625   6.754  65.194  1.00  0.00     0.038 C  
HETATM    3  C   UNL     1      -7.898   7.744  64.320  1.00  0.00    -0.138 C  
HETATM    4  C   UNL     1      -7.408   8.978  64.555  1.00  0.00    -0.099 C  
HETATM    5  C   UNL     1      -7.646   9.623  65.852  1.00  0.00    -0.103 C  
HETATM    6  O   UNL     1      -7.838   9.109  73.894  1.00  0.00    -0.057 OA 
HETATM    7  C   UNL     1      -6.431   9.256  66.778  1.00  0.00    -0.067 C  
HETATM    8  C   UNL     1     -11.153   5.249  69.717  1.00  0.00     0.522 C  
HETATM    9  C   UNL     1      -7.143   8.518  67.891  1.00  0.00    -0.086 C  
HETATM   10  C   UNL     1      -5.374   8.253  66.232  1.00  0.00    -0.028 C  
HETATM   11  C   UNL     1      -6.438   8.193  69.176  1.00  0.00    -0.040 C  
HETATM   12  C   UNL     1      -9.970   6.915  67.931  1.00  0.00    -0.174 C  
HETATM   13  C   UNL     1      -9.848   5.942  69.356  1.00  0.00    -0.161 C  
HETATM   14  C   UNL     1      -7.425   8.621  70.295  1.00  0.00    -0.066 C  
HETATM   15  C   UNL     1      -6.224   6.623  69.224  1.00  0.00    -0.030 C  
HETATM   16  C   UNL     1      -5.131   6.029  68.376  1.00  0.00    -0.003 C  
HETATM   17  O   UNL     1      -9.300   6.503  70.693  1.00  0.00    -0.161 OA 
HETATM   18  O   UNL     1     -11.059   6.566  72.214  1.00  0.00    -0.241 OA 
HETATM   19  C   UNL     1      -7.102   8.098  71.733  1.00  0.00    -0.078 C  
HETATM   20  C   UNL     1      -8.257   8.436  72.703  1.00  0.00    -0.126 C  
HETATM   21  H   UNL     1      -8.548   9.317  74.491  1.00  0.00     0.000 HD 
HETATM   22  C   UNL     1      -9.870   6.692  71.947  1.00  0.00    -0.166 C  
HETATM   23  O   UNL     1      -5.320   5.055  67.708  1.00  0.00    -0.010 OA 
HETATM   24  C   UNL     1      -8.884   7.101  73.058  1.00  0.00    -0.153 C  
ENDROOT
BRANCH   5  25
HETATM   25  O   UNL     1      -8.198  10.949  65.755  1.00  0.00    -0.162 OA 
BRANCH  25  26
HETATM   26  C   UNL     1      -8.837  11.126  64.461  1.00  0.00     0.088 C  
HETATM   27  C   UNL     1     -11.426  12.450  64.873  1.00  0.00    -0.332 C  
HETATM   28  C   UNL     1      -9.994  13.033  65.202  1.00  0.00    -0.152 C  
HETATM   29  C   UNL     1     -11.271  10.900  65.116  1.00  0.00     0.225 C  
HETATM   30  O   UNL     1      -9.068  12.515  64.252  1.00  0.00     0.666 OA 
HETATM   31  C   UNL     1     -10.143  10.352  64.244  1.00  0.00    -0.306 C  
HETATM   32  C   UNL     1      -9.789  14.536  65.264  1.00  0.00    -0.221 C  
BRANCH  27  33
HETATM   33  N   UNL     1     -11.999  12.736  63.549  1.00  0.00    -0.526 NA 
HETATM   34  C   UNL     1     -13.119  11.849  63.217  1.00  0.00     0.159 C  
HETATM   35  C   UNL     1     -12.447  14.121  63.394  1.00  0.00     0.508 C  
ENDBRANCH  27  33
ENDBRANCH  25  26
ENDBRANCH   5  25
BRANCH  14  36
HETATM   36  O   UNL     1      -8.340   9.745  70.131  1.00  0.00    -0.181 OA 
BRANCH  36  37
HETATM   37  C   UNL     1      -8.215  10.697  69.082  1.00  0.00    -0.139 C  
HETATM   38  C   UNL     1      -5.722  13.373  68.614  1.00  0.00    -0.084 C  
HETATM   39  C   UNL     1      -9.678  12.771  68.362  1.00  0.00    -0.186 C  
HETATM   40  C   UNL     1      -7.053  12.628  68.398  1.00  0.00    -0.101 C  
HETATM   41  O   UNL     1      -7.137  11.566  69.338  1.00  0.00    -0.105 OA 
HETATM   42  H   UNL     1     -11.305  10.813  67.982  1.00  0.00     0.000 HD 
HETATM   43  C   UNL     1      -9.591  11.316  68.863  1.00  0.00    -0.105 C  
HETATM   44  O   UNL     1     -10.448  10.427  68.117  1.00  0.00    -0.166 OA 
HETATM   45  C   UNL     1      -8.279  13.513  68.667  1.00  0.00    -0.040 C  
BRANCH  45  46
HETATM   46  O   UNL     1      -8.059  14.745  67.945  1.00  0.00    -0.125 OA 
BRANCH  46  47
HETATM   47  C   UNL     1      -8.520  15.831  68.723  1.00  0.00    -0.198 C  
HETATM   48  C   UNL     1      -7.343  16.639  69.233  1.00  0.00    -0.184 C  
HETATM   49  C   UNL     1     -10.631  18.545  67.745  1.00  0.00    -0.422 C  
HETATM   50  O   UNL     1      -9.583  16.540  68.158  1.00  0.00    -0.219 OA 
HETATM   51  H   UNL     1      -8.523  20.168  67.004  1.00  0.00     0.000 HD 
HETATM   52  C   UNL     1      -6.902  17.655  68.219  1.00  0.00    -0.213 C  
HETATM   53  C   UNL     1      -5.643  18.343  68.758  1.00  0.00    -0.187 C  
HETATM   54  O   UNL     1      -6.527  17.052  66.971  1.00  0.00    -0.158 OA 
HETATM   55  C   UNL     1      -8.110  18.566  68.036  1.00  0.00    -0.271 C  
HETATM   56  O   UNL     1      -7.770  19.600  67.118  1.00  0.00    -0.244 OA 
HETATM   57  H   UNL     1      -6.248  17.694  66.329  1.00  0.00     0.000 HD 
HETATM   58  C   UNL     1      -9.336  17.774  67.523  1.00  0.00    -0.245 C  
ENDBRANCH  46  47
ENDBRANCH  45  46
BRANCH  39  59
HETATM   59  N   UNL     1     -10.993  13.328  68.905  1.00  0.00    -0.251 NA 
HETATM   60  C   UNL     1     -11.886  14.064  68.048  1.00  0.00    -0.368 C  
HETATM   61  C   UNL     1     -11.690  12.868  70.093  1.00  0.00    -0.159 C  
ENDBRANCH  39  59
ENDBRANCH  36  37
ENDBRANCH  14  36
BRANCH  19  62
HETATM   62  O   UNL     1      -5.834   8.323  72.333  1.00  0.00    -0.043 OA 
HETATM   63  C   UNL     1      -5.335   9.638  72.510  1.00  0.00     0.004 C  
ENDBRANCH  19  62
TORSDOF 9
ENDMDL
MODEL        5
REMARK 921   NORMALIZED FREE ENERGY PREDICTED BY IDOCK:   -0.86 KCAL/MOL
REMARK 922        TOTAL FREE ENERGY PREDICTED BY IDOCK:   -3.94 KCAL/MOL
REMARK 923 INTER-LIGAND FREE ENERGY PREDICTED BY IDOCK:   -4.54 KCAL/MOL
REMARK 924 INTRA-LIGAND FREE ENERGY PREDICTED BY IDOCK:    0.59 KCAL/MOL
REMARK 927      BINDING AFFINITY PREDICTED BY RF-SCORE:    0.00 PKD
ROOT
HETATM    1  C   UNL     1      -9.133   2.908  70.002  1.00  0.00    -0.193 C  
HETATM    2  C   UNL     1      -8.226   1.956  69.570  1.00  0.00    -0.065 C  
HETATM    3  C   UNL     1      -7.269   1.656  68.444  1.00  0.00    -0.039 C  
HETATM    4  C   UNL     1      -6.745   2.422  67.465  1.00  0.00    -0.040 C  
HETATM    5  C   UNL     1      -7.185   3.813  67.313  1.00  0.00    -0.064 C  
HETATM    6  O   UNL     1      -8.995  10.899  70.704  1.00  0.00     1.160 OA 
HETATM    7  C   UNL     1      -6.207   4.701  68.164  1.00  0.00    -0.035 C  
HETATM    8  C   UNL     1     -11.699   5.099  72.247  1.00  0.00     0.188 C  
HETATM    9  C   UNL     1      -7.177   5.318  69.148  1.00  0.00    -0.058 C  
HETATM   10  C   UNL     1      -5.140   3.980  69.038  1.00  0.00    -0.004 C  
HETATM   11  C   UNL     1      -6.764   6.470  70.019  1.00  0.00    -0.049 C  
HETATM   12  C   UNL     1     -10.067   4.300  70.232  1.00  0.00    -0.096 C  
HETATM   13  C   UNL     1     -10.300   5.240  71.666  1.00  0.00    -0.216 C  
HETATM   14  C   UNL     1      -7.918   7.501  69.893  1.00  0.00    -0.123 C  
HETATM   15  C   UNL     1      -6.682   5.940  71.510  1.00  0.00    -0.055 C  
HETATM   16  C   UNL     1      -5.489   5.108  71.903  1.00  0.00    -0.005 C  
HETATM   17  O   UNL     1      -9.986   6.757  71.718  1.00  0.00    -0.175 OA 
HETATM   18  O   UNL     1     -12.002   7.893  71.965  1.00  0.00    -0.292 OA 
HETATM   19  C   UNL     1      -7.925   8.656  70.948  1.00  0.00    -0.122 C  
HETATM   20  C   UNL     1      -9.220   9.492  70.827  1.00  0.00    -0.128 C  
HETATM   21  H   UNL     1      -9.791  11.413  70.630  1.00  0.00     0.000 HD 
HETATM   22  C   UNL     1     -10.777   7.882  71.921  1.00  0.00    -0.237 C  
HETATM   23  O   UNL     1      -5.614   4.095  72.527  1.00  0.00    -0.003 OA 
HETATM   24  C   UNL     1     -10.002   9.202  72.094  1.00  0.00     0.112 C  
ENDROOT
BRANCH   5  25
HETATM   25  O   UNL     1      -7.607   4.153  65.979  1.00  0.00    -0.087 OA 
BRANCH  25  26
HETATM   26  C   UNL     1      -7.721   5.597  65.850  1.00  0.00    -0.095 C  
HETATM   27  C   UNL     1      -6.672   6.384  63.223  1.00  0.00    -0.041 C  
HETATM   28  C   UNL     1      -7.916   5.454  63.512  1.00  0.00    -0.100 C  
HETATM   29  C   UNL     1      -5.692   6.093  64.423  1.00  0.00    -0.022 C  
HETATM   30  O   UNL     1      -8.534   5.891  64.719  1.00  0.00    -0.128 OA 
HETATM   31  C   UNL     1      -6.402   6.371  65.746  1.00  0.00    -0.039 C  
HETATM   32  C   UNL     1      -9.009   5.311  62.467  1.00  0.00     0.019 C  
BRANCH  27  33
HETATM   33  N   UNL     1      -6.912   7.825  63.057  1.00  0.00    -0.078 NA 
HETATM   34  C   UNL     1      -7.968   8.326  63.944  1.00  0.00    -0.146 C  
HETATM   35  C   UNL     1      -5.715   8.643  63.260  1.00  0.00    -0.073 C  
ENDBRANCH  27  33
ENDBRANCH  25  26
ENDBRANCH   5  25
BRANCH  14  36
HETATM   36  O   UNL     1      -8.697   7.645  68.669  1.00  0.00    -0.129 OA 
BRANCH  36  37
HETATM   37  C   UNL     1      -8.498   8.708  67.746  1.00  0.00    -0.125 C  
HETATM   38  C   UNL     1      -6.052  11.465  67.819  1.00  0.00    -0.049 C  
HETATM   39  C   UNL     1      -9.944  10.819  67.105  1.00  0.00    -0.194 C  
HETATM   40  C   UNL     1      -7.332  10.723  67.392  1.00  0.00    -0.094 C  
HETATM   41  O   UNL     1      -7.477   9.564  68.200  1.00  0.00    -0.078 OA 
HETATM   42  H   UNL     1     -11.467   8.884  66.356  1.00  0.00     0.000 HD 
HETATM   43  C   UNL     1      -9.864   9.321  67.455  1.00  0.00    -0.175 C  
HETATM   44  O   UNL     1     -10.616   8.502  66.537  1.00  0.00    -0.200 OA 
HETATM   45  C   UNL     1      -8.604  11.550  67.628  1.00  0.00    -0.135 C  
BRANCH  45  46
HETATM   46  O   UNL     1      -8.352  12.857  67.067  1.00  0.00    -0.174 OA 
BRANCH  46  47
HETATM   47  C   UNL     1      -8.636  13.845  68.036  1.00  0.00    -0.178 C  
HETATM   48  C   UNL     1      -7.442  14.030  68.953  1.00  0.00    -0.095 C  
HETATM   49  C   UNL     1      -9.453  17.290  67.545  1.00  0.00    -0.245 C  
HETATM   50  O   UNL     1      -9.235  15.000  67.529  1.00  0.00    -0.183 OA 
HETATM   51  H   UNL     1      -6.826  18.130  67.681  1.00  0.00     0.000 HD 
HETATM   52  C   UNL     1      -6.454  14.999  68.369  1.00  0.00    -0.104 C  
HETATM   53  C   UNL     1      -5.232  15.039  69.293  1.00  0.00    -0.090 C  
HETATM   54  O   UNL     1      -5.974  14.579  67.083  1.00  0.00    -0.219 OA 
HETATM   55  C   UNL     1      -7.223  16.310  68.256  1.00  0.00    -0.141 C  
HETATM   56  O   UNL     1      -6.347  17.313  67.751  1.00  0.00    -0.142 OA 
HETATM   57  H   UNL     1      -5.349  15.192  66.714  1.00  0.00     0.000 HD 
HETATM   58  C   UNL     1      -8.455  16.159  67.334  1.00  0.00    -0.170 C  
ENDBRANCH  46  47
ENDBRANCH  45  46
BRANCH  39  59
HETATM   59  N   UNL     1     -11.322  11.289  67.568  1.00  0.00    -0.417 NA 
HETATM   60  C   UNL     1     -12.137  10.453  68.410  1.00  0.00     0.767 C  
HETATM   61  C   UNL     1     -11.784  12.665  67.617  1.00  0.00    -0.361 C  
ENDBRANCH  39  59
ENDBRANCH  36  37
ENDBRANCH  14  36
BRANCH  19  62
HETATM   62  O   UNL     1      -6.787   9.484  71.142  1.00  0.00    -0.247 OA 
HETATM   63  C   UNL     1      -5.484   9.015  70.838  1.00  0.00    -0.031 C  
ENDBRANCH  19  62
TORSDOF 9
ENDMDL
MODEL        6
REMARK 921   NORMALIZED FREE ENERGY PREDICTED BY IDOCK:   -0.31 KCAL/MOL
REMARK 922        TOTAL FREE ENERGY PREDICTED BY IDOCK:   -3.11 KCAL/MOL
REMARK 923 INTER-LIGAND FREE ENERGY PREDICTED BY IDOCK:   -5.23 KCAL/MOL
REMARK 924 INTRA-LIGAND FREE ENERGY PREDICTED BY IDOCK:    2.12 KCAL/MOL
REMARK 927      BINDING AFFINITY PREDICTED BY RF-SCORE:    0.00 PKD
ROOT
HETATM    1  C   UNL     1      -8.098  13.137  67.466  1.00  0.00    -0.181 C  
HETATM    2  C   UNL     1      -8.709  14.083  66.662  1.00  0.00    -0.055 C  
HETATM    3  C   UNL     1      -9.543  14.216  65.413  1.00  0.00     0.020 C  
HETATM    4  C   UNL     1     -10.252  13.323  64.691  1.00  0.00    -0.334 C  
HETATM    5  C   UNL     1     -10.207  11.900  65.045  1.00  0.00    -0.278 C  
HETATM    6  O   UNL     1     -10.410   6.178  70.719  1.00  0.00    -0.197 OA 
HETATM    7  C   UNL     1     -11.394  11.635  66.040  1.00  0.00    -0.261 C  
HETATM    8  C   UNL     1      -6.235  11.264  70.539  1.00  0.00     0.004 C  
HETATM    9  C   UNL     1     -10.633  11.164  67.260  1.00  0.00    -0.279 C  
HETATM   10  C   UNL     1     -12.227  12.856  66.523  1.00  0.00    -0.258 C  
HETATM   11  C   UNL     1     -11.347  10.522  68.415  1.00  0.00    -0.328 C  
HETATM   12  C   UNL     1      -7.579  11.718  68.226  1.00  0.00    -0.122 C  
HETATM   13  C   UNL     1      -7.617  11.295  69.903  1.00  0.00     0.642 C  
HETATM   14  C   UNL     1     -10.517   9.252  68.745  1.00  0.00    -0.210 C  
HETATM   15  C   UNL     1     -11.288  11.530  69.636  1.00  0.00    -0.329 C  
HETATM   16  C   UNL     1     -12.211  12.721  69.619  1.00  0.00    -0.126 C  
HETATM   17  O   UNL     1      -8.332  10.020  70.417  1.00  0.00    -0.131 OA 
HETATM   18  O   UNL     1      -6.704   8.562  71.215  1.00  0.00    -0.053 OA 
HETATM   19  C   UNL     1     -10.830   8.564  70.113  1.00  0.00    -0.233 C  
HETATM   20  C   UNL     1      -9.811   7.436  70.397  1.00  0.00    -0.183 C  
HETATM   21  H   UNL     1      -9.784   5.485  70.894  1.00  0.00     0.000 HD 
HETATM   22  C   UNL     1      -7.879   8.869  71.052  1.00  0.00    -0.137 C  
HETATM   23  O   UNL     1     -11.817  13.818  69.888  1.00  0.00    -0.297 OA 
HETATM   24  C   UNL     1      -8.985   7.930  71.570  1.00  0.00    -0.167 C  
ENDROOT
BRANCH   5  25
HETATM   25  O   UNL     1      -9.888  11.031  63.942  1.00  0.00    -0.258 OA 
BRANCH  25  26
HETATM   26  C   UNL     1      -9.437   9.742  64.443  1.00  0.00    -0.166 C  
HETATM   27  C   UNL     1      -6.613   9.394  63.716  1.00  0.00    -0.095 C  
HETATM   28  C   UNL     1      -7.225  10.507  64.656  1.00  0.00     0.068 C  
HETATM   29  C   UNL     1      -7.752   9.119  62.662  1.00  0.00    -0.117 C  
HETATM   30  O   UNL     1      -8.349   9.955  65.335  1.00  0.00    -0.134 OA 
HETATM   31  C   UNL     1      -9.034   8.710  63.383  1.00  0.00     0.439 C  
HETATM   32  C   UNL     1      -6.348  11.178  65.700  1.00  0.00     0.197 C  
BRANCH  27  33
HETATM   33  N   UNL     1      -6.140   8.149  64.339  1.00  0.00    -0.056 NA 
HETATM   34  C   UNL     1      -5.443   7.274  63.391  1.00  0.00    -0.034 C  
HETATM   35  C   UNL     1      -5.263   8.369  65.491  1.00  0.00    -0.031 C  
ENDBRANCH  27  33
ENDBRANCH  25  26
ENDBRANCH   5  25
BRANCH  14  36
HETATM   36  O   UNL     1      -9.801   8.507  67.715  1.00  0.00    -0.159 OA 
BRANCH  36  37
HETATM   37  C   UNL     1      -9.210   7.236  67.951  1.00  0.00    -0.131 C  
HETATM   38  C   UNL     1      -5.682   6.351  68.548  1.00  0.00    -0.019 C  
HETATM   39  C   UNL     1      -8.849   5.117  66.421  1.00  0.00    -0.120 C  
HETATM   40  C   UNL     1      -7.155   6.108  68.172  1.00  0.00    -0.082 C  
HETATM   41  O   UNL     1      -7.814   7.362  68.080  1.00  0.00    -0.114 OA 
HETATM   42  H   UNL     1     -11.416   5.258  66.537  1.00  0.00     0.000 HD 
HETATM   43  C   UNL     1      -9.743   6.282  66.887  1.00  0.00    -0.151 C  
HETATM   44  O   UNL     1     -11.084   5.852  67.200  1.00  0.00    -0.256 OA 
HETATM   45  C   UNL     1      -7.315   5.457  66.790  1.00  0.00    -0.086 C  
BRANCH  45  46
HETATM   46  O   UNL     1      -6.407   4.334  66.760  1.00  0.00    -0.035 OA 
BRANCH  46  47
HETATM   47  C   UNL     1      -7.124   3.145  67.023  1.00  0.00    -0.058 C  
HETATM   48  C   UNL     1      -6.255   2.178  67.804  1.00  0.00    -0.025 C  
HETATM   49  C   UNL     1     -10.157   2.724  68.867  1.00  0.00     0.911 C  
HETATM   50  O   UNL     1      -8.428   3.343  67.483  1.00  0.00    -0.091 OA 
HETATM   51  H   UNL     1      -8.863   2.293  71.268  1.00  0.00     0.000 HD 
HETATM   52  C   UNL     1      -6.325   2.454  69.279  1.00  0.00    -0.029 C  
HETATM   53  C   UNL     1      -5.335   1.518  69.981  1.00  0.00    -0.008 C  
HETATM   54  O   UNL     1      -5.916   3.791  69.604  1.00  0.00    -0.021 OA 
HETATM   55  C   UNL     1      -7.790   2.235  69.641  1.00  0.00    -0.042 C  
HETATM   56  O   UNL     1      -7.950   2.430  71.042  1.00  0.00    -0.048 OA 
HETATM   57  H   UNL     1      -5.961   3.966  70.536  1.00  0.00     0.000 HD 
HETATM   58  C   UNL     1      -8.710   3.200  68.856  1.00  0.00    -0.090 C  
ENDBRANCH  46  47
ENDBRANCH  45  46
BRANCH  39  59
HETATM   59  N   UNL     1      -9.258   4.819  64.980  1.00  0.00    -0.153 NA 
HETATM   60  C   UNL     1      -8.351   5.078  63.892  1.00  0.00    -0.132 C  
HETATM   61  C   UNL     1     -10.309   3.909  64.561  1.00  0.00    -0.220 C  
ENDBRANCH  39  59
ENDBRANCH  36  37
ENDBRANCH  14  36
BRANCH  19  62
HETATM   62  O   UNL     1     -12.151   8.170  70.457  1.00  0.00    -0.058 OA 
HETATM   63  C   UNL     1     -12.731   8.563  71.689  1.00  0.00    -0.332 C  
ENDBRANCH  19  62
TORSDOF 9
ENDMDL
MODEL        7
REMARK 921   NORMALIZED FREE ENERGY PREDICTED BY IDOCK:   -0.27 KCAL/MOL
REMARK 922        TOTAL FREE ENERGY PREDICTED BY IDOCK:   -3.04 KCAL/MOL
REMARK 923 INTER-LIGAND FREE ENERGY PREDICTED BY IDOCK:   -5.31 KCAL/MOL
REMARK 924 INTRA-LIGAND FREE ENERGY PREDICTED BY IDOCK:    2.26 KCAL/MOL
REMARK 927      BINDING AFFINITY PREDICTED BY RF-SCORE:    0.00 PKD
ROOT
HETATM    1  C   UNL     1      -7.483   8.671  67.619  1.00  0.00    -0.090 C  
HETATM    2  C   UNL     1      -6.137   8.986  67.544  1.00  0.00    -0.051 C  
HETATM    3  C   UNL     1      -5.125   9.988  68.038  1.00  0.00    -0.035 C  
HETATM    4  C   UNL     1      -5.159  10.903  69.028  1.00  0.00    -0.041 C  
HETATM    5  C   UNL     1      -6.398  11.117  69.784  1.00  0.00    -0.130 C  
HETATM    6  O   UNL     1     -12.780   8.014  73.609  1.00  0.00     0.825 OA 
HETATM    7  C   UNL     1      -6.346  10.162  71.031  1.00  0.00     0.067 C  
HETATM    8  C   UNL     1     -11.050   6.762  67.382  1.00  0.00    -0.366 C  
HETATM    9  C   UNL     1      -7.567   9.304  70.774  1.00  0.00    -0.154 C  
HETATM   10  C   UNL     1      -5.159   9.163  71.137  1.00  0.00    -0.031 C  
HETATM   11  C   UNL     1      -8.112   8.399  71.841  1.00  0.00    -0.193 C  
HETATM   12  C   UNL     1      -9.123   8.564  68.019  1.00  0.00    -0.144 C  
HETATM   13  C   UNL     1     -10.056   7.175  68.458  1.00  0.00    -0.168 C  
HETATM   14  C   UNL     1      -9.641   8.667  71.853  1.00  0.00    -0.307 C  
HETATM   15  C   UNL     1      -7.836   6.904  71.391  1.00  0.00    -0.100 C  
HETATM   16  C   UNL     1      -6.436   6.367  71.533  1.00  0.00    -0.050 C  
HETATM   17  O   UNL     1     -10.842   7.096  69.792  1.00  0.00    -0.234 OA 
HETATM   18  O   UNL     1     -13.112   7.098  69.283  1.00  0.00     3.323 OA 
HETATM   19  C   UNL     1     -10.515   7.630  72.631  1.00  0.00    -0.287 C  
HETATM   20  C   UNL     1     -12.018   7.909  72.403  1.00  0.00    -0.320 C  
HETATM   21  H   UNL     1     -13.704   8.186  73.469  1.00  0.00     0.000 HD 
HETATM   22  C   UNL     1     -12.196   6.996  70.090  1.00  0.00     0.097 C  
HETATM   23  O   UNL     1      -5.910   5.756  70.650  1.00  0.00    -0.022 OA 
HETATM   24  C   UNL     1     -12.520   6.741  71.575  1.00  0.00    -0.390 C  
ENDROOT
BRANCH   5  25
HETATM   25  O   UNL     1      -6.813  12.493  69.856  1.00  0.00     0.128 OA 
BRANCH  25  26
HETATM   26  C   UNL     1      -6.576  13.148  68.579  1.00  0.00    -0.088 C  
HETATM   27  C   UNL     1      -7.479  15.935  68.778  1.00  0.00    -0.170 C  
HETATM   28  C   UNL     1      -6.325  15.245  69.608  1.00  0.00    -0.154 C  
HETATM   29  C   UNL     1      -8.515  14.773  68.528  1.00  0.00    -0.159 C  
HETATM   30  O   UNL     1      -5.709  14.257  68.789  1.00  0.00    -0.081 OA 
HETATM   31  C   UNL     1      -7.824  13.611  67.817  1.00  0.00    -0.172 C  
HETATM   32  C   UNL     1      -5.218  16.095  70.206  1.00  0.00    -0.164 C  
BRANCH  27  33
HETATM   33  N   UNL     1      -7.116  16.614  67.525  1.00  0.00    -0.135 NA 
HETATM   34  C   UNL     1      -8.189  17.478  67.021  1.00  0.00    -0.218 C  
HETATM   35  C   UNL     1      -5.894  17.412  67.627  1.00  0.00    -0.135 C  
ENDBRANCH  27  33
ENDBRANCH  25  26
ENDBRANCH   5  25
BRANCH  14  36
HETATM   36  O   UNL     1     -10.198   9.977  71.534  1.00  0.00     0.443 OA 
BRANCH  36  37
HETATM   37  C   UNL     1     -11.136  10.183  70.484  1.00  0.00    -0.327 C  
HETATM   38  C   UNL     1     -10.590  10.385  66.844  1.00  0.00    -0.293 C  
HETATM   39  C   UNL     1     -12.592  12.262  69.767  1.00  0.00     0.307 C  
HETATM   40  C   UNL     1     -11.341  10.586  68.173  1.00  0.00    -0.254 C  
HETATM   41  O   UNL     1     -10.474  10.237  69.243  1.00  0.00    -0.199 OA 
HETATM   42  H   UNL     1     -13.541  11.726  72.099  1.00  0.00     0.000 HD 
HETATM   43  C   UNL     1     -12.007  11.371  70.879  1.00  0.00    -0.166 C  
HETATM   44  O   UNL     1     -12.999  10.986  71.853  1.00  0.00    -0.457 OA 
HETATM   45  C   UNL     1     -11.730  12.051  68.420  1.00  0.00    -0.332 C  
BRANCH  45  46
HETATM   46  O   UNL     1     -12.354  12.518  67.204  1.00  0.00    -0.376 OA 
BRANCH  46  47
HETATM   47  C   UNL     1     -11.384  13.148  66.393  1.00  0.00    -0.315 C  
HETATM   48  C   UNL     1     -10.997  12.235  65.245  1.00  0.00    -0.347 C  
HETATM   49  C   UNL     1     -11.646  16.206  64.560  1.00  0.00    -0.164 C  
HETATM   50  O   UNL     1     -11.665  14.480  66.080  1.00  0.00    -0.366 OA 
HETATM   51  H   UNL     1     -12.547  14.972  62.259  1.00  0.00     0.000 HD 
HETATM   52  C   UNL     1     -11.945  12.383  64.090  1.00  0.00    -0.435 C  
HETATM   53  C   UNL     1     -11.557  11.349  63.027  1.00  0.00     0.310 C  
HETATM   54  O   UNL     1     -13.302  12.093  64.458  1.00  0.00    -0.691 OA 
HETATM   55  C   UNL     1     -11.802  13.838  63.659  1.00  0.00    -0.173 C  
HETATM   56  O   UNL     1     -12.636  14.065  62.528  1.00  0.00     0.252 OA 
HETATM   57  H   UNL     1     -13.902  12.186  63.727  1.00  0.00     0.000 HD 
HETATM   58  C   UNL     1     -12.182  14.802  64.809  1.00  0.00    -0.348 C  
ENDBRANCH  46  47
ENDBRANCH  45  46
BRANCH  39  59
HETATM   59  N   UNL     1     -12.757  13.651  70.380  1.00  0.00    -0.203 NA 
HETATM   60  C   UNL     1     -12.061  14.783  69.828  1.00  0.00    -0.319 C  
HETATM   61  C   UNL     1     -13.859  14.090  71.218  1.00  0.00    -0.105 C  
ENDBRANCH  39  59
ENDBRANCH  36  37
ENDBRANCH  14  36
BRANCH  19  62
HETATM   62  O   UNL     1     -10.244   7.307  73.988  1.00  0.00    -0.311 OA 
HETATM   63  C   UNL     1     -10.131   5.958  74.407  1.00  0.00    -0.292 C  
ENDBRANCH  19  62
TORSDOF 9
ENDMDL
MODEL        8
REMARK 921   NORMALIZED FREE ENERGY PREDICTED BY IDOCK:   -0.23 KCAL/MOL
REMARK 922        TOTAL FREE ENERGY PREDICTED BY IDOCK:   -2.98 KCAL/MOL
REMARK 923 INTER-LIGAND FREE ENERGY PREDICTED BY IDOCK:   -1.39 KCAL/MOL
REMARK 924 INTRA-LIGAND FREE ENERGY PREDICTED BY IDOCK:   -1.59 KCAL/MOL
REMARK 927      BINDING AFFINITY PREDICTED BY RF-SCORE:    0.00 PKD
ROOT
HETATM    1  C   UNL     1     -12.437  13.707  67.293  1.00  0.00    -0.012 C  
HETATM    2  C   UNL     1     -12.622  14.297  68.531  1.00  0.00     0.464 C  
HETATM    3  C   UNL     1     -12.658  13.974  70.004  1.00  0.00    -0.250 C  
HETATM    4  C   UNL     1     -12.245  12.903  70.712  1.00  0.00    -0.348 C  
HETATM    5  C   UNL     1     -11.724  11.723  70.013  1.00  0.00    -0.305 C  
HETATM    6  O   UNL     1      -7.035   8.627  64.233  1.00  0.00    -0.080 OA 
HETATM    7  C   UNL     1     -10.168  11.908  69.895  1.00  0.00     1.308 C  
HETATM    8  C   UNL     1     -11.799  13.081  63.340  1.00  0.00    -0.543 C  
HETATM    9  C   UNL     1     -10.002  11.910  68.390  1.00  0.00    -0.203 C  
HETATM   10  C   UNL     1      -9.555  13.255  70.376  1.00  0.00     4.460 C  
HETATM   11  C   UNL     1      -8.642  11.790  67.764  1.00  0.00    -0.151 C  
HETATM   12  C   UNL     1     -12.079  12.667  66.008  1.00  0.00    -0.429 C  
HETATM   13  C   UNL     1     -11.039  12.922  64.649  1.00  0.00    -0.324 C  
HETATM   14  C   UNL     1      -8.803  10.711  66.660  1.00  0.00    -0.141 C  
HETATM   15  C   UNL     1      -8.294  13.186  67.100  1.00  0.00    -0.146 C  
HETATM   16  C   UNL     1      -7.871  14.316  68.001  1.00  0.00    -0.143 C  
HETATM   17  O   UNL     1      -9.858  11.972  64.323  1.00  0.00    -0.243 OA 
HETATM   18  O   UNL     1     -10.361  10.865  62.339  1.00  0.00     0.239 OA 
HETATM   19  C   UNL     1      -7.639  10.613  65.620  1.00  0.00    -0.100 C  
HETATM   20  C   UNL     1      -8.014   9.640  64.478  1.00  0.00    -0.140 C  
HETATM   21  H   UNL     1      -7.264   8.029  63.531  1.00  0.00     0.000 HD 
HETATM   22  C   UNL     1      -9.584  11.135  63.248  1.00  0.00    -0.351 C  
HETATM   23  O   UNL     1      -8.326  15.415  67.879  1.00  0.00    -0.139 OA 
HETATM   24  C   UNL     1      -8.175  10.512  63.248  1.00  0.00    -0.111 C  
ENDROOT
BRANCH   5  25
HETATM   25  O   UNL     1     -12.348  10.486  70.403  1.00  0.00    -0.301 OA 
BRANCH  25  26
HETATM   26  C   UNL     1     -12.118  10.241  71.818  1.00  0.00    -0.100 C  
HETATM   27  C   UNL     1     -11.059   7.521  72.134  1.00  0.00    -0.256 C  
HETATM   28  C   UNL     1     -10.386   8.720  71.356  1.00  0.00    -0.278 C  
HETATM   29  C   UNL     1     -12.605   7.762  71.943  1.00  0.00    -0.339 C  
HETATM   30  O   UNL     1     -10.741   9.936  72.009  1.00  0.00     0.629 OA 
HETATM   31  C   UNL     1     -12.978   9.148  72.462  1.00  0.00    -0.416 C  
HETATM   32  C   UNL     1      -8.881   8.736  71.152  1.00  0.00    -0.275 C  
BRANCH  27  33
HETATM   33  N   UNL     1     -10.712   7.337  73.552  1.00  0.00    -0.374 NA 
HETATM   34  C   UNL     1     -10.945   5.965  74.016  1.00  0.00     0.255 C  
HETATM   35  C   UNL     1      -9.329   7.699  73.865  1.00  0.00    -0.213 C  
ENDBRANCH  27  33
ENDBRANCH  25  26
ENDBRANCH   5  25
BRANCH  14  36
HETATM   36  O   UNL     1      -9.738   9.600  66.795  1.00  0.00    -0.174 OA 
BRANCH  36  37
HETATM   37  C   UNL     1      -9.431   8.413  67.515  1.00  0.00    -0.149 C  
HETATM   38  C   UNL     1      -6.236   7.315  68.992  1.00  0.00    -0.035 C  
HETATM   39  C   UNL     1      -9.274   5.877  66.805  1.00  0.00    -0.133 C  
HETATM   40  C   UNL     1      -7.668   7.160  68.445  1.00  0.00    -0.120 C  
HETATM   41  O   UNL     1      -8.064   8.387  67.852  1.00  0.00    -0.119 OA 
HETATM   42  H   UNL     1     -11.763   6.391  66.399  1.00  0.00     0.000 HD 
HETATM   43  C   UNL     1      -9.989   7.239  66.718  1.00  0.00    -0.217 C  
HETATM   44  O   UNL     1     -11.416   7.122  66.896  1.00  0.00     0.101 OA 
HETATM   45  C   UNL     1      -7.766   6.112  67.327  1.00  0.00    -0.094 C  
BRANCH  45  46
HETATM   46  O   UNL     1      -7.086   4.933  67.811  1.00  0.00    -0.060 OA 
BRANCH  46  47
HETATM   47  C   UNL     1      -8.031   4.049  68.380  1.00  0.00    -0.072 C  
HETATM   48  C   UNL     1      -7.364   2.733  68.730  1.00  0.00    -0.048 C  
HETATM   49  C   UNL     1      -9.966   4.459  71.358  1.00  0.00    -0.248 C  
HETATM   50  O   UNL     1      -8.852   4.625  69.352  1.00  0.00    -0.084 OA 
HETATM   51  H   UNL     1      -8.085   3.246  72.976  1.00  0.00     0.000 HD 
HETATM   52  C   UNL     1      -6.721   2.793  70.085  1.00  0.00    -0.033 C  
HETATM   53  C   UNL     1      -5.973   1.474  70.311  1.00  0.00    -0.018 C  
HETATM   54  O   UNL     1      -5.737   3.834  70.176  1.00  0.00    -0.015 OA 
HETATM   55  C   UNL     1      -7.874   3.055  71.047  1.00  0.00    -0.047 C  
HETATM   56  O   UNL     1      -7.366   3.082  72.377  1.00  0.00    -0.044 OA 
HETATM   57  H   UNL     1      -5.330   3.873  71.034  1.00  0.00     0.000 HD 
HETATM   58  C   UNL     1      -8.586   4.389  70.716  1.00  0.00    -0.091 C  
ENDBRANCH  46  47
ENDBRANCH  45  46
BRANCH  39  59
HETATM   59  N   UNL     1      -9.541   5.172  65.477  1.00  0.00    -0.097 NA 
HETATM   60  C   UNL     1      -8.585   5.246  64.403  1.00  0.00    -0.093 C  
HETATM   61  C   UNL     1     -10.462   4.069  65.265  1.00  0.00    -0.060 C  
ENDBRANCH  39  59
ENDBRANCH  36  37
ENDBRANCH  14  36
BRANCH  19  62
HETATM   62  O   UNL     1      -6.292  10.435  66.035  1.00  0.00    -0.093 OA 
HETATM   63  C   UNL     1      -5.247  11.208  65.469  1.00  0.00     0.009 C  
ENDBRANCH  19  62
TORSDOF 9
ENDMDL
MODEL        9
REMARK 921   NORMALIZED FREE ENERGY PREDICTED BY IDOCK:    0.61 KCAL/MOL
REMARK 922        TOTAL FREE ENERGY PREDICTED BY IDOCK:   -1.70 KCAL/MOL
REMARK 923 INTER-LIGAND FREE ENERGY PREDICTED BY IDOCK:   -4.46 KCAL/MOL
REMARK 924 INTRA-LIGAND FREE ENERGY PREDICTED BY IDOCK:    2.76 KCAL/MOL
REMARK 927      BINDING AFFINITY PREDICTED BY RF-SCORE:    0.00 PKD
ROOT
HETATM    1  C   UNL     1      -8.912   2.804  71.219  1.00  0.00    -0.161 C  
HETATM    2  C   UNL     1      -7.917   1.903  70.884  1.00  0.00    -0.047 C  
HETATM    3  C   UNL     1      -6.984   1.532  69.758  1.00  0.00    -0.033 C  
HETATM    4  C   UNL     1      -6.604   2.181  68.639  1.00  0.00    -0.029 C  
HETATM    5  C   UNL     1      -7.217   3.470  68.299  1.00  0.00    -0.051 C  
HETATM    6  O   UNL     1      -9.718  10.765  70.645  1.00  0.00     0.596 OA 
HETATM    7  C   UNL     1      -6.316   4.590  68.933  1.00  0.00    -0.032 C  
HETATM    8  C   UNL     1     -11.619   5.029  73.255  1.00  0.00    -0.251 C  
HETATM    9  C   UNL     1      -7.307   5.246  69.870  1.00  0.00    -0.064 C  
HETATM   10  C   UNL     1      -5.130   4.147  69.838  1.00  0.00     0.000 C  
HETATM   11  C   UNL     1      -6.998   6.565  70.520  1.00  0.00    -0.064 C  
HETATM   12  C   UNL     1      -9.997   4.100  71.288  1.00  0.00    -0.216 C  
HETATM   13  C   UNL     1     -10.277   5.229  72.568  1.00  0.00    -0.191 C  
HETATM   14  C   UNL     1      -8.273   7.424  70.310  1.00  0.00    -0.132 C  
HETATM   15  C   UNL     1      -6.782   6.299  72.067  1.00  0.00    -0.067 C  
HETATM   16  C   UNL     1      -5.480   5.682  72.507  1.00  0.00    -0.019 C  
HETATM   17  O   UNL     1     -10.148   6.760  72.361  1.00  0.00    -0.170 OA 
HETATM   18  O   UNL     1     -12.273   7.687  72.558  1.00  0.00    -0.219 OA 
HETATM   19  C   UNL     1      -8.372   8.728  71.168  1.00  0.00    -0.176 C  
HETATM   20  C   UNL     1      -9.763   9.381  71.002  1.00  0.00    -0.223 C  
HETATM   21  H   UNL     1     -10.573  11.167  70.543  1.00  0.00     0.000 HD 
HETATM   22  C   UNL     1     -11.060   7.807  72.436  1.00  0.00    -0.323 C  
HETATM   23  O   UNL     1      -5.451   4.778  73.289  1.00  0.00    -0.008 OA 
HETATM   24  C   UNL     1     -10.444   9.217  72.348  1.00  0.00     0.399 C  
ENDROOT
BRANCH   5  25
HETATM   25  O   UNL     1      -7.739   3.537  66.959  1.00  0.00    -0.078 OA 
BRANCH  25  26
HETATM   26  C   UNL     1      -7.983   4.923  66.593  1.00  0.00    -0.103 C  
HETATM   27  C   UNL     1      -6.991   5.353  63.862  1.00  0.00    -0.047 C  
HETATM   28  C   UNL     1      -8.147   4.375  64.313  1.00  0.00    -0.097 C  
HETATM   29  C   UNL     1      -5.997   5.357  65.086  1.00  0.00    -0.022 C  
HETATM   30  O   UNL     1      -8.811   4.949  65.435  1.00  0.00    -0.139 OA 
HETATM   31  C   UNL     1      -6.739   5.785  66.351  1.00  0.00    -0.057 C  
HETATM   32  C   UNL     1      -9.215   3.962  63.315  1.00  0.00    -0.118 C  
BRANCH  27  33
HETATM   33  N   UNL     1      -7.360   6.719  63.461  1.00  0.00    -0.066 NA 
HETATM   34  C   UNL     1      -6.195   7.536  63.104  1.00  0.00    -0.054 C  
HETATM   35  C   UNL     1      -8.311   6.764  62.350  1.00  0.00     0.008 C  
ENDBRANCH  27  33
ENDBRANCH  25  26
ENDBRANCH   5  25
BRANCH  14  36
HETATM   36  O   UNL     1      -9.121   7.276  69.132  1.00  0.00    -0.138 OA 
BRANCH  36  37
HETATM   37  C   UNL     1      -9.158   8.234  68.081  1.00  0.00    -0.134 C  
HETATM   38  C   UNL     1      -6.800  10.954  67.286  1.00  0.00    -0.084 C  
HETATM   39  C   UNL     1     -10.742  10.284  67.582  1.00  0.00    -0.288 C  
HETATM   40  C   UNL     1      -8.134  10.186  67.253  1.00  0.00    -0.114 C  
HETATM   41  O   UNL     1      -8.070   9.121  68.190  1.00  0.00    -0.103 OA 
HETATM   42  H   UNL     1     -12.373   8.299  67.420  1.00  0.00     0.000 HD 
HETATM   43  C   UNL     1     -10.562   8.830  68.059  1.00  0.00    -0.159 C  
HETATM   44  O   UNL     1     -11.498   7.928  67.434  1.00  0.00     0.637 OA 
HETATM   45  C   UNL     1      -9.326  11.049  67.694  1.00  0.00    -0.157 C  
BRANCH  45  46
HETATM   46  O   UNL     1      -9.230  12.287  66.956  1.00  0.00    -0.192 OA 
BRANCH  46  47
HETATM   47  C   UNL     1     -10.521  12.688  66.544  1.00  0.00    -0.247 C  
HETATM   48  C   UNL     1     -10.870  14.026  67.166  1.00  0.00    -0.288 C  
HETATM   49  C   UNL     1     -11.718  13.322  63.236  1.00  0.00    -0.176 C  
HETATM   50  O   UNL     1     -10.768  12.536  65.178  1.00  0.00    -0.277 OA 
HETATM   51  H   UNL     1     -11.075  16.007  63.313  1.00  0.00     0.000 HD 
HETATM   52  C   UNL     1     -10.340  15.163  66.341  1.00  0.00    -0.286 C  
HETATM   53  C   UNL     1     -10.629  16.466  67.093  1.00  0.00    -0.276 C  
HETATM   54  O   UNL     1      -8.915  15.100  66.178  1.00  0.00    -0.417 OA 
HETATM   55  C   UNL     1     -11.043  15.022  64.995  1.00  0.00    -0.413 C  
HETATM   56  O   UNL     1     -10.637  16.094  64.151  1.00  0.00    -0.044 OA 
HETATM   57  H   UNL     1      -8.579  15.819  65.656  1.00  0.00     0.000 HD 
HETATM   58  C   UNL     1     -10.717  13.663  64.333  1.00  0.00    -0.354 C  
ENDBRANCH  46  47
ENDBRANCH  45  46
BRANCH  39  59
HETATM   59  N   UNL     1     -11.978  10.816  68.305  1.00  0.00    -0.479 NA 
HETATM   60  C   UNL     1     -12.201  10.514  69.694  1.00  0.00    -0.137 C  
HETATM   61  C   UNL     1     -12.785  11.952  67.894  1.00  0.00     2.322 C  
ENDBRANCH  39  59
ENDBRANCH  36  37
ENDBRANCH  14  36
BRANCH  19  62
HETATM   62  O   UNL     1      -7.335   9.700  71.154  1.00  0.00    -0.332 OA 
HETATM   63  C   UNL     1      -6.057   9.395  70.623  1.00  0.00    -0.065 C  
ENDBRANCH  19  62
TORSDOF 9
ENDMDL
MODEL       10
REMARK 921   NORMALIZED FREE ENERGY PREDICTED BY IDOCK:    1.25 KCAL/MOL
REMARK 922        TOTAL FREE ENERGY PREDICTED BY IDOCK:   -0.72 KCAL/MOL
REMARK 923 INTER-LIGAND FREE ENERGY PREDICTED BY IDOCK:   -3.49 KCAL/MOL
REMARK 924 INTRA-LIGAND FREE ENERGY PREDICTED BY IDOCK:    2.77 KCAL/MOL
REMARK 927      BINDING AFFINITY PREDICTED BY RF-SCORE:    0.00 PKD
ROOT
HETATM    1  C   UNL     1     -10.645   5.749  67.503  1.00  0.00    -0.327 C  
HETATM    2  C   UNL     1     -10.233   5.413  66.226  1.00  0.00    -0.234 C  
HETATM    3  C   UNL     1      -9.530   5.982  65.019  1.00  0.00     0.698 C  
HETATM    4  C   UNL     1      -8.771   7.083  64.843  1.00  0.00     0.262 C  
HETATM    5  C   UNL     1      -8.597   8.034  65.946  1.00  0.00    -0.152 C  
HETATM    6  O   UNL     1      -7.167   9.359  73.767  1.00  0.00     0.120 OA 
HETATM    7  C   UNL     1      -7.307   7.597  66.730  1.00  0.00    -0.089 C  
HETATM    8  C   UNL     1     -11.983   5.593  71.326  1.00  0.00     0.734 C  
HETATM    9  C   UNL     1      -7.896   7.315  68.096  1.00  0.00    -0.118 C  
HETATM   10  C   UNL     1      -6.607   6.275  66.306  1.00  0.00    -0.048 C  
HETATM   11  C   UNL     1      -7.010   7.120  69.293  1.00  0.00    -0.070 C  
HETATM   12  C   UNL     1     -10.906   6.490  69.002  1.00  0.00    -0.357 C  
HETATM   13  C   UNL     1     -10.675   5.854  70.594  1.00  0.00    -0.285 C  
HETATM   14  C   UNL     1      -7.633   8.008  70.403  1.00  0.00    -0.081 C  
HETATM   15  C   UNL     1      -7.101   5.595  69.715  1.00  0.00    -0.064 C  
HETATM   16  C   UNL     1      -6.351   4.583  68.889  1.00  0.00    -0.032 C  
HETATM   17  O   UNL     1      -9.756   6.545  71.634  1.00  0.00    -0.164 OA 
HETATM   18  O   UNL     1     -11.104   7.363  73.345  1.00  0.00    -0.340 OA 
HETATM   19  C   UNL     1      -7.120   7.751  71.857  1.00  0.00    -0.067 C  
HETATM   20  C   UNL     1      -7.953   8.562  72.877  1.00  0.00    -0.013 C  
HETATM   21  H   UNL     1      -7.679   9.857  74.394  1.00  0.00     0.000 HD 
HETATM   22  C   UNL     1      -9.998   7.137  72.868  1.00  0.00    -0.197 C  
HETATM   23  O   UNL     1      -6.863   3.561  68.538  1.00  0.00    -0.045 OA 
HETATM   24  C   UNL     1      -8.738   7.529  73.663  1.00  0.00    -0.255 C  
ENDROOT
BRANCH   5  25
HETATM   25  O   UNL     1      -8.887   9.400  65.595  1.00  0.00    -0.152 OA 
BRANCH  25  26
HETATM   26  C   UNL     1     -10.315   9.560  65.373  1.00  0.00     0.533 C  
HETATM   27  C   UNL     1     -11.009  12.385  65.774  1.00  0.00    -0.298 C  
HETATM   28  C   UNL     1     -10.039  11.788  64.679  1.00  0.00    -0.272 C  
HETATM   29  C   UNL     1     -10.829  11.421  67.008  1.00  0.00    -0.331 C  
HETATM   30  O   UNL     1     -10.510  10.494  64.317  1.00  0.00    -0.287 OA 
HETATM   31  C   UNL     1     -11.143   9.986  66.591  1.00  0.00     0.191 C  
HETATM   32  C   UNL     1      -9.791  12.558  63.393  1.00  0.00     0.332 C  
BRANCH  27  33
HETATM   33  N   UNL     1     -12.427  12.552  65.421  1.00  0.00    -0.647 NA 
HETATM   34  C   UNL     1     -12.960  13.857  65.829  1.00  0.00    -0.276 C  
HETATM   35  C   UNL     1     -12.699  12.371  63.995  1.00  0.00    -0.349 C  
ENDBRANCH  27  33
ENDBRANCH  25  26
ENDBRANCH   5  25
BRANCH  14  36
HETATM   36  O   UNL     1      -8.325   9.255  70.098  1.00  0.00    -0.138 OA 
BRANCH  36  37
HETATM   37  C   UNL     1      -7.642  10.470  69.817  1.00  0.00    -0.092 C  
HETATM   38  C   UNL     1      -8.977  13.718  68.693  1.00  0.00    -0.050 C  
HETATM   39  C   UNL     1      -5.971  11.184  67.904  1.00  0.00    -0.046 C  
HETATM   40  C   UNL     1      -7.907  12.637  68.933  1.00  0.00     0.137 C  
HETATM   41  O   UNL     1      -8.550  11.448  69.367  1.00  0.00     0.206 OA 
HETATM   42  H   UNL     1      -4.641   9.343  69.114  1.00  0.00     0.000 HD 
HETATM   43  C   UNL     1      -6.460  10.130  68.916  1.00  0.00    -0.048 C  
HETATM   44  O   UNL     1      -5.377   9.555  69.675  1.00  0.00    -0.034 OA 
HETATM   45  C   UNL     1      -7.154  12.252  67.651  1.00  0.00    -0.126 C  
BRANCH  45  46
HETATM   46  O   UNL     1      -6.748  13.491  67.029  1.00  0.00    -0.048 OA 
BRANCH  46  47
HETATM   47  C   UNL     1      -5.686  14.060  67.768  1.00  0.00    -0.061 C  
HETATM   48  C   UNL     1      -5.130  15.264  67.033  1.00  0.00     0.843 C  
HETATM   49  C   UNL     1      -5.745  15.445  71.063  1.00  0.00     0.105 C  
HETATM   50  O   UNL     1      -5.944  14.210  69.133  1.00  0.00    -0.087 OA 
HETATM   51  H   UNL     1      -6.302  18.003  70.185  1.00  0.00     0.000 HD 
HETATM   52  C   UNL     1      -5.913  16.505  67.352  1.00  0.00    -0.158 C  
HETATM   53  C   UNL     1      -5.366  17.644  66.484  1.00  0.00    -0.216 C  
HETATM   54  O   UNL     1      -7.302  16.375  67.016  1.00  0.00    -0.175 OA 
HETATM   55  C   UNL     1      -5.737  16.695  68.854  1.00  0.00    -0.140 C  
HETATM   56  O   UNL     1      -6.412  17.885  69.248  1.00  0.00    -0.243 OA 
HETATM   57  H   UNL     1      -7.798  17.159  67.218  1.00  0.00     0.000 HD 
HETATM   58  C   UNL     1      -6.287  15.480  69.640  1.00  0.00    -0.163 C  
ENDBRANCH  46  47
ENDBRANCH  45  46
BRANCH  39  59
HETATM   59  N   UNL     1      -5.360  10.405  66.741  1.00  0.00    -0.041 NA 
HETATM   60  C   UNL     1      -5.260   8.970  66.793  1.00  0.00    -0.039 C  
HETATM   61  C   UNL     1      -5.226  10.875  65.374  1.00  0.00    -0.123 C  
ENDBRANCH  39  59
ENDBRANCH  36  37
ENDBRANCH  14  36
BRANCH  19  62
HETATM   62  O   UNL     1      -5.734   7.790  72.169  1.00  0.00    -0.036 OA 
HETATM   63  C   UNL     1      -5.167   6.869  73.086  1.00  0.00    -0.038 C  
ENDBRANCH  19  62
TORSDOF 9
ENDMDL
MODEL       11
REMARK 921   NORMALIZED FREE ENERGY PREDICTED BY IDOCK:    2.20 KCAL/MOL
REMARK 922        TOTAL FREE ENERGY PREDICTED BY IDOCK:    0.72 KCAL/MOL
REMARK 923 INTER-LIGAND FREE ENERGY PREDICTED BY IDOCK:   -1.95 KCAL/MOL
REMARK 924 INTRA-LIGAND FREE ENERGY PREDICTED BY IDOCK:    2.67 KCAL/MOL
REMARK 927      BINDING AFFINITY PREDICTED BY RF-SCORE:    0.00 PKD
ROOT
HETATM    1  C   UNL     1     -10.882  15.688  64.951  1.00  0.00    -0.438 C  
HETATM    2  C   UNL     1     -12.139  15.147  64.741  1.00  0.00    -0.201 C  
HETATM    3  C   UNL     1     -12.871  13.830  64.704  1.00  0.00    -0.059 C  
HETATM    4  C   UNL     1     -12.546  12.595  65.140  1.00  0.00    -0.459 C  
HETATM    5  C   UNL     1     -11.213  12.345  65.698  1.00  0.00    -0.322 C  
HETATM    6  O   UNL     1      -5.185  14.689  70.509  1.00  0.00    -0.105 OA 
HETATM    7  C   UNL     1     -11.312  12.576  67.249  1.00  0.00    -0.373 C  
HETATM    8  C   UNL     1      -7.814  18.245  65.633  1.00  0.00     0.247 C  
HETATM    9  C   UNL     1     -10.323  13.707  67.425  1.00  0.00    -0.244 C  
HETATM   10  C   UNL     1     -12.655  13.113  67.823  1.00  0.00     0.711 C  
HETATM   11  C   UNL     1      -9.852  14.114  68.792  1.00  0.00    -0.168 C  
HETATM   12  C   UNL     1      -9.262  15.968  65.346  1.00  0.00     0.406 C  
HETATM   13  C   UNL     1      -8.579  17.169  66.388  1.00  0.00    -0.265 C  
HETATM   14  C   UNL     1      -8.308  14.226  68.668  1.00  0.00    -0.135 C  
HETATM   15  C   UNL     1     -10.467  15.541  69.107  1.00  0.00    -0.232 C  
HETATM   16  C   UNL     1     -11.921  15.617  69.494  1.00  0.00    -0.345 C  
HETATM   17  O   UNL     1      -7.681  16.799  67.596  1.00  0.00    -0.161 OA 
HETATM   18  O   UNL     1      -5.526  17.548  67.137  1.00  0.00    -0.119 OA 
HETATM   19  C   UNL     1      -7.576  14.955  69.841  1.00  0.00     0.062 C  
HETATM   20  C   UNL     1      -6.082  15.163  69.501  1.00  0.00    -0.119 C  
HETATM   21  H   UNL     1      -4.266  14.816  70.301  1.00  0.00     0.000 HD 
HETATM   22  C   UNL     1      -6.348  17.055  67.900  1.00  0.00    -0.137 C  
HETATM   23  O   UNL     1     -12.652  16.430  69.010  1.00  0.00     0.461 OA 
HETATM   24  C   UNL     1      -5.917  16.660  69.326  1.00  0.00    -0.173 C  
ENDROOT
BRANCH   5  25
HETATM   25  O   UNL     1     -10.528  11.226  65.105  1.00  0.00    -0.275 OA 
BRANCH  25  26
HETATM   26  C   UNL     1      -9.349  11.690  64.392  1.00  0.00     0.066 C  
HETATM   27  C   UNL     1      -7.461   9.453  64.158  1.00  0.00    -0.113 C  
HETATM   28  C   UNL     1      -8.915   9.540  63.547  1.00  0.00    -0.173 C  
HETATM   29  C   UNL     1      -7.560  10.282  65.495  1.00  0.00    -0.149 C  
HETATM   30  O   UNL     1      -9.186  10.899  63.219  1.00  0.00    -0.233 OA 
HETATM   31  C   UNL     1      -8.039  11.699  65.188  1.00  0.00     0.995 C  
HETATM   32  C   UNL     1      -9.273   8.699  62.333  1.00  0.00     0.571 C  
BRANCH  27  33
HETATM   33  N   UNL     1      -6.335   9.902  63.326  1.00  0.00    -0.118 NA 
HETATM   34  C   UNL     1      -5.259  10.513  64.114  1.00  0.00    -0.156 C  
HETATM   35  C   UNL     1      -5.755   8.837  62.505  1.00  0.00    -0.083 C  
ENDBRANCH  27  33
ENDBRANCH  25  26
ENDBRANCH   5  25
BRANCH  14  36
HETATM   36  O   UNL     1      -7.542  13.378  67.762  1.00  0.00    -0.125 OA 
BRANCH  36  37
HETATM   37  C   UNL     1      -7.556  11.958  67.834  1.00  0.00    -0.128 C  
HETATM   38  C   UNL     1     -10.387   9.653  68.347  1.00  0.00    -0.233 C  
HETATM   39  C   UNL     1      -6.630  10.246  69.615  1.00  0.00    -0.077 C  
HETATM   40  C   UNL     1      -8.912  10.095  68.317  1.00  0.00    -0.120 C  
HETATM   41  O   UNL     1      -8.861  11.495  68.091  1.00  0.00    -0.151 OA 
HETATM   42  H   UNL     1      -4.468  11.356  68.768  1.00  0.00     0.000 HD 
HETATM   43  C   UNL     1      -6.451  11.540  68.798  1.00  0.00    -0.058 C  
HETATM   44  O   UNL     1      -5.156  11.616  68.167  1.00  0.00    -0.043 OA 
HETATM   45  C   UNL     1      -8.198   9.868  69.658  1.00  0.00    -0.171 C  
BRANCH  45  46
HETATM   46  O   UNL     1      -8.499   8.513  70.057  1.00  0.00    -0.119 OA 
BRANCH  46  47
HETATM   47  C   UNL     1      -8.695   8.471  71.456  1.00  0.00    -0.189 C  
HETATM   48  C   UNL     1     -10.083   8.976  71.800  1.00  0.00    -0.373 C  
HETATM   49  C   UNL     1      -8.615   5.643  73.641  1.00  0.00    -0.120 C  
HETATM   50  O   UNL     1      -8.280   7.284  72.065  1.00  0.00    -0.101 OA 
HETATM   51  H   UNL     1     -11.319   5.139  73.400  1.00  0.00     0.000 HD 
HETATM   52  C   UNL     1     -11.101   7.876  71.703  1.00  0.00    -0.244 C  
HETATM   53  C   UNL     1     -12.484   8.490  71.947  1.00  0.00    -0.402 C  
HETATM   54  O   UNL     1     -11.147   7.289  70.394  1.00  0.00    -0.257 OA 
HETATM   55  C   UNL     1     -10.657   6.849  72.739  1.00  0.00    -0.240 C  
HETATM   56  O   UNL     1     -11.596   5.779  72.755  1.00  0.00    -0.281 OA 
HETATM   57  H   UNL     1     -11.790   6.593  70.332  1.00  0.00     0.000 HD 
HETATM   58  C   UNL     1      -9.239   6.316  72.425  1.00  0.00    -0.138 C  
ENDBRANCH  46  47
ENDBRANCH  45  46
BRANCH  39  59
HETATM   59  N   UNL     1      -5.838  10.446  70.905  1.00  0.00    -0.205 NA 
HETATM   60  C   UNL     1      -5.165   9.338  71.531  1.00  0.00    -0.050 C  
HETATM   61  C   UNL     1      -5.311  11.707  71.398  1.00  0.00     0.044 C  
ENDBRANCH  39  59
ENDBRANCH  36  37
ENDBRANCH  14  36
BRANCH  19  62
HETATM   62  O   UNL     1      -7.751  14.543  71.190  1.00  0.00     1.827 OA 
HETATM   63  C   UNL     1      -6.676  14.593  72.113  1.00  0.00     1.841 C  
ENDBRANCH  19  62
TORSDOF 9
ENDMDL
MODEL       12
REMARK 921   NORMALIZED FREE ENERGY PREDICTED BY IDOCK:    2.72 KCAL/MOL
REMARK 922        TOTAL FREE ENERGY PREDICTED BY IDOCK:    1.53 KCAL/MOL
REMARK 923 INTER-LIGAND FREE ENERGY PREDICTED BY IDOCK:   -0.61 KCAL/MOL
REMARK 924 INTRA-LIGAND FREE ENERGY PREDICTED BY IDOCK:    2.14 KCAL/MOL
REMARK 927      BINDING AFFINITY PREDICTED BY RF-SCORE:    0.00 PKD
ROOT
HETATM    1  C   UNL     1     -10.213   6.097  67.136  1.00  0.00    -0.246 C  
HETATM    2  C   UNL     1      -9.968   5.336  66.006  1.00  0.00    -0.152 C  
HETATM    3  C   UNL     1      -9.012   5.208  64.847  1.00  0.00    -0.085 C  
HETATM    4  C   UNL     1      -7.786   5.722  64.617  1.00  0.00    -0.098 C  
HETATM    5  C   UNL     1      -7.203   6.675  65.569  1.00  0.00    -0.070 C  
HETATM    6  O   UNL     1      -5.699   8.766  73.207  1.00  0.00    -0.090 OA 
HETATM    7  C   UNL     1      -6.365   5.839  66.602  1.00  0.00    -0.042 C  
HETATM    8  C   UNL     1     -11.634   7.448  70.682  1.00  0.00    -0.295 C  
HETATM    9  C   UNL     1      -7.084   6.185  67.888  1.00  0.00    -0.078 C  
HETATM   10  C   UNL     1      -6.425   4.287  66.505  1.00  0.00    -0.037 C  
HETATM   11  C   UNL     1      -6.488   5.840  69.223  1.00  0.00    -0.046 C  
HETATM   12  C   UNL     1     -10.131   7.172  68.440  1.00  0.00    -0.182 C  
HETATM   13  C   UNL     1     -10.342   6.864  70.129  1.00  0.00    -0.199 C  
HETATM   14  C   UNL     1      -6.620   7.135  70.068  1.00  0.00    -0.050 C  
HETATM   15  C   UNL     1      -7.373   4.692  69.862  1.00  0.00    -0.054 C  
HETATM   16  C   UNL     1      -7.209   3.291  69.333  1.00  0.00    -0.045 C  
HETATM   17  O   UNL     1      -9.253   7.216  71.174  1.00  0.00    -0.156 OA 
HETATM   18  O   UNL     1     -10.074   8.939  72.506  1.00  0.00    -0.184 OA 
HETATM   19  C   UNL     1      -6.388   6.978  71.607  1.00  0.00    -0.037 C  
HETATM   20  C   UNL     1      -6.736   8.292  72.344  1.00  0.00    -0.087 C  
HETATM   21  H   UNL     1      -5.912   9.573  73.661  1.00  0.00     0.000 HD 
HETATM   22  C   UNL     1      -9.219   8.100  72.247  1.00  0.00    -0.201 C  
HETATM   23  O   UNL     1      -8.156   2.608  69.074  1.00  0.00    -0.052 OA 
HETATM   24  C   UNL     1      -7.979   7.978  73.154  1.00  0.00    -0.218 C  
ENDROOT
BRANCH   5  25
HETATM   25  O   UNL     1      -6.731   7.893  64.966  1.00  0.00    -0.050 OA 
BRANCH  25  26
HETATM   26  C   UNL     1      -7.157   9.035  65.759  1.00  0.00    -0.085 C  
HETATM   27  C   UNL     1      -9.216  10.496  64.257  1.00  0.00    -0.245 C  
HETATM   28  C   UNL     1      -9.299   9.010  64.790  1.00  0.00     0.200 C  
HETATM   29  C   UNL     1      -7.688  10.697  63.925  1.00  0.00     0.157 C  
HETATM   30  O   UNL     1      -8.555   8.924  66.002  1.00  0.00    -0.130 OA 
HETATM   31  C   UNL     1      -6.849  10.417  65.171  1.00  0.00    -0.085 C  
HETATM   32  C   UNL     1     -10.655   8.376  65.042  1.00  0.00     4.863 C  
BRANCH  27  33
HETATM   33  N   UNL     1      -9.726  11.569  65.124  1.00  0.00    -0.239 NA 
HETATM   34  C   UNL     1     -10.164  12.746  64.366  1.00  0.00    -0.319 C  
HETATM   35  C   UNL     1     -10.827  11.145  65.990  1.00  0.00    -0.166 C  
ENDBRANCH  27  33
ENDBRANCH  25  26
ENDBRANCH   5  25
BRANCH  14  36
HETATM   36  O   UNL     1      -6.555   8.462  69.467  1.00  0.00    -0.040 OA 
BRANCH  36  37
HETATM   37  C   UNL     1      -7.494   9.490  69.758  1.00  0.00    -0.098 C  
HETATM   38  C   UNL     1     -10.824  10.120  68.308  1.00  0.00    -0.297 C  
HETATM   39  C   UNL     1      -7.488  12.094  69.332  1.00  0.00     0.339 C  
HETATM   40  C   UNL     1      -9.528  10.455  69.068  1.00  0.00    -0.197 C  
HETATM   41  O   UNL     1      -8.622   9.372  68.923  1.00  0.00    -0.125 OA 
HETATM   42  H   UNL     1      -5.511  11.815  70.956  1.00  0.00     0.000 HD 
HETATM   43  C   UNL     1      -6.737  10.814  69.747  1.00  0.00    -0.139 C  
HETATM   44  O   UNL     1      -5.982  10.991  70.964  1.00  0.00    -0.352 OA 
HETATM   45  C   UNL     1      -8.801  11.679  68.492  1.00  0.00    -0.131 C  
BRANCH  45  46
HETATM   46  O   UNL     1      -9.797  12.715  68.346  1.00  0.00    -0.226 OA 
BRANCH  46  47
HETATM   47  C   UNL     1      -9.456  13.811  69.170  1.00  0.00     0.355 C  
HETATM   48  C   UNL     1      -9.175  15.033  68.317  1.00  0.00    -0.184 C  
HETATM   49  C   UNL     1     -11.408  15.390  71.715  1.00  0.00    -0.457 C  
HETATM   50  O   UNL     1     -10.288  13.985  70.279  1.00  0.00     0.777 OA 
HETATM   51  H   UNL     1     -12.520  17.233  69.985  1.00  0.00     0.000 HD 
HETATM   52  C   UNL     1     -10.442  15.772  67.994  1.00  0.00    -0.270 C  
HETATM   53  C   UNL     1     -10.089  16.916  67.038  1.00  0.00    -0.289 C  
HETATM   54  O   UNL     1     -11.392  14.948  67.302  1.00  0.00    -0.336 OA 
HETATM   55  C   UNL     1     -10.990  16.206  69.348  1.00  0.00    -0.333 C  
HETATM   56  O   UNL     1     -12.179  16.962  69.141  1.00  0.00     0.792 OA 
HETATM   57  H   UNL     1     -12.194  15.415  67.097  1.00  0.00     0.000 HD 
HETATM   58  C   UNL     1     -11.282  14.984  70.252  1.00  0.00    -0.252 C  
ENDBRANCH  46  47
ENDBRANCH  45  46
BRANCH  39  59
HETATM   59  N   UNL     1      -6.437  13.026  68.731  1.00  0.00    -0.079 NA 
HETATM   60  C   UNL     1      -5.672  12.622  67.581  1.00  0.00    -0.136 C  
HETATM   61  C   UNL     1      -6.372  14.466  68.908  1.00  0.00    -0.091 C  
ENDBRANCH  39  59
ENDBRANCH  36  37
ENDBRANCH  14  36
BRANCH  19  62
HETATM   62  O   UNL     1      -5.198   6.392  72.117  1.00  0.00    -0.026 OA 
HETATM   63  C   UNL     1      -5.253   5.313  73.034  1.00  0.00    -0.017 C  
ENDBRANCH  19  62
TORSDOF 9
ENDMDL
MODEL       13
REMARK 921   NORMALIZED FREE ENERGY PREDICTED BY IDOCK:    2.82 KCAL/MOL
REMARK 922        TOTAL FREE ENERGY PREDICTED BY IDOCK:    1.67 KCAL/MOL
REMARK 923 INTER-LIGAND FREE ENERGY PREDICTED BY IDOCK:   -2.65 KCAL/MOL
REMARK 924 INTRA-LIGAND FREE ENERGY PREDICTED BY IDOCK:    4.32 KCAL/MOL
REMARK 927      BINDING AFFINITY PREDICTED BY RF-SCORE:    0.00 PKD
ROOT
HETATM    1  C   UNL     1     -12.139  11.427  67.463  1.00  0.00     0.355 C  
HETATM    2  C   UNL     1     -12.624  12.702  67.230  1.00  0.00     1.124 C  
HETATM    3  C   UNL     1     -12.189  14.145  67.181  1.00  0.00    -0.348 C  
HETATM    4  C   UNL     1     -10.975  14.729  67.120  1.00  0.00    -0.320 C  
HETATM    5  C   UNL     1      -9.764  13.904  67.200  1.00  0.00    -0.244 C  
HETATM    6  O   UNL     1      -5.745   7.293  64.936  1.00  0.00    -0.035 OA 
HETATM    7  C   UNL     1      -9.363  13.533  65.727  1.00  0.00     0.136 C  
HETATM    8  C   UNL     1     -11.728   7.401  67.678  1.00  0.00     1.501 C  
HETATM    9  C   UNL     1      -9.457  12.023  65.786  1.00  0.00    -0.186 C  
HETATM   10  C   UNL     1     -10.323  13.958  64.579  1.00  0.00    -0.260 C  
HETATM   11  C   UNL     1      -8.900  11.172  64.681  1.00  0.00     0.062 C  
HETATM   12  C   UNL     1     -11.178  10.058  67.719  1.00  0.00    -0.137 C  
HETATM   13  C   UNL     1     -11.162   8.555  66.863  1.00  0.00     1.121 C  
HETATM   14  C   UNL     1      -8.080  10.067  65.400  1.00  0.00    -0.143 C  
HETATM   15  C   UNL     1     -10.123  10.515  63.916  1.00  0.00    -0.288 C  
HETATM   16  C   UNL     1     -10.912  11.378  62.967  1.00  0.00     0.108 C  
HETATM   17  O   UNL     1      -9.877   7.996  66.202  1.00  0.00    -0.146 OA 
HETATM   18  O   UNL     1      -9.250   6.081  67.366  1.00  0.00    -0.111 OA 
HETATM   19  C   UNL     1      -7.659   8.843  64.523  1.00  0.00    -0.109 C  
HETATM   20  C   UNL     1      -7.021   7.742  65.402  1.00  0.00    -0.055 C  
HETATM   21  H   UNL     1      -5.352   6.617  65.475  1.00  0.00     0.000 HD 
HETATM   22  C   UNL     1      -9.113   6.856  66.427  1.00  0.00    -0.159 C  
HETATM   23  O   UNL     1     -12.108  11.380  62.973  1.00  0.00    -0.042 OA 
HETATM   24  C   UNL     1      -8.010   6.593  65.383  1.00  0.00    -0.121 C  
ENDROOT
BRANCH   5  25
HETATM   25  O   UNL     1      -8.819  14.343  68.192  1.00  0.00    -0.166 OA 
BRANCH  25  26
HETATM   26  C   UNL     1      -7.738  15.079  67.554  1.00  0.00    -0.185 C  
HETATM   27  C   UNL     1      -7.225  17.516  69.109  1.00  0.00    -0.161 C  
HETATM   28  C   UNL     1      -7.065  16.023  69.599  1.00  0.00    -0.105 C  
HETATM   29  C   UNL     1      -8.423  17.456  68.086  1.00  0.00    -0.241 C  
HETATM   30  O   UNL     1      -6.673  15.223  68.487  1.00  0.00    -0.106 OA 
HETATM   31  C   UNL     1      -8.105  16.452  66.980  1.00  0.00    -0.235 C  
HETATM   32  C   UNL     1      -6.121  15.703  70.745  1.00  0.00     0.263 C  
BRANCH  27  33
HETATM   33  N   UNL     1      -6.049  18.180  68.526  1.00  0.00    -0.188 NA 
HETATM   34  C   UNL     1      -6.158  18.347  67.073  1.00  0.00    -0.164 C  
HETATM   35  C   UNL     1      -5.765  19.489  69.118  1.00  0.00    -0.221 C  
ENDBRANCH  27  33
ENDBRANCH  25  26
ENDBRANCH   5  25
BRANCH  14  36
HETATM   36  O   UNL     1      -7.393  10.313  66.664  1.00  0.00    -0.102 OA 
BRANCH  36  37
HETATM   37  C   UNL     1      -7.524   9.459  67.793  1.00  0.00    -0.087 C  
HETATM   38  C   UNL     1     -10.458   8.807  69.928  1.00  0.00    -0.227 C  
HETATM   39  C   UNL     1      -6.530   9.554  70.235  1.00  0.00    -0.071 C  
HETATM   40  C   UNL     1      -8.966   8.838  69.548  1.00  0.00    -0.145 C  
HETATM   41  O   UNL     1      -8.821   9.558  68.333  1.00  0.00    -0.123 OA 
HETATM   42  H   UNL     1      -4.406   9.293  68.806  1.00  0.00     0.000 HD 
HETATM   43  C   UNL     1      -6.345   9.743  68.717  1.00  0.00    -0.046 C  
HETATM   44  O   UNL     1      -5.140   9.116  68.230  1.00  0.00    -0.031 OA 
HETATM   45  C   UNL     1      -8.107   9.589  70.576  1.00  0.00    -0.166 C  
BRANCH  45  46
HETATM   46  O   UNL     1      -8.472   9.068  71.873  1.00  0.00    -0.363 OA 
BRANCH  46  47
HETATM   47  C   UNL     1      -8.863   7.716  71.740  1.00  0.00    -0.116 C  
HETATM   48  C   UNL     1      -7.671   6.868  71.344  1.00  0.00    -0.092 C  
HETATM   49  C   UNL     1     -10.254   5.537  74.210  1.00  0.00    -0.292 C  
HETATM   50  O   UNL     1      -9.667   7.240  72.779  1.00  0.00    -0.148 OA 
HETATM   51  H   UNL     1      -7.795   4.586  75.030  1.00  0.00     0.000 HD 
HETATM   52  C   UNL     1      -6.884   6.440  72.550  1.00  0.00    -0.069 C  
HETATM   53  C   UNL     1      -5.639   5.693  72.060  1.00  0.00    -0.021 C  
HETATM   54  O   UNL     1      -6.408   7.557  73.315  1.00  0.00    -0.059 OA 
HETATM   55  C   UNL     1      -7.861   5.602  73.368  1.00  0.00    -0.110 C  
HETATM   56  O   UNL     1      -7.186   5.108  74.520  1.00  0.00    -0.080 OA 
HETATM   57  H   UNL     1      -5.911   7.287  74.078  1.00  0.00     0.000 HD 
HETATM   58  C   UNL     1      -9.098   6.433  73.785  1.00  0.00    -0.132 C  
ENDBRANCH  46  47
ENDBRANCH  45  46
BRANCH  39  59
HETATM   59  N   UNL     1      -5.564  10.530  70.905  1.00  0.00    -0.119 NA 
HETATM   60  C   UNL     1      -5.303  11.819  70.321  1.00  0.00    -0.110 C  
HETATM   61  C   UNL     1      -5.160  10.510  72.300  1.00  0.00     0.083 C  
ENDBRANCH  39  59
ENDBRANCH  36  37
ENDBRANCH  14  36
BRANCH  19  62
HETATM   62  O   UNL     1      -6.947   9.017  63.306  1.00  0.00    -0.090 OA 
HETATM   63  C   UNL     1      -6.009  10.068  63.155  1.00  0.00    -0.129 C  
ENDBRANCH  19  62
TORSDOF 9
ENDMDL
MODEL       14
REMARK 921   NORMALIZED FREE ENERGY PREDICTED BY IDOCK:    2.93 KCAL/MOL
REMARK 922        TOTAL FREE ENERGY PREDICTED BY IDOCK:    1.83 KCAL/MOL
REMARK 923 INTER-LIGAND FREE ENERGY PREDICTED BY IDOCK:   -4.75 KCAL/MOL
REMARK 924 INTRA-LIGAND FREE ENERGY PREDICTED BY IDOCK:    6.58 KCAL/MOL
REMARK 927      BINDING AFFINITY PREDICTED BY RF-SCORE:    0.00 PKD
ROOT
HETATM    1  C   UNL     1      -5.753   6.663  66.624  1.00  0.00    -0.014 C  
HETATM    2  C   UNL     1      -5.935   5.706  67.606  1.00  0.00    -0.021 C  
HETATM    3  C   UNL     1      -6.392   5.544  69.034  1.00  0.00    -0.034 C  
HETATM    4  C   UNL     1      -7.079   6.353  69.867  1.00  0.00    -0.072 C  
HETATM    5  C   UNL     1      -7.426   7.714  69.442  1.00  0.00    -0.089 C  
HETATM    6  O   UNL     1     -10.216  12.668  63.727  1.00  0.00    -0.467 OA 
HETATM    7  C   UNL     1      -8.847   7.639  68.775  1.00  0.00    -0.131 C  
HETATM    8  C   UNL     1      -5.135   8.532  63.082  1.00  0.00    -0.062 C  
HETATM    9  C   UNL     1      -8.523   8.120  67.377  1.00  0.00    -0.126 C  
HETATM   10  C   UNL     1      -9.492   6.236  68.587  1.00  0.00    -0.121 C  
HETATM   11  C   UNL     1      -9.616   8.487  66.415  1.00  0.00    -0.314 C  
HETATM   12  C   UNL     1      -5.749   8.070  65.684  1.00  0.00    -0.037 C  
HETATM   13  C   UNL     1      -6.281   8.300  64.054  1.00  0.00    -0.067 C  
HETATM   14  C   UNL     1      -9.182   9.852  65.817  1.00  0.00    -0.179 C  
HETATM   15  C   UNL     1      -9.642   7.388  65.273  1.00  0.00     1.174 C  
HETATM   16  C   UNL     1     -10.256   6.050  65.589  1.00  0.00     0.759 C  
HETATM   17  O   UNL     1      -7.356   9.353  63.678  1.00  0.00    -0.102 OA 
HETATM   18  O   UNL     1      -6.319  11.008  62.413  1.00  0.00    -0.092 OA 
HETATM   19  C   UNL     1      -9.957  10.322  64.542  1.00  0.00    -0.289 C  
HETATM   20  C   UNL     1      -9.302  11.590  63.947  1.00  0.00    -0.030 C  
HETATM   21  H   UNL     1      -9.814  13.447  63.361  1.00  0.00     0.000 HD 
HETATM   22  C   UNL     1      -7.326  10.498  62.889  1.00  0.00    -0.056 C  
HETATM   23  O   UNL     1      -9.714   5.028  65.285  1.00  0.00    -0.092 OA 
HETATM   24  C   UNL     1      -8.699  11.146  62.628  1.00  0.00    -0.268 C  
ENDROOT
BRANCH   5  25
HETATM   25  O   UNL     1      -7.042   8.738  70.378  1.00  0.00    -0.040 OA 
BRANCH  25  26
HETATM   26  C   UNL     1      -8.020   8.817  71.452  1.00  0.00    -0.133 C  
HETATM   27  C   UNL     1      -7.500   6.637  73.349  1.00  0.00    -0.087 C  
HETATM   28  C   UNL     1      -6.535   7.834  72.986  1.00  0.00    -0.067 C  
HETATM   29  C   UNL     1      -8.289   6.364  72.012  1.00  0.00    -0.109 C  
HETATM   30  O   UNL     1      -7.329   8.978  72.686  1.00  0.00    -0.331 OA 
HETATM   31  C   UNL     1      -8.997   7.641  71.562  1.00  0.00    -0.148 C  
HETATM   32  C   UNL     1      -5.468   8.268  73.976  1.00  0.00    -0.077 C  
BRANCH  27  33
HETATM   33  N   UNL     1      -8.413   6.808  74.490  1.00  0.00    -0.153 NA 
HETATM   34  C   UNL     1      -9.018   8.144  74.532  1.00  0.00     0.718 C  
HETATM   35  C   UNL     1      -9.488   5.816  74.531  1.00  0.00    -0.165 C  
ENDBRANCH  27  33
ENDBRANCH  25  26
ENDBRANCH   5  25
BRANCH  14  36
HETATM   36  O   UNL     1      -8.414  10.825  66.587  1.00  0.00    -0.133 OA 
BRANCH  36  37
HETATM   37  C   UNL     1      -8.768  12.199  66.669  1.00  0.00    -0.153 C  
HETATM   38  C   UNL     1      -6.732  15.101  67.681  1.00  0.00    -0.201 C  
HETATM   39  C   UNL     1     -10.378  13.541  68.271  1.00  0.00    -0.252 C  
HETATM   40  C   UNL     1      -8.023  14.313  67.392  1.00  0.00    -0.192 C  
HETATM   41  O   UNL     1      -7.683  12.956  67.151  1.00  0.00    -0.140 OA 
HETATM   42  H   UNL     1     -12.020  11.977  67.055  1.00  0.00     0.000 HD 
HETATM   43  C   UNL     1     -10.088  12.285  67.428  1.00  0.00    -0.200 C  
HETATM   44  O   UNL     1     -11.199  11.924  66.581  1.00  0.00    -0.298 OA 
HETATM   45  C   UNL     1      -8.985  14.290  68.589  1.00  0.00    -0.154 C  
BRANCH  45  46
HETATM   46  O   UNL     1      -9.104  15.656  69.043  1.00  0.00    -0.204 OA 
BRANCH  46  47
HETATM   47  C   UNL     1     -10.289  16.221  68.520  1.00  0.00    -0.261 C  
HETATM   48  C   UNL     1     -10.608  17.516  69.242  1.00  0.00    -0.001 C  
HETATM   49  C   UNL     1     -10.963  17.309  65.182  1.00  0.00     0.118 C  
HETATM   50  O   UNL     1     -10.358  16.237  67.125  1.00  0.00    -0.277 OA 
HETATM   51  H   UNL     1     -10.117  19.895  65.650  1.00  0.00     0.000 HD 
HETATM   52  C   UNL     1      -9.877  18.675  68.628  1.00  0.00    -0.385 C  
HETATM   53  C   UNL     1     -10.159  19.915  69.483  1.00  0.00    -0.085 C  
HETATM   54  O   UNL     1      -8.454  18.491  68.642  1.00  0.00    -0.326 OA 
HETATM   55  C   UNL     1     -10.399  18.744  67.197  1.00  0.00    -0.404 C  
HETATM   56  O   UNL     1      -9.793  19.853  66.542  1.00  0.00    -0.386 OA 
HETATM   57  H   UNL     1      -7.991  19.224  68.254  1.00  0.00     0.000 HD 
HETATM   58  C   UNL     1     -10.098  17.435  66.429  1.00  0.00    -0.327 C  
ENDBRANCH  46  47
ENDBRANCH  45  46
BRANCH  39  59
HETATM   59  N   UNL     1     -11.298  13.089  69.404  1.00  0.00    -0.237 NA 
HETATM   60  C   UNL     1     -12.383  13.926  69.845  1.00  0.00    -0.300 C  
HETATM   61  C   UNL     1     -11.497  11.721  69.848  1.00  0.00    -0.206 C  
ENDBRANCH  39  59
ENDBRANCH  36  37
ENDBRANCH  14  36
BRANCH  19  62
HETATM   62  O   UNL     1     -11.375  10.414  64.533  1.00  0.00     1.106 OA 
HETATM   63  C   UNL     1     -12.046  11.220  63.580  1.00  0.00     0.470 C  
ENDBRANCH  19  62
TORSDOF 9
ENDMDL
MODEL       15
REMARK 921   NORMALIZED FREE ENERGY PREDICTED BY IDOCK:    3.09 KCAL/MOL
REMARK 922        TOTAL FREE ENERGY PREDICTED BY IDOCK:    2.09 KCAL/MOL
REMARK 923 INTER-LIGAND FREE ENERGY PREDICTED BY IDOCK:   -0.52 KCAL/MOL
REMARK 924 INTRA-LIGAND FREE ENERGY PREDICTED BY IDOCK:    2.61 KCAL/MOL
REMARK 927      BINDING AFFINITY PREDICTED BY RF-SCORE:    0.00 PKD
ROOT
HETATM    1  C   UNL     1     -10.866  15.677  64.961  1.00  0.00    -0.468 C  
HETATM    2  C   UNL     1     -12.122  15.134  64.750  1.00  0.00    -0.201 C  
HETATM    3  C   UNL     1     -12.854  13.817  64.722  1.00  0.00    -0.160 C  
HETATM    4  C   UNL     1     -12.532  12.586  65.172  1.00  0.00    -0.451 C  
HETATM    5  C   UNL     1     -11.201  12.341  65.739  1.00  0.00    -0.337 C  
HETATM    6  O   UNL     1      -5.197  14.729  70.558  1.00  0.00    -0.110 OA 
HETATM    7  C   UNL     1     -11.309  12.587  67.287  1.00  0.00    -0.373 C  
HETATM    8  C   UNL     1      -7.800  18.239  65.635  1.00  0.00     0.247 C  
HETATM    9  C   UNL     1     -10.320  13.719  67.458  1.00  0.00    -0.241 C  
HETATM   10  C   UNL     1     -12.654  13.131  67.849  1.00  0.00     0.733 C  
HETATM   11  C   UNL     1      -9.856  14.140  68.823  1.00  0.00    -0.168 C  
HETATM   12  C   UNL     1      -9.247  15.960  65.362  1.00  0.00     0.359 C  
HETATM   13  C   UNL     1      -8.569  17.170  66.396  1.00  0.00    -0.265 C  
HETATM   14  C   UNL     1      -8.312  14.250  68.706  1.00  0.00    -0.095 C  
HETATM   15  C   UNL     1     -10.472  15.569  69.121  1.00  0.00    -0.232 C  
HETATM   16  C   UNL     1     -11.927  15.650  69.499  1.00  0.00    -0.345 C  
HETATM   17  O   UNL     1      -7.677  16.812  67.612  1.00  0.00    -0.161 OA 
HETATM   18  O   UNL     1      -5.520  17.556  67.157  1.00  0.00    -0.119 OA 
HETATM   19  C   UNL     1      -7.585  14.990  69.876  1.00  0.00     0.027 C  
HETATM   20  C   UNL     1      -6.089  15.193  69.541  1.00  0.00    -0.119 C  
HETATM   21  H   UNL     1      -4.278  14.854  70.353  1.00  0.00     0.000 HD 
HETATM   22  C   UNL     1      -6.347  17.070  67.920  1.00  0.00    -0.137 C  
HETATM   23  O   UNL     1     -12.656  16.459  69.004  1.00  0.00     0.461 OA 
HETATM   24  C   UNL     1      -5.922  16.689  69.352  1.00  0.00    -0.184 C  
ENDROOT
BRANCH   5  25
HETATM   25  O   UNL     1     -10.515  11.216  65.160  1.00  0.00    -0.276 OA 
BRANCH  25  26
HETATM   26  C   UNL     1      -9.334  11.673  64.445  1.00  0.00     0.066 C  
HETATM   27  C   UNL     1      -7.445   9.434  64.237  1.00  0.00    -0.110 C  
HETATM   28  C   UNL     1      -8.899   9.515  63.622  1.00  0.00    -0.210 C  
HETATM   29  C   UNL     1      -7.547  10.276  65.566  1.00  0.00    -0.149 C  
HETATM   30  O   UNL     1      -9.168  10.871  63.281  1.00  0.00    -0.233 OA 
HETATM   31  C   UNL     1      -8.026  11.690  65.244  1.00  0.00     0.999 C  
HETATM   32  C   UNL     1      -9.254   8.662  62.416  1.00  0.00     0.571 C  
BRANCH  27  33
HETATM   33  N   UNL     1      -6.318   9.874  63.402  1.00  0.00    -0.119 NA 
HETATM   34  C   UNL     1      -5.396  10.760  64.122  1.00  0.00    -0.063 C  
HETATM   35  C   UNL     1      -5.544   8.769  62.836  1.00  0.00    -0.070 C  
ENDBRANCH  27  33
ENDBRANCH  25  26
ENDBRANCH   5  25
BRANCH  14  36
HETATM   36  O   UNL     1      -7.541  13.393  67.812  1.00  0.00    -0.125 OA 
BRANCH  36  37
HETATM   37  C   UNL     1      -7.541  11.974  67.910  1.00  0.00    -0.124 C  
HETATM   38  C   UNL     1     -10.343   9.653  68.503  1.00  0.00    -0.231 C  
HETATM   39  C   UNL     1      -6.575  10.304  69.709  1.00  0.00    -0.090 C  
HETATM   40  C   UNL     1      -8.873  10.107  68.446  1.00  0.00    -0.123 C  
HETATM   41  O   UNL     1      -8.838  11.504  68.193  1.00  0.00    -0.151 OA 
HETATM   42  H   UNL     1      -4.435  11.418  68.814  1.00  0.00     0.000 HD 
HETATM   43  C   UNL     1      -6.419  11.584  68.867  1.00  0.00    -0.065 C  
HETATM   44  O   UNL     1      -5.133  11.661  68.218  1.00  0.00    -0.043 OA 
HETATM   45  C   UNL     1      -8.138   9.913  69.780  1.00  0.00    -0.176 C  
BRANCH  45  46
HETATM   46  O   UNL     1      -8.421   8.563  70.209  1.00  0.00    -0.118 OA 
BRANCH  46  47
HETATM   47  C   UNL     1      -7.541   7.670  69.556  1.00  0.00    -0.098 C  
HETATM   48  C   UNL     1      -7.516   6.341  70.285  1.00  0.00    -0.094 C  
HETATM   49  C   UNL     1      -7.695   6.426  66.208  1.00  0.00    -0.099 C  
HETATM   50  O   UNL     1      -7.678   7.633  68.166  1.00  0.00    -0.114 OA 
HETATM   51  H   UNL     1      -9.187   4.207  66.898  1.00  0.00     0.000 HD 
HETATM   52  C   UNL     1      -8.634   5.449  69.826  1.00  0.00    -0.100 C  
HETATM   53  C   UNL     1      -8.611   4.183  70.689  1.00  0.00    -0.108 C  
HETATM   54  O   UNL     1      -9.924   6.047  70.023  1.00  0.00    -0.166 OA 
HETATM   55  C   UNL     1      -8.364   5.226  68.342  1.00  0.00    -0.093 C  
HETATM   56  O   UNL     1      -9.355   4.346  67.823  1.00  0.00    -0.134 OA 
HETATM   57  H   UNL     1     -10.632   5.483  69.733  1.00  0.00     0.000 HD 
HETATM   58  C   UNL     1      -8.374   6.564  67.565  1.00  0.00    -0.121 C  
ENDBRANCH  46  47
ENDBRANCH  45  46
BRANCH  39  59
HETATM   59  N   UNL     1      -5.768  10.535  70.986  1.00  0.00    -0.236 NA 
HETATM   60  C   UNL     1      -5.359  11.863  71.363  1.00  0.00     0.029 C  
HETATM   61  C   UNL     1      -5.692   9.635  72.123  1.00  0.00     0.100 C  
ENDBRANCH  39  59
ENDBRANCH  36  37
ENDBRANCH  14  36
BRANCH  19  62
HETATM   62  O   UNL     1      -7.767  14.591  71.227  1.00  0.00     2.046 OA 
HETATM   63  C   UNL     1      -6.764  14.832  72.199  1.00  0.00     1.846 C  
ENDBRANCH  19  62
TORSDOF 9
ENDMDL
MODEL       16
REMARK 921   NORMALIZED FREE ENERGY PREDICTED BY IDOCK:    4.44 KCAL/MOL
REMARK 922        TOTAL FREE ENERGY PREDICTED BY IDOCK:    4.15 KCAL/MOL
REMARK 923 INTER-LIGAND FREE ENERGY PREDICTED BY IDOCK:   -1.38 KCAL/MOL
REMARK 924 INTRA-LIGAND FREE ENERGY PREDICTED BY IDOCK:    5.53 KCAL/MOL
REMARK 927      BINDING AFFINITY PREDICTED BY RF-SCORE:    0.00 PKD
ROOT
HETATM    1  C   UNL     1     -11.010   5.163  70.452  1.00  0.00     0.226 C  
HETATM    2  C   UNL     1     -11.391   4.732  71.711  1.00  0.00     0.612 C  
HETATM    3  C   UNL     1     -10.944   4.738  73.151  1.00  0.00    -0.374 C  
HETATM    4  C   UNL     1     -10.011   5.454  73.812  1.00  0.00    -0.197 C  
HETATM    5  C   UNL     1      -9.138   6.374  73.074  1.00  0.00    -0.129 C  
HETATM    6  O   UNL     1      -8.306  12.098  67.460  1.00  0.00    -0.148 OA 
HETATM    7  C   UNL     1      -9.839   7.781  73.086  1.00  0.00    -0.361 C  
HETATM    8  C   UNL     1     -10.989   6.160  66.525  1.00  0.00    -0.093 C  
HETATM    9  C   UNL     1     -10.031   8.007  71.602  1.00  0.00    -0.237 C  
HETATM   10  C   UNL     1     -11.264   7.881  73.703  1.00  0.00     1.036 C  
HETATM   11  C   UNL     1     -10.426   9.355  71.071  1.00  0.00    -0.392 C  
HETATM   12  C   UNL     1     -10.268   5.911  69.129  1.00  0.00    -0.275 C  
HETATM   13  C   UNL     1     -10.974   6.867  67.872  1.00  0.00    -0.183 C  
HETATM   14  C   UNL     1      -9.458   9.619  69.886  1.00  0.00    -0.231 C  
HETATM   15  C   UNL     1     -11.912   9.244  70.532  1.00  0.00    -0.115 C  
HETATM   16  C   UNL     1     -13.033   9.219  71.539  1.00  0.00    -0.359 C  
HETATM   17  O   UNL     1     -10.502   8.312  67.570  1.00  0.00    -0.246 OA 
HETATM   18  O   UNL     1      -9.475   8.306  65.482  1.00  0.00     0.022 OA 
HETATM   19  C   UNL     1      -9.846  10.795  68.932  1.00  0.00    -0.199 C  
HETATM   20  C   UNL     1      -8.910  10.825  67.701  1.00  0.00    -0.132 C  
HETATM   21  H   UNL     1      -7.731  12.117  66.704  1.00  0.00     0.000 HD 
HETATM   22  C   UNL     1      -9.904   8.902  66.463  1.00  0.00    -0.274 C  
HETATM   23  O   UNL     1     -13.925   8.427  71.459  1.00  0.00    -0.376 OA 
HETATM   24  C   UNL     1      -9.786  10.438  66.525  1.00  0.00    -0.256 C  
ENDROOT
BRANCH   5  25
HETATM   25  O   UNL     1      -7.735   6.186  73.331  1.00  0.00    -0.099 OA 
BRANCH  25  26
HETATM   26  C   UNL     1      -7.006   6.126  72.074  1.00  0.00    -0.078 C  
HETATM   27  C   UNL     1      -6.039   3.381  71.685  1.00  0.00    -0.014 C  
HETATM   28  C   UNL     1      -7.543   3.857  71.777  1.00  0.00    -0.061 C  
HETATM   29  C   UNL     1      -5.266   4.377  72.632  1.00  0.00    -0.004 C  
HETATM   30  O   UNL     1      -7.634   5.169  71.228  1.00  0.00    -0.089 OA 
HETATM   31  C   UNL     1      -5.509   5.814  72.176  1.00  0.00    -0.022 C  
HETATM   32  C   UNL     1      -8.638   3.020  71.139  1.00  0.00    -0.108 C  
BRANCH  27  33
HETATM   33  N   UNL     1      -5.418   3.309  70.354  1.00  0.00    -0.012 NA 
HETATM   34  C   UNL     1      -5.317   1.933  69.853  1.00  0.00    -0.012 C  
HETATM   35  C   UNL     1      -6.106   4.115  69.345  1.00  0.00    -0.027 C  
ENDBRANCH  27  33
ENDBRANCH  25  26
ENDBRANCH   5  25
BRANCH  14  36
HETATM   36  O   UNL     1      -8.092   9.107  69.874  1.00  0.00    -0.099 OA 
BRANCH  36  37
HETATM   37  C   UNL     1      -6.950   9.953  69.899  1.00  0.00    -0.105 C  
HETATM   38  C   UNL     1      -6.592  13.395  71.169  1.00  0.00     1.479 C  
HETATM   39  C   UNL     1      -5.575  11.161  67.999  1.00  0.00    -0.042 C  
HETATM   40  C   UNL     1      -6.219  12.145  70.351  1.00  0.00     0.108 C  
HETATM   41  O   UNL     1      -7.285  11.211  70.435  1.00  0.00     0.156 OA 
HETATM   42  H   UNL     1      -5.186   8.679  67.441  1.00  0.00     0.000 HD 
HETATM   43  C   UNL     1      -6.327   9.917  68.508  1.00  0.00    -0.050 C  
HETATM   44  O   UNL     1      -5.574   8.702  68.308  1.00  0.00    -0.037 OA 
HETATM   45  C   UNL     1      -6.051  12.444  68.854  1.00  0.00    -0.074 C  
BRANCH  45  46
HETATM   46  O   UNL     1      -5.194  13.603  68.762  1.00  0.00    -0.070 OA 
BRANCH  46  47
HETATM   47  C   UNL     1      -5.757  14.661  69.511  1.00  0.00    -0.095 C  
HETATM   48  C   UNL     1      -5.163  15.984  69.068  1.00  0.00    -0.108 C  
HETATM   49  C   UNL     1      -9.178  15.675  69.728  1.00  0.00    -0.076 C  
HETATM   50  O   UNL     1      -7.146  14.601  69.648  1.00  0.00    -0.158 OA 
HETATM   51  H   UNL     1      -8.979  17.466  67.636  1.00  0.00     0.000 HD 
HETATM   52  C   UNL     1      -5.897  16.538  67.881  1.00  0.00    -0.128 C  
HETATM   53  C   UNL     1      -5.166  17.806  67.424  1.00  0.00    -0.143 C  
HETATM   54  O   UNL     1      -5.882  15.640  66.762  1.00  0.00    -0.060 OA 
HETATM   55  C   UNL     1      -7.322  16.757  68.378  1.00  0.00    -0.198 C  
HETATM   56  O   UNL     1      -8.091  17.330  67.326  1.00  0.00    -0.185 OA 
HETATM   57  H   UNL     1      -6.346  15.990  66.011  1.00  0.00     0.000 HD 
HETATM   58  C   UNL     1      -7.960  15.428  68.848  1.00  0.00    -0.177 C  
ENDBRANCH  46  47
ENDBRANCH  45  46
BRANCH  39  59
HETATM   59  N   UNL     1      -5.707  11.144  66.477  1.00  0.00    -0.118 NA 
HETATM   60  C   UNL     1      -5.142  12.201  65.681  1.00  0.00     2.054 C  
HETATM   61  C   UNL     1      -5.978   9.977  65.657  1.00  0.00    -0.080 C  
ENDBRANCH  39  59
ENDBRANCH  36  37
ENDBRANCH  14  36
BRANCH  19  62
HETATM   62  O   UNL     1     -10.089  12.103  69.433  1.00  0.00     0.273 OA 
HETATM   63  C   UNL     1     -11.285  12.793  69.117  1.00  0.00    -0.237 C  
ENDBRANCH  19  62
TORSDOF 9
ENDMDL
MODEL       17
REMARK 921   NORMALIZED FREE ENERGY PREDICTED BY IDOCK:    4.83 KCAL/MOL
REMARK 922        TOTAL FREE ENERGY PREDICTED BY IDOCK:    4.74 KCAL/MOL
REMARK 923 INTER-LIGAND FREE ENERGY PREDICTED BY IDOCK:    5.80 KCAL/MOL
REMARK 924 INTRA-LIGAND FREE ENERGY PREDICTED BY IDOCK:   -1.06 KCAL/MOL
REMARK 927      BINDING AFFINITY PREDICTED BY RF-SCORE:    0.00 PKD
ROOT
HETATM    1  C   UNL     1      -6.912  11.310  64.864  1.00  0.00     1.122 C  
HETATM    2  C   UNL     1      -7.143  10.813  63.593  1.00  0.00     0.352 C  
HETATM    3  C   UNL     1      -7.923   9.751  62.860  1.00  0.00    -0.132 C  
HETATM    4  C   UNL     1      -8.964   8.973  63.221  1.00  0.00     0.104 C  
HETATM    5  C   UNL     1      -9.464   9.017  64.599  1.00  0.00     0.458 C  
HETATM    6  O   UNL     1     -11.600  13.369  71.039  1.00  0.00    -0.289 OA 
HETATM    7  C   UNL     1     -10.605  10.098  64.640  1.00  0.00     0.620 C  
HETATM    8  C   UNL     1      -5.775  13.632  67.984  1.00  0.00    -0.129 C  
HETATM    9  C   UNL     1     -10.026  11.073  65.643  1.00  0.00    -0.299 C  
HETATM   10  C   UNL     1     -10.862  10.936  63.355  1.00  0.00     0.107 C  
HETATM   11  C   UNL     1     -10.872  12.163  66.236  1.00  0.00    -0.317 C  
HETATM   12  C   UNL     1      -6.954  11.680  66.514  1.00  0.00     0.049 C  
HETATM   13  C   UNL     1      -7.065  13.223  67.289  1.00  0.00    -0.001 C  
HETATM   14  C   UNL     1     -10.594  12.102  67.762  1.00  0.00    -0.204 C  
HETATM   15  C   UNL     1     -10.356  13.543  65.653  1.00  0.00    -0.303 C  
HETATM   16  C   UNL     1     -10.734  13.904  64.240  1.00  0.00    -0.125 C  
HETATM   17  O   UNL     1      -8.196  13.563  68.292  1.00  0.00    -0.146 OA 
HETATM   18  O   UNL     1      -7.234  13.801  70.397  1.00  0.00     0.668 OA 
HETATM   19  C   UNL     1     -11.078  13.332  68.598  1.00  0.00    -0.268 C  
HETATM   20  C   UNL     1     -10.572  13.229  70.055  1.00  0.00     1.176 C  
HETATM   21  H   UNL     1     -11.290  13.306  71.935  1.00  0.00     0.000 HD 
HETATM   22  C   UNL     1      -8.199  13.876  69.647  1.00  0.00     0.936 C  
HETATM   23  O   UNL     1      -9.926  14.331  63.469  1.00  0.00     2.601 OA 
HETATM   24  C   UNL     1      -9.557  14.346  70.205  1.00  0.00     1.422 C  
ENDROOT
BRANCH   5  25
HETATM   25  O   UNL     1      -9.573   7.726  65.226  1.00  0.00     0.629 OA 
BRANCH  25  26
HETATM   26  C   UNL     1      -8.247   7.213  65.535  1.00  0.00    -0.139 C  
HETATM   27  C   UNL     1      -8.260   4.302  65.150  1.00  0.00    -0.102 C  
HETATM   28  C   UNL     1      -8.511   5.410  64.051  1.00  0.00    -0.077 C  
HETATM   29  C   UNL     1      -8.839   4.938  66.471  1.00  0.00    -0.112 C  
HETATM   30  O   UNL     1      -7.733   6.556  64.382  1.00  0.00    -0.096 OA 
HETATM   31  C   UNL     1      -8.152   6.275  66.743  1.00  0.00    -0.109 C  
HETATM   32  C   UNL     1      -8.253   5.091  62.589  1.00  0.00    -0.098 C  
BRANCH  27  33
HETATM   33  N   UNL     1      -6.884   3.819  65.341  1.00  0.00    -0.051 NA 
HETATM   34  C   UNL     1      -6.675   3.220  66.664  1.00  0.00    -0.048 C  
HETATM   35  C   UNL     1      -6.460   2.853  64.327  1.00  0.00    -0.031 C  
ENDBRANCH  27  33
ENDBRANCH  25  26
ENDBRANCH   5  25
BRANCH  14  36
HETATM   36  O   UNL     1     -10.286  10.850  68.443  1.00  0.00    -0.165 OA 
BRANCH  36  37
HETATM   37  C   UNL     1      -9.573  10.793  69.672  1.00  0.00     0.175 C  
HETATM   38  C   UNL     1      -5.968  10.325  70.286  1.00  0.00    -0.088 C  
HETATM   39  C   UNL     1      -9.515   9.025  71.628  1.00  0.00    -0.223 C  
HETATM   40  C   UNL     1      -7.469  10.340  70.628  1.00  0.00     0.564 C  
HETATM   41  O   UNL     1      -8.206  10.551  69.433  1.00  0.00    -0.158 OA 
HETATM   42  H   UNL     1     -11.953   9.844  71.722  1.00  0.00     0.000 HD 
HETATM   43  C   UNL     1     -10.318   9.826  70.585  1.00  0.00    -0.261 C  
HETATM   44  O   UNL     1     -11.489  10.446  71.154  1.00  0.00    -0.311 OA 
HETATM   45  C   UNL     1      -7.964   8.997  71.185  1.00  0.00    -0.127 C  
BRANCH  45  46
HETATM   46  O   UNL     1      -7.030   8.614  72.218  1.00  0.00    -0.178 OA 
BRANCH  46  47
HETATM   47  C   UNL     1      -6.187   7.591  71.730  1.00  0.00    -0.039 C  
HETATM   48  C   UNL     1      -5.732   6.705  72.874  1.00  0.00    -0.038 C  
HETATM   49  C   UNL     1      -6.925   5.028  69.350  1.00  0.00    -0.055 C  
HETATM   50  O   UNL     1      -6.653   6.954  70.578  1.00  0.00    -0.049 OA 
HETATM   51  H   UNL     1      -7.753   3.221  71.266  1.00  0.00     0.000 HD 
HETATM   52  C   UNL     1      -6.739   5.629  73.161  1.00  0.00    -0.074 C  
HETATM   53  C   UNL     1      -6.264   4.857  74.397  1.00  0.00    -0.057 C  
HETATM   54  O   UNL     1      -8.029   6.164  73.492  1.00  0.00    -0.102 OA 
HETATM   55  C   UNL     1      -6.807   4.813  71.876  1.00  0.00    -0.051 C  
HETATM   56  O   UNL     1      -7.711   3.729  72.068  1.00  0.00    -0.060 OA 
HETATM   57  H   UNL     1      -8.667   5.484  73.674  1.00  0.00     0.000 HD 
HETATM   58  C   UNL     1      -7.261   5.686  70.682  1.00  0.00    -0.078 C  
ENDBRANCH  46  47
ENDBRANCH  45  46
BRANCH  39  59
HETATM   59  N   UNL     1     -10.288   7.726  71.852  1.00  0.00    -0.201 NA 
HETATM   60  C   UNL     1     -11.245   7.618  72.921  1.00  0.00    -0.372 C  
HETATM   61  C   UNL     1     -10.502   6.680  70.868  1.00  0.00    -0.215 C  
ENDBRANCH  39  59
ENDBRANCH  36  37
ENDBRANCH  14  36
BRANCH  19  62
HETATM   62  O   UNL     1     -12.427  13.775  68.545  1.00  0.00    -0.114 OA 
HETATM   63  C   UNL     1     -12.738  15.156  68.473  1.00  0.00     0.909 C  
ENDBRANCH  19  62
TORSDOF 9
ENDMDL
MODEL       18
REMARK 921   NORMALIZED FREE ENERGY PREDICTED BY IDOCK:    5.69 KCAL/MOL
REMARK 922        TOTAL FREE ENERGY PREDICTED BY IDOCK:    6.05 KCAL/MOL
REMARK 923 INTER-LIGAND FREE ENERGY PREDICTED BY IDOCK:    4.85 KCAL/MOL
REMARK 924 INTRA-LIGAND FREE ENERGY PREDICTED BY IDOCK:    1.20 KCAL/MOL
REMARK 927      BINDING AFFINITY PREDICTED BY RF-SCORE:    0.00 PKD
ROOT
HETATM    1  C   UNL     1      -8.012  14.331  70.077  1.00  0.00     0.887 C  
HETATM    2  C   UNL     1      -6.834  14.159  70.783  1.00  0.00     0.618 C  
HETATM    3  C   UNL     1      -6.012  13.103  71.478  1.00  0.00     0.602 C  
HETATM    4  C   UNL     1      -6.047  11.755  71.447  1.00  0.00     1.219 C  
HETATM    5  C   UNL     1      -7.102  11.069  70.692  1.00  0.00     1.320 C  
HETATM    6  O   UNL     1     -11.530  10.479  63.982  1.00  0.00     0.650 OA 
HETATM    7  C   UNL     1      -6.546  10.822  69.243  1.00  0.00    -0.074 C  
HETATM    8  C   UNL     1     -10.970  15.843  67.756  1.00  0.00    -0.315 C  
HETATM    9  C   UNL     1      -7.547  11.608  68.424  1.00  0.00    -0.126 C  
HETATM   10  C   UNL     1      -5.158  11.425  68.882  1.00  0.00    -0.043 C  
HETATM   11  C   UNL     1      -7.606  11.462  66.931  1.00  0.00    -0.151 C  
HETATM   12  C   UNL     1      -9.447  14.126  69.205  1.00  0.00     0.162 C  
HETATM   13  C   UNL     1      -9.893  14.772  67.663  1.00  0.00    -0.218 C  
HETATM   14  C   UNL     1      -9.112  11.279  66.604  1.00  0.00    -0.179 C  
HETATM   15  C   UNL     1      -7.081  12.815  66.294  1.00  0.00     1.974 C  
HETATM   16  C   UNL     1      -5.597  13.073  66.294  1.00  0.00     3.117 C  
HETATM   17  O   UNL     1     -10.321  13.865  66.481  1.00  0.00    -0.276 OA 
HETATM   18  O   UNL     1     -12.579  14.249  66.068  1.00  0.00    -0.447 OA 
HETATM   19  C   UNL     1      -9.514  11.437  65.101  1.00  0.00    -0.199 C  
HETATM   20  C   UNL     1     -11.052  11.420  64.947  1.00  0.00    -0.165 C  
HETATM   21  H   UNL     1     -12.475  10.469  63.887  1.00  0.00     0.000 HD 
HETATM   22  C   UNL     1     -11.510  13.728  65.773  1.00  0.00    -0.318 C  
HETATM   23  O   UNL     1      -5.148  14.130  66.625  1.00  0.00     1.169 OA 
HETATM   24  C   UNL     1     -11.426  12.829  64.524  1.00  0.00    -0.389 C  
ENDROOT
BRANCH   5  25
HETATM   25  O   UNL     1      -7.812  10.072  71.450  1.00  0.00     0.503 OA 
BRANCH  25  26
HETATM   26  C   UNL     1      -7.094   8.808  71.398  1.00  0.00    -0.090 C  
HETATM   27  C   UNL     1      -7.024   7.665  74.102  1.00  0.00    -0.106 C  
HETATM   28  C   UNL     1      -8.304   7.954  73.223  1.00  0.00    -0.193 C  
HETATM   29  C   UNL     1      -6.012   8.800  73.685  1.00  0.00    -0.102 C  
HETATM   30  O   UNL     1      -7.960   7.774  71.853  1.00  0.00    -0.093 OA 
HETATM   31  C   UNL     1      -5.775   8.751  72.178  1.00  0.00    -0.062 C  
HETATM   32  C   UNL     1      -9.583   7.174  73.477  1.00  0.00    -0.266 C  
BRANCH  27  33
HETATM   33  N   UNL     1      -6.409   6.333  74.010  1.00  0.00    -0.069 NA 
HETATM   34  C   UNL     1      -7.347   5.311  73.532  1.00  0.00    -0.091 C  
HETATM   35  C   UNL     1      -5.219   6.297  73.159  1.00  0.00    -0.035 C  
ENDBRANCH  27  33
ENDBRANCH  25  26
ENDBRANCH   5  25
BRANCH  14  36
HETATM   36  O   UNL     1     -10.028  10.613  67.524  1.00  0.00    -0.165 OA 
BRANCH  36  37
HETATM   37  C   UNL     1      -9.701   9.408  68.203  1.00  0.00    -0.145 C  
HETATM   38  C   UNL     1      -9.535   5.953  66.925  1.00  0.00    -0.145 C  
HETATM   39  C   UNL     1     -10.937   8.011  70.068  1.00  0.00    -0.202 C  
HETATM   40  C   UNL     1      -9.637   7.064  67.987  1.00  0.00    -0.128 C  
HETATM   41  O   UNL     1      -9.811   8.309  67.329  1.00  0.00    -0.164 OA 
HETATM   42  H   UNL     1     -10.445  10.219  71.295  1.00  0.00     0.000 HD 
HETATM   43  C   UNL     1     -10.515   9.376  69.492  1.00  0.00    -0.218 C  
HETATM   44  O   UNL     1      -9.937  10.239  70.493  1.00  0.00     0.035 OA 
HETATM   45  C   UNL     1     -10.864   6.904  68.897  1.00  0.00    -0.207 C  
BRANCH  45  46
HETATM   46  O   UNL     1     -10.868   5.530  69.340  1.00  0.00    -0.298 OA 
BRANCH  46  47
HETATM   47  C   UNL     1      -9.929   5.372  70.384  1.00  0.00    -0.223 C  
HETATM   48  C   UNL     1     -10.134   4.034  71.068  1.00  0.00    -0.085 C  
HETATM   49  C   UNL     1      -6.360   5.318  70.193  1.00  0.00    -0.030 C  
HETATM   50  O   UNL     1      -8.620   5.720  70.045  1.00  0.00    -0.124 OA 
HETATM   51  H   UNL     1      -6.229   2.579  69.868  1.00  0.00     0.000 HD 
HETATM   52  C   UNL     1      -9.400   2.939  70.349  1.00  0.00    -0.152 C  
HETATM   53  C   UNL     1      -9.752   1.611  71.028  1.00  0.00    -0.172 C  
HETATM   54  O   UNL     1      -9.813   2.813  68.980  1.00  0.00     0.073 OA 
HETATM   55  C   UNL     1      -7.931   3.340  70.434  1.00  0.00    -0.045 C  
HETATM   56  O   UNL     1      -7.143   2.329  69.815  1.00  0.00    -0.033 OA 
HETATM   57  H   UNL     1      -9.349   2.121  68.525  1.00  0.00     0.000 HD 
HETATM   58  C   UNL     1      -7.684   4.707  69.753  1.00  0.00    -0.058 C  
ENDBRANCH  46  47
ENDBRANCH  45  46
BRANCH  39  59
HETATM   59  N   UNL     1     -12.236   8.257  70.833  1.00  0.00    -0.167 NA 
HETATM   60  C   UNL     1     -13.113   7.163  71.157  1.00  0.00    -0.228 C  
HETATM   61  C   UNL     1     -12.535   9.412  71.660  1.00  0.00    -0.378 C  
ENDBRANCH  39  59
ENDBRANCH  36  37
ENDBRANCH  14  36
BRANCH  19  62
HETATM   62  O   UNL     1      -8.880  10.673  64.084  1.00  0.00    -0.181 OA 
HETATM   63  C   UNL     1      -8.458  11.279  62.874  1.00  0.00     0.079 C  
ENDBRANCH  19  62
TORSDOF 9
ENDMDL
MODEL       19
REMARK 921   NORMALIZED FREE ENERGY PREDICTED BY IDOCK:    6.94 KCAL/MOL
REMARK 922        TOTAL FREE ENERGY PREDICTED BY IDOCK:    7.96 KCAL/MOL
REMARK 923 INTER-LIGAND FREE ENERGY PREDICTED BY IDOCK:    6.38 KCAL/MOL
REMARK 924 INTRA-LIGAND FREE ENERGY PREDICTED BY IDOCK:    1.58 KCAL/MOL
REMARK 927      BINDING AFFINITY PREDICTED BY RF-SCORE:    0.00 PKD
ROOT
HETATM    1  C   UNL     1     -11.016   8.956  66.585  1.00  0.00     0.459 C  
HETATM    2  C   UNL     1     -10.687   9.148  65.255  1.00  0.00     2.695 C  
HETATM    3  C   UNL     1      -9.954  10.097  64.341  1.00  0.00    -0.229 C  
HETATM    4  C   UNL     1      -9.068  11.087  64.576  1.00  0.00    -0.127 C  
HETATM    5  C   UNL     1      -8.743  11.462  65.957  1.00  0.00    -0.131 C  
HETATM    6  O   UNL     1      -6.929   9.220  73.484  1.00  0.00    -0.119 OA 
HETATM    7  C   UNL     1      -7.496  10.607  66.385  1.00  0.00    -0.138 C  
HETATM    8  C   UNL     1     -12.250   7.343  70.092  1.00  0.00     0.312 C  
HETATM    9  C   UNL     1      -8.075   9.838  67.553  1.00  0.00    -0.114 C  
HETATM   10  C   UNL     1      -6.980   9.522  65.396  1.00  0.00    -0.094 C  
HETATM   11  C   UNL     1      -7.186   9.069  68.487  1.00  0.00    -0.073 C  
HETATM   12  C   UNL     1     -11.137   9.020  68.272  1.00  0.00     0.155 C  
HETATM   13  C   UNL     1     -10.941   7.752  69.433  1.00  0.00    -0.035 C  
HETATM   14  C   UNL     1      -7.660   9.466  69.911  1.00  0.00    -0.109 C  
HETATM   15  C   UNL     1      -7.456   7.526  68.245  1.00  0.00    -0.109 C  
HETATM   16  C   UNL     1      -6.863   6.884  67.018  1.00  0.00    -0.065 C  
HETATM   17  O   UNL     1      -9.913   7.845  70.589  1.00  0.00    -0.185 OA 
HETATM   18  O   UNL     1     -11.097   7.999  72.586  1.00  0.00    -0.344 OA 
HETATM   19  C   UNL     1      -7.141   8.569  71.082  1.00  0.00    -0.073 C  
HETATM   20  C   UNL     1      -7.835   8.957  72.409  1.00  0.00     0.285 C  
HETATM   21  H   UNL     1      -7.356   9.457  74.299  1.00  0.00     0.000 HD 
HETATM   22  C   UNL     1     -10.042   7.883  71.973  1.00  0.00    -0.202 C  
HETATM   23  O   UNL     1      -7.510   6.163  66.317  1.00  0.00    -0.083 OA 
HETATM   24  C   UNL     1      -8.720   7.774  72.756  1.00  0.00    -0.208 C  
ENDROOT
BRANCH   5  25
HETATM   25  O   UNL     1      -8.870  12.870  66.227  1.00  0.00    -0.022 OA 
BRANCH  25  26
HETATM   26  C   UNL     1      -9.503  13.535  65.100  1.00  0.00     0.429 C  
HETATM   27  C   UNL     1     -10.359  16.211  65.955  1.00  0.00    -0.358 C  
HETATM   28  C   UNL     1      -8.881  15.657  65.897  1.00  0.00    -0.025 C  
HETATM   29  C   UNL     1     -11.228  14.942  66.303  1.00  0.00    -0.331 C  
HETATM   30  O   UNL     1      -8.788  14.733  64.817  1.00  0.00     2.336 OA 
HETATM   31  C   UNL     1     -10.994  13.855  65.256  1.00  0.00    -0.331 C  
HETATM   32  C   UNL     1      -7.718  16.626  65.768  1.00  0.00     0.690 C  
BRANCH  27  33
HETATM   33  N   UNL     1     -10.879  16.914  64.773  1.00  0.00    -0.816 NA 
HETATM   34  C   UNL     1     -11.996  16.204  64.140  1.00  0.00     0.338 C  
HETATM   35  C   UNL     1     -11.307  18.286  65.052  1.00  0.00     1.976 C  
ENDBRANCH  27  33
ENDBRANCH  25  26
ENDBRANCH   5  25
BRANCH  14  36
HETATM   36  O   UNL     1      -8.199  10.788  70.206  1.00  0.00     0.465 OA 
BRANCH  36  37
HETATM   37  C   UNL     1      -8.211  11.848  69.257  1.00  0.00     0.519 C  
HETATM   38  C   UNL     1      -5.654  14.408  68.551  1.00  0.00    -0.098 C  
HETATM   39  C   UNL     1      -9.615  14.074  69.077  1.00  0.00     0.090 C  
HETATM   40  C   UNL     1      -7.057  13.773  68.545  1.00  0.00    -0.106 C  
HETATM   41  O   UNL     1      -7.036  12.616  69.368  1.00  0.00    -0.024 OA 
HETATM   42  H   UNL     1     -11.440  12.274  68.849  1.00  0.00     0.000 HD 
HETATM   43  C   UNL     1      -9.547  12.569  69.397  1.00  0.00     1.084 C  
HETATM   44  O   UNL     1     -10.607  11.825  68.761  1.00  0.00    -0.208 OA 
HETATM   45  C   UNL     1      -8.126  14.691  69.155  1.00  0.00    -0.078 C  
BRANCH  45  46
HETATM   46  O   UNL     1      -7.957  15.984  68.533  1.00  0.00    -0.145 OA 
BRANCH  46  47
HETATM   47  C   UNL     1      -8.085  16.994  69.512  1.00  0.00     0.474 C  
HETATM   48  C   UNL     1      -6.781  17.757  69.643  1.00  0.00    -0.008 C  
HETATM   49  C   UNL     1     -10.325  19.780  69.572  1.00  0.00     0.090 C  
HETATM   50  O   UNL     1      -9.257  17.749  69.419  1.00  0.00     0.123 OA 
HETATM   51  H   UNL     1      -8.563  21.468  68.279  1.00  0.00     0.000 HD 
HETATM   52  C   UNL     1      -6.693  18.861  68.628  1.00  0.00    -0.270 C  
HETATM   53  C   UNL     1      -5.306  19.501  68.748  1.00  0.00    -0.212 C  
HETATM   54  O   UNL     1      -6.796  18.374  67.282  1.00  0.00    -0.195 OA 
HETATM   55  C   UNL     1      -7.862  19.782  68.960  1.00  0.00    -0.159 C  
HETATM   56  O   UNL     1      -7.835  20.895  68.073  1.00  0.00     0.011 OA 
HETATM   57  H   UNL     1      -6.741  19.071  66.640  1.00  0.00     0.000 HD 
HETATM   58  C   UNL     1      -9.212  19.035  68.845  1.00  0.00    -0.295 C  
ENDBRANCH  46  47
ENDBRANCH  45  46
BRANCH  39  59
HETATM   59  N   UNL     1     -10.742  14.641  69.938  1.00  0.00    -0.123 NA 
HETATM   60  C   UNL     1     -10.447  15.432  71.103  1.00  0.00     0.425 C  
HETATM   61  C   UNL     1     -12.118  14.844  69.519  1.00  0.00    -0.279 C  
ENDBRANCH  39  59
ENDBRANCH  36  37
ENDBRANCH  14  36
BRANCH  19  62
HETATM   62  O   UNL     1      -5.752   8.332  71.271  1.00  0.00    -0.033 OA 
HETATM   63  C   UNL     1      -5.225   7.017  71.227  1.00  0.00    -0.027 C  
ENDBRANCH  19  62
TORSDOF 9
ENDMDL
MODEL       20
REMARK 921   NORMALIZED FREE ENERGY PREDICTED BY IDOCK:    7.06 KCAL/MOL
REMARK 922        TOTAL FREE ENERGY PREDICTED BY IDOCK:    8.14 KCAL/MOL
REMARK 923 INTER-LIGAND FREE ENERGY PREDICTED BY IDOCK:    8.47 KCAL/MOL
REMARK 924 INTRA-LIGAND FREE ENERGY PREDICTED BY IDOCK:   -0.33 KCAL/MOL
REMARK 927      BINDING AFFINITY PREDICTED BY RF-SCORE:    0.00 PKD
ROOT
HETATM    1  C   UNL     1      -9.305  15.433  70.060  1.00  0.00     0.145 C  
HETATM    2  C   UNL     1      -8.086  15.622  70.687  1.00  0.00     1.973 C  
HETATM    3  C   UNL     1      -6.862  14.872  71.149  1.00  0.00     0.936 C  
HETATM    4  C   UNL     1      -6.388  13.641  70.866  1.00  0.00     0.292 C  
HETATM    5  C   UNL     1      -7.175  12.730  70.027  1.00  0.00     1.156 C  
HETATM    6  O   UNL     1     -11.690  11.554  63.454  1.00  0.00    -0.745 OA 
HETATM    7  C   UNL     1      -6.712  12.957  68.543  1.00  0.00    -0.091 C  
HETATM    8  C   UNL     1     -12.829  16.027  68.149  1.00  0.00     2.428 C  
HETATM    9  C   UNL     1      -8.011  13.412  67.914  1.00  0.00    -0.155 C  
HETATM   10  C   UNL     1      -5.698  14.103  68.261  1.00  0.00    -0.117 C  
HETATM   11  C   UNL     1      -8.158  13.498  66.422  1.00  0.00     0.959 C  
HETATM   12  C   UNL     1     -10.635  14.829  69.206  1.00  0.00    -0.248 C  
HETATM   13  C   UNL     1     -11.443  15.490  67.826  1.00  0.00    -0.243 C  
HETATM   14  C   UNL     1      -9.508  12.798  66.110  1.00  0.00    -0.164 C  
HETATM   15  C   UNL     1      -8.250  15.032  66.035  1.00  0.00     1.181 C  
HETATM   16  C   UNL     1      -6.981  15.843  66.041  1.00  0.00     2.313 C  
HETATM   17  O   UNL     1     -11.610  14.692  66.507  1.00  0.00    -0.361 OA 
HETATM   18  O   UNL     1     -13.874  14.227  66.238  1.00  0.00     1.640 OA 
HETATM   19  C   UNL     1     -10.085  13.027  64.675  1.00  0.00    -0.230 C  
HETATM   20  C   UNL     1     -11.511  12.438  64.565  1.00  0.00    -0.337 C  
HETATM   21  H   UNL     1     -12.566  11.192  63.386  1.00  0.00     0.000 HD 
HETATM   22  C   UNL     1     -12.722  14.218  65.821  1.00  0.00    -0.340 C  
HETATM   23  O   UNL     1      -6.934  16.924  66.551  1.00  0.00    -0.219 OA 
HETATM   24  C   UNL     1     -12.429  13.637  64.424  1.00  0.00    -0.316 C  
ENDROOT
BRANCH   5  25
HETATM   25  O   UNL     1      -7.376  11.427  70.605  1.00  0.00     1.020 OA 
BRANCH  25  26
HETATM   26  C   UNL     1      -6.416  10.487  70.050  1.00  0.00    -0.135 C  
HETATM   27  C   UNL     1      -6.211   8.185  71.862  1.00  0.00    -0.047 C  
HETATM   28  C   UNL     1      -7.492   8.662  71.068  1.00  0.00    -0.090 C  
HETATM   29  C   UNL     1      -5.436   9.522  72.174  1.00  0.00    -0.039 C  
HETATM   30  O   UNL     1      -7.069   9.241  69.837  1.00  0.00    -0.053 OA 
HETATM   31  C   UNL     1      -5.141  10.262  70.872  1.00  0.00    -0.067 C  
HETATM   32  C   UNL     1      -8.594   7.667  70.749  1.00  0.00    -0.134 C  
BRANCH  27  33
HETATM   33  N   UNL     1      -5.337   7.189  71.225  1.00  0.00    -0.027 NA 
HETATM   34  C   UNL     1      -5.282   5.927  71.971  1.00  0.00    -0.021 C  
HETATM   35  C   UNL     1      -5.706   6.889  69.841  1.00  0.00    -0.023 C  
ENDBRANCH  27  33
ENDBRANCH  25  26
ENDBRANCH   5  25
BRANCH  14  36
HETATM   36  O   UNL     1     -10.008  11.689  66.915  1.00  0.00    -0.198 OA 
BRANCH  36  37
HETATM   37  C   UNL     1      -9.168  10.659  67.419  1.00  0.00    -0.143 C  
HETATM   38  C   UNL     1      -6.543   8.712  65.713  1.00  0.00    -0.057 C  
HETATM   39  C   UNL     1      -9.641   8.185  68.204  1.00  0.00    -0.149 C  
HETATM   40  C   UNL     1      -7.581   9.031  66.805  1.00  0.00    -0.090 C  
HETATM   41  O   UNL     1      -8.339  10.160  66.396  1.00  0.00    -0.121 OA 
HETATM   42  H   UNL     1     -10.980   9.555  69.923  1.00  0.00     0.000 HD 
HETATM   43  C   UNL     1     -10.058   9.668  68.161  1.00  0.00    -0.175 C  
HETATM   44  O   UNL     1     -10.425  10.172  69.461  1.00  0.00    -0.209 OA 
HETATM   45  C   UNL     1      -8.601   7.901  67.004  1.00  0.00    -0.128 C  
BRANCH  45  46
HETATM   46  O   UNL     1      -7.839   6.679  67.120  1.00  0.00    -0.102 OA 
BRANCH  46  47
HETATM   47  C   UNL     1      -8.306   5.744  66.169  1.00  0.00    -0.122 C  
HETATM   48  C   UNL     1      -7.255   5.527  65.097  1.00  0.00    -0.067 C  
HETATM   49  C   UNL     1      -9.256   2.334  66.664  1.00  0.00    -0.032 C  
HETATM   50  O   UNL     1      -8.901   4.606  66.717  1.00  0.00    -0.111 OA 
HETATM   51  H   UNL     1      -6.724   1.355  66.157  1.00  0.00     0.000 HD 
HETATM   52  C   UNL     1      -6.259   4.484  65.516  1.00  0.00    -0.031 C  
HETATM   53  C   UNL     1      -5.173   4.410  64.438  1.00  0.00    -0.012 C  
HETATM   54  O   UNL     1      -5.591   4.829  66.738  1.00  0.00    -0.013 OA 
HETATM   55  C   UNL     1      -7.084   3.214  65.692  1.00  0.00    -0.065 C  
HETATM   56  O   UNL     1      -6.211   2.147  66.047  1.00  0.00    -0.022 OA 
HETATM   57  H   UNL     1      -4.960   4.170  67.004  1.00  0.00     0.000 HD 
HETATM   58  C   UNL     1      -8.173   3.400  66.774  1.00  0.00    -0.095 C  
ENDBRANCH  46  47
ENDBRANCH  45  46
BRANCH  39  59
HETATM   59  N   UNL     1     -10.936   7.384  68.323  1.00  0.00    -0.011 NA 
HETATM   60  C   UNL     1     -11.524   6.766  67.164  1.00  0.00     0.329 C  
HETATM   61  C   UNL     1     -11.467   6.794  69.539  1.00  0.00    -0.190 C  
ENDBRANCH  39  59
ENDBRANCH  36  37
ENDBRANCH  14  36
BRANCH  19  62
HETATM   62  O   UNL     1      -9.314  12.746  63.516  1.00  0.00     0.372 OA 
HETATM   63  C   UNL     1      -8.900  11.423  63.219  1.00  0.00     0.073 C  
ENDBRANCH  19  62
TORSDOF 9
ENDMDL
MODEL       21
REMARK 921   NORMALIZED FREE ENERGY PREDICTED BY IDOCK:    7.36 KCAL/MOL
REMARK 922        TOTAL FREE ENERGY PREDICTED BY IDOCK:    8.60 KCAL/MOL
REMARK 923 INTER-LIGAND FREE ENERGY PREDICTED BY IDOCK:    4.75 KCAL/MOL
REMARK 924 INTRA-LIGAND FREE ENERGY PREDICTED BY IDOCK:    3.85 KCAL/MOL
REMARK 927      BINDING AFFINITY PREDICTED BY RF-SCORE:    0.00 PKD
ROOT
HETATM    1  C   UNL     1      -9.280   9.126  70.780  1.00  0.00    -0.321 C  
HETATM    2  C   UNL     1     -10.428   9.291  71.536  1.00  0.00    -0.385 C  
HETATM    3  C   UNL     1     -11.587  10.233  71.741  1.00  0.00     0.375 C  
HETATM    4  C   UNL     1     -12.074  11.252  71.003  1.00  0.00    -0.335 C  
HETATM    5  C   UNL     1     -11.370  11.673  69.786  1.00  0.00    -0.200 C  
HETATM    6  O   UNL     1      -7.568   9.686  62.962  1.00  0.00    -0.112 OA 
HETATM    7  C   UNL     1     -11.991  10.863  68.592  1.00  0.00    -0.185 C  
HETATM    8  C   UNL     1      -5.988   7.578  68.996  1.00  0.00    -0.034 C  
HETATM    9  C   UNL     1     -10.772  10.112  68.103  1.00  0.00    -0.285 C  
HETATM   10  C   UNL     1     -13.043   9.766  68.922  1.00  0.00     4.427 C  
HETATM   11  C   UNL     1     -10.786   9.391  66.785  1.00  0.00    -0.012 C  
HETATM   12  C   UNL     1      -8.042   9.233  69.632  1.00  0.00    -0.116 C  
HETATM   13  C   UNL     1      -7.394   8.004  68.601  1.00  0.00    -0.089 C  
HETATM   14  C   UNL     1      -9.469   9.814  66.082  1.00  0.00    -0.205 C  
HETATM   15  C   UNL     1     -10.754   7.836  67.088  1.00  0.00    -0.337 C  
HETATM   16  C   UNL     1     -12.025   7.177  67.557  1.00  0.00     2.545 C  
HETATM   17  O   UNL     1      -7.359   8.155  67.059  1.00  0.00    -0.085 OA 
HETATM   18  O   UNL     1      -5.131   8.332  66.411  1.00  0.00    -0.026 OA 
HETATM   19  C   UNL     1      -9.050   8.965  64.838  1.00  0.00    -0.000 C  
HETATM   20  C   UNL     1      -7.638   9.370  64.356  1.00  0.00    -0.114 C  
HETATM   21  H   UNL     1      -6.700   9.934  62.666  1.00  0.00     0.000 HD 
HETATM   22  C   UNL     1      -6.321   8.228  66.137  1.00  0.00    -0.049 C  
HETATM   23  O   UNL     1     -12.030   6.420  68.483  1.00  0.00     0.661 OA 
HETATM   24  C   UNL     1      -6.755   8.175  64.660  1.00  0.00    -0.067 C  
ENDROOT
BRANCH   5  25
HETATM   25  O   UNL     1     -11.093  13.085  69.728  1.00  0.00    -0.026 OA 
BRANCH  25  26
HETATM   26  C   UNL     1     -12.302  13.838  70.020  1.00  0.00    -0.300 C  
HETATM   27  C   UNL     1     -11.755  15.644  72.270  1.00  0.00    -0.481 C  
HETATM   28  C   UNL     1     -11.065  15.657  70.849  1.00  0.00    -0.338 C  
HETATM   29  C   UNL     1     -12.076  14.121  72.524  1.00  0.00     0.187 C  
HETATM   30  O   UNL     1     -12.018  15.226  69.882  1.00  0.00    -0.304 OA 
HETATM   31  C   UNL     1     -12.943  13.581  71.388  1.00  0.00    -0.421 C  
HETATM   32  C   UNL     1     -10.436  16.938  70.330  1.00  0.00     0.416 C  
BRANCH  27  33
HETATM   33  N   UNL     1     -12.944  16.487  72.468  1.00  0.00     0.281 NA 
HETATM   34  C   UNL     1     -14.193  15.780  72.164  1.00  0.00    -0.296 C  
HETATM   35  C   UNL     1     -13.048  17.042  73.818  1.00  0.00     1.180 C  
ENDBRANCH  27  33
ENDBRANCH  25  26
ENDBRANCH   5  25
BRANCH  14  36
HETATM   36  O   UNL     1      -8.873  11.130  66.283  1.00  0.00    -0.175 OA 
BRANCH  36  37
HETATM   37  C   UNL     1      -9.573  12.213  66.884  1.00  0.00    -0.206 C  
HETATM   38  C   UNL     1     -11.361  15.026  65.309  1.00  0.00    -0.349 C  
HETATM   39  C   UNL     1      -8.779  14.299  68.289  1.00  0.00    -0.179 C  
HETATM   40  C   UNL     1     -10.646  14.260  66.438  1.00  0.00    -0.286 C  
HETATM   41  O   UNL     1     -10.064  13.086  65.894  1.00  0.00    -0.281 OA 
HETATM   42  H   UNL     1      -8.110  12.341  69.819  1.00  0.00     0.000 HD 
HETATM   43  C   UNL     1      -8.667  12.798  67.962  1.00  0.00    -0.194 C  
HETATM   44  O   UNL     1      -8.674  11.976  69.148  1.00  0.00     0.259 OA 
HETATM   45  C   UNL     1      -9.481  15.053  67.047  1.00  0.00    -0.229 C  
BRANCH  45  46
HETATM   46  O   UNL     1      -9.990  16.375  67.332  1.00  0.00    -0.242 OA 
BRANCH  46  47
HETATM   47  C   UNL     1      -9.050  17.340  66.905  1.00  0.00    -0.236 C  
HETATM   48  C   UNL     1      -9.682  18.260  65.879  1.00  0.00     0.039 C  
HETATM   49  C   UNL     1      -7.346  19.813  68.843  1.00  0.00    -0.327 C  
HETATM   50  O   UNL     1      -8.323  17.939  67.936  1.00  0.00    -0.237 OA 
HETATM   51  H   UNL     1      -9.281  21.741  68.436  1.00  0.00     0.000 HD 
HETATM   52  C   UNL     1     -10.420  19.387  66.542  1.00  0.00    -0.476 C  
HETATM   53  C   UNL     1     -11.124  20.198  65.449  1.00  0.00     0.234 C  
HETATM   54  O   UNL     1     -11.452  18.920  67.424  1.00  0.00     0.177 OA 
HETATM   55  C   UNL     1      -9.348  20.144  67.319  1.00  0.00    -0.391 C  
HETATM   56  O   UNL     1      -9.949  21.269  67.951  1.00  0.00     0.068 OA 
HETATM   57  H   UNL     1     -11.919  19.632  67.844  1.00  0.00     0.000 HD 
HETATM   58  C   UNL     1      -8.673  19.233  68.372  1.00  0.00    -0.357 C  
ENDBRANCH  46  47
ENDBRANCH  45  46
BRANCH  39  59
HETATM   59  N   UNL     1      -7.399  14.729  68.786  1.00  0.00    -0.121 NA 
HETATM   60  C   UNL     1      -7.000  14.478  70.145  1.00  0.00     0.047 C  
HETATM   61  C   UNL     1      -6.239  15.002  67.956  1.00  0.00    -0.150 C  
ENDBRANCH  39  59
ENDBRANCH  36  37
ENDBRANCH  14  36
BRANCH  19  62
HETATM   62  O   UNL     1      -9.938   8.769  63.746  1.00  0.00     2.413 OA 
HETATM   63  C   UNL     1     -10.032   9.725  62.703  1.00  0.00     1.002 C  
ENDBRANCH  19  62
TORSDOF 9
ENDMDL
MODEL       22
REMARK 921   NORMALIZED FREE ENERGY PREDICTED BY IDOCK:    8.68 KCAL/MOL
REMARK 922        TOTAL FREE ENERGY PREDICTED BY IDOCK:   10.61 KCAL/MOL
REMARK 923 INTER-LIGAND FREE ENERGY PREDICTED BY IDOCK:   10.37 KCAL/MOL
REMARK 924 INTRA-LIGAND FREE ENERGY PREDICTED BY IDOCK:    0.24 KCAL/MOL
REMARK 927      BINDING AFFINITY PREDICTED BY RF-SCORE:    0.00 PKD
ROOT
HETATM    1  C   UNL     1     -12.482   9.307  68.535  1.00  0.00     4.377 C  
HETATM    2  C   UNL     1     -13.581   9.582  69.331  1.00  0.00     4.038 C  
HETATM    3  C   UNL     1     -13.967   9.864  70.761  1.00  0.00     0.463 C  
HETATM    4  C   UNL     1     -13.247  10.208  71.848  1.00  0.00    -0.557 C  
HETATM    5  C   UNL     1     -11.783  10.264  71.766  1.00  0.00     0.288 C  
HETATM    6  O   UNL     1      -5.169  12.509  67.741  1.00  0.00    -0.082 OA 
HETATM    7  C   UNL     1     -11.400  11.738  71.377  1.00  0.00     2.620 C  
HETATM    8  C   UNL     1     -10.019   8.742  65.368  1.00  0.00     0.655 C  
HETATM    9  C   UNL     1     -10.689  11.502  70.062  1.00  0.00     0.492 C  
HETATM   10  C   UNL     1     -12.554  12.729  71.046  1.00  0.00    -0.362 C  
HETATM   11  C   UNL     1      -9.887  12.592  69.411  1.00  0.00     0.892 C  
HETATM   12  C   UNL     1     -10.929   9.086  67.900  1.00  0.00    -0.001 C  
HETATM   13  C   UNL     1     -10.222   9.765  66.475  1.00  0.00    -0.219 C  
HETATM   14  C   UNL     1      -8.544  11.922  69.017  1.00  0.00     0.291 C  
HETATM   15  C   UNL     1     -10.662  13.045  68.105  1.00  0.00    -0.258 C  
HETATM   16  C   UNL     1     -11.877  13.920  68.267  1.00  0.00    -0.376 C  
HETATM   17  O   UNL     1      -8.909  10.588  66.517  1.00  0.00    -0.140 OA 
HETATM   18  O   UNL     1      -7.263   9.361  65.423  1.00  0.00    -0.088 OA 
HETATM   19  C   UNL     1      -7.641  12.726  68.025  1.00  0.00    -0.131 C  
HETATM   20  C   UNL     1      -6.437  11.867  67.573  1.00  0.00    -0.111 C  
HETATM   21  H   UNL     1      -4.429  11.981  67.463  1.00  0.00     0.000 HD 
HETATM   22  C   UNL     1      -7.646  10.386  65.973  1.00  0.00    -0.137 C  
HETATM   23  O   UNL     1     -12.892  13.694  67.675  1.00  0.00     0.574 OA 
HETATM   24  C   UNL     1      -6.680  11.581  66.104  1.00  0.00     0.242 C  
ENDROOT
BRANCH   5  25
HETATM   25  O   UNL     1     -11.108   9.515  72.793  1.00  0.00     1.330 OA 
BRANCH  25  26
HETATM   26  C   UNL     1     -11.607   8.149  72.817  1.00  0.00    -0.304 C  
HETATM   27  C   UNL     1      -9.418   6.343  72.063  1.00  0.00    -0.151 C  
HETATM   28  C   UNL     1      -9.477   7.294  73.323  1.00  0.00    -0.195 C  
HETATM   29  C   UNL     1     -10.230   7.122  70.959  1.00  0.00    -0.205 C  
HETATM   30  O   UNL     1     -10.834   7.398  73.746  1.00  0.00    -0.321 OA 
HETATM   31  C   UNL     1     -11.639   7.419  71.469  1.00  0.00    -0.304 C  
HETATM   32  C   UNL     1      -8.642   6.971  74.550  1.00  0.00    -0.224 C  
BRANCH  27  33
HETATM   33  N   UNL     1      -9.903   4.963  72.217  1.00  0.00    -0.163 NA 
HETATM   34  C   UNL     1      -9.967   4.242  70.941  1.00  0.00    -0.155 C  
HETATM   35  C   UNL     1      -9.109   4.167  73.155  1.00  0.00    -0.110 C  
ENDBRANCH  27  33
ENDBRANCH  25  26
ENDBRANCH   5  25
BRANCH  14  36
HETATM   36  O   UNL     1      -7.960  10.840  69.801  1.00  0.00    -0.024 OA 
BRANCH  36  37
HETATM   37  C   UNL     1      -7.374   9.687  69.211  1.00  0.00    -0.079 C  
HETATM   38  C   UNL     1      -8.983   6.788  67.598  1.00  0.00    -0.115 C  
HETATM   39  C   UNL     1      -6.065   7.629  70.217  1.00  0.00    -0.030 C  
HETATM   40  C   UNL     1      -7.852   7.574  68.289  1.00  0.00    -0.122 C  
HETATM   41  O   UNL     1      -8.376   8.808  68.756  1.00  0.00    -0.121 OA 
HETATM   42  H   UNL     1      -4.493   9.587  70.781  1.00  0.00     0.000 HD 
HETATM   43  C   UNL     1      -6.345   9.144  70.197  1.00  0.00    -0.044 C  
HETATM   44  O   UNL     1      -5.133   9.925  70.167  1.00  0.00    -0.035 OA 
HETATM   45  C   UNL     1      -7.308   6.859  69.535  1.00  0.00    -0.091 C  
BRANCH  45  46
HETATM   46  O   UNL     1      -7.052   5.493  69.143  1.00  0.00    -0.061 OA 
BRANCH  46  47
HETATM   47  C   UNL     1      -5.843   5.434  68.414  1.00  0.00    -0.017 C  
HETATM   48  C   UNL     1      -5.259   4.036  68.490  1.00  0.00    -0.011 C  
HETATM   49  C   UNL     1      -5.296   6.037  64.933  1.00  0.00    -0.017 C  
HETATM   50  O   UNL     1      -5.893   6.035  67.155  1.00  0.00    -0.016 OA 
HETATM   51  H   UNL     1      -5.675   3.396  64.221  1.00  0.00     0.000 HD 
HETATM   52  C   UNL     1      -5.847   3.145  67.434  1.00  0.00    -0.023 C  
HETATM   53  C   UNL     1      -5.298   1.730  67.653  1.00  0.00    -0.016 C  
HETATM   54  O   UNL     1      -7.275   3.043  67.539  1.00  0.00    -0.053 OA 
HETATM   55  C   UNL     1      -5.447   3.796  66.115  1.00  0.00    -0.013 C  
HETATM   56  O   UNL     1      -5.924   2.990  65.043  1.00  0.00    -0.018 OA 
HETATM   57  H   UNL     1      -7.647   2.479  66.871  1.00  0.00     0.000 HD 
HETATM   58  C   UNL     1      -6.019   5.230  66.004  1.00  0.00    -0.022 C  
ENDBRANCH  46  47
ENDBRANCH  45  46
BRANCH  39  59
HETATM   59  N   UNL     1      -5.629   7.297  71.643  1.00  0.00    -0.036 NA 
HETATM   60  C   UNL     1      -5.248   8.344  72.555  1.00  0.00    -0.040 C  
HETATM   61  C   UNL     1      -5.933   6.076  72.368  1.00  0.00    -0.037 C  
ENDBRANCH  39  59
ENDBRANCH  36  37
ENDBRANCH  14  36
BRANCH  19  62
HETATM   62  O   UNL     1      -7.252  14.064  68.300  1.00  0.00    -0.092 OA 
HETATM   63  C   UNL     1      -7.884  15.154  67.651  1.00  0.00    -0.160 C  
ENDBRANCH  19  62
TORSDOF 9
ENDMDL
MODEL       23
REMARK 921   NORMALIZED FREE ENERGY PREDICTED BY IDOCK:    8.83 KCAL/MOL
REMARK 922        TOTAL FREE ENERGY PREDICTED BY IDOCK:   10.85 KCAL/MOL
REMARK 923 INTER-LIGAND FREE ENERGY PREDICTED BY IDOCK:    1.94 KCAL/MOL
REMARK 924 INTRA-LIGAND FREE ENERGY PREDICTED BY IDOCK:    8.91 KCAL/MOL
REMARK 927      BINDING AFFINITY PREDICTED BY RF-SCORE:    0.00 PKD
ROOT
HETATM    1  C   UNL     1      -8.325  14.847  65.961  1.00  0.00     1.023 C  
HETATM    2  C   UNL     1      -8.806  16.142  66.044  1.00  0.00    -0.313 C  
HETATM    3  C   UNL     1      -9.825  16.983  66.770  1.00  0.00    -0.283 C  
HETATM    4  C   UNL     1     -10.551  16.772  67.888  1.00  0.00    -0.350 C  
HETATM    5  C   UNL     1     -10.484  15.473  68.566  1.00  0.00    -0.238 C  
HETATM    6  O   UNL     1      -6.044   9.339  71.328  1.00  0.00    -0.067 OA 
HETATM    7  C   UNL     1      -9.347  15.575  69.646  1.00  0.00    -0.224 C  
HETATM    8  C   UNL     1      -6.070  11.582  65.139  1.00  0.00     1.557 C  
HETATM    9  C   UNL     1      -8.405  14.495  69.160  1.00  0.00    -0.001 C  
HETATM   10  C   UNL     1      -8.493  16.876  69.686  1.00  0.00     0.743 C  
HETATM   11  C   UNL     1      -7.275  14.012  70.022  1.00  0.00     0.420 C  
HETATM   12  C   UNL     1      -7.957  13.215  66.206  1.00  0.00     1.250 C  
HETATM   13  C   UNL     1      -6.412  12.448  66.343  1.00  0.00     1.260 C  
HETATM   14  C   UNL     1      -7.353  12.463  69.955  1.00  0.00     1.092 C  
HETATM   15  C   UNL     1      -5.921  14.508  69.364  1.00  0.00    -0.101 C  
HETATM   16  C   UNL     1      -5.538  15.955  69.529  1.00  0.00    -0.124 C  
HETATM   17  O   UNL     1      -6.017  11.602  67.580  1.00  0.00    -0.051 OA 
HETATM   18  O   UNL     1      -5.833   9.385  66.899  1.00  0.00    -0.053 OA 
HETATM   19  C   UNL     1      -6.102  11.688  70.485  1.00  0.00     0.003 C  
HETATM   20  C   UNL     1      -6.234  10.177  70.185  1.00  0.00    -0.090 C  
HETATM   21  H   UNL     1      -6.124   8.410  71.145  1.00  0.00     0.000 HD 
HETATM   22  C   UNL     1      -5.707  10.257  67.750  1.00  0.00    -0.044 C  
HETATM   23  O   UNL     1      -5.151  16.607  68.605  1.00  0.00    -0.117 OA 
HETATM   24  C   UNL     1      -5.170   9.882  69.145  1.00  0.00    -0.036 C  
ENDROOT
BRANCH   5  25
HETATM   25  O   UNL     1     -11.770  14.878  68.823  1.00  0.00    -0.308 OA 
BRANCH  25  26
HETATM   26  C   UNL     1     -12.404  14.512  67.567  1.00  0.00     0.054 C  
HETATM   27  C   UNL     1     -11.027  12.157  66.479  1.00  0.00    -0.284 C  
HETATM   28  C   UNL     1     -11.824  12.251  67.840  1.00  0.00    -0.293 C  
HETATM   29  C   UNL     1     -10.416  13.599  66.296  1.00  0.00    -0.291 C  
HETATM   30  O   UNL     1     -12.891  13.179  67.674  1.00  0.00     0.615 OA 
HETATM   31  C   UNL     1     -11.535  14.638  66.310  1.00  0.00    -0.351 C  
HETATM   32  C   UNL     1     -12.407  10.992  68.459  1.00  0.00     0.387 C  
BRANCH  27  33
HETATM   33  N   UNL     1     -11.759  11.724  65.279  1.00  0.00    -0.202 NA 
HETATM   34  C   UNL     1     -12.798  12.678  64.878  1.00  0.00    -0.228 C  
HETATM   35  C   UNL     1     -10.894  11.474  64.126  1.00  0.00    -0.372 C  
ENDBRANCH  27  33
ENDBRANCH  25  26
ENDBRANCH   5  25
BRANCH  14  36
HETATM   36  O   UNL     1      -8.621  11.758  69.804  1.00  0.00     1.181 OA 
BRANCH  36  37
HETATM   37  C   UNL     1      -8.703  10.371  69.502  1.00  0.00    -0.084 C  
HETATM   38  C   UNL     1      -9.510   8.698  66.317  1.00  0.00    -0.307 C  
HETATM   39  C   UNL     1     -10.394   8.479  70.222  1.00  0.00    -0.205 C  
HETATM   40  C   UNL     1      -9.331   8.824  67.841  1.00  0.00    -0.142 C  
HETATM   41  O   UNL     1      -9.091  10.186  68.161  1.00  0.00    -0.127 OA 
HETATM   42  H   UNL     1      -9.330   9.127  72.474  1.00  0.00     0.000 HD 
HETATM   43  C   UNL     1      -9.556   9.719  70.585  1.00  0.00    -0.029 C  
HETATM   44  O   UNL     1      -8.799   9.533  71.799  1.00  0.00    -0.054 OA 
HETATM   45  C   UNL     1     -10.595   8.435  68.622  1.00  0.00    -0.113 C  
BRANCH  45  46
HETATM   46  O   UNL     1     -11.032   7.166  68.086  1.00  0.00    -0.149 OA 
BRANCH  46  47
HETATM   47  C   UNL     1      -9.964   6.563  67.383  1.00  0.00    -0.143 C  
HETATM   48  C   UNL     1      -8.764   6.408  68.297  1.00  0.00    -0.116 C  
HETATM   49  C   UNL     1      -9.847   3.349  65.823  1.00  0.00     0.081 C  
HETATM   50  O   UNL     1     -10.327   5.454  66.616  1.00  0.00    -0.220 OA 
HETATM   51  H   UNL     1      -8.881   2.079  68.076  1.00  0.00     0.000 HD 
HETATM   52  C   UNL     1      -8.851   5.141  69.097  1.00  0.00    -0.092 C  
HETATM   53  C   UNL     1      -7.670   5.118  70.075  1.00  0.00    -0.067 C  
HETATM   54  O   UNL     1     -10.039   5.083  69.900  1.00  0.00    -0.236 OA 
HETATM   55  C   UNL     1      -8.849   4.028  68.055  1.00  0.00    -0.108 C  
HETATM   56  O   UNL     1      -8.882   2.772  68.726  1.00  0.00    -0.081 OA 
HETATM   57  H   UNL     1     -10.094   4.281  70.407  1.00  0.00     0.000 HD 
HETATM   58  C   UNL     1     -10.057   4.157  67.097  1.00  0.00     0.072 C  
ENDBRANCH  46  47
ENDBRANCH  45  46
BRANCH  39  59
HETATM   59  N   UNL     1     -11.599   8.492  71.161  1.00  0.00    -0.276 NA 
HETATM   60  C   UNL     1     -12.122   7.263  71.698  1.00  0.00    -0.325 C  
HETATM   61  C   UNL     1     -12.064   9.627  71.938  1.00  0.00    -0.306 C  
ENDBRANCH  39  59
ENDBRANCH  36  37
ENDBRANCH  14  36
BRANCH  19  62
HETATM   62  O   UNL     1      -5.591  11.918  71.791  1.00  0.00    -0.340 OA 
HETATM   63  C   UNL     1      -5.422  13.235  72.286  1.00  0.00     0.144 C  
ENDBRANCH  19  62
TORSDOF 9
ENDMDL
MODEL       24
REMARK 921   NORMALIZED FREE ENERGY PREDICTED BY IDOCK:    9.77 KCAL/MOL
REMARK 922        TOTAL FREE ENERGY PREDICTED BY IDOCK:   12.29 KCAL/MOL
REMARK 923 INTER-LIGAND FREE ENERGY PREDICTED BY IDOCK:    4.94 KCAL/MOL
REMARK 924 INTRA-LIGAND FREE ENERGY PREDICTED BY IDOCK:    7.34 KCAL/MOL
REMARK 927      BINDING AFFINITY PREDICTED BY RF-SCORE:    0.00 PKD
ROOT
HETATM    1  C   UNL     1     -11.382  10.800  65.532  1.00  0.00     0.508 C  
HETATM    2  C   UNL     1     -11.212  12.059  64.983  1.00  0.00    -0.374 C  
HETATM    3  C   UNL     1     -10.841  13.473  65.353  1.00  0.00    -0.299 C  
HETATM    4  C   UNL     1     -10.258  14.005  66.448  1.00  0.00    -0.293 C  
HETATM    5  C   UNL     1      -9.961  13.152  67.604  1.00  0.00    -0.219 C  
HETATM    6  O   UNL     1      -7.083   6.205  70.509  1.00  0.00    -0.067 OA 
HETATM    7  C   UNL     1      -8.497  12.614  67.414  1.00  0.00    -0.186 C  
HETATM    8  C   UNL     1     -11.869   6.808  66.028  1.00  0.00     4.303 C  
HETATM    9  C   UNL     1      -8.754  11.123  67.363  1.00  0.00    -0.133 C  
HETATM   10  C   UNL     1      -7.763  12.948  66.084  1.00  0.00     1.727 C  
HETATM   11  C   UNL     1      -7.623  10.141  67.463  1.00  0.00    -0.091 C  
HETATM   12  C   UNL     1     -11.403   9.434  66.529  1.00  0.00     1.582 C  
HETATM   13  C   UNL     1     -10.778   7.849  66.230  1.00  0.00     1.077 C  
HETATM   14  C   UNL     1      -8.092   9.091  68.505  1.00  0.00    -0.107 C  
HETATM   15  C   UNL     1      -7.459   9.450  66.045  1.00  0.00    -0.096 C  
HETATM   16  C   UNL     1      -6.793  10.234  64.945  1.00  0.00    -0.100 C  
HETATM   17  O   UNL     1      -9.742   7.179  67.169  1.00  0.00    -0.146 OA 
HETATM   18  O   UNL     1     -10.784   5.378  68.210  1.00  0.00    -0.134 OA 
HETATM   19  C   UNL     1      -7.263   7.767  68.569  1.00  0.00    -0.086 C  
HETATM   20  C   UNL     1      -7.947   6.744  69.504  1.00  0.00    -0.125 C  
HETATM   21  H   UNL     1      -7.504   5.576  71.084  1.00  0.00     0.000 HD 
HETATM   22  C   UNL     1      -9.784   6.044  67.970  1.00  0.00    -0.119 C  
HETATM   23  O   UNL     1      -7.254  10.278  63.843  1.00  0.00    -0.127 OA 
HETATM   24  C   UNL     1      -8.435   5.634  68.593  1.00  0.00    -0.105 C  
ENDROOT
BRANCH   5  25
HETATM   25  O   UNL     1     -10.463  13.661  68.853  1.00  0.00    -0.226 OA 
BRANCH  25  26
HETATM   26  C   UNL     1     -11.865  13.302  69.005  1.00  0.00    -0.321 C  
HETATM   27  C   UNL     1     -12.327  12.513  71.796  1.00  0.00     0.421 C  
HETATM   28  C   UNL     1     -11.863  13.929  71.271  1.00  0.00     0.136 C  
HETATM   29  C   UNL     1     -11.689  11.498  70.771  1.00  0.00     0.008 C  
HETATM   30  O   UNL     1     -12.447  14.148  69.990  1.00  0.00    -0.340 OA 
HETATM   31  C   UNL     1     -12.151  11.837  69.356  1.00  0.00    -0.301 C  
HETATM   32  C   UNL     1     -12.127  15.167  72.110  1.00  0.00    -0.472 C  
BRANCH  27  33
HETATM   33  N   UNL     1     -13.769  12.278  71.962  1.00  0.00    -0.202 NA 
HETATM   34  C   UNL     1     -14.073  10.903  72.376  1.00  0.00     0.920 C  
HETATM   35  C   UNL     1     -14.404  13.194  72.911  1.00  0.00     1.133 C  
ENDBRANCH  27  33
ENDBRANCH  25  26
ENDBRANCH   5  25
BRANCH  14  36
HETATM   36  O   UNL     1      -8.963   9.445  69.620  1.00  0.00    -0.148 OA 
BRANCH  36  37
HETATM   37  C   UNL     1      -8.618   9.203  70.978  1.00  0.00    -0.177 C  
HETATM   38  C   UNL     1      -5.396   8.169  72.442  1.00  0.00    -0.037 C  
HETATM   39  C   UNL     1      -9.306   7.321  72.693  1.00  0.00    -0.142 C  
HETATM   40  C   UNL     1      -6.920   8.383  72.389  1.00  0.00    -0.088 C  
HETATM   41  O   UNL     1      -7.279   8.778  71.073  1.00  0.00    -0.070 OA 
HETATM   42  H   UNL     1     -11.559   8.482  72.244  1.00  0.00     0.000 HD 
HETATM   43  C   UNL     1      -9.694   8.298  71.567  1.00  0.00    -0.191 C  
HETATM   44  O   UNL     1     -10.888   9.046  71.878  1.00  0.00    -0.350 OA 
HETATM   45  C   UNL     1      -7.710   7.094  72.660  1.00  0.00    -0.088 C  
BRANCH  45  46
HETATM   46  O   UNL     1      -7.141   6.510  73.853  1.00  0.00    -0.081 OA 
BRANCH  46  47
HETATM   47  C   UNL     1      -6.123   5.601  73.489  1.00  0.00    -0.056 C  
HETATM   48  C   UNL     1      -6.279   4.309  74.268  1.00  0.00    -0.041 C  
HETATM   49  C   UNL     1      -5.427   4.189  70.279  1.00  0.00    -0.012 C  
HETATM   50  O   UNL     1      -5.906   5.492  72.113  1.00  0.00    -0.027 OA 
HETATM   51  H   UNL     1      -7.039   1.985  70.686  1.00  0.00     0.000 HD 
HETATM   52  C   UNL     1      -7.243   3.379  73.591  1.00  0.00    -0.051 C  
HETATM   53  C   UNL     1      -7.435   2.157  74.496  1.00  0.00    -0.037 C  
HETATM   54  O   UNL     1      -8.543   3.966  73.427  1.00  0.00    -0.087 OA 
HETATM   55  C   UNL     1      -6.608   3.087  72.236  1.00  0.00    -0.015 C  
HETATM   56  O   UNL     1      -7.435   2.167  71.531  1.00  0.00    -0.038 OA 
HETATM   57  H   UNL     1      -9.154   3.378  72.998  1.00  0.00     0.000 HD 
HETATM   58  C   UNL     1      -6.425   4.384  71.413  1.00  0.00    -0.019 C  
ENDBRANCH  46  47
ENDBRANCH  45  46
BRANCH  39  59
HETATM   59  N   UNL     1     -10.267   6.138  72.578  1.00  0.00    -0.182 NA 
HETATM   60  C   UNL     1     -11.155   5.808  73.660  1.00  0.00     0.019 C  
HETATM   61  C   UNL     1     -10.716   5.520  71.343  1.00  0.00    -0.221 C  
ENDBRANCH  39  59
ENDBRANCH  36  37
ENDBRANCH  14  36
BRANCH  19  62
HETATM   62  O   UNL     1      -5.855   7.787  68.760  1.00  0.00    -0.029 OA 
HETATM   63  C   UNL     1      -5.187   8.981  69.131  1.00  0.00    -0.036 C  
ENDBRANCH  19  62
TORSDOF 9
ENDMDL
MODEL       25
REMARK 921   NORMALIZED FREE ENERGY PREDICTED BY IDOCK:   10.17 KCAL/MOL
REMARK 922        TOTAL FREE ENERGY PREDICTED BY IDOCK:   12.90 KCAL/MOL
REMARK 923 INTER-LIGAND FREE ENERGY PREDICTED BY IDOCK:   -2.63 KCAL/MOL
REMARK 924 INTRA-LIGAND FREE ENERGY PREDICTED BY IDOCK:   15.53 KCAL/MOL
REMARK 927      BINDING AFFINITY PREDICTED BY RF-SCORE:    0.00 PKD
ROOT
HETATM    1  C   UNL     1      -6.451   6.899  67.449  1.00  0.00    -0.049 C  
HETATM    2  C   UNL     1      -6.778   5.935  68.386  1.00  0.00    -0.060 C  
HETATM    3  C   UNL     1      -7.488   5.756  69.705  1.00  0.00    -0.075 C  
HETATM    4  C   UNL     1      -8.347   6.539  70.390  1.00  0.00    -0.127 C  
HETATM    5  C   UNL     1      -8.658   7.886  69.899  1.00  0.00    -0.139 C  
HETATM    6  O   UNL     1     -10.512  12.736  63.734  1.00  0.00    -0.408 OA 
HETATM    7  C   UNL     1      -9.926   7.759  68.980  1.00  0.00    -0.182 C  
HETATM    8  C   UNL     1      -5.253   8.792  64.072  1.00  0.00    -0.056 C  
HETATM    9  C   UNL     1      -9.365   8.252  67.664  1.00  0.00    -0.158 C  
HETATM   10  C   UNL     1     -10.473   6.333  68.684  1.00  0.00    -0.274 C  
HETATM   11  C   UNL     1     -10.272   8.579  66.513  1.00  0.00    -0.286 C  
HETATM   12  C   UNL     1      -6.324   8.306  66.517  1.00  0.00    -0.054 C  
HETATM   13  C   UNL     1      -6.551   8.517  64.815  1.00  0.00    -0.065 C  
HETATM   14  C   UNL     1      -9.784   9.960  65.998  1.00  0.00    -0.247 C  
HETATM   15  C   UNL     1     -10.044   7.481  65.393  1.00  0.00     2.075 C  
HETATM   16  C   UNL     1     -10.657   6.120  65.598  1.00  0.00     1.360 C  
HETATM   17  O   UNL     1      -7.574   9.530  64.239  1.00  0.00    -0.113 OA 
HETATM   18  O   UNL     1      -6.381  11.223  63.178  1.00  0.00     0.521 OA 
HETATM   19  C   UNL     1     -10.324  10.401  64.598  1.00  0.00    -0.120 C  
HETATM   20  C   UNL     1      -9.617  11.693  64.127  1.00  0.00    -0.115 C  
HETATM   21  H   UNL     1     -10.078  13.530  63.444  1.00  0.00     0.000 HD 
HETATM   22  C   UNL     1      -7.440  10.675  63.463  1.00  0.00     0.158 C  
HETATM   23  O   UNL     1     -10.032   5.119  65.406  1.00  0.00    -0.019 OA 
HETATM   24  C   UNL     1      -8.763  11.272  62.946  1.00  0.00    -0.115 C  
ENDROOT
BRANCH   5  25
HETATM   25  O   UNL     1      -8.493   8.923  70.884  1.00  0.00    -0.152 OA 
BRANCH  25  26
HETATM   26  C   UNL     1      -9.788   9.484  71.232  1.00  0.00    -0.025 C  
HETATM   27  C   UNL     1     -11.677   7.277  71.661  1.00  0.00    -0.284 C  
HETATM   28  C   UNL     1     -10.366   7.583  72.488  1.00  0.00    -0.240 C  
HETATM   29  C   UNL     1     -11.329   7.762  70.202  1.00  0.00    -0.121 C  
HETATM   30  O   UNL     1     -10.168   8.994  72.513  1.00  0.00    -0.062 OA 
HETATM   31  C   UNL     1     -10.923   9.233  70.231  1.00  0.00    -0.286 C  
HETATM   32  C   UNL     1     -10.242   7.081  73.916  1.00  0.00    -0.388 C  
BRANCH  27  33
HETATM   33  N   UNL     1     -12.943   7.856  72.136  1.00  0.00    -0.228 NA 
HETATM   34  C   UNL     1     -13.373   9.006  71.333  1.00  0.00    -0.277 C  
HETATM   35  C   UNL     1     -14.043   6.892  72.184  1.00  0.00     0.035 C  
ENDBRANCH  27  33
ENDBRANCH  25  26
ENDBRANCH   5  25
BRANCH  14  36
HETATM   36  O   UNL     1      -9.209  10.960  66.890  1.00  0.00    -0.158 OA 
BRANCH  36  37
HETATM   37  C   UNL     1      -9.328  12.358  66.664  1.00  0.00    -0.227 C  
HETATM   38  C   UNL     1      -6.795  15.019  66.977  1.00  0.00     0.386 C  
HETATM   39  C   UNL     1     -10.616  14.276  67.937  1.00  0.00    -0.240 C  
HETATM   40  C   UNL     1      -8.210  14.419  66.885  1.00  0.00    -0.016 C  
HETATM   41  O   UNL     1      -8.111  13.005  66.954  1.00  0.00    -0.085 OA 
HETATM   42  H   UNL     1     -12.550  12.787  67.120  1.00  0.00     0.000 HD 
HETATM   43  C   UNL     1     -10.577  12.834  67.397  1.00  0.00    -0.229 C  
HETATM   44  O   UNL     1     -11.771  12.491  66.663  1.00  0.00    -0.370 OA 
HETATM   45  C   UNL     1      -9.105  14.826  68.065  1.00  0.00    -0.179 C  
BRANCH  45  46
HETATM   46  O   UNL     1      -8.976  16.259  68.200  1.00  0.00    -0.183 OA 
BRANCH  46  47
HETATM   47  C   UNL     1      -7.616  16.620  68.070  1.00  0.00    -0.166 C  
HETATM   48  C   UNL     1      -7.492  17.876  67.229  1.00  0.00    -0.213 C  
HETATM   49  C   UNL     1      -5.273  17.476  70.630  1.00  0.00    -0.268 C  
HETATM   50  O   UNL     1      -6.886  16.576  69.260  1.00  0.00    -0.207 OA 
HETATM   51  H   UNL     1      -5.843  20.176  70.515  1.00  0.00     0.000 HD 
HETATM   52  C   UNL     1      -7.658  19.110  68.067  1.00  0.00    -0.277 C  
HETATM   53  C   UNL     1      -7.638  20.323  67.130  1.00  0.00    -0.354 C  
HETATM   54  O   UNL     1      -8.923  19.144  68.743  1.00  0.00    -0.363 OA 
HETATM   55  C   UNL     1      -6.512  19.049  69.071  1.00  0.00    -0.277 C  
HETATM   56  O   UNL     1      -6.557  20.214  69.889  1.00  0.00    -0.329 OA 
HETATM   57  H   UNL     1      -9.029  19.924  69.274  1.00  0.00     0.000 HD 
HETATM   58  C   UNL     1      -6.600  17.775  69.944  1.00  0.00     0.159 C  
ENDBRANCH  46  47
ENDBRANCH  45  46
BRANCH  39  59
HETATM   59  N   UNL     1     -11.544  14.249  69.150  1.00  0.00    -0.285 NA 
HETATM   60  C   UNL     1     -12.081  15.471  69.689  1.00  0.00    -0.328 C  
HETATM   61  C   UNL     1     -12.312  13.107  69.614  1.00  0.00    -0.071 C  
ENDBRANCH  39  59
ENDBRANCH  36  37
ENDBRANCH  14  36
BRANCH  19  62
HETATM   62  O   UNL     1     -11.718  10.441  64.324  1.00  0.00     2.174 OA 
HETATM   63  C   UNL     1     -12.408  11.676  64.234  1.00  0.00     0.048 C  
ENDBRANCH  19  62
TORSDOF 9
ENDMDL
MODEL       26
REMARK 921   NORMALIZED FREE ENERGY PREDICTED BY IDOCK:   10.48 KCAL/MOL
REMARK 922        TOTAL FREE ENERGY PREDICTED BY IDOCK:   13.36 KCAL/MOL
REMARK 923 INTER-LIGAND FREE ENERGY PREDICTED BY IDOCK:    5.08 KCAL/MOL
REMARK 924 INTRA-LIGAND FREE ENERGY PREDICTED BY IDOCK:    8.28 KCAL/MOL
REMARK 927      BINDING AFFINITY PREDICTED BY RF-SCORE:    0.00 PKD
ROOT
HETATM    1  C   UNL     1      -7.450  14.074  70.654  1.00  0.00     1.790 C  
HETATM    2  C   UNL     1      -6.101  13.791  70.533  1.00  0.00    -0.122 C  
HETATM    3  C   UNL     1      -5.152  12.745  70.006  1.00  0.00    -0.086 C  
HETATM    4  C   UNL     1      -5.320  11.703  69.166  1.00  0.00    -0.047 C  
HETATM    5  C   UNL     1      -6.662  11.372  68.674  1.00  0.00    -0.070 C  
HETATM    6  O   UNL     1     -13.717  13.836  65.651  1.00  0.00    -0.339 OA 
HETATM    7  C   UNL     1      -6.861  12.149  67.322  1.00  0.00    -0.149 C  
HETATM    8  C   UNL     1     -10.992  15.947  71.259  1.00  0.00    -0.039 C  
HETATM    9  C   UNL     1      -8.050  13.016  67.674  1.00  0.00    -0.172 C  
HETATM   10  C   UNL     1      -5.747  13.141  66.879  1.00  0.00     1.000 C  
HETATM   11  C   UNL     1      -8.804  13.760  66.609  1.00  0.00    -0.089 C  
HETATM   12  C   UNL     1      -9.138  14.102  70.537  1.00  0.00     3.064 C  
HETATM   13  C   UNL     1     -10.183  15.406  70.090  1.00  0.00    -0.196 C  
HETATM   14  C   UNL     1     -10.301  13.471  66.900  1.00  0.00    -0.265 C  
HETATM   15  C   UNL     1      -8.511  15.306  66.803  1.00  0.00    -0.290 C  
HETATM   16  C   UNL     1      -7.177  15.839  66.349  1.00  0.00     0.807 C  
HETATM   17  O   UNL     1     -11.188  15.292  68.915  1.00  0.00    -0.252 OA 
HETATM   18  O   UNL     1     -13.336  15.327  69.809  1.00  0.00     0.362 OA 
HETATM   19  C   UNL     1     -11.333  14.382  66.158  1.00  0.00    -0.350 C  
HETATM   20  C   UNL     1     -12.764  14.114  66.681  1.00  0.00     0.157 C  
HETATM   21  H   UNL     1     -14.596  13.672  65.972  1.00  0.00     0.000 HD 
HETATM   22  C   UNL     1     -12.576  15.331  68.848  1.00  0.00     0.361 C  
HETATM   23  O   UNL     1      -6.531  16.572  67.038  1.00  0.00    -0.170 OA 
HETATM   24  C   UNL     1     -13.160  15.377  67.423  1.00  0.00     3.339 C  
ENDROOT
BRANCH   5  25
HETATM   25  O   UNL     1      -7.031   9.993  68.857  1.00  0.00    -0.059 OA 
BRANCH  25  26
HETATM   26  C   UNL     1      -6.199   9.143  68.019  1.00  0.00    -0.051 C  
HETATM   27  C   UNL     1      -7.827   6.894  67.064  1.00  0.00    -0.111 C  
HETATM   28  C   UNL     1      -8.053   8.429  66.764  1.00  0.00    -0.098 C  
HETATM   29  C   UNL     1      -7.209   6.877  68.515  1.00  0.00    -0.084 C  
HETATM   30  O   UNL     1      -6.782   9.071  66.723  1.00  0.00    -0.073 OA 
HETATM   31  C   UNL     1      -5.940   7.726  68.543  1.00  0.00    -0.032 C  
HETATM   32  C   UNL     1      -8.814   8.848  65.518  1.00  0.00    -0.238 C  
BRANCH  27  33
HETATM   33  N   UNL     1      -7.010   6.119  66.119  1.00  0.00    -0.064 NA 
HETATM   34  C   UNL     1      -6.875   4.712  66.512  1.00  0.00    -0.058 C  
HETATM   35  C   UNL     1      -7.508   6.165  64.743  1.00  0.00    -0.084 C  
ENDBRANCH  27  33
ENDBRANCH  25  26
ENDBRANCH   5  25
BRANCH  14  36
HETATM   36  O   UNL     1     -10.746  12.210  67.482  1.00  0.00    -0.221 OA 
BRANCH  36  37
HETATM   37  C   UNL     1     -10.406  11.804  68.801  1.00  0.00    -0.179 C  
HETATM   38  C   UNL     1      -8.187   9.085  69.931  1.00  0.00    -0.124 C  
HETATM   39  C   UNL     1     -11.787  10.658  70.735  1.00  0.00    -0.357 C  
HETATM   40  C   UNL     1      -9.300  10.142  70.051  1.00  0.00    -0.013 C  
HETATM   41  O   UNL     1      -9.557  10.681  68.763  1.00  0.00    -0.171 OA 
HETATM   42  H   UNL     1     -13.001  12.913  70.477  1.00  0.00     0.000 HD 
HETATM   43  C   UNL     1     -11.705  11.687  69.591  1.00  0.00    -0.350 C  
HETATM   44  O   UNL     1     -12.191  12.986  69.986  1.00  0.00    -0.299 OA 
HETATM   45  C   UNL     1     -10.636   9.548  70.522  1.00  0.00    -0.297 C  
BRANCH  45  46
HETATM   46  O   UNL     1     -10.336   8.735  71.678  1.00  0.00    -0.263 OA 
BRANCH  46  47
HETATM   47  C   UNL     1     -10.417   7.370  71.323  1.00  0.00    -0.208 C  
HETATM   48  C   UNL     1      -9.024   6.797  71.148  1.00  0.00    -0.147 C  
HETATM   49  C   UNL     1     -11.864   4.664  73.157  1.00  0.00    -0.086 C  
HETATM   50  O   UNL     1     -11.321   6.624  72.084  1.00  0.00    -0.251 OA 
HETATM   51  H   UNL     1      -9.510   4.031  74.452  1.00  0.00     0.000 HD 
HETATM   52  C   UNL     1      -8.455   6.341  72.460  1.00  0.00    -0.120 C  
HETATM   53  C   UNL     1      -7.011   5.889  72.217  1.00  0.00    -0.082 C  
HETATM   54  O   UNL     1      -8.387   7.403  73.423  1.00  0.00    -0.108 OA 
HETATM   55  C   UNL     1      -9.405   5.246  72.932  1.00  0.00    -0.137 C  
HETATM   56  O   UNL     1      -8.918   4.713  74.159  1.00  0.00    -0.109 OA 
HETATM   57  H   UNL     1      -8.027   7.116  74.254  1.00  0.00     0.000 HD 
HETATM   58  C   UNL     1     -10.841   5.791  73.114  1.00  0.00    -0.276 C  
ENDBRANCH  46  47
ENDBRANCH  45  46
BRANCH  39  59
HETATM   59  N   UNL     1     -13.256  10.252  70.835  1.00  0.00    -0.362 NA 
HETATM   60  C   UNL     1     -13.670   8.914  70.504  1.00  0.00     0.897 C  
HETATM   61  C   UNL     1     -14.275  10.920  71.624  1.00  0.00     1.443 C  
ENDBRANCH  39  59
ENDBRANCH  36  37
ENDBRANCH  14  36
BRANCH  19  62
HETATM   62  O   UNL     1     -11.312  14.520  64.744  1.00  0.00    -0.372 OA 
HETATM   63  C   UNL     1     -11.364  15.800  64.137  1.00  0.00    -0.020 C  
ENDBRANCH  19  62
TORSDOF 9
ENDMDL
MODEL       27
REMARK 921   NORMALIZED FREE ENERGY PREDICTED BY IDOCK:   11.08 KCAL/MOL
REMARK 922        TOTAL FREE ENERGY PREDICTED BY IDOCK:   14.27 KCAL/MOL
REMARK 923 INTER-LIGAND FREE ENERGY PREDICTED BY IDOCK:    6.54 KCAL/MOL
REMARK 924 INTRA-LIGAND FREE ENERGY PREDICTED BY IDOCK:    7.73 KCAL/MOL
REMARK 927      BINDING AFFINITY PREDICTED BY RF-SCORE:    0.00 PKD
ROOT
HETATM    1  C   UNL     1     -11.409  10.798  65.521  1.00  0.00     0.508 C  
HETATM    2  C   UNL     1     -11.195  12.072  65.023  1.00  0.00    -0.374 C  
HETATM    3  C   UNL     1     -10.781  13.457  65.450  1.00  0.00    -0.307 C  
HETATM    4  C   UNL     1     -10.186  13.926  66.566  1.00  0.00    -0.280 C  
HETATM    5  C   UNL     1      -9.922  13.019  67.689  1.00  0.00    -0.215 C  
HETATM    6  O   UNL     1      -7.283   5.874  70.326  1.00  0.00    -0.071 OA 
HETATM    7  C   UNL     1      -8.475  12.442  67.483  1.00  0.00    -0.175 C  
HETATM    8  C   UNL     1     -12.026   6.807  65.858  1.00  0.00     5.379 C  
HETATM    9  C   UNL     1      -8.780  10.963  67.372  1.00  0.00    -0.130 C  
HETATM   10  C   UNL     1      -7.724  12.804  66.169  1.00  0.00     1.556 C  
HETATM   11  C   UNL     1      -7.681   9.942  67.436  1.00  0.00    -0.091 C  
HETATM   12  C   UNL     1     -11.478   9.395  66.463  1.00  0.00     2.210 C  
HETATM   13  C   UNL     1     -10.903   7.803  66.103  1.00  0.00     1.803 C  
HETATM   14  C   UNL     1      -8.189   8.868  68.435  1.00  0.00    -0.117 C  
HETATM   15  C   UNL     1      -7.534   9.302  65.993  1.00  0.00    -0.095 C  
HETATM   16  C   UNL     1      -6.838  10.107  64.927  1.00  0.00    -0.129 C  
HETATM   17  O   UNL     1      -9.894   7.064  67.019  1.00  0.00    -0.159 OA 
HETATM   18  O   UNL     1     -10.998   5.258  67.984  1.00  0.00     0.082 OA 
HETATM   19  C   UNL     1      -7.403   7.516  68.449  1.00  0.00    -0.099 C  
HETATM   20  C   UNL     1      -8.125   6.479  69.341  1.00  0.00    -0.119 C  
HETATM   21  H   UNL     1      -7.726   5.236  70.874  1.00  0.00     0.000 HD 
HETATM   22  C   UNL     1      -9.976   5.900  67.775  1.00  0.00    -0.134 C  
HETATM   23  O   UNL     1      -7.293  10.209  63.826  1.00  0.00    -0.136 OA 
HETATM   24  C   UNL     1      -8.644   5.422  68.384  1.00  0.00    -0.095 C  
ENDROOT
BRANCH   5  25
HETATM   25  O   UNL     1     -10.413  13.494  68.956  1.00  0.00    -0.172 OA 
BRANCH  25  26
HETATM   26  C   UNL     1      -9.508  14.500  69.490  1.00  0.00     0.279 C  
HETATM   27  C   UNL     1     -10.643  17.155  68.954  1.00  0.00    -0.314 C  
HETATM   28  C   UNL     1     -11.272  16.013  69.847  1.00  0.00    -0.361 C  
HETATM   29  C   UNL     1      -9.866  16.373  67.827  1.00  0.00    -0.239 C  
HETATM   30  O   UNL     1     -10.211  15.279  70.452  1.00  0.00    -0.192 OA 
HETATM   31  C   UNL     1      -8.849  15.428  68.464  1.00  0.00    -0.183 C  
HETATM   32  C   UNL     1     -12.260  16.372  70.943  1.00  0.00     0.444 C  
BRANCH  27  33
HETATM   33  N   UNL     1      -9.784  18.151  69.612  1.00  0.00     0.356 NA 
HETATM   34  C   UNL     1      -8.369  17.995  69.259  1.00  0.00     0.273 C  
HETATM   35  C   UNL     1     -10.177  19.533  69.336  1.00  0.00     0.010 C  
ENDBRANCH  27  33
ENDBRANCH  25  26
ENDBRANCH   5  25
BRANCH  14  36
HETATM   36  O   UNL     1      -9.053   9.205  69.560  1.00  0.00    -0.144 OA 
BRANCH  36  37
HETATM   37  C   UNL     1      -8.688   8.968  70.914  1.00  0.00    -0.229 C  
HETATM   38  C   UNL     1      -5.358   8.407  72.392  1.00  0.00    -0.041 C  
HETATM   39  C   UNL     1      -9.083   6.933  72.546  1.00  0.00    -0.132 C  
HETATM   40  C   UNL     1      -6.896   8.375  72.321  1.00  0.00    -0.089 C  
HETATM   41  O   UNL     1      -7.299   8.760  71.016  1.00  0.00    -0.073 OA 
HETATM   42  H   UNL     1     -11.488   7.736  72.103  1.00  0.00     0.000 HD 
HETATM   43  C   UNL     1      -9.611   7.880  71.451  1.00  0.00    -0.153 C  
HETATM   44  O   UNL     1     -10.913   8.414  71.769  1.00  0.00    -0.252 OA 
HETATM   45  C   UNL     1      -7.471   6.967  72.531  1.00  0.00    -0.090 C  
BRANCH  45  46
HETATM   46  O   UNL     1      -6.828   6.435  73.711  1.00  0.00    -0.077 OA 
BRANCH  46  47
HETATM   47  C   UNL     1      -5.767   5.587  73.323  1.00  0.00    -0.024 C  
HETATM   48  C   UNL     1      -5.792   4.315  74.149  1.00  0.00    -0.016 C  
HETATM   49  C   UNL     1      -5.130   4.119  70.127  1.00  0.00     0.000 C  
HETATM   50  O   UNL     1      -5.610   5.447  71.942  1.00  0.00    -0.015 OA 
HETATM   51  H   UNL     1      -6.559   1.822  70.684  1.00  0.00     0.000 HD 
HETATM   52  C   UNL     1      -6.719   3.297  73.550  1.00  0.00    -0.034 C  
HETATM   53  C   UNL     1      -6.778   2.097  74.501  1.00  0.00    -0.022 C  
HETATM   54  O   UNL     1      -8.064   3.786  73.435  1.00  0.00    -0.084 OA 
HETATM   55  C   UNL     1      -6.132   3.004  72.174  1.00  0.00    -0.013 C  
HETATM   56  O   UNL     1      -6.924   2.005  71.541  1.00  0.00    -0.029 OA 
HETATM   57  H   UNL     1      -8.651   3.142  73.057  1.00  0.00     0.000 HD 
HETATM   58  C   UNL     1      -6.083   4.282  71.304  1.00  0.00    -0.017 C  
ENDBRANCH  46  47
ENDBRANCH  45  46
BRANCH  39  59
HETATM   59  N   UNL     1      -9.840   5.618  72.370  1.00  0.00    -0.163 NA 
HETATM   60  C   UNL     1     -10.455   4.970  73.498  1.00  0.00    -0.232 C  
HETATM   61  C   UNL     1     -10.393   5.110  71.127  1.00  0.00    -0.206 C  
ENDBRANCH  39  59
ENDBRANCH  36  37
ENDBRANCH  14  36
BRANCH  19  62
HETATM   62  O   UNL     1      -5.996   7.483  68.645  1.00  0.00    -0.026 OA 
HETATM   63  C   UNL     1      -5.136   6.941  67.657  1.00  0.00    -0.011 C  
ENDBRANCH  19  62
TORSDOF 9
ENDMDL
MODEL       28
REMARK 921   NORMALIZED FREE ENERGY PREDICTED BY IDOCK:   12.10 KCAL/MOL
REMARK 922        TOTAL FREE ENERGY PREDICTED BY IDOCK:   15.84 KCAL/MOL
REMARK 923 INTER-LIGAND FREE ENERGY PREDICTED BY IDOCK:    2.96 KCAL/MOL
REMARK 924 INTRA-LIGAND FREE ENERGY PREDICTED BY IDOCK:   12.87 KCAL/MOL
REMARK 927      BINDING AFFINITY PREDICTED BY RF-SCORE:    0.00 PKD
ROOT
HETATM    1  C   UNL     1     -10.422   3.630  68.496  1.00  0.00     1.667 C  
HETATM    2  C   UNL     1     -10.283   2.468  69.235  1.00  0.00     1.305 C  
HETATM    3  C   UNL     1      -9.263   1.670  70.008  1.00  0.00    -0.165 C  
HETATM    4  C   UNL     1      -8.039   1.977  70.486  1.00  0.00    -0.054 C  
HETATM    5  C   UNL     1      -7.442   3.282  70.182  1.00  0.00    -0.044 C  
HETATM    6  O   UNL     1      -8.257  11.279  69.574  1.00  0.00    -0.357 OA 
HETATM    7  C   UNL     1      -7.847   4.255  71.347  1.00  0.00    -0.080 C  
HETATM    8  C   UNL     1     -11.948   6.794  66.476  1.00  0.00     3.302 C  
HETATM    9  C   UNL     1      -8.624   5.301  70.578  1.00  0.00    -0.125 C  
HETATM   10  C   UNL     1      -8.832   3.728  72.430  1.00  0.00    -0.120 C  
HETATM   11  C   UNL     1      -8.999   6.608  71.216  1.00  0.00    -0.144 C  
HETATM   12  C   UNL     1     -10.220   5.135  67.752  1.00  0.00    -0.190 C  
HETATM   13  C   UNL     1     -11.246   6.528  67.799  1.00  0.00    -0.161 C  
HETATM   14  C   UNL     1      -8.611   7.690  70.172  1.00  0.00    -0.140 C  
HETATM   15  C   UNL     1     -10.570   6.608  71.425  1.00  0.00    -0.255 C  
HETATM   16  C   UNL     1     -11.136   5.796  72.560  1.00  0.00    -0.279 C  
HETATM   17  O   UNL     1     -10.737   7.912  68.277  1.00  0.00    -0.147 OA 
HETATM   18  O   UNL     1     -10.726   9.341  66.441  1.00  0.00    -0.064 OA 
HETATM   19  C   UNL     1      -9.189   9.122  70.419  1.00  0.00    -0.233 C  
HETATM   20  C   UNL     1      -8.884  10.044  69.216  1.00  0.00    -0.178 C  
HETATM   21  H   UNL     1      -8.069  11.846  68.834  1.00  0.00     0.000 HD 
HETATM   22  C   UNL     1     -10.593   9.140  67.643  1.00  0.00    -0.242 C  
HETATM   23  O   UNL     1     -12.084   5.084  72.406  1.00  0.00     0.250 OA 
HETATM   24  C   UNL     1     -10.229  10.315  68.571  1.00  0.00    -0.192 C  
ENDROOT
BRANCH   5  25
HETATM   25  O   UNL     1      -6.112   3.207  69.637  1.00  0.00    -0.023 OA 
BRANCH  25  26
HETATM   26  C   UNL     1      -6.037   2.131  68.662  1.00  0.00    -0.025 C  
HETATM   27  C   UNL     1      -7.437   2.983  66.225  1.00  0.00    -0.076 C  
HETATM   28  C   UNL     1      -6.152   3.643  66.866  1.00  0.00    -0.025 C  
HETATM   29  C   UNL     1      -8.245   2.440  67.465  1.00  0.00    -0.077 C  
HETATM   30  O   UNL     1      -5.386   2.620  67.494  1.00  0.00    -0.015 OA 
HETATM   31  C   UNL     1      -7.370   1.482  68.270  1.00  0.00    -0.043 C  
HETATM   32  C   UNL     1      -5.206   4.449  65.994  1.00  0.00    -0.009 C  
BRANCH  27  33
HETATM   33  N   UNL     1      -7.242   1.939  65.208  1.00  0.00    -0.052 NA 
HETATM   34  C   UNL     1      -8.494   1.558  64.544  1.00  0.00    -0.080 C  
HETATM   35  C   UNL     1      -6.268   2.303  64.177  1.00  0.00    -0.018 C  
ENDBRANCH  27  33
ENDBRANCH  25  26
ENDBRANCH   5  25
BRANCH  14  36
HETATM   36  O   UNL     1      -7.479   7.521  69.268  1.00  0.00    -0.086 OA 
BRANCH  36  37
HETATM   37  C   UNL     1      -6.441   8.484  69.140  1.00  0.00    -0.043 C  
HETATM   38  C   UNL     1      -5.307  11.058  71.523  1.00  0.00     0.072 C  
HETATM   39  C   UNL     1      -6.163  10.629  67.630  1.00  0.00    -0.055 C  
HETATM   40  C   UNL     1      -5.468  10.374  70.153  1.00  0.00    -0.051 C  
HETATM   41  O   UNL     1      -6.389   9.302  70.285  1.00  0.00    -0.042 OA 
HETATM   42  H   UNL     1      -6.243   8.749  65.874  1.00  0.00     0.000 HD 
HETATM   43  C   UNL     1      -6.615   9.165  67.787  1.00  0.00    -0.060 C  
HETATM   44  O   UNL     1      -6.133   8.325  66.717  1.00  0.00    -0.051 OA 
HETATM   45  C   UNL     1      -6.070  11.306  69.091  1.00  0.00    -0.053 C  
BRANCH  45  46
HETATM   46  O   UNL     1      -5.320  12.539  69.157  1.00  0.00    -0.067 OA 
BRANCH  46  47
HETATM   47  C   UNL     1      -6.125  13.545  69.736  1.00  0.00    -0.127 C  
HETATM   48  C   UNL     1      -5.517  14.910  69.475  1.00  0.00    -0.092 C  
HETATM   49  C   UNL     1      -9.537  14.356  69.040  1.00  0.00    -0.059 C  
HETATM   50  O   UNL     1      -7.494  13.403  69.498  1.00  0.00     0.255 OA 
HETATM   51  H   UNL     1      -8.899  16.202  67.088  1.00  0.00     0.000 HD 
HETATM   52  C   UNL     1      -5.942  15.447  68.139  1.00  0.00    -0.134 C  
HETATM   53  C   UNL     1      -5.195  16.764  67.901  1.00  0.00    -0.128 C  
HETATM   54  O   UNL     1      -5.575  14.576  67.059  1.00  0.00     0.129 OA 
HETATM   55  C   UNL     1      -7.458  15.572  68.240  1.00  0.00    -0.115 C  
HETATM   56  O   UNL     1      -7.955  16.124  67.025  1.00  0.00    -0.174 OA 
HETATM   57  H   UNL     1      -5.844  14.916  66.213  1.00  0.00     0.000 HD 
HETATM   58  C   UNL     1      -8.116  14.199  68.515  1.00  0.00    -0.143 C  
ENDBRANCH  46  47
ENDBRANCH  45  46
BRANCH  39  59
HETATM   59  N   UNL     1      -7.052  11.233  66.544  1.00  0.00    -0.126 NA 
HETATM   60  C   UNL     1      -7.128  10.629  65.240  1.00  0.00     0.025 C  
HETATM   61  C   UNL     1      -8.178  12.124  66.759  1.00  0.00    -0.085 C  
ENDBRANCH  39  59
ENDBRANCH  36  37
ENDBRANCH  14  36
BRANCH  19  62
HETATM   62  O   UNL     1      -8.989   9.795  71.655  1.00  0.00     0.327 OA 
HETATM   63  C   UNL     1      -8.705   9.072  72.841  1.00  0.00     0.932 C  
ENDBRANCH  19  62
TORSDOF 9
ENDMDL
MODEL       29
REMARK 921   NORMALIZED FREE ENERGY PREDICTED BY IDOCK:   12.84 KCAL/MOL
REMARK 922        TOTAL FREE ENERGY PREDICTED BY IDOCK:   16.97 KCAL/MOL
REMARK 923 INTER-LIGAND FREE ENERGY PREDICTED BY IDOCK:   -2.59 KCAL/MOL
REMARK 924 INTRA-LIGAND FREE ENERGY PREDICTED BY IDOCK:   19.55 KCAL/MOL
REMARK 927      BINDING AFFINITY PREDICTED BY RF-SCORE:    0.00 PKD
ROOT
HETATM    1  C   UNL     1     -10.838   8.392  67.994  1.00  0.00    -0.013 C  
HETATM    2  C   UNL     1     -11.095   9.640  68.534  1.00  0.00    -0.091 C  
HETATM    3  C   UNL     1     -10.408  10.816  69.181  1.00  0.00    -0.238 C  
HETATM    4  C   UNL     1      -9.112  11.185  69.256  1.00  0.00     0.156 C  
HETATM    5  C   UNL     1      -8.070  10.305  68.715  1.00  0.00    -0.120 C  
HETATM    6  O   UNL     1      -5.465   5.520  62.774  1.00  0.00    -0.013 OA 
HETATM    7  C   UNL     1      -7.830  10.740  67.224  1.00  0.00    -0.113 C  
HETATM    8  C   UNL     1     -11.159   4.871  66.014  1.00  0.00     0.231 C  
HETATM    9  C   UNL     1      -8.195   9.462  66.501  1.00  0.00    -0.115 C  
HETATM   10  C   UNL     1      -8.761  11.831  66.623  1.00  0.00    -0.186 C  
HETATM   11  C   UNL     1      -7.868   9.279  65.046  1.00  0.00    -0.111 C  
HETATM   12  C   UNL     1     -10.131   6.995  67.354  1.00  0.00    -0.252 C  
HETATM   13  C   UNL     1     -10.440   6.201  65.848  1.00  0.00     0.651 C  
HETATM   14  C   UNL     1      -7.223   7.870  64.954  1.00  0.00    -0.066 C  
HETATM   15  C   UNL     1      -9.233   9.295  64.241  1.00  0.00     0.024 C  
HETATM   16  C   UNL     1      -9.905  10.622  64.009  1.00  0.00    -0.338 C  
HETATM   17  O   UNL     1      -9.319   5.933  64.811  1.00  0.00     0.395 OA 
HETATM   18  O   UNL     1      -8.986   3.633  64.700  1.00  0.00    -0.115 OA 
HETATM   19  C   UNL     1      -7.085   7.270  63.517  1.00  0.00    -0.066 C  
HETATM   20  C   UNL     1      -6.608   5.801  63.587  1.00  0.00    -0.036 C  
HETATM   21  H   UNL     1      -5.172   4.617  62.817  1.00  0.00     0.000 HD 
HETATM   22  C   UNL     1      -8.765   4.768  64.294  1.00  0.00    -0.143 C  
HETATM   23  O   UNL     1     -11.078  10.768  64.191  1.00  0.00     0.038 OA 
HETATM   24  C   UNL     1      -7.791   4.974  63.118  1.00  0.00    -0.078 C  
ENDROOT
BRANCH   5  25
HETATM   25  O   UNL     1      -7.004  10.020  69.639  1.00  0.00    -0.070 OA 
BRANCH  25  26
HETATM   26  C   UNL     1      -7.025   8.611  69.998  1.00  0.00    -0.043 C  
HETATM   27  C   UNL     1      -7.588   8.389  72.872  1.00  0.00    -0.064 C  
HETATM   28  C   UNL     1      -8.531   8.999  71.761  1.00  0.00     0.117 C  
HETATM   29  C   UNL     1      -6.134   8.724  72.363  1.00  0.00    -0.066 C  
HETATM   30  O   UNL     1      -8.303   8.298  70.542  1.00  0.00    -0.115 OA 
HETATM   31  C   UNL     1      -5.930   8.145  70.965  1.00  0.00    -0.033 C  
HETATM   32  C   UNL     1     -10.032   9.041  71.988  1.00  0.00    -0.225 C  
BRANCH  27  33
HETATM   33  N   UNL     1      -7.733   6.960  73.191  1.00  0.00    -0.091 NA 
HETATM   34  C   UNL     1      -6.817   6.524  74.251  1.00  0.00    -0.081 C  
HETATM   35  C   UNL     1      -9.094   6.584  73.576  1.00  0.00    -0.126 C  
ENDBRANCH  27  33
ENDBRANCH  25  26
ENDBRANCH   5  25
BRANCH  14  36
HETATM   36  O   UNL     1      -6.431   7.309  66.043  1.00  0.00    -0.043 OA 
BRANCH  36  37
HETATM   37  C   UNL     1      -6.929   6.315  66.929  1.00  0.00    -0.071 C  
HETATM   38  C   UNL     1      -6.457   5.951  70.568  1.00  0.00    -0.036 C  
HETATM   39  C   UNL     1      -6.401   3.746  67.219  1.00  0.00    -0.037 C  
HETATM   40  C   UNL     1      -6.803   5.502  69.136  1.00  0.00    -0.058 C  
HETATM   41  O   UNL     1      -6.456   6.544  68.236  1.00  0.00    -0.045 OA 
HETATM   42  H   UNL     1      -7.409   3.820  64.852  1.00  0.00     0.000 HD 
HETATM   43  C   UNL     1      -6.644   4.957  66.297  1.00  0.00    -0.049 C  
HETATM   44  O   UNL     1      -7.587   4.665  65.245  1.00  0.00    -0.079 OA 
HETATM   45  C   UNL     1      -5.988   4.281  68.684  1.00  0.00    -0.026 C  
BRANCH  45  46
HETATM   46  O   UNL     1      -6.085   3.309  69.749  1.00  0.00    -0.022 OA 
BRANCH  46  47
HETATM   47  C   UNL     1      -6.340   3.975  70.968  1.00  0.00    -0.018 C  
HETATM   48  C   UNL     1      -7.835   4.054  71.212  1.00  0.00    -0.070 C  
HETATM   49  C   UNL     1      -5.321   3.063  74.271  1.00  0.00     0.000 C  
HETATM   50  O   UNL     1      -5.541   3.558  72.036  1.00  0.00    -0.007 OA 
HETATM   51  H   UNL     1      -7.602   1.591  74.774  1.00  0.00     0.000 HD 
HETATM   52  C   UNL     1      -8.343   2.807  71.878  1.00  0.00    -0.058 C  
HETATM   53  C   UNL     1      -9.868   2.916  71.980  1.00  0.00    -0.242 C  
HETATM   54  O   UNL     1      -8.075   1.629  71.104  1.00  0.00    -0.045 OA 
HETATM   55  C   UNL     1      -7.607   2.756  73.212  1.00  0.00    -0.047 C  
HETATM   56  O   UNL     1      -8.061   1.622  73.943  1.00  0.00    -0.044 OA 
HETATM   57  H   UNL     1      -8.396   0.840  71.525  1.00  0.00     0.000 HD 
HETATM   58  C   UNL     1      -6.075   2.683  73.003  1.00  0.00    -0.009 C  
ENDBRANCH  46  47
ENDBRANCH  45  46
BRANCH  39  59
HETATM   59  N   UNL     1      -5.485   2.801  66.444  1.00  0.00    -0.016 NA 
HETATM   60  C   UNL     1      -5.128   1.517  66.989  1.00  0.00    -0.005 C  
HETATM   61  C   UNL     1      -5.234   2.835  65.014  1.00  0.00    -0.009 C  
ENDBRANCH  39  59
ENDBRANCH  36  37
ENDBRANCH  14  36
BRANCH  19  62
HETATM   62  O   UNL     1      -6.425   7.983  62.480  1.00  0.00    -0.084 OA 
HETATM   63  C   UNL     1      -5.260   8.745  62.747  1.00  0.00    -0.069 C  
ENDBRANCH  19  62
TORSDOF 9
ENDMDL
MODEL       30
REMARK 921   NORMALIZED FREE ENERGY PREDICTED BY IDOCK:   13.02 KCAL/MOL
REMARK 922        TOTAL FREE ENERGY PREDICTED BY IDOCK:   17.23 KCAL/MOL
REMARK 923 INTER-LIGAND FREE ENERGY PREDICTED BY IDOCK:   16.07 KCAL/MOL
REMARK 924 INTRA-LIGAND FREE ENERGY PREDICTED BY IDOCK:    1.16 KCAL/MOL
REMARK 927      BINDING AFFINITY PREDICTED BY RF-SCORE:    0.00 PKD
ROOT
HETATM    1  C   UNL     1      -7.765   9.824  67.712  1.00  0.00    -0.091 C  
HETATM    2  C   UNL     1      -6.393   9.677  67.820  1.00  0.00    -0.053 C  
HETATM    3  C   UNL     1      -5.216  10.118  68.652  1.00  0.00    -0.039 C  
HETATM    4  C   UNL     1      -5.125  10.702  69.865  1.00  0.00    -0.039 C  
HETATM    5  C   UNL     1      -6.344  11.114  70.569  1.00  0.00     0.070 C  
HETATM    6  O   UNL     1     -13.883   9.452  72.889  1.00  0.00    -0.739 OA 
HETATM    7  C   UNL     1      -6.781   9.909  71.478  1.00  0.00     0.525 C  
HETATM    8  C   UNL     1     -11.659   9.352  66.694  1.00  0.00     2.722 C  
HETATM    9  C   UNL     1      -8.147   9.608  70.902  1.00  0.00     0.174 C  
HETATM   10  C   UNL     1      -5.983   8.578  71.358  1.00  0.00    -0.043 C  
HETATM   11  C   UNL     1      -9.101   8.694  71.615  1.00  0.00    -0.318 C  
HETATM   12  C   UNL     1      -9.402  10.173  67.957  1.00  0.00    -0.149 C  
HETATM   13  C   UNL     1     -10.769   9.114  67.904  1.00  0.00    -0.162 C  
HETATM   14  C   UNL     1     -10.459   9.446  71.609  1.00  0.00    -0.134 C  
HETATM   15  C   UNL     1      -9.224   7.364  70.761  1.00  0.00    -0.159 C  
HETATM   16  C   UNL     1      -8.093   6.371  70.826  1.00  0.00    -0.120 C  
HETATM   17  O   UNL     1     -11.740   8.960  69.102  1.00  0.00     0.622 OA 
HETATM   18  O   UNL     1     -13.794   9.854  68.474  1.00  0.00     6.604 OA 
HETATM   19  C   UNL     1     -11.717   8.598  71.987  1.00  0.00    -0.369 C  
HETATM   20  C   UNL     1     -13.010   9.414  71.757  1.00  0.00    -0.402 C  
HETATM   21  H   UNL     1     -14.678   9.953  72.748  1.00  0.00     0.000 HD 
HETATM   22  C   UNL     1     -13.090   9.246  69.271  1.00  0.00     4.144 C  
HETATM   23  O   UNL     1      -7.646   5.870  69.837  1.00  0.00    -0.077 OA 
HETATM   24  C   UNL     1     -13.705   8.739  70.590  1.00  0.00     0.623 C  
ENDROOT
BRANCH   5  25
HETATM   25  O   UNL     1      -6.328  12.482  71.019  1.00  0.00     0.133 OA 
BRANCH  25  26
HETATM   26  C   UNL     1      -7.292  13.263  70.260  1.00  0.00     1.737 C  
HETATM   27  C   UNL     1      -5.854  15.388  68.832  1.00  0.00    -0.098 C  
HETATM   28  C   UNL     1      -5.684  13.828  68.643  1.00  0.00    -0.084 C  
HETATM   29  C   UNL     1      -6.213  15.549  70.359  1.00  0.00     0.020 C  
HETATM   30  O   UNL     1      -6.942  13.205  68.882  1.00  0.00    -0.101 OA 
HETATM   31  C   UNL     1      -7.458  14.726  70.685  1.00  0.00     1.021 C  
HETATM   32  C   UNL     1      -5.148  13.284  67.330  1.00  0.00     0.160 C  
BRANCH  27  33
HETATM   33  N   UNL     1      -6.823  16.085  67.973  1.00  0.00    -0.122 NA 
HETATM   34  C   UNL     1      -7.252  17.371  68.534  1.00  0.00    -0.230 C  
HETATM   35  C   UNL     1      -6.334  16.318  66.613  1.00  0.00     0.306 C  
ENDBRANCH  27  33
ENDBRANCH  25  26
ENDBRANCH   5  25
BRANCH  14  36
HETATM   36  O   UNL     1     -10.536  10.902  71.657  1.00  0.00     2.760 OA 
BRANCH  36  37
HETATM   37  C   UNL     1     -11.342  11.663  70.767  1.00  0.00     0.968 C  
HETATM   38  C   UNL     1     -10.487  13.158  67.507  1.00  0.00    -0.229 C  
HETATM   39  C   UNL     1     -12.383  14.083  70.917  1.00  0.00    -0.372 C  
HETATM   40  C   UNL     1     -11.298  12.959  68.801  1.00  0.00    -0.290 C  
HETATM   41  O   UNL     1     -10.585  12.075  69.653  1.00  0.00     0.157 OA 
HETATM   42  H   UNL     1     -13.586  12.866  72.839  1.00  0.00     0.000 HD 
HETATM   43  C   UNL     1     -12.038  12.741  71.591  1.00  0.00     0.852 C  
HETATM   44  O   UNL     1     -13.153  12.194  72.326  1.00  0.00    -0.392 OA 
HETATM   45  C   UNL     1     -11.463  14.259  69.603  1.00  0.00    -0.282 C  
BRANCH  45  46
HETATM   46  O   UNL     1     -11.906  15.264  68.666  1.00  0.00    -0.346 OA 
BRANCH  46  47
HETATM   47  C   UNL     1     -10.854  16.177  68.427  1.00  0.00    -0.318 C  
HETATM   48  C   UNL     1      -9.955  15.655  67.323  1.00  0.00    -0.236 C  
HETATM   49  C   UNL     1     -11.048  19.587  67.372  1.00  0.00    -0.269 C  
HETATM   50  O   UNL     1     -11.252  17.513  68.346  1.00  0.00    -0.059 OA 
HETATM   51  H   UNL     1     -10.911  18.963  64.686  1.00  0.00     0.000 HD 
HETATM   52  C   UNL     1     -10.484  16.032  65.969  1.00  0.00    -0.345 C  
HETATM   53  C   UNL     1      -9.591  15.371  64.913  1.00  0.00     0.697 C  
HETATM   54  O   UNL     1     -11.811  15.533  65.743  1.00  0.00     0.151 OA 
HETATM   55  C   UNL     1     -10.473  17.557  65.963  1.00  0.00    -0.274 C  
HETATM   56  O   UNL     1     -10.918  18.014  64.690  1.00  0.00    -0.511 OA 
HETATM   57  H   UNL     1     -12.146  15.772  64.887  1.00  0.00     0.000 HD 
HETATM   58  C   UNL     1     -11.374  18.127  67.083  1.00  0.00     0.767 C  
ENDBRANCH  46  47
ENDBRANCH  45  46
BRANCH  39  59
HETATM   59  N   UNL     1     -12.368  15.131  72.028  1.00  0.00    -0.333 NA 
HETATM   60  C   UNL     1     -11.751  16.414  71.816  1.00  0.00    -0.324 C  
HETATM   61  C   UNL     1     -13.264  15.179  73.169  1.00  0.00    -0.494 C  
ENDBRANCH  39  59
ENDBRANCH  36  37
ENDBRANCH  14  36
BRANCH  19  62
HETATM   62  O   UNL     1     -11.773   7.863  73.202  1.00  0.00    -0.264 OA 
HETATM   63  C   UNL     1     -10.703   7.022  73.595  1.00  0.00    -0.273 C  
ENDBRANCH  19  62
TORSDOF 9
ENDMDL
MODEL       31
REMARK 921   NORMALIZED FREE ENERGY PREDICTED BY IDOCK:   14.40 KCAL/MOL
REMARK 922        TOTAL FREE ENERGY PREDICTED BY IDOCK:   19.35 KCAL/MOL
REMARK 923 INTER-LIGAND FREE ENERGY PREDICTED BY IDOCK:    6.89 KCAL/MOL
REMARK 924 INTRA-LIGAND FREE ENERGY PREDICTED BY IDOCK:   12.46 KCAL/MOL
REMARK 927      BINDING AFFINITY PREDICTED BY RF-SCORE:    0.00 PKD
ROOT
HETATM    1  C   UNL     1      -7.545  14.662  68.890  1.00  0.00    -0.139 C  
HETATM    2  C   UNL     1      -8.177  15.749  68.312  1.00  0.00    -0.143 C  
HETATM    3  C   UNL     1      -9.008  16.138  67.115  1.00  0.00    -0.218 C  
HETATM    4  C   UNL     1      -9.689  15.413  66.205  1.00  0.00    -0.347 C  
HETATM    5  C   UNL     1      -9.610  13.948  66.231  1.00  0.00    -0.256 C  
HETATM    6  O   UNL     1      -9.693   7.098  70.478  1.00  0.00    -0.176 OA 
HETATM    7  C   UNL     1     -10.794  13.439  67.129  1.00  0.00    -0.284 C  
HETATM    8  C   UNL     1      -5.650  12.194  71.485  1.00  0.00     0.302 C  
HETATM    9  C   UNL     1     -10.027  12.725  68.221  1.00  0.00    -0.230 C  
HETATM   10  C   UNL     1     -11.661  14.501  67.865  1.00  0.00    -0.381 C  
HETATM   11  C   UNL     1     -10.730  11.824  69.195  1.00  0.00    -0.169 C  
HETATM   12  C   UNL     1      -6.994  13.121  69.318  1.00  0.00     0.027 C  
HETATM   13  C   UNL     1      -7.029  12.333  70.858  1.00  0.00     3.148 C  
HETATM   14  C   UNL     1      -9.870  10.533  69.241  1.00  0.00    -0.205 C  
HETATM   15  C   UNL     1     -10.704  12.534  70.612  1.00  0.00     3.025 C  
HETATM   16  C   UNL     1     -11.656  13.676  70.852  1.00  0.00     0.407 C  
HETATM   17  O   UNL     1      -7.714  10.958  71.066  1.00  0.00     1.869 OA 
HETATM   18  O   UNL     1      -6.052   9.398  71.534  1.00  0.00    -0.104 OA 
HETATM   19  C   UNL     1     -10.171   9.548  70.418  1.00  0.00    -0.279 C  
HETATM   20  C   UNL     1      -9.125   8.410  70.453  1.00  0.00    -0.149 C  
HETATM   21  H   UNL     1      -9.051   6.398  70.500  1.00  0.00     0.000 HD 
HETATM   22  C   UNL     1      -7.234   9.706  71.432  1.00  0.00     0.463 C  
HETATM   23  O   UNL     1     -11.292  14.694  71.363  1.00  0.00    -0.192 OA 
HETATM   24  C   UNL     1      -8.318   8.648  71.715  1.00  0.00    -0.203 C  
ENDROOT
BRANCH   5  25
HETATM   25  O   UNL     1      -9.263  13.356  64.965  1.00  0.00     0.580 OA 
BRANCH  25  26
HETATM   26  C   UNL     1      -9.523  11.926  65.001  1.00  0.00    -0.009 C  
HETATM   27  C   UNL     1      -8.030  10.652  62.817  1.00  0.00    -0.105 C  
HETATM   28  C   UNL     1      -7.430  11.440  64.048  1.00  0.00     1.672 C  
HETATM   29  C   UNL     1      -9.403  11.374  62.535  1.00  0.00    -0.137 C  
HETATM   30  O   UNL     1      -8.286  11.242  65.169  1.00  0.00     0.150 OA 
HETATM   31  C   UNL     1     -10.268  11.345  63.793  1.00  0.00    -0.433 C  
HETATM   32  C   UNL     1      -6.009  11.156  64.504  1.00  0.00     0.839 C  
BRANCH  27  33
HETATM   33  N   UNL     1      -8.201   9.197  62.946  1.00  0.00    -0.169 NA 
HETATM   34  C   UNL     1      -9.455   8.722  62.352  1.00  0.00     1.131 C  
HETATM   35  C   UNL     1      -7.098   8.427  62.368  1.00  0.00    -0.097 C  
ENDBRANCH  27  33
ENDBRANCH  25  26
ENDBRANCH   5  25
BRANCH  14  36
HETATM   36  O   UNL     1      -9.130  10.054  68.079  1.00  0.00    -0.131 OA 
BRANCH  36  37
HETATM   37  C   UNL     1      -8.748   8.695  67.911  1.00  0.00    -0.137 C  
HETATM   38  C   UNL     1      -6.653   6.554  70.060  1.00  0.00    -0.048 C  
HETATM   39  C   UNL     1      -7.158   7.481  66.192  1.00  0.00    -0.070 C  
HETATM   40  C   UNL     1      -7.366   6.991  68.767  1.00  0.00    -0.093 C  
HETATM   41  O   UNL     1      -7.896   8.295  68.958  1.00  0.00    -0.100 OA 
HETATM   42  H   UNL     1      -9.019   8.375  64.656  1.00  0.00     0.000 HD 
HETATM   43  C   UNL     1      -8.240   8.538  66.482  1.00  0.00    -0.108 C  
HETATM   44  O   UNL     1      -9.336   8.472  65.546  1.00  0.00    -0.117 OA 
HETATM   45  C   UNL     1      -6.409   7.108  67.571  1.00  0.00    -0.047 C  
BRANCH  45  46
HETATM   46  O   UNL     1      -5.635   5.889  67.547  1.00  0.00    -0.011 OA 
BRANCH  46  47
HETATM   47  C   UNL     1      -6.317   4.917  66.781  1.00  0.00    -0.040 C  
HETATM   48  C   UNL     1      -5.789   3.534  67.109  1.00  0.00    -0.023 C  
HETATM   49  C   UNL     1      -9.807   4.146  66.738  1.00  0.00    -0.203 C  
HETATM   50  O   UNL     1      -7.704   5.077  66.741  1.00  0.00    -0.091 OA 
HETATM   51  H   UNL     1      -9.601   2.223  68.710  1.00  0.00     0.000 HD 
HETATM   52  C   UNL     1      -6.484   2.959  68.310  1.00  0.00    -0.033 C  
HETATM   53  C   UNL     1      -5.815   1.621  68.646  1.00  0.00    -0.023 C  
HETATM   54  O   UNL     1      -6.335   3.786  69.474  1.00  0.00    -0.027 OA 
HETATM   55  C   UNL     1      -7.949   2.865  67.899  1.00  0.00    -0.066 C  
HETATM   56  O   UNL     1      -8.688   2.282  68.966  1.00  0.00    -0.067 OA 
HETATM   57  H   UNL     1      -6.774   3.423  70.234  1.00  0.00     0.000 HD 
HETATM   58  C   UNL     1      -8.521   4.259  67.547  1.00  0.00    -0.099 C  
ENDBRANCH  46  47
ENDBRANCH  45  46
BRANCH  39  59
HETATM   59  N   UNL     1      -6.369   8.000  64.990  1.00  0.00    -0.048 NA 
HETATM   60  C   UNL     1      -5.382   9.034  65.154  1.00  0.00    -0.038 C  
HETATM   61  C   UNL     1      -6.175   7.304  63.731  1.00  0.00    -0.045 C  
ENDBRANCH  39  59
ENDBRANCH  36  37
ENDBRANCH  14  36
BRANCH  19  62
HETATM   62  O   UNL     1     -11.484   9.056  70.650  1.00  0.00    -0.263 OA 
HETATM   63  C   UNL     1     -12.123   9.247  71.901  1.00  0.00    -0.370 C  
ENDBRANCH  19  62
TORSDOF 9
ENDMDL
MODEL       32
REMARK 921   NORMALIZED FREE ENERGY PREDICTED BY IDOCK:   15.76 KCAL/MOL
REMARK 922        TOTAL FREE ENERGY PREDICTED BY IDOCK:   21.42 KCAL/MOL
REMARK 923 INTER-LIGAND FREE ENERGY PREDICTED BY IDOCK:    9.14 KCAL/MOL
REMARK 924 INTRA-LIGAND FREE ENERGY PREDICTED BY IDOCK:   12.28 KCAL/MOL
REMARK 927      BINDING AFFINITY PREDICTED BY RF-SCORE:    0.00 PKD
ROOT
HETATM    1  C   UNL     1     -10.253   3.768  68.560  1.00  0.00     0.684 C  
HETATM    2  C   UNL     1      -9.655   2.526  68.686  1.00  0.00    -0.088 C  
HETATM    3  C   UNL     1      -8.327   1.829  68.530  1.00  0.00    -0.077 C  
HETATM    4  C   UNL     1      -7.065   2.290  68.414  1.00  0.00    -0.044 C  
HETATM    5  C   UNL     1      -6.820   3.734  68.323  1.00  0.00    -0.047 C  
HETATM    6  O   UNL     1      -8.378  11.187  70.970  1.00  0.00     3.121 OA 
HETATM    7  C   UNL     1      -6.591   4.254  69.788  1.00  0.00    -0.033 C  
HETATM    8  C   UNL     1     -12.844   6.877  68.775  1.00  0.00     6.070 C  
HETATM    9  C   UNL     1      -7.731   5.242  69.912  1.00  0.00    -0.069 C  
HETATM   10  C   UNL     1      -6.790   3.250  70.960  1.00  0.00    -0.032 C  
HETATM   11  C   UNL     1      -7.787   6.216  71.054  1.00  0.00    -0.114 C  
HETATM   12  C   UNL     1     -10.592   5.416  68.379  1.00  0.00    -0.148 C  
HETATM   13  C   UNL     1     -11.519   6.462  69.398  1.00  0.00    -0.305 C  
HETATM   14  C   UNL     1      -8.103   7.587  70.397  1.00  0.00    -0.111 C  
HETATM   15  C   UNL     1      -8.988   5.786  71.995  1.00  0.00    -0.140 C  
HETATM   16  C   UNL     1      -8.788   4.602  72.905  1.00  0.00    -0.116 C  
HETATM   17  O   UNL     1     -10.927   7.761  70.003  1.00  0.00    -0.249 OA 
HETATM   18  O   UNL     1     -12.014   9.567  69.016  1.00  0.00     0.611 OA 
HETATM   19  C   UNL     1      -8.550   8.728  71.369  1.00  0.00    -0.194 C  
HETATM   20  C   UNL     1      -9.012   9.968  70.571  1.00  0.00     0.396 C  
HETATM   21  H   UNL     1      -8.662  11.950  70.480  1.00  0.00     0.000 HD 
HETATM   22  C   UNL     1     -11.236   9.107  69.844  1.00  0.00    -0.102 C  
HETATM   23  O   UNL     1      -9.616   3.745  73.004  1.00  0.00    -0.115 OA 
HETATM   24  C   UNL     1     -10.507  10.062  70.809  1.00  0.00    -0.135 C  
ENDROOT
BRANCH   5  25
HETATM   25  O   UNL     1      -5.998   4.121  67.207  1.00  0.00    -0.022 OA 
BRANCH  25  26
HETATM   26  C   UNL     1      -6.494   3.498  65.989  1.00  0.00    -0.033 C  
HETATM   27  C   UNL     1      -8.389   5.339  64.707  1.00  0.00    -0.145 C  
HETATM   28  C   UNL     1      -6.851   5.587  64.972  1.00  0.00    -0.048 C  
HETATM   29  C   UNL     1      -8.843   4.436  65.916  1.00  0.00    -0.120 C  
HETATM   30  O   UNL     1      -6.172   4.337  64.886  1.00  0.00    -0.028 OA 
HETATM   31  C   UNL     1      -7.991   3.169  65.962  1.00  0.00    -0.085 C  
HETATM   32  C   UNL     1      -6.089   6.579  64.110  1.00  0.00    -0.034 C  
BRANCH  27  33
HETATM   33  N   UNL     1      -8.780   4.752  63.416  1.00  0.00    -0.135 NA 
HETATM   34  C   UNL     1     -10.111   5.188  62.979  1.00  0.00     1.098 C  
HETATM   35  C   UNL     1      -7.830   5.025  62.338  1.00  0.00    -0.065 C  
ENDBRANCH  27  33
ENDBRANCH  25  26
ENDBRANCH   5  25
BRANCH  14  36
HETATM   36  O   UNL     1      -7.637   7.928  69.058  1.00  0.00    -0.095 OA 
BRANCH  36  37
HETATM   37  C   UNL     1      -7.134   9.214  68.719  1.00  0.00    -0.073 C  
HETATM   38  C   UNL     1      -6.298  12.068  70.900  1.00  0.00     1.035 C  
HETATM   39  C   UNL     1      -8.189  11.274  67.454  1.00  0.00    -0.135 C  
HETATM   40  C   UNL     1      -6.646  11.351  69.582  1.00  0.00    -0.128 C  
HETATM   41  O   UNL     1      -7.006  10.009  69.875  1.00  0.00    -0.083 OA 
HETATM   42  H   UNL     1      -8.155   9.478  65.611  1.00  0.00     0.000 HD 
HETATM   43  C   UNL     1      -7.989   9.752  67.577  1.00  0.00    -0.106 C  
HETATM   44  O   UNL     1      -7.621   9.143  66.322  1.00  0.00    -0.091 OA 
HETATM   45  C   UNL     1      -7.867  11.960  68.878  1.00  0.00     0.015 C  
BRANCH  45  46
HETATM   46  O   UNL     1      -7.648  13.388  68.844  1.00  0.00    -0.084 OA 
BRANCH  46  47
HETATM   47  C   UNL     1      -8.615  14.029  69.651  1.00  0.00     0.976 C  
HETATM   48  C   UNL     1      -8.785  15.470  69.210  1.00  0.00    -0.260 C  
HETATM   49  C   UNL     1     -12.067  13.207  70.084  1.00  0.00    -0.392 C  
HETATM   50  O   UNL     1      -9.779  13.286  69.863  1.00  0.00     1.564 OA 
HETATM   51  H   UNL     1     -12.913  14.850  68.032  1.00  0.00     0.000 HD 
HETATM   52  C   UNL     1      -9.769  15.580  68.081  1.00  0.00    -0.208 C  
HETATM   53  C   UNL     1      -9.794  17.041  67.618  1.00  0.00    -0.257 C  
HETATM   54  O   UNL     1      -9.378  14.803  66.939  1.00  0.00    -0.217 OA 
HETATM   55  C   UNL     1     -11.080  15.063  68.662  1.00  0.00    -0.264 C  
HETATM   56  O   UNL     1     -12.096  15.172  67.670  1.00  0.00    -0.137 OA 
HETATM   57  H   UNL     1     -10.000  14.872  66.225  1.00  0.00     0.000 HD 
HETATM   58  C   UNL     1     -10.943  13.595  69.131  1.00  0.00    -0.194 C  
ENDBRANCH  46  47
ENDBRANCH  45  46
BRANCH  39  59
HETATM   59  N   UNL     1      -9.546  11.471  66.781  1.00  0.00    -0.184 NA 
HETATM   60  C   UNL     1      -9.655  12.221  65.557  1.00  0.00    -0.099 C  
HETATM   61  C   UNL     1     -10.726  10.648  66.981  1.00  0.00    -0.259 C  
ENDBRANCH  39  59
ENDBRANCH  36  37
ENDBRANCH  14  36
BRANCH  19  62
HETATM   62  O   UNL     1      -7.758   9.094  72.490  1.00  0.00    -0.205 OA 
HETATM   63  C   UNL     1      -7.221   8.109  73.356  1.00  0.00    -0.133 C  
ENDBRANCH  19  62
TORSDOF 9
ENDMDL
MODEL       33
REMARK 921   NORMALIZED FREE ENERGY PREDICTED BY IDOCK:   15.82 KCAL/MOL
REMARK 922        TOTAL FREE ENERGY PREDICTED BY IDOCK:   21.51 KCAL/MOL
REMARK 923 INTER-LIGAND FREE ENERGY PREDICTED BY IDOCK:    3.40 KCAL/MOL
REMARK 924 INTRA-LIGAND FREE ENERGY PREDICTED BY IDOCK:   18.11 KCAL/MOL
REMARK 927      BINDING AFFINITY PREDICTED BY RF-SCORE:    0.00 PKD
ROOT
HETATM    1  C   UNL     1     -11.959  10.170  68.049  1.00  0.00     1.331 C  
HETATM    2  C   UNL     1     -12.330  11.504  68.064  1.00  0.00     0.656 C  
HETATM    3  C   UNL     1     -11.770  12.887  68.283  1.00  0.00    -0.390 C  
HETATM    4  C   UNL     1     -10.509  13.363  68.322  1.00  0.00    -0.256 C  
HETATM    5  C   UNL     1      -9.375  12.435  68.234  1.00  0.00    -0.199 C  
HETATM    6  O   UNL     1      -5.932   6.043  64.733  1.00  0.00    -0.024 OA 
HETATM    7  C   UNL     1      -8.997  12.314  66.714  1.00  0.00    -0.209 C  
HETATM    8  C   UNL     1     -11.904   6.156  67.501  1.00  0.00     1.873 C  
HETATM    9  C   UNL     1      -9.223  10.835  66.489  1.00  0.00    -0.187 C  
HETATM   10  C   UNL     1      -9.908  13.030  65.675  1.00  0.00    -0.181 C  
HETATM   11  C   UNL     1      -8.734  10.160  65.240  1.00  0.00    -0.180 C  
HETATM   12  C   UNL     1     -11.124   8.699  68.035  1.00  0.00     0.276 C  
HETATM   13  C   UNL     1     -11.233   7.388  66.912  1.00  0.00     0.504 C  
HETATM   14  C   UNL     1      -8.019   8.873  65.731  1.00  0.00    -0.101 C  
HETATM   15  C   UNL     1     -10.004   9.769  64.376  1.00  0.00     0.288 C  
HETATM   16  C   UNL     1     -10.708  10.860  63.613  1.00  0.00    -0.052 C  
HETATM   17  O   UNL     1      -9.996   6.853  66.145  1.00  0.00     0.029 OA 
HETATM   18  O   UNL     1      -9.548   4.707  66.924  1.00  0.00    -0.153 OA 
HETATM   19  C   UNL     1      -7.700   7.803  64.636  1.00  0.00    -0.121 C  
HETATM   20  C   UNL     1      -7.167   6.506  65.286  1.00  0.00    -0.073 C  
HETATM   21  H   UNL     1      -5.604   5.245  65.132  1.00  0.00     0.000 HD 
HETATM   22  C   UNL     1      -9.337   5.629  66.146  1.00  0.00    -0.153 C  
HETATM   23  O   UNL     1     -11.899  10.965  63.630  1.00  0.00     0.693 OA 
HETATM   24  C   UNL     1      -8.253   5.471  65.061  1.00  0.00    -0.139 C  
ENDROOT
BRANCH   5  25
HETATM   25  O   UNL     1      -8.403  12.596  69.283  1.00  0.00     0.494 OA 
BRANCH  25  26
HETATM   26  C   UNL     1      -7.145  13.065  68.723  1.00  0.00    -0.097 C  
HETATM   27  C   UNL     1      -7.234  15.995  68.553  1.00  0.00    -0.138 C  
HETATM   28  C   UNL     1      -7.308  15.114  69.862  1.00  0.00    -0.068 C  
HETATM   29  C   UNL     1      -7.937  15.107  67.456  1.00  0.00    -0.194 C  
HETATM   30  O   UNL     1      -6.527  13.940  69.660  1.00  0.00    -0.120 OA 
HETATM   31  C   UNL     1      -7.231  13.756  67.357  1.00  0.00    -0.107 C  
HETATM   32  C   UNL     1      -6.893  15.712  71.196  1.00  0.00     1.752 C  
BRANCH  27  33
HETATM   33  N   UNL     1      -5.911  16.458  68.107  1.00  0.00    -0.105 NA 
HETATM   34  C   UNL     1      -5.987  17.336  66.934  1.00  0.00    -0.179 C  
HETATM   35  C   UNL     1      -5.153  17.151  69.150  1.00  0.00    -0.136 C  
ENDBRANCH  27  33
ENDBRANCH  25  26
ENDBRANCH   5  25
BRANCH  14  36
HETATM   36  O   UNL     1      -7.323   8.816  67.012  1.00  0.00    -0.079 OA 
BRANCH  36  37
HETATM   37  C   UNL     1      -7.438   7.716  67.906  1.00  0.00    -0.108 C  
HETATM   38  C   UNL     1     -10.443   5.918  69.058  1.00  0.00    -0.332 C  
HETATM   39  C   UNL     1      -7.038   7.468  70.501  1.00  0.00    -0.056 C  
HETATM   40  C   UNL     1      -8.976   6.384  69.091  1.00  0.00    -0.129 C  
HETATM   41  O   UNL     1      -8.792   7.381  68.097  1.00  0.00    -0.128 OA 
HETATM   42  H   UNL     1      -4.679   8.051  69.653  1.00  0.00     0.000 HD 
HETATM   43  C   UNL     1      -6.604   8.043  69.140  1.00  0.00    -0.040 C  
HETATM   44  O   UNL     1      -5.198   7.846  68.884  1.00  0.00    -0.022 OA 
HETATM   45  C   UNL     1      -8.595   7.053  70.420  1.00  0.00    -0.142 C  
BRANCH  45  46
HETATM   46  O   UNL     1      -9.058   6.173  71.468  1.00  0.00    -0.143 OA 
BRANCH  46  47
HETATM   47  C   UNL     1      -9.807   6.917  72.407  1.00  0.00    -0.157 C  
HETATM   48  C   UNL     1      -9.603   8.401  72.174  1.00  0.00    -0.367 C  
HETATM   49  C   UNL     1     -13.345   6.954  72.922  1.00  0.00     1.473 C  
HETATM   50  O   UNL     1     -11.120   6.475  72.584  1.00  0.00    -0.243 OA 
HETATM   51  H   UNL     1     -13.772   9.037  71.160  1.00  0.00     0.000 HD 
HETATM   52  C   UNL     1     -10.546   8.922  71.127  1.00  0.00    -0.265 C  
HETATM   53  C   UNL     1     -10.197  10.391  70.867  1.00  0.00     0.966 C  
HETATM   54  O   UNL     1     -10.395   8.243  69.871  1.00  0.00    -0.207 OA 
HETATM   55  C   UNL     1     -11.935   8.680  71.707  1.00  0.00    -0.336 C  
HETATM   56  O   UNL     1     -12.906   9.188  70.799  1.00  0.00    -0.065 OA 
HETATM   57  H   UNL     1     -10.992   8.572  69.209  1.00  0.00     0.000 HD 
HETATM   58  C   UNL     1     -12.178   7.174  71.967  1.00  0.00    -0.278 C  
ENDBRANCH  46  47
ENDBRANCH  45  46
BRANCH  39  59
HETATM   59  N   UNL     1      -6.547   8.458  71.556  1.00  0.00    -0.057 NA 
HETATM   60  C   UNL     1      -6.032   7.990  72.816  1.00  0.00    -0.055 C  
HETATM   61  C   UNL     1      -6.134   9.829  71.314  1.00  0.00    -0.003 C  
ENDBRANCH  39  59
ENDBRANCH  36  37
ENDBRANCH  14  36
BRANCH  19  62
HETATM   62  O   UNL     1      -6.967   8.140  63.467  1.00  0.00    -0.081 OA 
HETATM   63  C   UNL     1      -5.827   8.979  63.539  1.00  0.00    -0.076 C  
ENDBRANCH  19  62
TORSDOF 9
ENDMDL
MODEL       34
REMARK 921   NORMALIZED FREE ENERGY PREDICTED BY IDOCK:   15.90 KCAL/MOL
REMARK 922        TOTAL FREE ENERGY PREDICTED BY IDOCK:   21.63 KCAL/MOL
REMARK 923 INTER-LIGAND FREE ENERGY PREDICTED BY IDOCK:   18.53 KCAL/MOL
REMARK 924 INTRA-LIGAND FREE ENERGY PREDICTED BY IDOCK:    3.10 KCAL/MOL
REMARK 927      BINDING AFFINITY PREDICTED BY RF-SCORE:    0.00 PKD
ROOT
HETATM    1  C   UNL     1     -11.546  11.675  67.490  1.00  0.00    -0.345 C  
HETATM    2  C   UNL     1     -12.851  11.532  67.929  1.00  0.00     3.215 C  
HETATM    3  C   UNL     1     -13.659  11.252  69.171  1.00  0.00     4.287 C  
HETATM    4  C   UNL     1     -13.347  11.271  70.484  1.00  0.00     0.568 C  
HETATM    5  C   UNL     1     -11.962  11.513  70.902  1.00  0.00    -0.115 C  
HETATM    6  O   UNL     1      -5.140  15.733  70.108  1.00  0.00    -0.116 OA 
HETATM    7  C   UNL     1     -11.810  13.062  71.118  1.00  0.00     0.564 C  
HETATM    8  C   UNL     1      -8.260  12.528  65.278  1.00  0.00     2.389 C  
HETATM    9  C   UNL     1     -10.738  13.380  70.098  1.00  0.00     1.062 C  
HETATM   10  C   UNL     1     -13.015  13.972  70.744  1.00  0.00    -0.298 C  
HETATM   11  C   UNL     1     -10.041  14.710  70.101  1.00  0.00     0.436 C  
HETATM   12  C   UNL     1      -9.870  11.863  67.358  1.00  0.00    -0.192 C  
HETATM   13  C   UNL     1      -8.965  13.070  66.512  1.00  0.00    -0.065 C  
HETATM   14  C   UNL     1      -8.530  14.372  69.983  1.00  0.00     1.083 C  
HETATM   15  C   UNL     1     -10.513  15.503  68.813  1.00  0.00    -0.234 C  
HETATM   16  C   UNL     1     -11.883  16.128  68.826  1.00  0.00    -0.126 C  
HETATM   17  O   UNL     1      -7.918  13.965  67.222  1.00  0.00    -0.176 OA 
HETATM   18  O   UNL     1      -5.816  13.387  66.407  1.00  0.00     1.758 OA 
HETATM   19  C   UNL     1      -7.585  15.565  69.626  1.00  0.00    -0.144 C  
HETATM   20  C   UNL     1      -6.150  15.056  69.355  1.00  0.00    -0.110 C  
HETATM   21  H   UNL     1      -4.258  15.421  69.941  1.00  0.00     0.000 HD 
HETATM   22  C   UNL     1      -6.542  14.106  67.083  1.00  0.00     0.603 C  
HETATM   23  O   UNL     1     -12.629  16.014  67.898  1.00  0.00     1.132 OA 
HETATM   24  C   UNL     1      -5.923  15.277  67.871  1.00  0.00    -0.166 C  
ENDROOT
BRANCH   5  25
HETATM   25  O   UNL     1     -11.445  10.530  71.818  1.00  0.00     0.354 OA 
BRANCH  25  26
HETATM   26  C   UNL     1     -12.091   9.248  71.583  1.00  0.00    -0.379 C  
HETATM   27  C   UNL     1     -10.042   7.306  70.773  1.00  0.00    -0.190 C  
HETATM   28  C   UNL     1     -10.139   8.069  72.154  1.00  0.00    -0.234 C  
HETATM   29  C   UNL     1     -10.633   8.330  69.730  1.00  0.00    -0.228 C  
HETATM   30  O   UNL     1     -11.515   8.282  72.455  1.00  0.00    -0.378 OA 
HETATM   31  C   UNL     1     -12.049   8.726  70.143  1.00  0.00     0.481 C  
HETATM   32  C   UNL     1      -9.489   7.473  73.390  1.00  0.00    -0.306 C  
BRANCH  27  33
HETATM   33  N   UNL     1     -10.689   5.990  70.666  1.00  0.00    -0.258 NA 
HETATM   34  C   UNL     1     -10.734   5.495  69.285  1.00  0.00    -0.217 C  
HETATM   35  C   UNL     1     -10.066   4.964  71.502  1.00  0.00    -0.197 C  
ENDBRANCH  27  33
ENDBRANCH  25  26
ENDBRANCH   5  25
BRANCH  14  36
HETATM   36  O   UNL     1      -7.963  13.154  70.552  1.00  0.00     3.065 OA 
BRANCH  36  37
HETATM   37  C   UNL     1      -7.144  12.261  69.808  1.00  0.00     0.481 C  
HETATM   38  C   UNL     1      -8.065   9.883  67.145  1.00  0.00    -0.117 C  
HETATM   39  C   UNL     1      -5.823  10.074  70.464  1.00  0.00    -0.084 C  
HETATM   40  C   UNL     1      -7.187  10.491  68.255  1.00  0.00    -0.083 C  
HETATM   41  O   UNL     1      -7.931  11.501  68.921  1.00  0.00    -0.131 OA 
HETATM   42  H   UNL     1      -4.627  11.863  71.877  1.00  0.00     0.000 HD 
HETATM   43  C   UNL     1      -6.269  11.509  70.804  1.00  0.00     0.382 C  
HETATM   44  O   UNL     1      -5.172  12.331  71.256  1.00  0.00    -0.201 OA 
HETATM   45  C   UNL     1      -6.813   9.473  69.342  1.00  0.00    -0.049 C  
BRANCH  45  46
HETATM   46  O   UNL     1      -6.329   8.299  68.652  1.00  0.00    -0.050 OA 
BRANCH  46  47
HETATM   47  C   UNL     1      -7.258   7.246  68.812  1.00  0.00    -0.090 C  
HETATM   48  C   UNL     1      -7.835   6.856  67.465  1.00  0.00    -0.112 C  
HETATM   49  C   UNL     1      -6.713   3.963  70.116  1.00  0.00    -0.033 C  
HETATM   50  O   UNL     1      -6.824   6.211  69.643  1.00  0.00    -0.060 OA 
HETATM   51  H   UNL     1      -6.132   2.871  67.647  1.00  0.00     0.000 HD 
HETATM   52  C   UNL     1      -6.953   5.865  66.762  1.00  0.00    -0.068 C  
HETATM   53  C   UNL     1      -7.541   5.615  65.370  1.00  0.00    -0.083 C  
HETATM   54  O   UNL     1      -5.625   6.370  66.554  1.00  0.00    -0.013 OA 
HETATM   55  C   UNL     1      -6.929   4.650  67.683  1.00  0.00    -0.061 C  
HETATM   56  O   UNL     1      -6.147   3.628  67.073  1.00  0.00    -0.023 OA 
HETATM   57  H   UNL     1      -5.066   5.743  66.109  1.00  0.00     0.000 HD 
HETATM   58  C   UNL     1      -6.352   5.012  69.072  1.00  0.00    -0.031 C  
ENDBRANCH  46  47
ENDBRANCH  45  46
BRANCH  39  59
HETATM   59  N   UNL     1      -5.633   9.361  71.802  1.00  0.00    -0.073 NA 
HETATM   60  C   UNL     1      -5.186  10.087  72.962  1.00  0.00     0.103 C  
HETATM   61  C   UNL     1      -6.239   8.100  72.192  1.00  0.00    -0.054 C  
ENDBRANCH  39  59
ENDBRANCH  36  37
ENDBRANCH  14  36
BRANCH  19  62
HETATM   62  O   UNL     1      -7.577  16.757  70.400  1.00  0.00     1.670 OA 
HETATM   63  C   UNL     1      -6.480  17.653  70.347  1.00  0.00     0.790 C  
ENDBRANCH  19  62
TORSDOF 9
ENDMDL
MODEL       35
REMARK 921   NORMALIZED FREE ENERGY PREDICTED BY IDOCK:   17.24 KCAL/MOL
REMARK 922        TOTAL FREE ENERGY PREDICTED BY IDOCK:   23.68 KCAL/MOL
REMARK 923 INTER-LIGAND FREE ENERGY PREDICTED BY IDOCK:   22.88 KCAL/MOL
REMARK 924 INTRA-LIGAND FREE ENERGY PREDICTED BY IDOCK:    0.81 KCAL/MOL
REMARK 927      BINDING AFFINITY PREDICTED BY RF-SCORE:    0.00 PKD
ROOT
HETATM    1  C   UNL     1     -13.358  15.623  69.330  1.00  0.00     1.706 C  
HETATM    2  C   UNL     1     -13.544  16.020  70.643  1.00  0.00     1.413 C  
HETATM    3  C   UNL     1     -13.544  15.488  72.053  1.00  0.00    -0.595 C  
HETATM    4  C   UNL     1     -13.082  14.342  72.595  1.00  0.00    -0.564 C  
HETATM    5  C   UNL     1     -12.529  13.296  71.727  1.00  0.00     0.021 C  
HETATM    6  O   UNL     1      -7.824  11.246  65.511  1.00  0.00    -0.364 OA 
HETATM    7  C   UNL     1     -10.983  13.556  71.621  1.00  0.00     4.091 C  
HETATM    8  C   UNL     1     -12.761  15.597  65.322  1.00  0.00     1.292 C  
HETATM    9  C   UNL     1     -10.842  13.781  70.131  1.00  0.00     0.563 C  
HETATM   10  C   UNL     1     -10.411  14.842  72.285  1.00  0.00     2.465 C  
HETATM   11  C   UNL     1      -9.489  13.804  69.479  1.00  0.00     0.912 C  
HETATM   12  C   UNL     1     -12.983  14.793  67.904  1.00  0.00     2.073 C  
HETATM   13  C   UNL     1     -11.975  15.281  66.585  1.00  0.00     0.280 C  
HETATM   14  C   UNL     1      -9.628  12.890  68.232  1.00  0.00    -0.212 C  
HETATM   15  C   UNL     1      -9.202  15.294  69.019  1.00  0.00    -0.223 C  
HETATM   16  C   UNL     1      -8.806  16.298  70.070  1.00  0.00     1.031 C  
HETATM   17  O   UNL     1     -10.766  14.433  66.113  1.00  0.00    -0.294 OA 
HETATM   18  O   UNL     1     -11.260  13.605  63.995  1.00  0.00    -0.321 OA 
HETATM   19  C   UNL     1      -8.479  12.988  67.177  1.00  0.00    -0.174 C  
HETATM   20  C   UNL     1      -8.836  12.175  65.910  1.00  0.00     0.181 C  
HETATM   21  H   UNL     1      -8.043  10.747  64.732  1.00  0.00     0.000 HD 
HETATM   22  C   UNL     1     -10.479  13.770  64.925  1.00  0.00    -0.418 C  
HETATM   23  O   UNL     1      -9.303  17.385  70.113  1.00  0.00     1.378 OA 
HETATM   24  C   UNL     1      -9.048  13.208  64.820  1.00  0.00     1.515 C  
ENDROOT
BRANCH   5  25
HETATM   25  O   UNL     1     -13.101  11.993  71.941  1.00  0.00    -0.453 OA 
BRANCH  25  26
HETATM   26  C   UNL     1     -12.119  10.965  71.633  1.00  0.00     0.143 C  
HETATM   27  C   UNL     1     -13.465   8.355  71.644  1.00  0.00    -0.337 C  
HETATM   28  C   UNL     1     -13.755   9.573  70.680  1.00  0.00     0.334 C  
HETATM   29  C   UNL     1     -13.026   9.037  72.996  1.00  0.00     0.384 C  
HETATM   30  O   UNL     1     -12.535  10.275  70.460  1.00  0.00    -0.292 OA 
HETATM   31  C   UNL     1     -11.830   9.953  72.747  1.00  0.00     2.229 C  
HETATM   32  C   UNL     1     -14.388   9.324  69.322  1.00  0.00     6.445 C  
BRANCH  27  33
HETATM   33  N   UNL     1     -12.489   7.346  71.206  1.00  0.00    -0.349 NA 
HETATM   34  C   UNL     1     -11.106   7.726  71.516  1.00  0.00    -0.236 C  
HETATM   35  C   UNL     1     -12.735   6.015  71.763  1.00  0.00     0.559 C  
ENDBRANCH  27  33
ENDBRANCH  25  26
ENDBRANCH   5  25
BRANCH  14  36
HETATM   36  O   UNL     1     -10.520  11.736  68.215  1.00  0.00    -0.192 OA 
BRANCH  36  37
HETATM   37  C   UNL     1     -10.095  10.425  68.564  1.00  0.00    -0.171 C  
HETATM   38  C   UNL     1      -7.786   9.325  71.220  1.00  0.00     0.032 C  
HETATM   39  C   UNL     1      -8.566   8.655  67.344  1.00  0.00    -0.134 C  
HETATM   40  C   UNL     1      -8.595   9.211  69.914  1.00  0.00    -0.150 C  
HETATM   41  O   UNL     1      -9.164  10.478  69.620  1.00  0.00    -0.120 OA 
HETATM   42  H   UNL     1     -10.553   8.851  65.720  1.00  0.00     0.000 HD 
HETATM   43  C   UNL     1      -9.670   9.727  67.276  1.00  0.00    -0.169 C  
HETATM   44  O   UNL     1     -10.818   9.285  66.522  1.00  0.00    -0.023 OA 
HETATM   45  C   UNL     1      -7.720   8.862  68.702  1.00  0.00    -0.097 C  
BRANCH  45  46
HETATM   46  O   UNL     1      -6.900   7.741  69.099  1.00  0.00    -0.047 OA 
BRANCH  46  47
HETATM   47  C   UNL     1      -7.371   6.569  68.466  1.00  0.00    -0.087 C  
HETATM   48  C   UNL     1      -6.530   5.379  68.885  1.00  0.00    -0.042 C  
HETATM   49  C   UNL     1     -10.593   5.038  68.706  1.00  0.00     0.083 C  
HETATM   50  O   UNL     1      -8.759   6.410  68.497  1.00  0.00    -0.121 OA 
HETATM   51  H   UNL     1      -9.877   3.420  70.827  1.00  0.00     0.000 HD 
HETATM   52  C   UNL     1      -7.027   4.789  70.173  1.00  0.00    -0.048 C  
HETATM   53  C   UNL     1      -6.059   3.675  70.586  1.00  0.00    -0.018 C  
HETATM   54  O   UNL     1      -7.026   5.742  71.246  1.00  0.00    -0.063 OA 
HETATM   55  C   UNL     1      -8.447   4.329  69.862  1.00  0.00    -0.061 C  
HETATM   56  O   UNL     1      -8.992   3.706  71.021  1.00  0.00    -0.084 OA 
HETATM   57  H   UNL     1      -7.340   5.369  72.061  1.00  0.00     0.000 HD 
HETATM   58  C   UNL     1      -9.336   5.517  69.422  1.00  0.00    -0.118 C  
ENDBRANCH  46  47
ENDBRANCH  45  46
BRANCH  39  59
HETATM   59  N   UNL     1      -7.875   8.671  65.982  1.00  0.00    -0.099 NA 
HETATM   60  C   UNL     1      -6.440   8.604  65.887  1.00  0.00    -0.057 C  
HETATM   61  C   UNL     1      -8.486   8.330  64.709  1.00  0.00    -0.070 C  
ENDBRANCH  39  59
ENDBRANCH  36  37
ENDBRANCH  14  36
BRANCH  19  62
HETATM   62  O   UNL     1      -7.119  12.804  67.547  1.00  0.00    -0.128 OA 
HETATM   63  C   UNL     1      -6.114  13.695  67.096  1.00  0.00     0.679 C  
ENDBRANCH  19  62
TORSDOF 9
ENDMDL
MODEL       36
REMARK 921   NORMALIZED FREE ENERGY PREDICTED BY IDOCK:   18.83 KCAL/MOL
REMARK 922        TOTAL FREE ENERGY PREDICTED BY IDOCK:   26.11 KCAL/MOL
REMARK 923 INTER-LIGAND FREE ENERGY PREDICTED BY IDOCK:    3.03 KCAL/MOL
REMARK 924 INTRA-LIGAND FREE ENERGY PREDICTED BY IDOCK:   23.07 KCAL/MOL
REMARK 927      BINDING AFFINITY PREDICTED BY RF-SCORE:    0.00 PKD
ROOT
HETATM    1  C   UNL     1     -11.959  10.170  68.049  1.00  0.00     1.331 C  
HETATM    2  C   UNL     1     -12.336  11.502  68.067  1.00  0.00     0.656 C  
HETATM    3  C   UNL     1     -11.784  12.887  68.290  1.00  0.00    -0.390 C  
HETATM    4  C   UNL     1     -10.524  13.369  68.331  1.00  0.00    -0.257 C  
HETATM    5  C   UNL     1      -9.386  12.448  68.242  1.00  0.00    -0.199 C  
HETATM    6  O   UNL     1      -5.910   6.081  64.726  1.00  0.00    -0.024 OA 
HETATM    7  C   UNL     1      -9.006  12.332  66.721  1.00  0.00    -0.209 C  
HETATM    8  C   UNL     1     -11.884   6.157  67.490  1.00  0.00     1.873 C  
HETATM    9  C   UNL     1      -9.225  10.852  66.493  1.00  0.00    -0.189 C  
HETATM   10  C   UNL     1      -9.920  13.046  65.684  1.00  0.00    -0.239 C  
HETATM   11  C   UNL     1      -8.732  10.183  65.242  1.00  0.00    -0.180 C  
HETATM   12  C   UNL     1     -11.117   8.703  68.032  1.00  0.00     0.276 C  
HETATM   13  C   UNL     1     -11.219   7.394  66.905  1.00  0.00     0.504 C  
HETATM   14  C   UNL     1      -8.011   8.898  65.730  1.00  0.00    -0.101 C  
HETATM   15  C   UNL     1     -10.000   9.788  64.376  1.00  0.00     0.288 C  
HETATM   16  C   UNL     1     -10.708  10.877  63.615  1.00  0.00    -0.052 C  
HETATM   17  O   UNL     1      -9.979   6.868  66.138  1.00  0.00     0.029 OA 
HETATM   18  O   UNL     1      -9.521   4.721  66.911  1.00  0.00    -0.135 OA 
HETATM   19  C   UNL     1      -7.687   7.833  64.633  1.00  0.00    -0.121 C  
HETATM   20  C   UNL     1      -7.147   6.536  65.280  1.00  0.00    -0.061 C  
HETATM   21  H   UNL     1      -5.578   5.284  65.124  1.00  0.00     0.000 HD 
HETATM   22  C   UNL     1      -9.314   5.647  66.136  1.00  0.00    -0.153 C  
HETATM   23  O   UNL     1     -11.900  10.976  63.632  1.00  0.00     0.379 OA 
HETATM   24  C   UNL     1      -8.229   5.497  65.052  1.00  0.00    -0.139 C  
ENDROOT
BRANCH   5  25
HETATM   25  O   UNL     1      -8.415  12.610  69.292  1.00  0.00     0.533 OA 
BRANCH  25  26
HETATM   26  C   UNL     1      -7.159  13.086  68.734  1.00  0.00    -0.097 C  
HETATM   27  C   UNL     1      -7.262  16.017  68.571  1.00  0.00    -0.138 C  
HETATM   28  C   UNL     1      -7.333  15.132  69.878  1.00  0.00    -0.068 C  
HETATM   29  C   UNL     1      -7.960  15.128  67.471  1.00  0.00    -0.194 C  
HETATM   30  O   UNL     1      -6.546  13.962  69.673  1.00  0.00    -0.123 OA 
HETATM   31  C   UNL     1      -7.248  13.781  67.370  1.00  0.00    -0.107 C  
HETATM   32  C   UNL     1      -6.922  15.728  71.213  1.00  0.00     2.489 C  
BRANCH  27  33
HETATM   33  N   UNL     1      -5.942  16.488  68.127  1.00  0.00    -0.112 NA 
HETATM   34  C   UNL     1      -6.021  17.368  66.956  1.00  0.00    -0.156 C  
HETATM   35  C   UNL     1      -5.188  17.181  69.172  1.00  0.00    -0.145 C  
ENDBRANCH  27  33
ENDBRANCH  25  26
ENDBRANCH   5  25
BRANCH  14  36
HETATM   36  O   UNL     1      -7.316   8.841  67.012  1.00  0.00    -0.079 OA 
BRANCH  36  37
HETATM   37  C   UNL     1      -7.426   7.738  67.902  1.00  0.00    -0.104 C  
HETATM   38  C   UNL     1     -10.429   5.975  69.111  1.00  0.00    -0.321 C  
HETATM   39  C   UNL     1      -6.973   7.472  70.487  1.00  0.00    -0.052 C  
HETATM   40  C   UNL     1      -8.955   6.421  69.115  1.00  0.00    -0.129 C  
HETATM   41  O   UNL     1      -8.780   7.421  68.122  1.00  0.00    -0.123 OA 
HETATM   42  H   UNL     1      -4.626   8.028  69.590  1.00  0.00     0.000 HD 
HETATM   43  C   UNL     1      -6.561   8.049  69.119  1.00  0.00    -0.040 C  
HETATM   44  O   UNL     1      -5.164   7.834  68.832  1.00  0.00    -0.021 OA 
HETATM   45  C   UNL     1      -8.537   7.079  70.438  1.00  0.00    -0.142 C  
BRANCH  45  46
HETATM   46  O   UNL     1      -8.989   6.199  71.492  1.00  0.00    -0.142 OA 
BRANCH  46  47
HETATM   47  C   UNL     1      -8.952   4.863  71.034  1.00  0.00    -0.134 C  
HETATM   48  C   UNL     1      -8.261   4.796  69.686  1.00  0.00    -0.072 C  
HETATM   49  C   UNL     1      -7.405   2.020  72.552  1.00  0.00    -0.035 C  
HETATM   50  O   UNL     1      -8.561   3.930  71.997  1.00  0.00    -0.096 OA 
HETATM   51  H   UNL     1      -5.008   2.379  71.229  1.00  0.00     0.000 HD 
HETATM   52  C   UNL     1      -6.771   4.701  69.843  1.00  0.00    -0.037 C  
HETATM   53  C   UNL     1      -6.145   4.757  68.445  1.00  0.00    -0.031 C  
HETATM   54  O   UNL     1      -6.227   5.810  70.573  1.00  0.00    -0.028 OA 
HETATM   55  C   UNL     1      -6.547   3.396  70.599  1.00  0.00    -0.032 C  
HETATM   56  O   UNL     1      -5.147   3.191  70.757  1.00  0.00    -0.003 OA 
HETATM   57  H   UNL     1      -5.284   5.750  70.673  1.00  0.00     0.000 HD 
HETATM   58  C   UNL     1      -7.246   3.423  71.980  1.00  0.00    -0.050 C  
ENDBRANCH  46  47
ENDBRANCH  45  46
BRANCH  39  59
HETATM   59  N   UNL     1      -6.446   8.450  71.536  1.00  0.00    -0.052 NA 
HETATM   60  C   UNL     1      -5.541   8.005  72.563  1.00  0.00    -0.038 C  
HETATM   61  C   UNL     1      -6.402   9.896  71.410  1.00  0.00     0.205 C  
ENDBRANCH  39  59
ENDBRANCH  36  37
ENDBRANCH  14  36
BRANCH  19  62
HETATM   62  O   UNL     1      -6.954   8.176  63.465  1.00  0.00    -0.081 OA 
HETATM   63  C   UNL     1      -6.579   9.519  63.209  1.00  0.00    -0.101 C  
ENDBRANCH  19  62
TORSDOF 9
ENDMDL
MODEL       37
REMARK 921   NORMALIZED FREE ENERGY PREDICTED BY IDOCK:   19.25 KCAL/MOL
REMARK 922        TOTAL FREE ENERGY PREDICTED BY IDOCK:   26.74 KCAL/MOL
REMARK 923 INTER-LIGAND FREE ENERGY PREDICTED BY IDOCK:   20.86 KCAL/MOL
REMARK 924 INTRA-LIGAND FREE ENERGY PREDICTED BY IDOCK:    5.88 KCAL/MOL
REMARK 927      BINDING AFFINITY PREDICTED BY RF-SCORE:    0.00 PKD
ROOT
HETATM    1  C   UNL     1      -7.847  14.161  71.165  1.00  0.00     3.860 C  
HETATM    2  C   UNL     1      -6.496  13.894  71.302  1.00  0.00     0.682 C  
HETATM    3  C   UNL     1      -5.503  12.759  71.269  1.00  0.00    -0.091 C  
HETATM    4  C   UNL     1      -5.583  11.493  70.811  1.00  0.00    -0.111 C  
HETATM    5  C   UNL     1      -6.861  10.978  70.306  1.00  0.00     0.211 C  
HETATM    6  O   UNL     1     -13.477  12.089  65.838  1.00  0.00     3.029 OA 
HETATM    7  C   UNL     1      -6.888  11.254  68.759  1.00  0.00    -0.082 C  
HETATM    8  C   UNL     1     -11.414  16.026  70.694  1.00  0.00    -0.427 C  
HETATM    9  C   UNL     1      -8.101  12.154  68.660  1.00  0.00    -0.048 C  
HETATM   10  C   UNL     1      -5.718  12.073  68.143  1.00  0.00    -0.050 C  
HETATM   11  C   UNL     1      -8.714  12.479  67.329  1.00  0.00    -0.193 C  
HETATM   12  C   UNL     1      -9.508  14.101  70.850  1.00  0.00     4.059 C  
HETATM   13  C   UNL     1     -10.478  15.150  69.875  1.00  0.00    -0.216 C  
HETATM   14  C   UNL     1     -10.238  12.261  67.524  1.00  0.00    -0.204 C  
HETATM   15  C   UNL     1      -8.428  14.009  67.028  1.00  0.00    -0.168 C  
HETATM   16  C   UNL     1      -7.043  14.398  66.580  1.00  0.00     2.203 C  
HETATM   17  O   UNL     1     -11.338  14.622  68.698  1.00  0.00    -0.257 OA 
HETATM   18  O   UNL     1     -13.576  14.892  69.273  1.00  0.00     1.867 OA 
HETATM   19  C   UNL     1     -11.165  12.842  66.406  1.00  0.00    -0.299 C  
HETATM   20  C   UNL     1     -12.650  12.723  66.818  1.00  0.00     0.776 C  
HETATM   21  H   UNL     1     -14.390  12.017  66.091  1.00  0.00     0.000 HD 
HETATM   22  C   UNL     1     -12.707  14.597  68.461  1.00  0.00     0.770 C  
HETATM   23  O   UNL     1      -6.476  15.337  67.054  1.00  0.00    -0.250 OA 
HETATM   24  C   UNL     1     -13.117  14.148  67.045  1.00  0.00     1.796 C  
ENDROOT
BRANCH   5  25
HETATM   25  O   UNL     1      -7.265   9.729  70.896  1.00  0.00    -0.310 OA 
BRANCH  25  26
HETATM   26  C   UNL     1      -6.970   8.634  69.985  1.00  0.00    -0.043 C  
HETATM   27  C   UNL     1      -6.260   6.266  71.571  1.00  0.00    -0.041 C  
HETATM   28  C   UNL     1      -7.643   7.030  71.566  1.00  0.00    -0.089 C  
HETATM   29  C   UNL     1      -5.198   7.401  71.304  1.00  0.00    -0.027 C  
HETATM   30  O   UNL     1      -7.861   7.559  70.261  1.00  0.00    -0.091 OA 
HETATM   31  C   UNL     1      -5.527   8.117  69.996  1.00  0.00    -0.023 C  
HETATM   32  C   UNL     1      -8.909   6.298  71.977  1.00  0.00    -0.138 C  
BRANCH  27  33
HETATM   33  N   UNL     1      -6.091   5.139  70.642  1.00  0.00    -0.021 NA 
HETATM   34  C   UNL     1      -6.192   3.837  71.311  1.00  0.00    -0.015 C  
HETATM   35  C   UNL     1      -7.038   5.156  69.525  1.00  0.00    -0.056 C  
ENDBRANCH  27  33
ENDBRANCH  25  26
ENDBRANCH   5  25
BRANCH  14  36
HETATM   36  O   UNL     1     -10.764  11.253  68.438  1.00  0.00    -0.182 OA 
BRANCH  36  37
HETATM   37  C   UNL     1     -10.345   9.894  68.415  1.00  0.00    -0.198 C  
HETATM   38  C   UNL     1     -11.230   7.194  66.067  1.00  0.00     2.814 C  
HETATM   39  C   UNL     1     -10.829   7.844  70.003  1.00  0.00    -0.238 C  
HETATM   40  C   UNL     1     -10.706   7.812  67.376  1.00  0.00    -0.230 C  
HETATM   41  O   UNL     1     -10.975   9.206  67.360  1.00  0.00    -0.170 OA 
HETATM   42  H   UNL     1      -9.553   9.440  71.568  1.00  0.00     0.000 HD 
HETATM   43  C   UNL     1     -10.515   9.342  69.826  1.00  0.00    -0.222 C  
HETATM   44  O   UNL     1      -9.447   9.784  70.689  1.00  0.00    -0.196 OA 
HETATM   45  C   UNL     1     -11.426   7.269  68.619  1.00  0.00     0.576 C  
BRANCH  45  46
HETATM   46  O   UNL     1     -11.428   5.830  68.494  1.00  0.00     0.207 OA 
BRANCH  46  47
HETATM   47  C   UNL     1     -10.096   5.368  68.402  1.00  0.00    -0.173 C  
HETATM   48  C   UNL     1     -10.082   3.867  68.183  1.00  0.00     0.278 C  
HETATM   49  C   UNL     1      -7.578   6.261  66.027  1.00  0.00    -0.087 C  
HETATM   50  O   UNL     1      -9.269   6.138  67.580  1.00  0.00    -0.111 OA 
HETATM   51  H   UNL     1      -8.242   4.234  64.273  1.00  0.00     0.000 HD 
HETATM   52  C   UNL     1     -10.218   3.529  66.726  1.00  0.00     0.936 C  
HETATM   53  C   UNL     1     -10.315   2.004  66.604  1.00  0.00     2.569 C  
HETATM   54  O   UNL     1     -11.424   4.056  66.154  1.00  0.00     1.187 OA 
HETATM   55  C   UNL     1      -8.991   4.154  66.071  1.00  0.00    -0.126 C  
HETATM   56  O   UNL     1      -9.006   3.844  64.682  1.00  0.00    -0.121 OA 
HETATM   57  H   UNL     1     -11.510   3.843  65.232  1.00  0.00     0.000 HD 
HETATM   58  C   UNL     1      -8.966   5.687  66.280  1.00  0.00    -0.140 C  
ENDBRANCH  46  47
ENDBRANCH  45  46
BRANCH  39  59
HETATM   59  N   UNL     1     -11.620   7.727  71.305  1.00  0.00    -0.272 NA 
HETATM   60  C   UNL     1     -11.239   8.490  72.464  1.00  0.00    -0.266 C  
HETATM   61  C   UNL     1     -12.985   7.250  71.435  1.00  0.00    -0.373 C  
ENDBRANCH  39  59
ENDBRANCH  36  37
ENDBRANCH  14  36
BRANCH  19  62
HETATM   62  O   UNL     1     -10.974  12.502  65.040  1.00  0.00    -0.280 OA 
HETATM   63  C   UNL     1     -10.426  11.248  64.671  1.00  0.00    -0.325 C  
ENDBRANCH  19  62
TORSDOF 9
ENDMDL
MODEL       38
REMARK 921   NORMALIZED FREE ENERGY PREDICTED BY IDOCK:   20.14 KCAL/MOL
REMARK 922        TOTAL FREE ENERGY PREDICTED BY IDOCK:   28.11 KCAL/MOL
REMARK 923 INTER-LIGAND FREE ENERGY PREDICTED BY IDOCK:   13.11 KCAL/MOL
REMARK 924 INTRA-LIGAND FREE ENERGY PREDICTED BY IDOCK:   15.00 KCAL/MOL
REMARK 927      BINDING AFFINITY PREDICTED BY RF-SCORE:    0.00 PKD
ROOT
HETATM    1  C   UNL     1      -9.415   8.719  71.043  1.00  0.00    -0.287 C  
HETATM    2  C   UNL     1     -10.582   8.953  71.749  1.00  0.00    -0.432 C  
HETATM    3  C   UNL     1     -11.718   9.938  71.867  1.00  0.00     0.004 C  
HETATM    4  C   UNL     1     -12.148  10.932  71.063  1.00  0.00    -0.425 C  
HETATM    5  C   UNL     1     -11.390  11.273  69.854  1.00  0.00    -0.249 C  
HETATM    6  O   UNL     1      -7.417   8.846  63.274  1.00  0.00    -0.098 OA 
HETATM    7  C   UNL     1     -11.994  10.424  68.678  1.00  0.00     0.210 C  
HETATM    8  C   UNL     1      -6.111   6.991  69.454  1.00  0.00    -0.033 C  
HETATM    9  C   UNL     1     -10.782   9.615  68.270  1.00  0.00    -0.262 C  
HETATM   10  C   UNL     1     -13.090   9.375  69.023  1.00  0.00     4.911 C  
HETATM   11  C   UNL     1     -10.773   8.832  66.989  1.00  0.00    -0.186 C  
HETATM   12  C   UNL     1      -8.135   8.733  69.937  1.00  0.00    -0.109 C  
HETATM   13  C   UNL     1      -7.490   7.437  68.990  1.00  0.00    -0.100 C  
HETATM   14  C   UNL     1      -9.420   9.182  66.314  1.00  0.00    -0.237 C  
HETATM   15  C   UNL     1     -10.799   7.292  67.366  1.00  0.00    -0.317 C  
HETATM   16  C   UNL     1     -12.105   6.694  67.820  1.00  0.00     2.894 C  
HETATM   17  O   UNL     1      -7.396   7.511  67.444  1.00  0.00    -0.093 OA 
HETATM   18  O   UNL     1      -5.143   7.593  66.869  1.00  0.00    -0.022 OA 
HETATM   19  C   UNL     1      -8.985   8.260  65.128  1.00  0.00     0.109 C  
HETATM   20  C   UNL     1      -7.545   8.600  64.678  1.00  0.00    -0.111 C  
HETATM   21  H   UNL     1      -6.532   9.055  62.997  1.00  0.00     0.000 HD 
HETATM   22  C   UNL     1      -6.325   7.509  66.558  1.00  0.00    -0.045 C  
HETATM   23  O   UNL     1     -12.165   5.984  68.780  1.00  0.00     1.881 OA 
HETATM   24  C   UNL     1      -6.709   7.397  65.070  1.00  0.00    -0.044 C  
ENDROOT
BRANCH   5  25
HETATM   25  O   UNL     1     -11.068  12.671  69.739  1.00  0.00    -0.013 OA 
BRANCH  25  26
HETATM   26  C   UNL     1     -12.260  13.474  69.964  1.00  0.00    -0.312 C  
HETATM   27  C   UNL     1     -11.710  15.371  72.137  1.00  0.00    -0.462 C  
HETATM   28  C   UNL     1     -10.988  15.294  70.734  1.00  0.00    -0.272 C  
HETATM   29  C   UNL     1     -12.083  13.872  72.456  1.00  0.00     0.505 C  
HETATM   30  O   UNL     1     -11.930  14.844  69.765  1.00  0.00    -0.291 OA 
HETATM   31  C   UNL     1     -12.940  13.303  71.327  1.00  0.00    -0.353 C  
HETATM   32  C   UNL     1     -10.308  16.529  70.168  1.00  0.00     0.172 C  
BRANCH  27  33
HETATM   33  N   UNL     1     -12.877  16.257  72.264  1.00  0.00    -0.226 NA 
HETATM   34  C   UNL     1     -14.111  15.525  72.571  1.00  0.00    -0.506 C  
HETATM   35  C   UNL     1     -12.705  17.308  73.268  1.00  0.00     1.866 C  
ENDBRANCH  27  33
ENDBRANCH  25  26
ENDBRANCH   5  25
BRANCH  14  36
HETATM   36  O   UNL     1      -8.791  10.488  66.473  1.00  0.00    -0.140 OA 
BRANCH  36  37
HETATM   37  C   UNL     1      -9.081  11.358  67.560  1.00  0.00    -0.157 C  
HETATM   38  C   UNL     1      -9.559  15.014  67.589  1.00  0.00    -0.203 C  
HETATM   39  C   UNL     1      -7.678  12.137  69.654  1.00  0.00     0.967 C  
HETATM   40  C   UNL     1      -9.273  13.621  68.182  1.00  0.00    -0.204 C  
HETATM   41  O   UNL     1      -9.131  12.694  67.116  1.00  0.00    -0.195 OA 
HETATM   42  H   UNL     1      -7.912   9.610  70.080  1.00  0.00     0.000 HD 
HETATM   43  C   UNL     1      -8.110  11.019  68.686  1.00  0.00    -0.149 C  
HETATM   44  O   UNL     1      -8.517   9.821  69.379  1.00  0.00    -0.131 OA 
HETATM   45  C   UNL     1      -7.948  13.566  68.955  1.00  0.00     0.087 C  
BRANCH  45  46
HETATM   46  O   UNL     1      -7.947  14.703  69.846  1.00  0.00     0.107 OA 
BRANCH  46  47
HETATM   47  C   UNL     1      -6.627  15.188  69.984  1.00  0.00    -0.146 C  
HETATM   48  C   UNL     1      -5.890  15.067  68.664  1.00  0.00    -0.089 C  
HETATM   49  C   UNL     1      -5.534  18.469  70.890  1.00  0.00    -0.190 C  
HETATM   50  O   UNL     1      -6.524  16.405  70.661  1.00  0.00     0.487 OA 
HETATM   51  H   UNL     1      -5.427  19.362  68.280  1.00  0.00     0.000 HD 
HETATM   52  C   UNL     1      -6.152  16.256  67.785  1.00  0.00    -0.133 C  
HETATM   53  C   UNL     1      -5.472  16.001  66.435  1.00  0.00     1.512 C  
HETATM   54  O   UNL     1      -7.549  16.430  67.506  1.00  0.00    -0.131 OA 
HETATM   55  C   UNL     1      -5.606  17.443  68.571  1.00  0.00    -0.155 C  
HETATM   56  O   UNL     1      -5.767  18.622  67.790  1.00  0.00    -0.171 OA 
HETATM   57  H   UNL     1      -7.715  17.183  66.950  1.00  0.00     0.000 HD 
HETATM   58  C   UNL     1      -6.329  17.594  69.930  1.00  0.00    -0.035 C  
ENDBRANCH  46  47
ENDBRANCH  45  46
BRANCH  39  59
HETATM   59  N   UNL     1      -6.282  11.757  70.144  1.00  0.00    -0.145 NA 
HETATM   60  C   UNL     1      -5.393  10.996  69.306  1.00  0.00    -0.040 C  
HETATM   61  C   UNL     1      -5.543  12.413  71.208  1.00  0.00     0.082 C  
ENDBRANCH  39  59
ENDBRANCH  36  37
ENDBRANCH  14  36
BRANCH  19  62
HETATM   62  O   UNL     1      -9.840   8.037  64.015  1.00  0.00     3.109 OA 
HETATM   63  C   UNL     1      -9.321   7.573  62.779  1.00  0.00     2.112 C  
ENDBRANCH  19  62
TORSDOF 9
ENDMDL
MODEL       39
REMARK 921   NORMALIZED FREE ENERGY PREDICTED BY IDOCK:   20.49 KCAL/MOL
REMARK 922        TOTAL FREE ENERGY PREDICTED BY IDOCK:   28.63 KCAL/MOL
REMARK 923 INTER-LIGAND FREE ENERGY PREDICTED BY IDOCK:   14.48 KCAL/MOL
REMARK 924 INTRA-LIGAND FREE ENERGY PREDICTED BY IDOCK:   14.15 KCAL/MOL
REMARK 927      BINDING AFFINITY PREDICTED BY RF-SCORE:    0.00 PKD
ROOT
HETATM    1  C   UNL     1      -8.692  13.759  65.623  1.00  0.00     1.476 C  
HETATM    2  C   UNL     1      -9.311  14.992  65.511  1.00  0.00     0.086 C  
HETATM    3  C   UNL     1     -10.442  15.806  66.087  1.00  0.00    -0.326 C  
HETATM    4  C   UNL     1     -11.183  15.672  67.206  1.00  0.00    -0.184 C  
HETATM    5  C   UNL     1     -11.005  14.494  68.063  1.00  0.00    -0.260 C  
HETATM    6  O   UNL     1      -6.046   9.330  71.767  1.00  0.00    -0.133 OA 
HETATM    7  C   UNL     1      -9.928  14.870  69.144  1.00  0.00    -0.213 C  
HETATM    8  C   UNL     1      -6.072  10.682  65.324  1.00  0.00    -0.068 C  
HETATM    9  C   UNL     1      -8.858  13.844  68.837  1.00  0.00     0.107 C  
HETATM   10  C   UNL     1      -9.220  16.250  69.020  1.00  0.00    -0.253 C  
HETATM   11  C   UNL     1      -7.717  13.613  69.785  1.00  0.00     0.931 C  
HETATM   12  C   UNL     1      -8.162  12.227  66.105  1.00  0.00     0.478 C  
HETATM   13  C   UNL     1      -6.550  11.662  66.385  1.00  0.00     0.124 C  
HETATM   14  C   UNL     1      -7.627  12.070  69.935  1.00  0.00     1.335 C  
HETATM   15  C   UNL     1      -6.399  14.160  69.095  1.00  0.00    -0.106 C  
HETATM   16  C   UNL     1      -6.180  15.650  69.064  1.00  0.00    -0.113 C  
HETATM   17  O   UNL     1      -6.116  11.044  67.738  1.00  0.00    -0.046 OA 
HETATM   18  O   UNL     1      -5.670   8.788  67.381  1.00  0.00    -0.038 OA 
HETATM   19  C   UNL     1      -6.322  11.520  70.599  1.00  0.00     0.404 C  
HETATM   20  C   UNL     1      -6.281   9.976  70.513  1.00  0.00    -0.109 C  
HETATM   21  H   UNL     1      -6.021   8.381  71.714  1.00  0.00     0.000 HD 
HETATM   22  C   UNL     1      -5.671   9.778  68.103  1.00  0.00    -0.039 C  
HETATM   23  O   UNL     1      -5.829  16.207  68.066  1.00  0.00    -0.103 OA 
HETATM   24  C   UNL     1      -5.152   9.661  69.549  1.00  0.00    -0.035 C  
ENDROOT
BRANCH   5  25
HETATM   25  O   UNL     1     -12.229  13.801  68.370  1.00  0.00    -0.340 OA 
BRANCH  25  26
HETATM   26  C   UNL     1     -12.383  13.688  69.812  1.00  0.00    -0.228 C  
HETATM   27  C   UNL     1     -11.770  16.292  71.023  1.00  0.00    -0.277 C  
HETATM   28  C   UNL     1     -12.939  15.963  70.013  1.00  0.00     0.631 C  
HETATM   29  C   UNL     1     -10.610  15.314  70.595  1.00  0.00    -0.135 C  
HETATM   30  O   UNL     1     -13.367  14.624  70.240  1.00  0.00    -0.057 OA 
HETATM   31  C   UNL     1     -11.108  13.871  70.643  1.00  0.00     0.682 C  
HETATM   32  C   UNL     1     -14.180  16.839  69.986  1.00  0.00     8.049 C  
BRANCH  27  33
HETATM   33  N   UNL     1     -12.055  16.195  72.463  1.00  0.00    -0.525 NA 
HETATM   34  C   UNL     1     -10.955  16.702  73.291  1.00  0.00     2.822 C  
HETATM   35  C   UNL     1     -13.284  16.882  72.862  1.00  0.00     1.834 C  
ENDBRANCH  27  33
ENDBRANCH  25  26
ENDBRANCH   5  25
BRANCH  14  36
HETATM   36  O   UNL     1      -8.806  11.215  69.856  1.00  0.00     0.737 OA 
BRANCH  36  37
HETATM   37  C   UNL     1      -8.817   9.976  69.159  1.00  0.00    -0.168 C  
HETATM   38  C   UNL     1      -9.923   9.213  65.726  1.00  0.00    -0.145 C  
HETATM   39  C   UNL     1     -10.230   7.768  69.453  1.00  0.00    -0.208 C  
HETATM   40  C   UNL     1      -9.543   8.912  67.187  1.00  0.00    -0.172 C  
HETATM   41  O   UNL     1      -9.373  10.142  67.876  1.00  0.00    -0.140 OA 
HETATM   42  H   UNL     1      -8.916   7.859  71.665  1.00  0.00     0.000 HD 
HETATM   43  C   UNL     1      -9.452   8.941  70.080  1.00  0.00    -0.180 C  
HETATM   44  O   UNL     1      -8.520   8.503  71.090  1.00  0.00    -0.127 OA 
HETATM   45  C   UNL     1     -10.649   8.166  67.947  1.00  0.00    -0.147 C  
BRANCH  45  46
HETATM   46  O   UNL     1     -11.052   7.064  67.104  1.00  0.00    -0.350 OA 
BRANCH  46  47
HETATM   47  C   UNL     1      -9.902   6.432  66.580  1.00  0.00    -0.116 C  
HETATM   48  C   UNL     1      -8.880   6.219  67.680  1.00  0.00    -0.111 C  
HETATM   49  C   UNL     1      -9.632   3.238  64.996  1.00  0.00    -0.125 C  
HETATM   50  O   UNL     1     -10.168   5.348  65.740  1.00  0.00    -0.042 OA 
HETATM   51  H   UNL     1      -9.106   1.901  67.354  1.00  0.00     0.000 HD 
HETATM   52  C   UNL     1      -9.145   4.944  68.428  1.00  0.00    -0.114 C  
HETATM   53  C   UNL     1      -8.149   4.864  69.590  1.00  0.00    -0.073 C  
HETATM   54  O   UNL     1     -10.453   4.919  69.017  1.00  0.00    -0.102 OA 
HETATM   55  C   UNL     1      -9.005   3.847  67.379  1.00  0.00    -0.134 C  
HETATM   56  O   UNL     1      -9.193   2.584  68.008  1.00  0.00    -0.170 OA 
HETATM   57  H   UNL     1     -10.621   4.113  69.490  1.00  0.00     0.000 HD 
HETATM   58  C   UNL     1     -10.027   4.035  66.233  1.00  0.00    -0.105 C  
ENDBRANCH  46  47
ENDBRANCH  45  46
BRANCH  39  59
HETATM   59  N   UNL     1     -11.287   7.364  70.479  1.00  0.00    -0.278 NA 
HETATM   60  C   UNL     1     -10.917   7.081  71.840  1.00  0.00    -0.233 C  
HETATM   61  C   UNL     1     -12.714   7.619  70.380  1.00  0.00     0.581 C  
ENDBRANCH  39  59
ENDBRANCH  36  37
ENDBRANCH  14  36
BRANCH  19  62
HETATM   62  O   UNL     1      -5.890  11.982  71.871  1.00  0.00     0.143 OA 
HETATM   63  C   UNL     1      -5.942  13.360  72.202  1.00  0.00     0.894 C  
ENDBRANCH  19  62
TORSDOF 9
ENDMDL
MODEL       40
REMARK 921   NORMALIZED FREE ENERGY PREDICTED BY IDOCK:   23.08 KCAL/MOL
REMARK 922        TOTAL FREE ENERGY PREDICTED BY IDOCK:   32.60 KCAL/MOL
REMARK 923 INTER-LIGAND FREE ENERGY PREDICTED BY IDOCK:   17.27 KCAL/MOL
REMARK 924 INTRA-LIGAND FREE ENERGY PREDICTED BY IDOCK:   15.33 KCAL/MOL
REMARK 927      BINDING AFFINITY PREDICTED BY RF-SCORE:    0.00 PKD
ROOT
HETATM    1  C   UNL     1      -9.073  15.852  70.673  1.00  0.00     2.027 C  
HETATM    2  C   UNL     1      -8.211  14.965  71.294  1.00  0.00     3.398 C  
HETATM    3  C   UNL     1      -7.335  13.770  71.012  1.00  0.00     2.925 C  
HETATM    4  C   UNL     1      -6.863  13.237  69.866  1.00  0.00     0.313 C  
HETATM    5  C   UNL     1      -7.289  13.788  68.575  1.00  0.00    -0.117 C  
HETATM    6  O   UNL     1      -8.759  20.229  63.957  1.00  0.00     2.657 OA 
HETATM    7  C   UNL     1      -6.243  14.891  68.178  1.00  0.00    -0.144 C  
HETATM    8  C   UNL     1     -11.452  19.026  69.842  1.00  0.00     5.074 C  
HETATM    9  C   UNL     1      -7.137  16.111  68.114  1.00  0.00    -0.137 C  
HETATM   10  C   UNL     1      -5.134  15.250  69.208  1.00  0.00    -0.092 C  
HETATM   11  C   UNL     1      -6.650  17.393  67.502  1.00  0.00    -0.162 C  
HETATM   12  C   UNL     1      -9.967  16.771  69.569  1.00  0.00    -0.051 C  
HETATM   13  C   UNL     1     -10.092  18.490  69.421  1.00  0.00     0.137 C  
HETATM   14  C   UNL     1      -7.792  17.844  66.553  1.00  0.00    -0.264 C  
HETATM   15  C   UNL     1      -6.480  18.449  68.671  1.00  0.00    -0.237 C  
HETATM   16  C   UNL     1      -5.278  18.324  69.571  1.00  0.00    -0.192 C  
HETATM   17  O   UNL     1      -9.750  19.232  68.103  1.00  0.00    -0.322 OA 
HETATM   18  O   UNL     1     -11.726  20.116  67.250  1.00  0.00     0.847 OA 
HETATM   19  C   UNL     1      -7.712  19.316  66.032  1.00  0.00    -0.277 C  
HETATM   20  C   UNL     1      -8.998  19.688  65.259  1.00  0.00     1.207 C  
HETATM   21  H   UNL     1      -9.549  20.458  63.481  1.00  0.00     0.000 HD 
HETATM   22  C   UNL     1     -10.507  19.992  67.220  1.00  0.00    -0.366 C  
HETATM   23  O   UNL     1      -5.379  18.404  70.760  1.00  0.00    -0.250 OA 
HETATM   24  C   UNL     1      -9.701  20.717  66.125  1.00  0.00     0.033 C  
ENDROOT
BRANCH   5  25
HETATM   25  O   UNL     1      -7.791  12.803  67.653  1.00  0.00    -0.139 OA 
BRANCH  25  26
HETATM   26  C   UNL     1      -6.754  11.826  67.361  1.00  0.00    -0.120 C  
HETATM   27  C   UNL     1      -6.242  10.255  69.789  1.00  0.00    -0.060 C  
HETATM   28  C   UNL     1      -7.593  10.334  68.973  1.00  0.00    -0.102 C  
HETATM   29  C   UNL     1      -5.605  11.687  69.611  1.00  0.00    -0.076 C  
HETATM   30  O   UNL     1      -7.277  10.523  67.597  1.00  0.00    -0.084 OA 
HETATM   31  C   UNL     1      -5.436  11.993  68.125  1.00  0.00    -0.051 C  
HETATM   32  C   UNL     1      -8.592   9.193  69.058  1.00  0.00    -0.133 C  
BRANCH  27  33
HETATM   33  N   UNL     1      -5.287   9.192  69.442  1.00  0.00    -0.035 NA 
HETATM   34  C   UNL     1      -5.484   7.976  70.238  1.00  0.00    -0.023 C  
HETATM   35  C   UNL     1      -5.314   8.823  68.026  1.00  0.00    -0.035 C  
ENDBRANCH  27  33
ENDBRANCH  25  26
ENDBRANCH   5  25
BRANCH  14  36
HETATM   36  O   UNL     1      -8.647  16.885  65.861  1.00  0.00    -0.514 OA 
BRANCH  36  37
HETATM   37  C   UNL     1      -9.847  16.372  66.425  1.00  0.00    -0.294 C  
HETATM   38  C   UNL     1     -10.379  13.375  68.505  1.00  0.00    -0.240 C  
HETATM   39  C   UNL     1     -11.997  15.270  65.364  1.00  0.00     0.180 C  
HETATM   40  C   UNL     1     -10.772  14.535  67.572  1.00  0.00    -0.276 C  
HETATM   41  O   UNL     1      -9.589  15.169  67.111  1.00  0.00    -0.213 OA 
HETATM   42  H   UNL     1     -12.083  17.651  64.390  1.00  0.00     0.000 HD 
HETATM   43  C   UNL     1     -10.896  16.347  65.319  1.00  0.00    -0.258 C  
HETATM   44  O   UNL     1     -11.430  17.666  65.080  1.00  0.00    -0.055 OA 
HETATM   45  C   UNL     1     -11.502  14.059  66.308  1.00  0.00    -0.351 C  
BRANCH  45  46
HETATM   46  O   UNL     1     -12.538  13.155  66.751  1.00  0.00    -0.231 OA 
BRANCH  46  47
HETATM   47  C   UNL     1     -12.405  11.922  66.073  1.00  0.00     0.957 C  
HETATM   48  C   UNL     1     -11.753  12.142  64.721  1.00  0.00    -0.390 C  
HETATM   49  C   UNL     1     -10.581   9.011  67.062  1.00  0.00    -0.270 C  
HETATM   50  O   UNL     1     -11.908  10.879  66.857  1.00  0.00    -0.128 OA 
HETATM   51  H   UNL     1      -8.264   9.793  65.780  1.00  0.00     0.000 HD 
HETATM   52  C   UNL     1     -10.256  12.151  64.836  1.00  0.00    -0.280 C  
HETATM   53  C   UNL     1      -9.680  12.495  63.457  1.00  0.00     0.352 C  
HETATM   54  O   UNL     1      -9.784  13.167  65.734  1.00  0.00    -0.411 OA 
HETATM   55  C   UNL     1      -9.901  10.763  65.357  1.00  0.00    -0.262 C  
HETATM   56  O   UNL     1      -8.485  10.658  65.455  1.00  0.00    -0.168 OA 
HETATM   57  H   UNL     1      -8.837  13.173  65.806  1.00  0.00     0.000 HD 
HETATM   58  C   UNL     1     -10.557  10.498  66.733  1.00  0.00    -0.222 C  
ENDBRANCH  46  47
ENDBRANCH  45  46
BRANCH  39  59
HETATM   59  N   UNL     1     -12.401  15.016  63.913  1.00  0.00    -0.693 NA 
HETATM   60  C   UNL     1     -11.703  15.664  62.834  1.00  0.00     4.562 C  
HETATM   61  C   UNL     1     -13.147  13.871  63.422  1.00  0.00     1.822 C  
ENDBRANCH  39  59
ENDBRANCH  36  37
ENDBRANCH  14  36
BRANCH  19  62
HETATM   62  O   UNL     1      -6.550  19.804  65.375  1.00  0.00    -0.251 OA 
HETATM   63  C   UNL     1      -6.028  21.087  65.676  1.00  0.00    -0.246 C  
ENDBRANCH  19  62
TORSDOF 9
ENDMDL
MODEL       41
REMARK 921   NORMALIZED FREE ENERGY PREDICTED BY IDOCK:   23.56 KCAL/MOL
REMARK 922        TOTAL FREE ENERGY PREDICTED BY IDOCK:   33.33 KCAL/MOL
REMARK 923 INTER-LIGAND FREE ENERGY PREDICTED BY IDOCK:   20.64 KCAL/MOL
REMARK 924 INTRA-LIGAND FREE ENERGY PREDICTED BY IDOCK:   12.68 KCAL/MOL
REMARK 927      BINDING AFFINITY PREDICTED BY RF-SCORE:    0.00 PKD
ROOT
HETATM    1  C   UNL     1      -7.421   4.150  66.572  1.00  0.00    -0.084 C  
HETATM    2  C   UNL     1      -8.110   3.003  66.929  1.00  0.00    -0.080 C  
HETATM    3  C   UNL     1      -9.151   2.499  67.896  1.00  0.00    -0.230 C  
HETATM    4  C   UNL     1     -10.036   3.132  68.693  1.00  0.00     0.806 C  
HETATM    5  C   UNL     1     -10.017   4.596  68.787  1.00  0.00    -0.083 C  
HETATM    6  O   UNL     1      -9.527  11.751  65.108  1.00  0.00    -0.369 OA 
HETATM    7  C   UNL     1     -11.013   5.140  67.700  1.00  0.00     0.550 C  
HETATM    8  C   UNL     1      -5.143   6.865  64.609  1.00  0.00    -0.027 C  
HETATM    9  C   UNL     1     -10.070   5.958  66.845  1.00  0.00    -0.228 C  
HETATM   10  C   UNL     1     -11.663   4.115  66.727  1.00  0.00     6.702 C  
HETATM   11  C   UNL     1     -10.597   6.912  65.811  1.00  0.00     1.920 C  
HETATM   12  C   UNL     1      -6.862   5.734  66.378  1.00  0.00    -0.059 C  
HETATM   13  C   UNL     1      -6.614   6.638  64.924  1.00  0.00    -0.042 C  
HETATM   14  C   UNL     1      -9.803   8.227  66.036  1.00  0.00     0.046 C  
HETATM   15  C   UNL     1     -10.249   6.315  64.385  1.00  0.00     4.048 C  
HETATM   16  C   UNL     1     -11.081   5.169  63.872  1.00  0.00     2.480 C  
HETATM   17  O   UNL     1      -7.301   8.006  64.675  1.00  0.00    -0.075 OA 
HETATM   18  O   UNL     1      -5.649   9.644  64.674  1.00  0.00    -0.062 OA 
HETATM   19  C   UNL     1      -9.899   9.291  64.895  1.00  0.00     0.464 C  
HETATM   20  C   UNL     1      -8.919  10.457  65.159  1.00  0.00    -0.191 C  
HETATM   21  H   UNL     1      -8.924  12.468  65.270  1.00  0.00     0.000 HD 
HETATM   22  C   UNL     1      -6.812   9.296  64.506  1.00  0.00    -0.089 C  
HETATM   23  O   UNL     1     -10.575   4.205  63.377  1.00  0.00    -0.138 OA 
HETATM   24  C   UNL     1      -7.860  10.341  64.079  1.00  0.00    -0.114 C  
ENDROOT
BRANCH   5  25
HETATM   25  O   UNL     1      -9.964   5.097  70.136  1.00  0.00    -0.210 OA 
BRANCH  25  26
HETATM   26  C   UNL     1     -10.136   6.541  70.133  1.00  0.00    -0.174 C  
HETATM   27  C   UNL     1     -12.721   7.174  71.374  1.00  0.00    -0.391 C  
HETATM   28  C   UNL     1     -11.485   6.464  72.056  1.00  0.00    -0.305 C  
HETATM   29  C   UNL     1     -12.647   6.706  69.871  1.00  0.00     1.219 C  
HETATM   30  O   UNL     1     -10.292   6.983  71.477  1.00  0.00    -0.203 OA 
HETATM   31  C   UNL     1     -11.290   7.081  69.280  1.00  0.00    -0.047 C  
HETATM   32  C   UNL     1     -11.322   6.524  73.565  1.00  0.00     0.371 C  
BRANCH  27  33
HETATM   33  N   UNL     1     -12.821   8.638  71.480  1.00  0.00    -0.327 NA 
HETATM   34  C   UNL     1     -13.674   9.222  70.439  1.00  0.00     0.898 C  
HETATM   35  C   UNL     1     -13.306   9.097  72.782  1.00  0.00    -0.168 C  
ENDBRANCH  27  33
ENDBRANCH  25  26
ENDBRANCH   5  25
BRANCH  14  36
HETATM   36  O   UNL     1      -9.339   8.634  67.358  1.00  0.00    -0.140 OA 
BRANCH  36  37
HETATM   37  C   UNL     1      -7.969   8.612  67.738  1.00  0.00    -0.107 C  
HETATM   38  C   UNL     1      -6.127   6.150  69.772  1.00  0.00    -0.026 C  
HETATM   39  C   UNL     1      -6.536  10.118  69.362  1.00  0.00    -0.054 C  
HETATM   40  C   UNL     1      -6.391   7.506  69.091  1.00  0.00    -0.035 C  
HETATM   41  O   UNL     1      -7.709   7.501  68.563  1.00  0.00    -0.114 OA 
HETATM   42  H   UNL     1      -7.223  11.802  67.540  1.00  0.00     0.000 HD 
HETATM   43  C   UNL     1      -7.624   9.995  68.278  1.00  0.00    -0.084 C  
HETATM   44  O   UNL     1      -7.437  10.940  67.204  1.00  0.00    -0.099 OA 
HETATM   45  C   UNL     1      -6.347   8.684  70.076  1.00  0.00    -0.034 C  
BRANCH  45  46
HETATM   46  O   UNL     1      -5.134   8.528  70.844  1.00  0.00    -0.025 OA 
BRANCH  46  47
HETATM   47  C   UNL     1      -5.451   8.514  72.221  1.00  0.00    -0.047 C  
HETATM   48  C   UNL     1      -6.793   9.182  72.451  1.00  0.00     0.316 C  
HETATM   49  C   UNL     1      -5.894   5.703  74.385  1.00  0.00    -0.057 C  
HETATM   50  O   UNL     1      -5.234   7.288  72.854  1.00  0.00    -0.037 OA 
HETATM   51  H   UNL     1      -8.609   5.526  73.914  1.00  0.00     0.000 HD 
HETATM   52  C   UNL     1      -7.923   8.212  72.261  1.00  0.00    -0.135 C  
HETATM   53  C   UNL     1      -9.238   8.988  72.393  1.00  0.00     0.361 C  
HETATM   54  O   UNL     1      -7.928   7.631  70.948  1.00  0.00    -0.092 OA 
HETATM   55  C   UNL     1      -7.694   7.143  73.323  1.00  0.00    -0.085 C  
HETATM   56  O   UNL     1      -8.752   6.192  73.253  1.00  0.00    -0.124 OA 
HETATM   57  H   UNL     1      -8.643   7.017  70.828  1.00  0.00     0.000 HD 
HETATM   58  C   UNL     1      -6.328   6.442  73.126  1.00  0.00    -0.063 C  
ENDBRANCH  46  47
ENDBRANCH  45  46
BRANCH  39  59
HETATM   59  N   UNL     1      -6.891  11.358  70.180  1.00  0.00    -0.056 NA 
HETATM   60  C   UNL     1      -6.030  11.805  71.243  1.00  0.00     0.720 C  
HETATM   61  C   UNL     1      -7.791  12.422  69.772  1.00  0.00     1.538 C  
ENDBRANCH  39  59
ENDBRANCH  36  37
ENDBRANCH  14  36
BRANCH  19  62
HETATM   62  O   UNL     1     -11.156   9.762  64.430  1.00  0.00     2.753 OA 
HETATM   63  C   UNL     1     -11.245  10.921  63.618  1.00  0.00     0.562 C  
ENDBRANCH  19  62
TORSDOF 9
ENDMDL
MODEL       42
REMARK 921   NORMALIZED FREE ENERGY PREDICTED BY IDOCK:   24.67 KCAL/MOL
REMARK 922        TOTAL FREE ENERGY PREDICTED BY IDOCK:   35.02 KCAL/MOL
REMARK 923 INTER-LIGAND FREE ENERGY PREDICTED BY IDOCK:   17.22 KCAL/MOL
REMARK 924 INTRA-LIGAND FREE ENERGY PREDICTED BY IDOCK:   17.80 KCAL/MOL
REMARK 927      BINDING AFFINITY PREDICTED BY RF-SCORE:    0.00 PKD
ROOT
HETATM    1  C   UNL     1      -9.890   4.019  69.135  1.00  0.00    -0.072 C  
HETATM    2  C   UNL     1      -9.452   3.064  70.036  1.00  0.00    -0.195 C  
HETATM    3  C   UNL     1      -8.328   2.769  70.997  1.00  0.00    -0.083 C  
HETATM    4  C   UNL     1      -7.362   3.543  71.533  1.00  0.00    -0.043 C  
HETATM    5  C   UNL     1      -7.224   4.940  71.107  1.00  0.00    -0.056 C  
HETATM    6  O   UNL     1     -10.691  11.998  69.338  1.00  0.00    -0.440 OA 
HETATM    7  C   UNL     1      -8.092   5.808  72.088  1.00  0.00    -0.108 C  
HETATM    8  C   UNL     1     -12.146   6.204  66.574  1.00  0.00     3.070 C  
HETATM    9  C   UNL     1      -9.077   6.421  71.117  1.00  0.00    -0.150 C  
HETATM   10  C   UNL     1      -8.963   5.067  73.143  1.00  0.00    -0.117 C  
HETATM   11  C   UNL     1      -9.965   7.559  71.534  1.00  0.00    -0.197 C  
HETATM   12  C   UNL     1     -10.131   5.416  68.212  1.00  0.00    -0.225 C  
HETATM   13  C   UNL     1     -11.575   6.339  67.978  1.00  0.00     0.769 C  
HETATM   14  C   UNL     1      -9.845   8.601  70.391  1.00  0.00    -0.183 C  
HETATM   15  C   UNL     1     -11.450   7.010  71.603  1.00  0.00    -0.299 C  
HETATM   16  C   UNL     1     -11.840   6.162  72.786  1.00  0.00     0.006 C  
HETATM   17  O   UNL     1     -11.648   7.853  68.305  1.00  0.00     0.953 OA 
HETATM   18  O   UNL     1     -11.897   9.004  66.298  1.00  0.00     3.784 OA 
HETATM   19  C   UNL     1     -10.914   9.743  70.387  1.00  0.00    -0.312 C  
HETATM   20  C   UNL     1     -10.795  10.592  69.100  1.00  0.00    -0.237 C  
HETATM   21  H   UNL     1     -10.619  12.520  68.547  1.00  0.00     0.000 HD 
HETATM   22  C   UNL     1     -11.861   8.982  67.522  1.00  0.00     3.380 C  
HETATM   23  O   UNL     1     -12.450   5.143  72.648  1.00  0.00     0.142 OA 
HETATM   24  C   UNL     1     -12.054  10.294  68.308  1.00  0.00     1.099 C  
ENDROOT
BRANCH   5  25
HETATM   25  O   UNL     1      -5.892   5.299  70.696  1.00  0.00    -0.019 OA 
BRANCH  25  26
HETATM   26  C   UNL     1      -5.452   4.422  69.622  1.00  0.00    -0.008 C  
HETATM   27  C   UNL     1      -7.229   4.809  67.316  1.00  0.00    -0.073 C  
HETATM   28  C   UNL     1      -6.281   5.885  67.979  1.00  0.00    -0.028 C  
HETATM   29  C   UNL     1      -7.669   3.894  68.522  1.00  0.00    -0.061 C  
HETATM   30  O   UNL     1      -5.129   5.219  68.488  1.00  0.00     0.000 OA 
HETATM   31  C   UNL     1      -6.432   3.318  69.210  1.00  0.00    -0.033 C  
HETATM   32  C   UNL     1      -5.797   7.069  67.160  1.00  0.00    -0.018 C  
BRANCH  27  33
HETATM   33  N   UNL     1      -6.695   4.013  66.201  1.00  0.00    -0.048 NA 
HETATM   34  C   UNL     1      -7.618   2.959  65.767  1.00  0.00    -0.073 C  
HETATM   35  C   UNL     1      -6.333   4.816  65.032  1.00  0.00    -0.035 C  
ENDBRANCH  27  33
ENDBRANCH  25  26
ENDBRANCH   5  25
BRANCH  14  36
HETATM   36  O   UNL     1      -8.618   8.767  69.620  1.00  0.00    -0.125 OA 
BRANCH  36  37
HETATM   37  C   UNL     1      -8.116  10.039  69.230  1.00  0.00    -0.141 C  
HETATM   38  C   UNL     1      -8.830  13.380  70.614  1.00  0.00     6.151 C  
HETATM   39  C   UNL     1      -8.473  11.523  67.079  1.00  0.00    -0.164 C  
HETATM   40  C   UNL     1      -8.347  12.358  69.569  1.00  0.00     1.377 C  
HETATM   41  O   UNL     1      -8.701  11.055  70.010  1.00  0.00     0.779 OA 
HETATM   42  H   UNL     1      -7.300   9.449  66.106  1.00  0.00     0.000 HD 
HETATM   43  C   UNL     1      -8.253  10.137  67.715  1.00  0.00    -0.110 C  
HETATM   44  O   UNL     1      -7.214   9.388  67.050  1.00  0.00    -0.085 OA 
HETATM   45  C   UNL     1      -9.033  12.531  68.207  1.00  0.00    -0.178 C  
BRANCH  45  46
HETATM   46  O   UNL     1      -8.945  13.936  67.881  1.00  0.00    -0.173 OA 
BRANCH  46  47
HETATM   47  C   UNL     1     -10.194  14.551  68.122  1.00  0.00    -0.230 C  
HETATM   48  C   UNL     1     -10.063  16.057  68.000  1.00  0.00    -0.240 C  
HETATM   49  C   UNL     1     -13.265  14.152  66.335  1.00  0.00     1.245 C  
HETATM   50  O   UNL     1     -11.273  13.951  67.467  1.00  0.00    -0.284 OA 
HETATM   51  H   UNL     1     -12.746  16.235  64.598  1.00  0.00     0.000 HD 
HETATM   52  C   UNL     1     -10.207  16.501  66.573  1.00  0.00    -0.300 C  
HETATM   53  C   UNL     1      -9.945  18.010  66.521  1.00  0.00    -0.371 C  
HETATM   54  O   UNL     1      -9.234  15.893  65.712  1.00  0.00    -0.318 OA 
HETATM   55  C   UNL     1     -11.618  16.076  66.179  1.00  0.00     0.633 C  
HETATM   56  O   UNL     1     -11.868  16.500  64.844  1.00  0.00     0.166 OA 
HETATM   57  H   UNL     1      -9.325  16.174  64.809  1.00  0.00     0.000 HD 
HETATM   58  C   UNL     1     -11.793  14.543  66.299  1.00  0.00    -0.344 C  
ENDBRANCH  46  47
ENDBRANCH  45  46
BRANCH  39  59
HETATM   59  N   UNL     1      -9.257  11.278  65.790  1.00  0.00    -0.217 NA 
HETATM   60  C   UNL     1     -10.026  12.336  65.189  1.00  0.00    -0.215 C  
HETATM   61  C   UNL     1      -9.013  10.216  64.831  1.00  0.00    -0.197 C  
ENDBRANCH  39  59
ENDBRANCH  36  37
ENDBRANCH  14  36
BRANCH  19  62
HETATM   62  O   UNL     1     -11.126  10.559  71.532  1.00  0.00     0.474 OA 
HETATM   63  C   UNL     1     -12.337  11.275  71.702  1.00  0.00    -0.002 C  
ENDBRANCH  19  62
TORSDOF 9
ENDMDL
MODEL       43
REMARK 921   NORMALIZED FREE ENERGY PREDICTED BY IDOCK:   24.83 KCAL/MOL
REMARK 922        TOTAL FREE ENERGY PREDICTED BY IDOCK:   35.26 KCAL/MOL
REMARK 923 INTER-LIGAND FREE ENERGY PREDICTED BY IDOCK:   12.62 KCAL/MOL
REMARK 924 INTRA-LIGAND FREE ENERGY PREDICTED BY IDOCK:   22.64 KCAL/MOL
REMARK 927      BINDING AFFINITY PREDICTED BY RF-SCORE:    0.00 PKD
ROOT
HETATM    1  C   UNL     1      -9.890   4.019  69.135  1.00  0.00    -0.072 C  
HETATM    2  C   UNL     1      -9.452   3.064  70.036  1.00  0.00    -0.195 C  
HETATM    3  C   UNL     1      -8.328   2.769  70.997  1.00  0.00    -0.083 C  
HETATM    4  C   UNL     1      -7.362   3.543  71.533  1.00  0.00    -0.043 C  
HETATM    5  C   UNL     1      -7.224   4.940  71.107  1.00  0.00    -0.056 C  
HETATM    6  O   UNL     1     -10.691  11.998  69.338  1.00  0.00    -0.440 OA 
HETATM    7  C   UNL     1      -8.092   5.808  72.088  1.00  0.00    -0.108 C  
HETATM    8  C   UNL     1     -12.146   6.204  66.574  1.00  0.00     3.070 C  
HETATM    9  C   UNL     1      -9.077   6.421  71.117  1.00  0.00    -0.150 C  
HETATM   10  C   UNL     1      -8.963   5.067  73.143  1.00  0.00    -0.117 C  
HETATM   11  C   UNL     1      -9.965   7.559  71.534  1.00  0.00    -0.197 C  
HETATM   12  C   UNL     1     -10.131   5.416  68.212  1.00  0.00    -0.225 C  
HETATM   13  C   UNL     1     -11.575   6.339  67.978  1.00  0.00     0.769 C  
HETATM   14  C   UNL     1      -9.845   8.601  70.391  1.00  0.00    -0.183 C  
HETATM   15  C   UNL     1     -11.450   7.010  71.603  1.00  0.00    -0.299 C  
HETATM   16  C   UNL     1     -11.840   6.162  72.786  1.00  0.00     0.006 C  
HETATM   17  O   UNL     1     -11.648   7.853  68.305  1.00  0.00     0.953 OA 
HETATM   18  O   UNL     1     -11.897   9.004  66.298  1.00  0.00     3.784 OA 
HETATM   19  C   UNL     1     -10.914   9.743  70.387  1.00  0.00    -0.312 C  
HETATM   20  C   UNL     1     -10.795  10.592  69.100  1.00  0.00    -0.237 C  
HETATM   21  H   UNL     1     -10.619  12.520  68.547  1.00  0.00     0.000 HD 
HETATM   22  C   UNL     1     -11.861   8.982  67.522  1.00  0.00     3.380 C  
HETATM   23  O   UNL     1     -12.450   5.143  72.648  1.00  0.00     0.142 OA 
HETATM   24  C   UNL     1     -12.054  10.294  68.308  1.00  0.00     1.099 C  
ENDROOT
BRANCH   5  25
HETATM   25  O   UNL     1      -5.892   5.299  70.696  1.00  0.00    -0.019 OA 
BRANCH  25  26
HETATM   26  C   UNL     1      -5.452   4.422  69.622  1.00  0.00    -0.008 C  
HETATM   27  C   UNL     1      -7.229   4.809  67.316  1.00  0.00    -0.073 C  
HETATM   28  C   UNL     1      -6.281   5.885  67.979  1.00  0.00    -0.028 C  
HETATM   29  C   UNL     1      -7.669   3.894  68.522  1.00  0.00    -0.061 C  
HETATM   30  O   UNL     1      -5.129   5.219  68.488  1.00  0.00     0.000 OA 
HETATM   31  C   UNL     1      -6.432   3.318  69.210  1.00  0.00    -0.033 C  
HETATM   32  C   UNL     1      -5.797   7.069  67.160  1.00  0.00    -0.018 C  
BRANCH  27  33
HETATM   33  N   UNL     1      -6.695   4.013  66.201  1.00  0.00    -0.048 NA 
HETATM   34  C   UNL     1      -5.687   3.039  66.634  1.00  0.00    -0.022 C  
HETATM   35  C   UNL     1      -7.726   3.301  65.445  1.00  0.00    -0.081 C  
ENDBRANCH  27  33
ENDBRANCH  25  26
ENDBRANCH   5  25
BRANCH  14  36
HETATM   36  O   UNL     1      -8.618   8.767  69.620  1.00  0.00    -0.125 OA 
BRANCH  36  37
HETATM   37  C   UNL     1      -8.116  10.039  69.230  1.00  0.00    -0.141 C  
HETATM   38  C   UNL     1      -9.321  13.414  70.092  1.00  0.00     3.362 C  
HETATM   39  C   UNL     1      -8.061  11.311  66.920  1.00  0.00    -0.155 C  
HETATM   40  C   UNL     1      -8.553  12.352  69.284  1.00  0.00     0.900 C  
HETATM   41  O   UNL     1      -8.921  11.066  69.759  1.00  0.00     0.382 OA 
HETATM   42  H   UNL     1      -6.577   9.265  66.436  1.00  0.00     0.000 HD 
HETATM   43  C   UNL     1      -7.910  10.003  67.720  1.00  0.00    -0.094 C  
HETATM   44  O   UNL     1      -6.705   9.287  67.377  1.00  0.00    -0.067 OA 
HETATM   45  C   UNL     1      -8.921  12.360  67.793  1.00  0.00    -0.182 C  
BRANCH  45  46
HETATM   46  O   UNL     1      -8.844  13.737  67.361  1.00  0.00    -0.188 OA 
BRANCH  46  47
HETATM   47  C   UNL     1      -7.498  14.165  67.402  1.00  0.00    -0.134 C  
HETATM   48  C   UNL     1      -7.367  15.526  66.746  1.00  0.00     0.101 C  
HETATM   49  C   UNL     1      -5.425  14.762  70.253  1.00  0.00    -0.119 C  
HETATM   50  O   UNL     1      -6.870  13.991  68.637  1.00  0.00    -0.089 OA 
HETATM   51  H   UNL     1      -6.120  17.428  70.438  1.00  0.00     0.000 HD 
HETATM   52  C   UNL     1      -7.665  16.629  67.719  1.00  0.00    -0.163 C  
HETATM   53  C   UNL     1      -7.628  17.956  66.953  1.00  0.00    -0.236 C  
HETATM   54  O   UNL     1      -8.984  16.523  68.277  1.00  0.00    -0.202 OA 
HETATM   55  C   UNL     1      -6.606  16.480  68.806  1.00  0.00    -0.161 C  
HETATM   56  O   UNL     1      -6.779  17.522  69.761  1.00  0.00    -0.115 OA 
HETATM   57  H   UNL     1      -9.173  17.221  68.893  1.00  0.00     0.000 HD 
HETATM   58  C   UNL     1      -6.703  15.098  69.495  1.00  0.00    -0.171 C  
ENDBRANCH  46  47
ENDBRANCH  45  46
BRANCH  39  59
HETATM   59  N   UNL     1      -8.515  10.902  65.520  1.00  0.00    -0.153 NA 
HETATM   60  C   UNL     1      -8.236   9.583  65.015  1.00  0.00    -0.136 C  
HETATM   61  C   UNL     1      -9.572  11.530  64.747  1.00  0.00    -0.174 C  
ENDBRANCH  39  59
ENDBRANCH  36  37
ENDBRANCH  14  36
BRANCH  19  62
HETATM   62  O   UNL     1     -11.126  10.559  71.532  1.00  0.00     0.474 OA 
HETATM   63  C   UNL     1     -12.389  11.152  71.780  1.00  0.00     0.115 C  
ENDBRANCH  19  62
TORSDOF 9
ENDMDL
MODEL       44
REMARK 921   NORMALIZED FREE ENERGY PREDICTED BY IDOCK:   26.07 KCAL/MOL
REMARK 922        TOTAL FREE ENERGY PREDICTED BY IDOCK:   37.15 KCAL/MOL
REMARK 923 INTER-LIGAND FREE ENERGY PREDICTED BY IDOCK:   36.82 KCAL/MOL
REMARK 924 INTRA-LIGAND FREE ENERGY PREDICTED BY IDOCK:    0.33 KCAL/MOL
REMARK 927      BINDING AFFINITY PREDICTED BY RF-SCORE:    0.00 PKD
ROOT
HETATM    1  C   UNL     1     -11.456   7.977  67.356  1.00  0.00     1.411 C  
HETATM    2  C   UNL     1     -11.337   7.301  66.154  1.00  0.00     2.860 C  
HETATM    3  C   UNL     1     -10.407   7.124  64.981  1.00  0.00     4.248 C  
HETATM    4  C   UNL     1      -9.107   7.435  64.794  1.00  0.00     0.873 C  
HETATM    5  C   UNL     1      -8.376   8.169  65.833  1.00  0.00    -0.132 C  
HETATM    6  O   UNL     1      -6.605   9.184  73.631  1.00  0.00    -0.328 OA 
HETATM    7  C   UNL     1      -7.709   7.098  66.770  1.00  0.00    -0.098 C  
HETATM    8  C   UNL     1     -12.653   9.194  71.031  1.00  0.00    -0.211 C  
HETATM    9  C   UNL     1      -8.368   7.436  68.090  1.00  0.00    -0.124 C  
HETATM   10  C   UNL     1      -8.040   5.599  66.518  1.00  0.00    -0.105 C  
HETATM   11  C   UNL     1      -7.856   6.859  69.378  1.00  0.00    -0.113 C  
HETATM   12  C   UNL     1     -11.199   8.884  68.761  1.00  0.00     0.325 C  
HETATM   13  C   UNL     1     -11.479   8.450  70.412  1.00  0.00    -0.125 C  
HETATM   14  C   UNL     1      -7.767   8.065  70.351  1.00  0.00    -0.085 C  
HETATM   15  C   UNL     1      -8.937   5.826  69.905  1.00  0.00    -0.139 C  
HETATM   16  C   UNL     1      -9.017   4.478  69.237  1.00  0.00    -0.096 C  
HETATM   17  O   UNL     1     -10.356   8.497  71.479  1.00  0.00    -0.211 OA 
HETATM   18  O   UNL     1     -10.874  10.195  72.984  1.00  0.00     4.855 OA 
HETATM   19  C   UNL     1      -7.583   7.715  71.864  1.00  0.00    -0.083 C  
HETATM   20  C   UNL     1      -7.700   8.989  72.732  1.00  0.00     0.610 C  
HETATM   21  H   UNL     1      -6.677   9.966  74.165  1.00  0.00     0.000 HD 
HETATM   22  C   UNL     1     -10.178   9.249  72.635  1.00  0.00     1.478 C  
HETATM   23  O   UNL     1     -10.066   4.003  68.917  1.00  0.00     0.046 OA 
HETATM   24  C   UNL     1      -8.988   8.820  73.516  1.00  0.00     0.586 C  
ENDROOT
BRANCH   5  25
HETATM   25  O   UNL     1      -7.690   9.339  65.351  1.00  0.00    -0.096 OA 
BRANCH  25  26
HETATM   26  C   UNL     1      -7.963  10.468  66.228  1.00  0.00    -0.144 C  
HETATM   27  C   UNL     1      -9.348  12.540  64.675  1.00  0.00     0.530 C  
HETATM   28  C   UNL     1      -9.861  11.077  64.984  1.00  0.00    -0.269 C  
HETATM   29  C   UNL     1      -7.782  12.382  64.583  1.00  0.00     4.789 C  
HETATM   30  O   UNL     1      -9.368  10.687  66.262  1.00  0.00    -0.164 OA 
HETATM   31  C   UNL     1      -7.248  11.779  65.881  1.00  0.00     0.844 C  
HETATM   32  C   UNL     1     -11.351  10.782  64.961  1.00  0.00     0.605 C  
BRANCH  27  33
HETATM   33  N   UNL     1      -9.730  13.615  65.603  1.00  0.00    -0.159 NA 
HETATM   34  C   UNL     1      -8.833  14.773  65.523  1.00  0.00     1.331 C  
HETATM   35  C   UNL     1     -11.104  14.084  65.418  1.00  0.00    -0.318 C  
ENDBRANCH  27  33
ENDBRANCH  25  26
ENDBRANCH   5  25
BRANCH  14  36
HETATM   36  O   UNL     1      -7.463   9.413  69.885  1.00  0.00    -0.075 OA 
BRANCH  36  37
HETATM   37  C   UNL     1      -8.088  10.574  70.418  1.00  0.00     1.025 C  
HETATM   38  C   UNL     1     -10.825  12.621  69.036  1.00  0.00    -0.192 C  
HETATM   39  C   UNL     1      -7.247  13.046  70.796  1.00  0.00     3.215 C  
HETATM   40  C   UNL     1      -9.617  12.299  69.935  1.00  0.00     2.528 C  
HETATM   41  O   UNL     1      -9.062  11.059  69.524  1.00  0.00     0.098 OA 
HETATM   42  H   UNL     1      -5.709  11.714  72.372  1.00  0.00     0.000 HD 
HETATM   43  C   UNL     1      -6.980  11.530  70.849  1.00  0.00     2.507 C  
HETATM   44  O   UNL     1      -6.399  11.119  72.104  1.00  0.00     1.447 OA 
HETATM   45  C   UNL     1      -8.482  13.324  69.796  1.00  0.00     2.064 C  
BRANCH  45  46
HETATM   46  O   UNL     1      -9.093  14.628  69.912  1.00  0.00     0.318 OA 
BRANCH  46  47
HETATM   47  C   UNL     1      -9.473  15.082  68.630  1.00  0.00    -0.212 C  
HETATM   48  C   UNL     1     -10.973  15.295  68.578  1.00  0.00    -0.266 C  
HETATM   49  C   UNL     1      -8.467  18.058  66.923  1.00  0.00    -0.262 C  
HETATM   50  O   UNL     1      -8.668  16.100  68.112  1.00  0.00    -0.171 OA 
HETATM   51  H   UNL     1     -10.564  19.561  67.908  1.00  0.00     0.000 HD 
HETATM   52  C   UNL     1     -11.346  16.658  69.086  1.00  0.00    -0.051 C  
HETATM   53  C   UNL     1     -12.876  16.749  69.113  1.00  0.00     3.617 C  
HETATM   54  O   UNL     1     -10.906  16.878  70.434  1.00  0.00    -0.265 OA 
HETATM   55  C   UNL     1     -10.658  17.626  68.129  1.00  0.00    -0.356 C  
HETATM   56  O   UNL     1     -10.993  18.958  68.504  1.00  0.00     0.253 OA 
HETATM   57  H   UNL     1     -11.142  17.740  70.755  1.00  0.00     0.000 HD 
HETATM   58  C   UNL     1      -9.123  17.433  68.148  1.00  0.00    -0.267 C  
ENDBRANCH  46  47
ENDBRANCH  45  46
BRANCH  39  59
HETATM   59  N   UNL     1      -5.890  13.708  70.565  1.00  0.00    -0.167 NA 
HETATM   60  C   UNL     1      -5.439  14.009  69.231  1.00  0.00    -0.082 C  
HETATM   61  C   UNL     1      -5.133  14.469  71.543  1.00  0.00    -0.150 C  
ENDBRANCH  39  59
ENDBRANCH  36  37
ENDBRANCH  14  36
BRANCH  19  62
HETATM   62  O   UNL     1      -6.520   6.881  72.304  1.00  0.00    -0.055 OA 
HETATM   63  C   UNL     1      -6.781   5.623  72.903  1.00  0.00    -0.073 C  
ENDBRANCH  19  62
TORSDOF 9
ENDMDL
MODEL       45
REMARK 921   NORMALIZED FREE ENERGY PREDICTED BY IDOCK:   26.64 KCAL/MOL
REMARK 922        TOTAL FREE ENERGY PREDICTED BY IDOCK:   38.03 KCAL/MOL
REMARK 923 INTER-LIGAND FREE ENERGY PREDICTED BY IDOCK:    8.62 KCAL/MOL
REMARK 924 INTRA-LIGAND FREE ENERGY PREDICTED BY IDOCK:   29.41 KCAL/MOL
REMARK 927      BINDING AFFINITY PREDICTED BY RF-SCORE:    0.00 PKD
ROOT
HETATM    1  C   UNL     1      -8.688  11.161  64.997  1.00  0.00     0.040 C  
HETATM    2  C   UNL     1      -7.523  10.958  64.277  1.00  0.00     0.514 C  
HETATM    3  C   UNL     1      -6.025  11.080  64.389  1.00  0.00     0.563 C  
HETATM    4  C   UNL     1      -5.200  11.236  65.444  1.00  0.00     0.228 C  
HETATM    5  C   UNL     1      -5.760  11.425  66.787  1.00  0.00    -0.131 C  
HETATM    6  O   UNL     1     -11.125   9.262  72.401  1.00  0.00     0.034 OA 
HETATM    7  C   UNL     1      -5.885   9.999  67.437  1.00  0.00    -0.053 C  
HETATM    8  C   UNL     1     -12.542  11.128  66.249  1.00  0.00     4.164 C  
HETATM    9  C   UNL     1      -7.379   9.931  67.669  1.00  0.00    -0.090 C  
HETATM   10  C   UNL     1      -5.550   8.762  66.555  1.00  0.00    -0.046 C  
HETATM   11  C   UNL     1      -7.978   8.855  68.530  1.00  0.00    -0.104 C  
HETATM   12  C   UNL     1      -9.847  11.447  66.195  1.00  0.00    -0.255 C  
HETATM   13  C   UNL     1     -11.218  10.491  66.645  1.00  0.00     0.209 C  
HETATM   14  C   UNL     1      -8.957   9.598  69.477  1.00  0.00    -0.194 C  
HETATM   15  C   UNL     1      -8.789   7.877  67.582  1.00  0.00    -0.128 C  
HETATM   16  C   UNL     1      -8.015   6.893  66.746  1.00  0.00    -0.108 C  
HETATM   17  O   UNL     1     -11.427   9.978  68.092  1.00  0.00    -0.143 OA 
HETATM   18  O   UNL     1     -13.281  11.072  68.975  1.00  0.00     0.823 OA 
HETATM   19  C   UNL     1      -9.971   8.700  70.259  1.00  0.00    -0.186 C  
HETATM   20  C   UNL     1     -11.001   9.574  71.011  1.00  0.00    -0.353 C  
HETATM   21  H   UNL     1     -11.758   9.799  72.863  1.00  0.00     0.000 HD 
HETATM   22  C   UNL     1     -12.402  10.223  69.053  1.00  0.00     0.716 C  
HETATM   23  O   UNL     1      -8.261   6.730  65.587  1.00  0.00    -0.122 OA 
HETATM   24  C   UNL     1     -12.322   9.329  70.306  1.00  0.00     0.329 C  
ENDROOT
BRANCH   5  25
HETATM   25  O   UNL     1      -5.240  12.571  67.485  1.00  0.00    -0.102 OA 
BRANCH  25  26
HETATM   26  C   UNL     1      -6.333  13.446  67.880  1.00  0.00    -0.151 C  
HETATM   27  C   UNL     1      -5.245  16.127  68.385  1.00  0.00    -0.100 C  
HETATM   28  C   UNL     1      -5.238  15.338  67.016  1.00  0.00     0.890 C  
HETATM   29  C   UNL     1      -5.129  14.995  69.477  1.00  0.00    -0.088 C  
HETATM   30  O   UNL     1      -6.407  14.527  66.957  1.00  0.00    -0.062 OA 
HETATM   31  C   UNL     1      -6.273  13.998  69.309  1.00  0.00    -0.105 C  
HETATM   32  C   UNL     1      -5.147  16.103  65.707  1.00  0.00     3.165 C  
BRANCH  27  33
HETATM   33  N   UNL     1      -6.377  17.026  68.657  1.00  0.00    -0.158 NA 
HETATM   34  C   UNL     1      -6.434  17.453  70.059  1.00  0.00     0.201 C  
HETATM   35  C   UNL     1      -6.388  18.221  67.812  1.00  0.00    -0.185 C  
ENDBRANCH  27  33
ENDBRANCH  25  26
ENDBRANCH   5  25
BRANCH  14  36
HETATM   36  O   UNL     1      -8.708  10.961  69.933  1.00  0.00     0.403 OA 
BRANCH  36  37
HETATM   37  C   UNL     1      -9.292  12.102  69.317  1.00  0.00     0.778 C  
HETATM   38  C   UNL     1      -7.975  15.528  68.974  1.00  0.00    -0.205 C  
HETATM   39  C   UNL     1     -11.362  13.613  69.944  1.00  0.00    -0.056 C  
HETATM   40  C   UNL     1      -9.046  14.421  68.995  1.00  0.00     0.001 C  
HETATM   41  O   UNL     1      -8.450  13.221  69.464  1.00  0.00     0.877 OA 
HETATM   42  H   UNL     1     -12.479  11.337  69.498  1.00  0.00     0.000 HD 
HETATM   43  C   UNL     1     -10.722  12.215  69.833  1.00  0.00     0.754 C  
HETATM   44  O   UNL     1     -11.588  11.267  69.176  1.00  0.00    -0.259 OA 
HETATM   45  C   UNL     1     -10.190  14.722  69.974  1.00  0.00     0.177 C  
BRANCH  45  46
HETATM   46  O   UNL     1     -10.612  16.077  69.707  1.00  0.00    -0.280 OA 
BRANCH  46  47
HETATM   47  C   UNL     1      -9.646  16.716  68.898  1.00  0.00    -0.252 C  
HETATM   48  C   UNL     1      -9.563  16.030  67.548  1.00  0.00    -0.222 C  
HETATM   49  C   UNL     1      -9.566  20.106  67.764  1.00  0.00    -0.508 C  
HETATM   50  O   UNL     1      -9.718  18.111  68.900  1.00  0.00    -0.324 OA 
HETATM   51  H   UNL     1     -10.933  19.557  65.429  1.00  0.00     0.000 HD 
HETATM   52  C   UNL     1     -10.596  16.568  66.601  1.00  0.00    -0.216 C  
HETATM   53  C   UNL     1     -10.525  15.746  65.310  1.00  0.00    -0.427 C  
HETATM   54  O   UNL     1     -11.931  16.412  67.105  1.00  0.00     0.845 OA 
HETATM   55  C   UNL     1     -10.246  18.044  66.449  1.00  0.00    -0.393 C  
HETATM   56  O   UNL     1     -11.151  18.637  65.523  1.00  0.00    -0.215 OA 
HETATM   57  H   UNL     1     -12.586  16.753  66.506  1.00  0.00     0.000 HD 
HETATM   58  C   UNL     1     -10.312  18.778  67.810  1.00  0.00    -0.411 C  
ENDBRANCH  46  47
ENDBRANCH  45  46
BRANCH  39  59
HETATM   59  N   UNL     1     -12.384  13.523  71.075  1.00  0.00    -0.367 NA 
HETATM   60  C   UNL     1     -13.624  14.249  71.001  1.00  0.00    -0.159 C  
HETATM   61  C   UNL     1     -12.470  12.465  72.066  1.00  0.00     0.411 C  
ENDBRANCH  39  59
ENDBRANCH  36  37
ENDBRANCH  14  36
BRANCH  19  62
HETATM   62  O   UNL     1      -9.527   7.613  71.060  1.00  0.00    -0.159 OA 
HETATM   63  C   UNL     1      -9.864   6.277  70.725  1.00  0.00    -0.185 C  
ENDBRANCH  19  62
TORSDOF 9
ENDMDL
MODEL       46
REMARK 921   NORMALIZED FREE ENERGY PREDICTED BY IDOCK:   28.46 KCAL/MOL
REMARK 922        TOTAL FREE ENERGY PREDICTED BY IDOCK:   40.80 KCAL/MOL
REMARK 923 INTER-LIGAND FREE ENERGY PREDICTED BY IDOCK:    5.49 KCAL/MOL
REMARK 924 INTRA-LIGAND FREE ENERGY PREDICTED BY IDOCK:   35.31 KCAL/MOL
REMARK 927      BINDING AFFINITY PREDICTED BY RF-SCORE:    0.00 PKD
ROOT
HETATM    1  C   UNL     1     -12.345  10.239  68.111  1.00  0.00     2.297 C  
HETATM    2  C   UNL     1     -13.123  11.383  68.139  1.00  0.00     4.424 C  
HETATM    3  C   UNL     1     -13.035  12.870  68.372  1.00  0.00     2.339 C  
HETATM    4  C   UNL     1     -11.992  13.725  68.416  1.00  0.00    -0.395 C  
HETATM    5  C   UNL     1     -10.621  13.210  68.319  1.00  0.00    -0.248 C  
HETATM    6  O   UNL     1      -5.324   8.290  64.754  1.00  0.00    -0.036 OA 
HETATM    7  C   UNL     1     -10.229  13.231  66.798  1.00  0.00    -0.254 C  
HETATM    8  C   UNL     1     -11.010   6.458  67.522  1.00  0.00    -0.454 C  
HETATM    9  C   UNL     1      -9.970  11.759  66.558  1.00  0.00    -0.229 C  
HETATM   10  C   UNL     1     -11.324  13.627  65.766  1.00  0.00    -0.315 C  
HETATM   11  C   UNL     1      -9.295  11.288  65.302  1.00  0.00    -0.225 C  
HETATM   12  C   UNL     1     -11.083   9.113  68.082  1.00  0.00     0.106 C  
HETATM   13  C   UNL     1     -10.770   7.846  66.946  1.00  0.00    -0.149 C  
HETATM   14  C   UNL     1      -8.204  10.293  65.780  1.00  0.00    -0.147 C  
HETATM   15  C   UNL     1     -10.376  10.519  64.434  1.00  0.00    -0.244 C  
HETATM   16  C   UNL     1     -11.395  11.335  63.682  1.00  0.00    -0.043 C  
HETATM   17  O   UNL     1      -9.430   7.743  66.174  1.00  0.00    -0.157 OA 
HETATM   18  O   UNL     1      -8.316   5.845  66.931  1.00  0.00    -0.109 OA 
HETATM   19  C   UNL     1      -7.564   9.392  64.675  1.00  0.00    -0.109 C  
HETATM   20  C   UNL     1      -6.641   8.327  65.311  1.00  0.00    -0.052 C  
HETATM   21  H   UNL     1      -4.757   7.635  65.145  1.00  0.00     0.000 HD 
HETATM   22  C   UNL     1      -8.414   6.794  66.162  1.00  0.00    -0.135 C  
HETATM   23  O   UNL     1     -12.556  11.053  63.700  1.00  0.00     0.825 OA 
HETATM   24  C   UNL     1      -7.340   7.002  65.076  1.00  0.00    -0.083 C  
ENDROOT
BRANCH   5  25
HETATM   25  O   UNL     1      -9.748  13.664  69.370  1.00  0.00     0.377 OA 
BRANCH  25  26
HETATM   26  C   UNL     1      -8.689  14.488  68.810  1.00  0.00    -0.147 C  
HETATM   27  C   UNL     1      -9.916  16.760  67.411  1.00  0.00    -0.267 C  
HETATM   28  C   UNL     1     -10.011  16.426  68.952  1.00  0.00    -0.257 C  
HETATM   29  C   UNL     1      -9.828  15.346  66.720  1.00  0.00    -0.255 C  
HETATM   30  O   UNL     1      -8.797  15.799  69.354  1.00  0.00    -0.252 OA 
HETATM   31  C   UNL     1      -8.637  14.572  67.280  1.00  0.00    -0.231 C  
HETATM   32  C   UNL     1     -10.300  17.537  69.947  1.00  0.00     0.490 C  
BRANCH  27  33
HETATM   33  N   UNL     1      -8.833  17.649  66.964  1.00  0.00    -0.240 NA 
HETATM   34  C   UNL     1      -7.873  16.970  66.086  1.00  0.00    -0.260 C  
HETATM   35  C   UNL     1      -9.311  18.851  66.279  1.00  0.00    -0.282 C  
ENDBRANCH  27  33
ENDBRANCH  25  26
ENDBRANCH   5  25
BRANCH  14  36
HETATM   36  O   UNL     1      -7.523  10.449  67.060  1.00  0.00    -0.094 OA 
BRANCH  36  37
HETATM   37  C   UNL     1      -6.518   9.553  67.516  1.00  0.00    -0.062 C  
HETATM   38  C   UNL     1      -6.522   5.868  67.630  1.00  0.00    -0.047 C  
HETATM   39  C   UNL     1      -5.545   9.019  69.909  1.00  0.00    -0.028 C  
HETATM   40  C   UNL     1      -6.064   7.292  67.994  1.00  0.00    -0.031 C  
HETATM   41  O   UNL     1      -6.969   8.223  67.419  1.00  0.00    -0.072 OA 
HETATM   42  H   UNL     1      -4.867  11.482  69.596  1.00  0.00     0.000 HD 
HETATM   43  C   UNL     1      -6.050  10.048  68.880  1.00  0.00    -0.040 C  
HETATM   44  O   UNL     1      -5.157  11.173  68.746  1.00  0.00    -0.041 OA 
HETATM   45  C   UNL     1      -6.104   7.560  69.506  1.00  0.00    -0.031 C  
BRANCH  45  46
HETATM   46  O   UNL     1      -5.438   6.444  70.136  1.00  0.00    -0.013 OA 
BRANCH  46  47
HETATM   47  C   UNL     1      -6.390   5.659  70.825  1.00  0.00    -0.031 C  
HETATM   48  C   UNL     1      -7.716   6.391  70.889  1.00  0.00    -0.101 C  
HETATM   49  C   UNL     1      -7.629   2.410  69.998  1.00  0.00    -0.043 C  
HETATM   50  O   UNL     1      -6.421   4.317  70.442  1.00  0.00    -0.029 OA 
HETATM   51  H   UNL     1      -9.738   3.385  68.506  1.00  0.00     0.000 HD 
HETATM   52  C   UNL     1      -8.530   6.151  69.650  1.00  0.00    -0.127 C  
HETATM   53  C   UNL     1      -9.793   7.014  69.741  1.00  0.00    -0.171 C  
HETATM   54  O   UNL     1      -7.845   6.564  68.459  1.00  0.00    -0.103 OA 
HETATM   55  C   UNL     1      -8.774   4.646  69.638  1.00  0.00    -0.081 C  
HETATM   56  O   UNL     1      -9.586   4.322  68.514  1.00  0.00    -0.154 OA 
HETATM   57  H   UNL     1      -8.359   6.411  67.675  1.00  0.00     0.000 HD 
HETATM   58  C   UNL     1      -7.441   3.863  69.581  1.00  0.00    -0.052 C  
ENDBRANCH  46  47
ENDBRANCH  45  46
BRANCH  39  59
HETATM   59  N   UNL     1      -5.837   9.616  71.284  1.00  0.00    -0.086 NA 
HETATM   60  C   UNL     1      -6.555  10.857  71.407  1.00  0.00     1.749 C  
HETATM   61  C   UNL     1      -5.849   8.893  72.544  1.00  0.00    -0.066 C  
ENDBRANCH  39  59
ENDBRANCH  36  37
ENDBRANCH  14  36
BRANCH  19  62
HETATM   62  O   UNL     1      -6.980   9.957  63.509  1.00  0.00    -0.114 OA 
HETATM   63  C   UNL     1      -7.672  10.932  62.747  1.00  0.00     0.075 C  
ENDBRANCH  19  62
TORSDOF 9
ENDMDL
MODEL       47
REMARK 921   NORMALIZED FREE ENERGY PREDICTED BY IDOCK:   28.98 KCAL/MOL
REMARK 922        TOTAL FREE ENERGY PREDICTED BY IDOCK:   41.60 KCAL/MOL
REMARK 923 INTER-LIGAND FREE ENERGY PREDICTED BY IDOCK:   28.28 KCAL/MOL
REMARK 924 INTRA-LIGAND FREE ENERGY PREDICTED BY IDOCK:   13.32 KCAL/MOL
REMARK 927      BINDING AFFINITY PREDICTED BY RF-SCORE:    0.00 PKD
ROOT
HETATM    1  C   UNL     1     -11.614  10.482  66.274  1.00  0.00     1.244 C  
HETATM    2  C   UNL     1     -11.472  10.950  64.979  1.00  0.00     0.585 C  
HETATM    3  C   UNL     1     -10.842  12.067  64.186  1.00  0.00    -0.405 C  
HETATM    4  C   UNL     1      -9.894  12.977  64.489  1.00  0.00    -0.019 C  
HETATM    5  C   UNL     1      -9.360  13.048  65.854  1.00  0.00     0.065 C  
HETATM    6  O   UNL     1      -6.575   9.243  72.392  1.00  0.00    -0.307 OA 
HETATM    7  C   UNL     1      -8.099  12.113  65.905  1.00  0.00     0.813 C  
HETATM    8  C   UNL     1     -12.395   8.169  69.508  1.00  0.00     2.139 C  
HETATM    9  C   UNL     1      -8.534  11.117  66.959  1.00  0.00    -0.146 C  
HETATM   10  C   UNL     1      -7.772  11.259  64.646  1.00  0.00     0.973 C  
HETATM   11  C   UNL     1      -7.550  10.160  67.569  1.00  0.00    -0.091 C  
HETATM   12  C   UNL     1     -11.491  10.186  67.935  1.00  0.00     0.067 C  
HETATM   13  C   UNL     1     -11.179   8.700  68.764  1.00  0.00     0.452 C  
HETATM   14  C   UNL     1      -7.800  10.249  69.098  1.00  0.00    -0.127 C  
HETATM   15  C   UNL     1      -7.911   8.706  67.052  1.00  0.00    -0.096 C  
HETATM   16  C   UNL     1      -7.525   8.336  65.644  1.00  0.00    -0.081 C  
HETATM   17  O   UNL     1      -9.993   8.537  69.748  1.00  0.00    -0.184 OA 
HETATM   18  O   UNL     1     -10.872   8.271  71.886  1.00  0.00    -0.245 OA 
HETATM   19  C   UNL     1      -7.153   9.120  69.966  1.00  0.00    -0.060 C  
HETATM   20  C   UNL     1      -7.635   9.221  71.432  1.00  0.00     0.140 C  
HETATM   21  H   UNL     1      -6.871   9.305  73.293  1.00  0.00     0.000 HD 
HETATM   22  C   UNL     1      -9.922   8.281  71.113  1.00  0.00    -0.185 C  
HETATM   23  O   UNL     1      -8.293   7.785  64.911  1.00  0.00    -0.136 OA 
HETATM   24  C   UNL     1      -8.506   7.999  71.651  1.00  0.00    -0.155 C  
ENDROOT
BRANCH   5  25
HETATM   25  O   UNL     1      -9.393  14.367  66.429  1.00  0.00    -0.280 OA 
BRANCH  25  26
HETATM   26  C   UNL     1      -9.402  15.367  65.372  1.00  0.00     0.175 C  
HETATM   27  C   UNL     1      -8.884  17.997  66.572  1.00  0.00    -0.258 C  
HETATM   28  C   UNL     1      -7.915  16.749  66.556  1.00  0.00    -0.299 C  
HETATM   29  C   UNL     1     -10.325  17.359  66.630  1.00  0.00    -0.306 C  
HETATM   30  O   UNL     1      -8.138  16.020  65.353  1.00  0.00     1.243 OA 
HETATM   31  C   UNL     1     -10.518  16.415  65.445  1.00  0.00    -0.333 C  
HETATM   32  C   UNL     1      -6.416  16.958  66.690  1.00  0.00    -0.235 C  
BRANCH  27  33
HETATM   33  N   UNL     1      -8.769  18.973  65.478  1.00  0.00     0.086 NA 
HETATM   34  C   UNL     1      -9.670  20.119  65.648  1.00  0.00    -0.021 C  
HETATM   35  C   UNL     1      -7.410  19.482  65.291  1.00  0.00     0.138 C  
ENDBRANCH  27  33
ENDBRANCH  25  26
ENDBRANCH   5  25
BRANCH  14  36
HETATM   36  O   UNL     1      -8.240  11.482  69.740  1.00  0.00     0.720 OA 
BRANCH  36  37
HETATM   37  C   UNL     1      -8.321  12.725  69.053  1.00  0.00     0.435 C  
HETATM   38  C   UNL     1      -6.656  15.933  69.781  1.00  0.00    -0.148 C  
HETATM   39  C   UNL     1     -10.260  14.492  68.772  1.00  0.00    -0.244 C  
HETATM   40  C   UNL     1      -7.707  14.996  69.157  1.00  0.00    -0.179 C  
HETATM   41  O   UNL     1      -7.549  13.700  69.714  1.00  0.00     0.476 OA 
HETATM   42  H   UNL     1     -11.243  12.429  67.587  1.00  0.00     0.000 HD 
HETATM   43  C   UNL     1      -9.799  13.023  68.825  1.00  0.00     0.026 C  
HETATM   44  O   UNL     1     -10.322  12.244  67.729  1.00  0.00    -0.201 OA 
HETATM   45  C   UNL     1      -9.147  15.413  69.490  1.00  0.00    -0.231 C  
BRANCH  45  46
HETATM   46  O   UNL     1      -9.237  16.828  69.209  1.00  0.00    -0.188 OA 
BRANCH  46  47
HETATM   47  C   UNL     1     -10.504  17.305  69.614  1.00  0.00     0.049 C  
HETATM   48  C   UNL     1     -10.466  17.698  71.078  1.00  0.00     2.413 C  
HETATM   49  C   UNL     1     -12.339  20.110  68.372  1.00  0.00     4.767 C  
HETATM   50  O   UNL     1     -11.095  18.209  68.728  1.00  0.00     0.459 OA 
HETATM   51  H   UNL     1     -11.258  21.871  70.204  1.00  0.00     0.000 HD 
HETATM   52  C   UNL     1      -9.967  19.104  71.251  1.00  0.00     3.043 C  
HETATM   53  C   UNL     1      -9.846  19.380  72.753  1.00  0.00     3.980 C  
HETATM   54  O   UNL     1      -8.655  19.289  70.700  1.00  0.00     1.916 OA 
HETATM   55  C   UNL     1     -10.987  19.966  70.515  1.00  0.00     3.071 C  
HETATM   56  O   UNL     1     -10.623  21.334  70.663  1.00  0.00     2.031 OA 
HETATM   57  H   UNL     1      -8.339  20.178  70.809  1.00  0.00     0.000 HD 
HETATM   58  C   UNL     1     -11.061  19.588  69.016  1.00  0.00     1.736 C  
ENDBRANCH  46  47
ENDBRANCH  45  46
BRANCH  39  59
HETATM   59  N   UNL     1     -11.710  14.499  69.252  1.00  0.00    -0.292 NA 
HETATM   60  C   UNL     1     -12.544  15.653  69.044  1.00  0.00     0.456 C  
HETATM   61  C   UNL     1     -12.520  13.329  69.540  1.00  0.00     0.081 C  
ENDBRANCH  39  59
ENDBRANCH  36  37
ENDBRANCH  14  36
BRANCH  19  62
HETATM   62  O   UNL     1      -5.762   8.838  69.893  1.00  0.00    -0.028 OA 
HETATM   63  C   UNL     1      -5.259   7.559  70.238  1.00  0.00    -0.023 C  
ENDBRANCH  19  62
TORSDOF 9
ENDMDL
MODEL       48
REMARK 921   NORMALIZED FREE ENERGY PREDICTED BY IDOCK:   35.07 KCAL/MOL
REMARK 922        TOTAL FREE ENERGY PREDICTED BY IDOCK:   50.89 KCAL/MOL
REMARK 923 INTER-LIGAND FREE ENERGY PREDICTED BY IDOCK:   20.33 KCAL/MOL
REMARK 924 INTRA-LIGAND FREE ENERGY PREDICTED BY IDOCK:   30.56 KCAL/MOL
REMARK 927      BINDING AFFINITY PREDICTED BY RF-SCORE:    0.00 PKD
ROOT
HETATM    1  C   UNL     1     -11.441   4.505  70.497  1.00  0.00     3.678 C  
HETATM    2  C   UNL     1     -11.572   3.631  71.562  1.00  0.00     3.728 C  
HETATM    3  C   UNL     1     -10.896   3.215  72.844  1.00  0.00    -0.120 C  
HETATM    4  C   UNL     1      -9.929   3.787  73.590  1.00  0.00    -0.166 C  
HETATM    5  C   UNL     1      -9.269   5.009  73.118  1.00  0.00    -0.122 C  
HETATM    6  O   UNL     1      -9.847  12.337  69.809  1.00  0.00     0.611 OA 
HETATM    7  C   UNL     1     -10.071   6.224  73.710  1.00  0.00    -0.261 C  
HETATM    8  C   UNL     1     -12.150   6.750  67.199  1.00  0.00     3.116 C  
HETATM    9  C   UNL     1     -10.524   6.905  72.436  1.00  0.00    -0.234 C  
HETATM   10  C   UNL     1     -11.378   5.920  74.498  1.00  0.00     2.526 C  
HETATM   11  C   UNL     1     -11.110   8.287  72.467  1.00  0.00    -0.439 C  
HETATM   12  C   UNL     1     -10.991   5.744  69.437  1.00  0.00    -0.352 C  
HETATM   13  C   UNL     1     -11.972   6.961  68.695  1.00  0.00     1.468 C  
HETATM   14  C   UNL     1     -10.376   9.059  71.337  1.00  0.00    -0.326 C  
HETATM   15  C   UNL     1     -12.650   8.164  72.116  1.00  0.00    -0.349 C  
HETATM   16  C   UNL     1     -13.584   7.654  73.182  1.00  0.00     1.763 C  
HETATM   17  O   UNL     1     -11.676   8.474  68.862  1.00  0.00     0.961 OA 
HETATM   18  O   UNL     1     -11.011   9.303  66.792  1.00  0.00    -0.026 OA 
HETATM   19  C   UNL     1     -11.011  10.423  70.913  1.00  0.00     0.117 C  
HETATM   20  C   UNL     1     -10.297  10.987  69.663  1.00  0.00     0.043 C  
HETATM   21  H   UNL     1      -9.408  12.684  69.041  1.00  0.00     0.000 HD 
HETATM   22  C   UNL     1     -11.319   9.475  67.966  1.00  0.00     0.354 C  
HETATM   23  O   UNL     1     -14.408   6.822  72.944  1.00  0.00     0.530 OA 
HETATM   24  C   UNL     1     -11.320  10.902  68.546  1.00  0.00    -0.367 C  
ENDROOT
BRANCH   5  25
HETATM   25  O   UNL     1      -7.831   4.936  73.112  1.00  0.00    -0.095 OA 
BRANCH  25  26
HETATM   26  C   UNL     1      -7.324   5.269  71.791  1.00  0.00    -0.089 C  
HETATM   27  C   UNL     1      -6.144   2.854  70.608  1.00  0.00    -0.019 C  
HETATM   28  C   UNL     1      -7.653   3.073  71.022  1.00  0.00    -0.036 C  
HETATM   29  C   UNL     1      -5.334   3.713  71.654  1.00  0.00    -0.004 C  
HETATM   30  O   UNL     1      -7.978   4.446  70.831  1.00  0.00    -0.066 OA 
HETATM   31  C   UNL     1      -5.806   5.164  71.604  1.00  0.00    -0.020 C  
HETATM   32  C   UNL     1      -8.743   2.250  70.357  1.00  0.00    -0.119 C  
BRANCH  27  33
HETATM   33  N   UNL     1      -5.754   3.176  69.227  1.00  0.00    -0.021 NA 
HETATM   34  C   UNL     1      -5.259   2.005  68.494  1.00  0.00    -0.012 C  
HETATM   35  C   UNL     1      -6.829   3.787  68.445  1.00  0.00    -0.047 C  
ENDBRANCH  27  33
ENDBRANCH  25  26
ENDBRANCH   5  25
BRANCH  14  36
HETATM   36  O   UNL     1      -8.993   8.769  70.974  1.00  0.00    -0.177 OA 
BRANCH  36  37
HETATM   37  C   UNL     1      -8.225   9.609  70.123  1.00  0.00    -0.187 C  
HETATM   38  C   UNL     1      -8.335  13.270  69.701  1.00  0.00     1.572 C  
HETATM   39  C   UNL     1      -8.154   9.921  67.504  1.00  0.00    -0.110 C  
HETATM   40  C   UNL     1      -8.007  11.814  69.324  1.00  0.00     0.341 C  
HETATM   41  O   UNL     1      -8.639  10.949  70.255  1.00  0.00     0.877 OA 
HETATM   42  H   UNL     1      -7.366   7.485  67.772  1.00  0.00     0.000 HD 
HETATM   43  C   UNL     1      -8.252   8.991  68.729  1.00  0.00    -0.117 C  
HETATM   44  O   UNL     1      -7.348   7.870  68.640  1.00  0.00    -0.086 OA 
HETATM   45  C   UNL     1      -8.565  11.416  67.949  1.00  0.00    -0.140 C  
BRANCH  45  46
HETATM   46  O   UNL     1      -8.179  12.464  67.033  1.00  0.00    -0.178 OA 
BRANCH  46  47
HETATM   47  C   UNL     1      -8.504  13.719  67.595  1.00  0.00    -0.183 C  
HETATM   48  C   UNL     1      -7.354  14.219  68.447  1.00  0.00    -0.119 C  
HETATM   49  C   UNL     1      -9.284  16.783  65.925  1.00  0.00    -0.142 C  
HETATM   50  O   UNL     1      -9.074  14.627  66.698  1.00  0.00    -0.252 OA 
HETATM   51  H   UNL     1      -6.663  17.650  65.886  1.00  0.00     0.000 HD 
HETATM   52  C   UNL     1      -6.336  14.944  67.615  1.00  0.00    -0.123 C  
HETATM   53  C   UNL     1      -5.158  15.310  68.524  1.00  0.00    -0.099 C  
HETATM   54  O   UNL     1      -5.798  14.118  66.571  1.00  0.00     1.298 OA 
HETATM   55  C   UNL     1      -7.093  16.130  67.028  1.00  0.00    -0.213 C  
HETATM   56  O   UNL     1      -6.191  16.911  66.252  1.00  0.00    -0.257 OA 
HETATM   57  H   UNL     1      -5.154  14.576  66.044  1.00  0.00     0.000 HD 
HETATM   58  C   UNL     1      -8.282  15.659  66.156  1.00  0.00     0.286 C  
ENDBRANCH  46  47
ENDBRANCH  45  46
BRANCH  39  59
HETATM   59  N   UNL     1      -8.896   9.210  66.373  1.00  0.00    -0.135 NA 
HETATM   60  C   UNL     1      -9.045   7.779  66.380  1.00  0.00    -0.175 C  
HETATM   61  C   UNL     1      -9.851   9.818  65.464  1.00  0.00    -0.308 C  
ENDBRANCH  39  59
ENDBRANCH  36  37
ENDBRANCH  14  36
BRANCH  19  62
HETATM   62  O   UNL     1     -11.275  11.443  71.867  1.00  0.00     3.059 OA 
HETATM   63  C   UNL     1     -12.300  12.397  71.649  1.00  0.00     0.294 C  
ENDBRANCH  19  62
TORSDOF 9
ENDMDL
MODEL       49
REMARK 921   NORMALIZED FREE ENERGY PREDICTED BY IDOCK:   35.10 KCAL/MOL
REMARK 922        TOTAL FREE ENERGY PREDICTED BY IDOCK:   50.93 KCAL/MOL
REMARK 923 INTER-LIGAND FREE ENERGY PREDICTED BY IDOCK:   33.55 KCAL/MOL
REMARK 924 INTRA-LIGAND FREE ENERGY PREDICTED BY IDOCK:   17.38 KCAL/MOL
REMARK 927      BINDING AFFINITY PREDICTED BY RF-SCORE:    0.00 PKD
ROOT
HETATM    1  C   UNL     1     -12.396  12.378  64.519  1.00  0.00    -0.519 C  
HETATM    2  C   UNL     1     -12.236  13.679  64.075  1.00  0.00    -0.443 C  
HETATM    3  C   UNL     1     -11.851  15.056  64.554  1.00  0.00    -0.377 C  
HETATM    4  C   UNL     1     -11.237  15.492  65.673  1.00  0.00    -0.155 C  
HETATM    5  C   UNL     1     -10.911  14.544  66.744  1.00  0.00    -0.316 C  
HETATM    6  O   UNL     1      -7.980   7.372  68.970  1.00  0.00    -0.118 OA 
HETATM    7  C   UNL     1      -9.455  14.022  66.470  1.00  0.00    -0.295 C  
HETATM    8  C   UNL     1     -12.883   8.358  64.688  1.00  0.00    22.377 C  
HETATM    9  C   UNL     1      -9.718  12.541  66.299  1.00  0.00    -0.259 C  
HETATM   10  C   UNL     1      -8.755  14.467  65.154  1.00  0.00     3.063 C  
HETATM   11  C   UNL     1      -8.588  11.553  66.284  1.00  0.00    -0.133 C  
HETATM   12  C   UNL     1     -12.394  10.932  65.397  1.00  0.00     3.376 C  
HETATM   13  C   UNL     1     -11.783   9.377  64.948  1.00  0.00     8.683 C  
HETATM   14  C   UNL     1      -9.033  10.419  67.246  1.00  0.00    -0.135 C  
HETATM   15  C   UNL     1      -8.465  10.985  64.810  1.00  0.00     0.143 C  
HETATM   16  C   UNL     1      -7.826  11.858  63.763  1.00  0.00     2.735 C  
HETATM   17  O   UNL     1     -10.725   8.629  65.798  1.00  0.00     1.214 OA 
HETATM   18  O   UNL     1     -11.744   6.747  66.710  1.00  0.00     0.454 OA 
HETATM   19  C   UNL     1      -8.207   9.093  67.175  1.00  0.00    -0.113 C  
HETATM   20  C   UNL     1      -8.869   7.995  68.039  1.00  0.00    -0.128 C  
HETATM   21  H   UNL     1      -8.387   6.697  69.501  1.00  0.00     0.000 HD 
HETATM   22  C   UNL     1     -10.749   7.430  66.501  1.00  0.00     0.304 C  
HETATM   23  O   UNL     1      -8.317  11.996  62.681  1.00  0.00     0.361 OA 
HETATM   24  C   UNL     1      -9.385   6.967  67.050  1.00  0.00    -0.170 C  
ENDROOT
BRANCH   5  25
HETATM   25  O   UNL     1     -11.378  14.945  68.045  1.00  0.00    -0.297 OA 
BRANCH  25  26
HETATM   26  C   UNL     1     -10.310  15.619  68.767  1.00  0.00    -0.218 C  
HETATM   27  C   UNL     1      -8.689  17.127  66.837  1.00  0.00    -0.232 C  
HETATM   28  C   UNL     1     -10.217  17.347  67.176  1.00  0.00    -0.323 C  
HETATM   29  C   UNL     1      -8.477  15.576  67.023  1.00  0.00    -0.266 C  
HETATM   30  O   UNL     1     -10.426  17.021  68.546  1.00  0.00    -0.328 OA 
HETATM   31  C   UNL     1      -8.883  15.166  68.437  1.00  0.00    -0.174 C  
HETATM   32  C   UNL     1     -10.855  18.703  66.928  1.00  0.00    -0.248 C  
BRANCH  27  33
HETATM   33  N   UNL     1      -7.696  17.903  67.596  1.00  0.00    -0.211 NA 
HETATM   34  C   UNL     1      -6.356  17.838  67.001  1.00  0.00    -0.162 C  
HETATM   35  C   UNL     1      -8.058  19.311  67.760  1.00  0.00    -0.286 C  
ENDBRANCH  27  33
ENDBRANCH  25  26
ENDBRANCH   5  25
BRANCH  14  36
HETATM   36  O   UNL     1      -9.872  10.677  68.411  1.00  0.00    -0.151 OA 
BRANCH  36  37
HETATM   37  C   UNL     1      -9.501  10.300  69.731  1.00  0.00    -0.091 C  
HETATM   38  C   UNL     1      -6.674   8.234  70.884  1.00  0.00    -0.040 C  
HETATM   39  C   UNL     1     -10.607   8.700  71.513  1.00  0.00    -0.282 C  
HETATM   40  C   UNL     1      -8.043   8.934  70.976  1.00  0.00    -0.170 C  
HETATM   41  O   UNL     1      -8.372   9.459  69.699  1.00  0.00    -0.121 OA 
HETATM   42  H   UNL     1     -12.387  10.544  71.276  1.00  0.00     0.000 HD 
HETATM   43  C   UNL     1     -10.756   9.780  70.425  1.00  0.00    -0.308 C  
HETATM   44  O   UNL     1     -11.605  10.868  70.844  1.00  0.00    -0.271 OA 
HETATM   45  C   UNL     1      -9.182   7.966  71.328  1.00  0.00    -0.146 C  
BRANCH  45  46
HETATM   46  O   UNL     1      -8.728   7.197  72.464  1.00  0.00    -0.122 OA 
BRANCH  46  47
HETATM   47  C   UNL     1      -8.012   6.068  72.009  1.00  0.00    -0.107 C  
HETATM   48  C   UNL     1      -7.885   5.050  73.125  1.00  0.00    -0.100 C  
HETATM   49  C   UNL     1      -8.828   3.825  69.348  1.00  0.00    -0.146 C  
HETATM   50  O   UNL     1      -8.409   5.595  70.756  1.00  0.00    -0.118 OA 
HETATM   51  H   UNL     1     -10.221   2.090  70.983  1.00  0.00     0.000 HD 
HETATM   52  C   UNL     1      -9.093   4.160  73.187  1.00  0.00    -0.110 C  
HETATM   53  C   UNL     1      -8.941   3.244  74.407  1.00  0.00    -0.096 C  
HETATM   54  O   UNL     1     -10.306   4.900  73.389  1.00  0.00    -0.164 OA 
HETATM   55  C   UNL     1      -9.114   3.445  71.841  1.00  0.00    -0.109 C  
HETATM   56  O   UNL     1     -10.208   2.535  71.822  1.00  0.00    -0.119 OA 
HETATM   57  H   UNL     1     -11.070   4.337  73.428  1.00  0.00     0.000 HD 
HETATM   58  C   UNL     1      -9.234   4.455  70.674  1.00  0.00    -0.131 C  
ENDBRANCH  46  47
ENDBRANCH  45  46
BRANCH  39  59
HETATM   59  N   UNL     1     -11.907   7.899  71.496  1.00  0.00    -0.280 NA 
HETATM   60  C   UNL     1     -12.091   6.782  72.385  1.00  0.00    -0.084 C  
HETATM   61  C   UNL     1     -13.186   8.357  70.981  1.00  0.00     0.127 C  
ENDBRANCH  39  59
ENDBRANCH  36  37
ENDBRANCH  14  36
BRANCH  19  62
HETATM   62  O   UNL     1      -6.794   9.095  67.329  1.00  0.00    -0.075 OA 
HETATM   63  C   UNL     1      -5.973   8.258  66.532  1.00  0.00    -0.045 C  
ENDBRANCH  19  62
TORSDOF 9
ENDMDL
MODEL       50
REMARK 921   NORMALIZED FREE ENERGY PREDICTED BY IDOCK:   38.38 KCAL/MOL
REMARK 922        TOTAL FREE ENERGY PREDICTED BY IDOCK:   55.95 KCAL/MOL
REMARK 923 INTER-LIGAND FREE ENERGY PREDICTED BY IDOCK:   47.85 KCAL/MOL
REMARK 924 INTRA-LIGAND FREE ENERGY PREDICTED BY IDOCK:    8.10 KCAL/MOL
REMARK 927      BINDING AFFINITY PREDICTED BY RF-SCORE:    0.00 PKD
ROOT
HETATM    1  C   UNL     1     -12.009   7.980  66.894  1.00  0.00     4.897 C  
HETATM    2  C   UNL     1     -12.529   8.535  65.738  1.00  0.00    14.299 C  
HETATM    3  C   UNL     1     -12.805   9.865  65.083  1.00  0.00    12.784 C  
HETATM    4  C   UNL     1     -12.377  11.117  65.346  1.00  0.00     2.432 C  
HETATM    5  C   UNL     1     -11.545  11.370  66.528  1.00  0.00     0.124 C  
HETATM    6  O   UNL     1      -5.367   9.194  71.226  1.00  0.00    -0.035 OA 
HETATM    7  C   UNL     1     -10.047  11.240  66.073  1.00  0.00    -0.283 C  
HETATM    8  C   UNL     1     -10.505   5.399  69.632  1.00  0.00    -0.361 C  
HETATM    9  C   UNL     1      -9.587  10.099  66.955  1.00  0.00    -0.219 C  
HETATM   10  C   UNL     1      -9.764  10.772  64.617  1.00  0.00    -0.344 C  
HETATM   11  C   UNL     1      -8.129   9.768  67.090  1.00  0.00    -0.116 C  
HETATM   12  C   UNL     1     -11.241   7.687  68.372  1.00  0.00     0.407 C  
HETATM   13  C   UNL     1     -10.005   6.539  68.757  1.00  0.00    -0.143 C  
HETATM   14  C   UNL     1      -7.892   9.613  68.616  1.00  0.00    -0.081 C  
HETATM   15  C   UNL     1      -7.882   8.380  66.367  1.00  0.00    -0.098 C  
HETATM   16  C   UNL     1      -7.832   8.361  64.862  1.00  0.00    -0.121 C  
HETATM   17  O   UNL     1      -8.648   6.963  69.373  1.00  0.00    -0.132 OA 
HETATM   18  O   UNL     1      -8.562   6.136  71.547  1.00  0.00    -0.130 OA 
HETATM   19  C   UNL     1      -6.544   8.942  69.038  1.00  0.00    -0.048 C  
HETATM   20  C   UNL     1      -6.524   8.678  70.561  1.00  0.00    -0.038 C  
HETATM   21  H   UNL     1      -5.354   9.032  72.162  1.00  0.00     0.000 HD 
HETATM   22  C   UNL     1      -8.035   6.696  70.592  1.00  0.00    -0.111 C  
HETATM   23  O   UNL     1      -8.423   7.537  64.228  1.00  0.00     0.037 OA 
HETATM   24  C   UNL     1      -6.573   7.169  70.706  1.00  0.00    -0.048 C  
ENDROOT
BRANCH   5  25
HETATM   25  O   UNL     1     -12.029  12.433  67.369  1.00  0.00    -0.498 OA 
BRANCH  25  26
HETATM   26  C   UNL     1     -11.463  12.304  68.703  1.00  0.00    -0.307 C  
HETATM   27  C   UNL     1     -13.661  12.261  70.649  1.00  0.00     2.089 C  
HETATM   28  C   UNL     1     -13.384  11.211  69.501  1.00  0.00     1.870 C  
HETATM   29  C   UNL     1     -13.149  13.626  70.049  1.00  0.00     0.550 C  
HETATM   30  O   UNL     1     -11.977  11.121  69.303  1.00  0.00    -0.322 OA 
HETATM   31  C   UNL     1     -11.682  13.493  69.646  1.00  0.00    -0.378 C  
HETATM   32  C   UNL     1     -13.917   9.795  69.631  1.00  0.00     3.099 C  
BRANCH  27  33
HETATM   33  N   UNL     1     -13.081  12.001  71.975  1.00  0.00    -0.427 NA 
HETATM   34  C   UNL     1     -13.752  12.753  73.042  1.00  0.00     1.391 C  
HETATM   35  C   UNL     1     -13.077  10.585  72.344  1.00  0.00     0.090 C  
ENDBRANCH  27  33
ENDBRANCH  25  26
ENDBRANCH   5  25
BRANCH  14  36
HETATM   36  O   UNL     1      -8.646  10.384  69.598  1.00  0.00    -0.145 OA 
BRANCH  36  37
HETATM   37  C   UNL     1      -8.270  11.692  70.008  1.00  0.00     2.214 C  
HETATM   38  C   UNL     1     -10.348  14.699  70.489  1.00  0.00     0.582 C  
HETATM   39  C   UNL     1      -6.859  13.596  68.849  1.00  0.00    -0.110 C  
HETATM   40  C   UNL     1      -9.051  13.898  70.271  1.00  0.00     2.923 C  
HETATM   41  O   UNL     1      -9.391  12.545  70.010  1.00  0.00     2.579 OA 
HETATM   42  H   UNL     1      -5.109  11.730  69.128  1.00  0.00     0.000 HD 
HETATM   43  C   UNL     1      -7.065  12.103  69.170  1.00  0.00    -0.015 C  
HETATM   44  O   UNL     1      -5.859  11.474  69.651  1.00  0.00    -0.067 OA 
HETATM   45  C   UNL     1      -8.263  14.369  69.040  1.00  0.00    -0.031 C  
BRANCH  45  46
HETATM   46  O   UNL     1      -8.170  15.807  69.139  1.00  0.00    -0.216 OA 
BRANCH  46  47
HETATM   47  C   UNL     1      -7.950  16.351  67.854  1.00  0.00    -0.153 C  
HETATM   48  C   UNL     1      -9.247  16.901  67.294  1.00  0.00    -0.231 C  
HETATM   49  C   UNL     1      -5.794  19.040  66.904  1.00  0.00    -0.165 C  
HETATM   50  O   UNL     1      -6.818  17.164  67.754  1.00  0.00    -0.147 OA 
HETATM   51  H   UNL     1      -7.745  20.969  67.219  1.00  0.00     0.000 HD 
HETATM   52  C   UNL     1      -9.488  18.307  67.762  1.00  0.00    -0.276 C  
HETATM   53  C   UNL     1     -10.867  18.743  67.253  1.00  0.00    -0.408 C  
HETATM   54  O   UNL     1      -9.539  18.404  69.193  1.00  0.00    -0.211 OA 
HETATM   55  C   UNL     1      -8.312  19.104  67.208  1.00  0.00    -0.277 C  
HETATM   56  O   UNL     1      -8.478  20.472  67.564  1.00  0.00    -0.319 OA 
HETATM   57  H   UNL     1      -9.691  19.294  69.490  1.00  0.00     0.000 HD 
HETATM   58  C   UNL     1      -6.967  18.566  67.752  1.00  0.00    -0.214 C  
ENDBRANCH  46  47
ENDBRANCH  45  46
BRANCH  39  59
HETATM   59  N   UNL     1      -6.115  13.645  67.516  1.00  0.00    -0.335 NA 
HETATM   60  C   UNL     1      -6.627  12.948  66.365  1.00  0.00     2.220 C  
HETATM   61  C   UNL     1      -5.146  14.650  67.115  1.00  0.00     0.896 C  
ENDBRANCH  39  59
ENDBRANCH  36  37
ENDBRANCH  14  36
BRANCH  19  62
HETATM   62  O   UNL     1      -5.296   9.442  68.579  1.00  0.00    -0.034 OA 
HETATM   63  C   UNL     1      -5.203  10.163  67.362  1.00  0.00    -0.041 C  
ENDBRANCH  19  62
TORSDOF 9
ENDMDL
MODEL       51
REMARK 921   NORMALIZED FREE ENERGY PREDICTED BY IDOCK:   39.42 KCAL/MOL
REMARK 922        TOTAL FREE ENERGY PREDICTED BY IDOCK:   57.52 KCAL/MOL
REMARK 923 INTER-LIGAND FREE ENERGY PREDICTED BY IDOCK:   39.45 KCAL/MOL
REMARK 924 INTRA-LIGAND FREE ENERGY PREDICTED BY IDOCK:   18.08 KCAL/MOL
REMARK 927      BINDING AFFINITY PREDICTED BY RF-SCORE:    0.00 PKD
ROOT
HETATM    1  C   UNL     1      -7.396   7.944  67.195  1.00  0.00    -0.091 C  
HETATM    2  C   UNL     1      -7.716   7.061  68.212  1.00  0.00    -0.117 C  
HETATM    3  C   UNL     1      -8.411   6.994  69.548  1.00  0.00    -0.134 C  
HETATM    4  C   UNL     1      -9.258   7.835  70.177  1.00  0.00    -0.153 C  
HETATM    5  C   UNL     1      -9.569   9.139  69.580  1.00  0.00    -0.176 C  
HETATM    6  O   UNL     1     -11.473  13.479  63.060  1.00  0.00    -0.238 OA 
HETATM    7  C   UNL     1     -10.848   8.944  68.689  1.00  0.00    -0.036 C  
HETATM    8  C   UNL     1      -6.227   9.547  63.661  1.00  0.00    -0.098 C  
HETATM    9  C   UNL     1     -10.300   9.325  67.331  1.00  0.00    -0.327 C  
HETATM   10  C   UNL     1     -11.405   7.502  68.517  1.00  0.00     0.528 C  
HETATM   11  C   UNL     1     -11.219   9.562  66.167  1.00  0.00     1.541 C  
HETATM   12  C   UNL     1      -7.273   9.268  66.150  1.00  0.00    -0.091 C  
HETATM   13  C   UNL     1      -7.519   9.341  64.439  1.00  0.00    -0.106 C  
HETATM   14  C   UNL     1     -10.731  10.893  65.535  1.00  0.00    -0.112 C  
HETATM   15  C   UNL     1     -11.009   8.374  65.138  1.00  0.00     6.492 C  
HETATM   16  C   UNL     1     -11.626   7.038  65.461  1.00  0.00     6.648 C  
HETATM   17  O   UNL     1      -8.543  10.308  63.793  1.00  0.00    -0.167 OA 
HETATM   18  O   UNL     1      -7.355  11.903  62.584  1.00  0.00     0.947 OA 
HETATM   19  C   UNL     1     -11.285  11.221  64.110  1.00  0.00    -0.146 C  
HETATM   20  C   UNL     1     -10.577  12.466  63.527  1.00  0.00    -0.413 C  
HETATM   21  H   UNL     1     -11.038  14.244  62.701  1.00  0.00     0.000 HD 
HETATM   22  C   UNL     1      -8.413  11.386  62.924  1.00  0.00     0.183 C  
HETATM   23  O   UNL     1     -11.007   6.022  65.344  1.00  0.00     1.585 OA 
HETATM   24  C   UNL     1      -9.739  11.945  62.375  1.00  0.00     1.140 C  
ENDROOT
BRANCH   5  25
HETATM   25  O   UNL     1      -9.388  10.252  70.475  1.00  0.00     0.291 OA 
BRANCH  25  26
HETATM   26  C   UNL     1     -10.316  10.145  71.590  1.00  0.00     1.938 C  
HETATM   27  C   UNL     1     -11.801   7.625  71.330  1.00  0.00    -0.292 C  
HETATM   28  C   UNL     1     -10.243   7.797  71.531  1.00  0.00    -0.182 C  
HETATM   29  C   UNL     1     -12.218   8.892  70.488  1.00  0.00     0.137 C  
HETATM   30  O   UNL     1     -10.017   8.961  72.320  1.00  0.00    -0.292 OA 
HETATM   31  C   UNL     1     -11.806  10.161  71.231  1.00  0.00    -0.448 C  
HETATM   32  C   UNL     1      -9.434   6.667  72.145  1.00  0.00    -0.146 C  
BRANCH  27  33
HETATM   33  N   UNL     1     -12.639   7.473  72.529  1.00  0.00     0.041 NA 
HETATM   34  C   UNL     1     -13.573   8.589  72.709  1.00  0.00    -0.038 C  
HETATM   35  C   UNL     1     -13.404   6.225  72.550  1.00  0.00     0.654 C  
ENDBRANCH  27  33
ENDBRANCH  25  26
ENDBRANCH   5  25
BRANCH  14  36
HETATM   36  O   UNL     1     -10.141  11.959  66.337  1.00  0.00    -0.207 OA 
BRANCH  36  37
HETATM   37  C   UNL     1     -10.712  12.416  67.556  1.00  0.00    -0.228 C  
HETATM   38  C   UNL     1     -13.749  14.426  68.130  1.00  0.00     6.921 C  
HETATM   39  C   UNL     1      -9.934  14.194  69.343  1.00  0.00     0.251 C  
HETATM   40  C   UNL     1     -12.384  13.800  68.470  1.00  0.00     0.031 C  
HETATM   41  O   UNL     1     -11.855  13.197  67.298  1.00  0.00    -0.358 OA 
HETATM   42  H   UNL     1      -8.073  12.424  69.508  1.00  0.00     0.000 HD 
HETATM   43  C   UNL     1      -9.591  13.045  68.376  1.00  0.00    -0.178 C  
HETATM   44  O   UNL     1      -8.772  12.033  68.998  1.00  0.00     0.133 OA 
HETATM   45  C   UNL     1     -11.343  14.845  68.900  1.00  0.00    -0.283 C  
BRANCH  45  46
HETATM   46  O   UNL     1     -11.983  15.673  69.895  1.00  0.00    -0.344 OA 
BRANCH  46  47
HETATM   47  C   UNL     1     -11.387  15.438  71.154  1.00  0.00    -0.378 C  
HETATM   48  C   UNL     1     -11.878  16.461  72.160  1.00  0.00    -0.499 C  
HETATM   49  C   UNL     1     -11.601  12.530  73.223  1.00  0.00     9.215 C  
HETATM   50  O   UNL     1     -11.385  14.100  71.555  1.00  0.00     0.438 OA 
HETATM   51  H   UNL     1     -13.806  13.445  74.610  1.00  0.00     0.000 HD 
HETATM   52  C   UNL     1     -13.176  16.030  72.782  1.00  0.00    -0.423 C  
HETATM   53  C   UNL     1     -13.662  17.165  73.691  1.00  0.00     2.452 C  
HETATM   54  O   UNL     1     -14.208  15.827  71.806  1.00  0.00    -0.433 OA 
HETATM   55  C   UNL     1     -12.844  14.725  73.498  1.00  0.00    -0.404 C  
HETATM   56  O   UNL     1     -14.013  14.258  74.164  1.00  0.00     3.626 OA 
HETATM   57  H   UNL     1     -15.028  15.554  72.199  1.00  0.00     0.000 HD 
HETATM   58  C   UNL     1     -12.330  13.657  72.503  1.00  0.00     0.404 C  
ENDBRANCH  46  47
ENDBRANCH  45  46
BRANCH  39  59
HETATM   59  N   UNL     1      -8.675  15.053  69.444  1.00  0.00    -0.160 NA 
HETATM   60  C   UNL     1      -7.565  14.631  70.258  1.00  0.00     0.621 C  
HETATM   61  C   UNL     1      -8.254  16.069  68.496  1.00  0.00    -0.181 C  
ENDBRANCH  39  59
ENDBRANCH  36  37
ENDBRANCH  14  36
BRANCH  19  62
HETATM   62  O   UNL     1     -12.682  11.246  63.849  1.00  0.00     0.281 OA 
HETATM   63  C   UNL     1     -13.473  12.360  64.224  1.00  0.00     0.824 C  
ENDBRANCH  19  62
TORSDOF 9
ENDMDL
MODEL       52
REMARK 921   NORMALIZED FREE ENERGY PREDICTED BY IDOCK:   39.84 KCAL/MOL
REMARK 922        TOTAL FREE ENERGY PREDICTED BY IDOCK:   58.17 KCAL/MOL
REMARK 923 INTER-LIGAND FREE ENERGY PREDICTED BY IDOCK:   39.78 KCAL/MOL
REMARK 924 INTRA-LIGAND FREE ENERGY PREDICTED BY IDOCK:   18.39 KCAL/MOL
REMARK 927      BINDING AFFINITY PREDICTED BY RF-SCORE:    0.00 PKD
ROOT
HETATM    1  C   UNL     1     -12.001   7.983  66.894  1.00  0.00     4.897 C  
HETATM    2  C   UNL     1     -12.529   8.518  65.732  1.00  0.00    14.299 C  
HETATM    3  C   UNL     1     -12.818   9.836  65.059  1.00  0.00    13.754 C  
HETATM    4  C   UNL     1     -12.397  11.094  65.302  1.00  0.00     2.302 C  
HETATM    5  C   UNL     1     -11.563  11.371  66.477  1.00  0.00     0.124 C  
HETATM    6  O   UNL     1      -5.349   9.307  71.179  1.00  0.00    -0.035 OA 
HETATM    7  C   UNL     1     -10.065  11.245  66.017  1.00  0.00    -0.283 C  
HETATM    8  C   UNL     1     -10.466   5.453  69.663  1.00  0.00    -0.361 C  
HETATM    9  C   UNL     1      -9.594  10.120  66.913  1.00  0.00    -0.219 C  
HETATM   10  C   UNL     1      -9.786  10.757  64.566  1.00  0.00    -0.351 C  
HETATM   11  C   UNL     1      -8.132   9.802  67.047  1.00  0.00    -0.113 C  
HETATM   12  C   UNL     1     -11.224   7.717  68.373  1.00  0.00     0.459 C  
HETATM   13  C   UNL     1      -9.979   6.583  68.769  1.00  0.00    -0.143 C  
HETATM   14  C   UNL     1      -7.889   9.670  68.575  1.00  0.00    -0.085 C  
HETATM   15  C   UNL     1      -7.879   8.404  66.343  1.00  0.00    -0.098 C  
HETATM   16  C   UNL     1      -7.835   8.365  64.838  1.00  0.00    -0.121 C  
HETATM   17  O   UNL     1      -8.622   7.026  69.373  1.00  0.00    -0.132 OA 
HETATM   18  O   UNL     1      -8.521   6.231  71.558  1.00  0.00    -0.128 OA 
HETATM   19  C   UNL     1      -6.534   9.015  69.000  1.00  0.00    -0.047 C  
HETATM   20  C   UNL     1      -6.505   8.774  70.527  1.00  0.00    -0.040 C  
HETATM   21  H   UNL     1      -5.331   9.159  72.117  1.00  0.00     0.000 HD 
HETATM   22  C   UNL     1      -8.002   6.781  70.593  1.00  0.00    -0.110 C  
HETATM   23  O   UNL     1      -8.423   7.527  64.220  1.00  0.00     0.037 OA 
HETATM   24  C   UNL     1      -6.543   7.266  70.694  1.00  0.00    -0.047 C  
ENDROOT
BRANCH   5  25
HETATM   25  O   UNL     1     -12.051  12.442  67.305  1.00  0.00    -0.516 OA 
BRANCH  25  26
HETATM   26  C   UNL     1     -12.194  13.653  66.512  1.00  0.00    -0.404 C  
HETATM   27  C   UNL     1     -10.413  15.709  67.619  1.00  0.00    -0.283 C  
HETATM   28  C   UNL     1      -9.992  14.322  66.989  1.00  0.00    -0.258 C  
HETATM   29  C   UNL     1     -11.810  15.414  68.287  1.00  0.00    -0.225 C  
HETATM   30  O   UNL     1     -10.924  13.991  65.964  1.00  0.00    -0.294 OA 
HETATM   31  C   UNL     1     -12.778  14.870  67.239  1.00  0.00     1.233 C  
HETATM   32  C   UNL     1      -8.599  14.151  66.408  1.00  0.00     0.288 C  
BRANCH  27  33
HETATM   33  N   UNL     1     -10.473  16.880  66.732  1.00  0.00    -0.292 NA 
HETATM   34  C   UNL     1     -11.496  17.848  67.145  1.00  0.00     1.095 C  
HETATM   35  C   UNL     1      -9.197  17.585  66.608  1.00  0.00    -0.262 C  
ENDBRANCH  27  33
ENDBRANCH  25  26
ENDBRANCH   5  25
BRANCH  14  36
HETATM   36  O   UNL     1      -8.644  10.449  69.549  1.00  0.00    -0.159 OA 
BRANCH  36  37
HETATM   37  C   UNL     1      -8.274  11.766  69.939  1.00  0.00     1.934 C  
HETATM   38  C   UNL     1     -10.367  14.769  70.378  1.00  0.00     0.302 C  
HETATM   39  C   UNL     1      -6.874  13.660  68.751  1.00  0.00    -0.107 C  
HETATM   40  C   UNL     1      -9.067  13.971  70.170  1.00  0.00     2.242 C  
HETATM   41  O   UNL     1      -9.400  12.612  69.929  1.00  0.00     2.142 OA 
HETATM   42  H   UNL     1      -5.114  11.808  69.055  1.00  0.00     0.000 HD 
HETATM   43  C   UNL     1      -7.072  12.171  69.094  1.00  0.00    -0.015 C  
HETATM   44  O   UNL     1      -5.862  11.555  69.583  1.00  0.00    -0.067 OA 
HETATM   45  C   UNL     1      -8.282  14.428  68.932  1.00  0.00    -0.082 C  
BRANCH  45  46
HETATM   46  O   UNL     1      -8.197  15.868  69.011  1.00  0.00    -0.204 OA 
BRANCH  46  47
HETATM   47  C   UNL     1      -6.838  16.257  69.014  1.00  0.00    -0.182 C  
HETATM   48  C   UNL     1      -6.507  16.993  67.731  1.00  0.00    -0.157 C  
HETATM   49  C   UNL     1      -5.134  18.410  71.303  1.00  0.00    -0.235 C  
HETATM   50  O   UNL     1      -6.402  16.833  70.210  1.00  0.00     0.005 OA 
HETATM   51  H   UNL     1      -5.624  20.688  69.822  1.00  0.00     0.000 HD 
HETATM   52  C   UNL     1      -6.843  18.453  67.839  1.00  0.00    -0.217 C  
HETATM   53  C   UNL     1      -6.592  19.097  66.471  1.00  0.00    -0.206 C  
HETATM   54  O   UNL     1      -8.230  18.671  68.138  1.00  0.00    -0.284 OA 
HETATM   55  C   UNL     1      -5.959  18.968  68.969  1.00  0.00    -0.223 C  
HETATM   56  O   UNL     1      -6.175  20.367  69.118  1.00  0.00    -0.325 OA 
HETATM   57  H   UNL     1      -8.443  19.595  68.207  1.00  0.00     0.000 HD 
HETATM   58  C   UNL     1      -6.264  18.233  70.297  1.00  0.00     0.138 C  
ENDBRANCH  46  47
ENDBRANCH  45  46
BRANCH  39  59
HETATM   59  N   UNL     1      -6.131  13.693  67.417  1.00  0.00    -0.333 NA 
HETATM   60  C   UNL     1      -5.953  14.933  66.709  1.00  0.00     1.863 C  
HETATM   61  C   UNL     1      -5.197  12.692  66.935  1.00  0.00     0.384 C  
ENDBRANCH  39  59
ENDBRANCH  36  37
ENDBRANCH  14  36
BRANCH  19  62
HETATM   62  O   UNL     1      -5.291   9.517  68.528  1.00  0.00    -0.034 OA 
HETATM   63  C   UNL     1      -5.209  10.220  67.300  1.00  0.00    -0.041 C  
ENDBRANCH  19  62
TORSDOF 9
ENDMDL
MODEL       53
REMARK 921   NORMALIZED FREE ENERGY PREDICTED BY IDOCK:   41.33 KCAL/MOL
REMARK 922        TOTAL FREE ENERGY PREDICTED BY IDOCK:   60.44 KCAL/MOL
REMARK 923 INTER-LIGAND FREE ENERGY PREDICTED BY IDOCK:   21.27 KCAL/MOL
REMARK 924 INTRA-LIGAND FREE ENERGY PREDICTED BY IDOCK:   39.17 KCAL/MOL
REMARK 927      BINDING AFFINITY PREDICTED BY RF-SCORE:    0.00 PKD
ROOT
HETATM    1  C   UNL     1      -8.942   8.048  70.913  1.00  0.00    -0.150 C  
HETATM    2  C   UNL     1     -10.027   8.236  71.751  1.00  0.00    -0.284 C  
HETATM    3  C   UNL     1     -11.120   9.224  72.071  1.00  0.00    -0.173 C  
HETATM    4  C   UNL     1     -11.602  10.296  71.409  1.00  0.00    -0.227 C  
HETATM    5  C   UNL     1     -10.958  10.735  70.166  1.00  0.00    -0.159 C  
HETATM    6  O   UNL     1      -7.718   8.864  63.026  1.00  0.00    -0.106 OA 
HETATM    7  C   UNL     1     -11.697  10.009  68.984  1.00  0.00     0.100 C  
HETATM    8  C   UNL     1      -5.857   6.421  68.849  1.00  0.00    -0.021 C  
HETATM    9  C   UNL     1     -10.553   9.221  68.384  1.00  0.00    -0.234 C  
HETATM   10  C   UNL     1     -12.780   8.951  69.341  1.00  0.00     3.118 C  
HETATM   11  C   UNL     1     -10.690   8.560  67.043  1.00  0.00    -0.190 C  
HETATM   12  C   UNL     1      -7.777   8.144  69.689  1.00  0.00    -0.101 C  
HETATM   13  C   UNL     1      -7.263   6.931  68.569  1.00  0.00    -0.084 C  
HETATM   14  C   UNL     1      -9.402   8.949  66.270  1.00  0.00    -0.219 C  
HETATM   15  C   UNL     1     -10.719   6.993  67.280  1.00  0.00    -0.412 C  
HETATM   16  C   UNL     1     -11.988   6.377  67.807  1.00  0.00     2.356 C  
HETATM   17  O   UNL     1      -7.321   7.147  67.035  1.00  0.00    -0.085 OA 
HETATM   18  O   UNL     1      -5.134   7.244  66.246  1.00  0.00    -0.022 OA 
HETATM   19  C   UNL     1      -9.110   8.135  64.967  1.00  0.00     0.393 C  
HETATM   20  C   UNL     1      -7.713   8.491  64.407  1.00  0.00    -0.128 C  
HETATM   21  H   UNL     1      -6.860   9.083  62.682  1.00  0.00     0.000 HD 
HETATM   22  C   UNL     1      -6.343   7.210  66.049  1.00  0.00    -0.044 C  
HETATM   23  O   UNL     1     -11.971   5.582  68.699  1.00  0.00     2.391 OA 
HETATM   24  C   UNL     1      -6.875   7.242  64.603  1.00  0.00    -0.050 C  
ENDROOT
BRANCH   5  25
HETATM   25  O   UNL     1     -10.613  12.132  70.146  1.00  0.00     0.929 OA 
BRANCH  25  26
HETATM   26  C   UNL     1     -11.730  12.910  69.634  1.00  0.00    -0.299 C  
HETATM   27  C   UNL     1     -11.617  12.886  66.700  1.00  0.00    -0.372 C  
HETATM   28  C   UNL     1     -11.811  11.643  67.656  1.00  0.00    -0.143 C  
HETATM   29  C   UNL     1     -10.701  13.865  67.529  1.00  0.00    -0.271 C  
HETATM   30  O   UNL     1     -12.530  12.070  68.809  1.00  0.00    -0.085 OA 
HETATM   31  C   UNL     1     -11.367  14.186  68.865  1.00  0.00    -0.308 C  
HETATM   32  C   UNL     1     -12.492  10.390  67.134  1.00  0.00     5.120 C  
BRANCH  27  33
HETATM   33  N   UNL     1     -12.821  13.566  66.199  1.00  0.00    -0.205 NA 
HETATM   34  C   UNL     1     -12.746  15.024  66.342  1.00  0.00     0.991 C  
HETATM   35  C   UNL     1     -13.127  13.257  64.802  1.00  0.00     0.108 C  
ENDBRANCH  27  33
ENDBRANCH  25  26
ENDBRANCH   5  25
BRANCH  14  36
HETATM   36  O   UNL     1      -8.727  10.224  66.483  1.00  0.00    -0.129 OA 
BRANCH  36  37
HETATM   37  C   UNL     1      -8.964  11.044  67.621  1.00  0.00    -0.142 C  
HETATM   38  C   UNL     1      -9.100  14.718  67.891  1.00  0.00    -0.183 C  
HETATM   39  C   UNL     1      -7.552  11.545  69.792  1.00  0.00     0.640 C  
HETATM   40  C   UNL     1      -8.962  13.269  68.392  1.00  0.00    -0.124 C  
HETATM   41  O   UNL     1      -8.877  12.405  67.269  1.00  0.00    -0.176 OA 
HETATM   42  H   UNL     1      -8.032   9.029  70.039  1.00  0.00     0.000 HD 
HETATM   43  C   UNL     1      -8.060  10.540  68.741  1.00  0.00    -0.131 C  
HETATM   44  O   UNL     1      -8.595   9.342  69.341  1.00  0.00    -0.131 OA 
HETATM   45  C   UNL     1      -7.668  13.036  69.188  1.00  0.00     0.317 C  
BRANCH  45  46
HETATM   46  O   UNL     1      -7.586  14.106  70.155  1.00  0.00     0.487 OA 
BRANCH  46  47
HETATM   47  C   UNL     1      -6.349  14.774  70.010  1.00  0.00    -0.164 C  
HETATM   48  C   UNL     1      -6.160  15.207  68.569  1.00  0.00    -0.095 C  
HETATM   49  C   UNL     1      -5.222  17.767  71.606  1.00  0.00     0.181 C  
HETATM   50  O   UNL     1      -6.081  15.721  71.000  1.00  0.00     0.277 OA 
HETATM   51  H   UNL     1      -6.173  19.418  69.606  1.00  0.00     0.000 HD 
HETATM   52  C   UNL     1      -6.816  16.533  68.310  1.00  0.00    -0.142 C  
HETATM   53  C   UNL     1      -6.682  16.840  66.815  1.00  0.00    -0.257 C  
HETATM   54  O   UNL     1      -8.223  16.509  68.592  1.00  0.00    -0.211 OA 
HETATM   55  C   UNL     1      -6.096  17.505  69.237  1.00  0.00    -0.232 C  
HETATM   56  O   UNL     1      -6.621  18.812  69.028  1.00  0.00    -0.265 OA 
HETATM   57  H   UNL     1      -8.638  17.348  68.428  1.00  0.00     0.000 HD 
HETATM   58  C   UNL     1      -6.260  17.091  70.719  1.00  0.00     1.010 C  
ENDBRANCH  46  47
ENDBRANCH  45  46
BRANCH  39  59
HETATM   59  N   UNL     1      -6.211  11.003  70.284  1.00  0.00    -0.166 NA 
HETATM   60  C   UNL     1      -5.934  10.903  71.693  1.00  0.00     0.759 C  
HETATM   61  C   UNL     1      -5.296  10.171  69.524  1.00  0.00    -0.038 C  
ENDBRANCH  39  59
ENDBRANCH  36  37
ENDBRANCH  14  36
BRANCH  19  62
HETATM   62  O   UNL     1     -10.076   8.031  63.930  1.00  0.00     4.592 OA 
HETATM   63  C   UNL     1      -9.798   7.302  62.746  1.00  0.00     4.457 C  
ENDBRANCH  19  62
TORSDOF 9
ENDMDL
MODEL       54
REMARK 921   NORMALIZED FREE ENERGY PREDICTED BY IDOCK:   46.31 KCAL/MOL
REMARK 922        TOTAL FREE ENERGY PREDICTED BY IDOCK:   68.04 KCAL/MOL
REMARK 923 INTER-LIGAND FREE ENERGY PREDICTED BY IDOCK:   41.37 KCAL/MOL
REMARK 924 INTRA-LIGAND FREE ENERGY PREDICTED BY IDOCK:   26.67 KCAL/MOL
REMARK 927      BINDING AFFINITY PREDICTED BY RF-SCORE:    0.00 PKD
ROOT
HETATM    1  C   UNL     1      -9.841   2.540  69.795  1.00  0.00     0.255 C  
HETATM    2  C   UNL     1      -9.245   1.668  70.690  1.00  0.00    -0.157 C  
HETATM    3  C   UNL     1      -8.062   1.547  71.617  1.00  0.00    -0.040 C  
HETATM    4  C   UNL     1      -7.200   2.457  72.116  1.00  0.00    -0.038 C  
HETATM    5  C   UNL     1      -7.275   3.854  71.674  1.00  0.00    -0.046 C  
HETATM    6  O   UNL     1     -11.763  10.327  69.963  1.00  0.00    -0.256 OA 
HETATM    7  C   UNL     1      -8.227   4.602  72.676  1.00  0.00    -0.107 C  
HETATM    8  C   UNL     1     -12.462   4.351  67.291  1.00  0.00    14.169 C  
HETATM    9  C   UNL     1      -9.319   5.058  71.732  1.00  0.00    -0.184 C  
HETATM   10  C   UNL     1      -8.952   3.758  73.763  1.00  0.00    -0.088 C  
HETATM   11  C   UNL     1     -10.346   6.062  72.169  1.00  0.00    -0.232 C  
HETATM   12  C   UNL     1     -10.306   3.877  68.869  1.00  0.00     0.948 C  
HETATM   13  C   UNL     1     -11.874   4.584  68.674  1.00  0.00     8.962 C  
HETATM   14  C   UNL     1     -10.411   7.097  71.014  1.00  0.00    -0.196 C  
HETATM   15  C   UNL     1     -11.735   5.309  72.289  1.00  0.00     0.073 C  
HETATM   16  C   UNL     1     -11.965   4.429  73.490  1.00  0.00     0.335 C  
HETATM   17  O   UNL     1     -12.151   6.075  68.992  1.00  0.00     1.078 OA 
HETATM   18  O   UNL     1     -12.622   7.155  66.985  1.00  0.00     4.861 OA 
HETATM   19  C   UNL     1     -11.631   8.076  71.036  1.00  0.00    -0.283 C  
HETATM   20  C   UNL     1     -11.673   8.917  69.739  1.00  0.00     0.448 C  
HETATM   21  H   UNL     1     -11.790  10.844  69.166  1.00  0.00     0.000 HD 
HETATM   22  C   UNL     1     -12.546   7.154  68.208  1.00  0.00     5.972 C  
HETATM   23  O   UNL     1     -12.428   3.332  73.379  1.00  0.00     0.406 OA 
HETATM   24  C   UNL     1     -12.900   8.434  68.990  1.00  0.00     5.645 C  
ENDROOT
BRANCH   5  25
HETATM   25  O   UNL     1      -6.021   4.394  71.219  1.00  0.00    -0.015 OA 
BRANCH  25  26
HETATM   26  C   UNL     1      -5.443   3.519  70.212  1.00  0.00    -0.012 C  
HETATM   27  C   UNL     1      -7.121   3.630  67.805  1.00  0.00    -0.055 C  
HETATM   28  C   UNL     1      -6.317   4.821  68.462  1.00  0.00    -0.036 C  
HETATM   29  C   UNL     1      -7.536   2.729  69.030  1.00  0.00    -0.047 C  
HETATM   30  O   UNL     1      -5.136   4.293  69.057  1.00  0.00     0.000 OA 
HETATM   31  C   UNL     1      -6.290   2.307  69.804  1.00  0.00    -0.028 C  
HETATM   32  C   UNL     1      -5.905   6.011  67.611  1.00  0.00    -0.016 C  
BRANCH  27  33
HETATM   33  N   UNL     1      -6.455   2.843  66.756  1.00  0.00    -0.035 NA 
HETATM   34  C   UNL     1      -5.964   1.551  67.247  1.00  0.00    -0.020 C  
HETATM   35  C   UNL     1      -7.297   2.600  65.585  1.00  0.00    -0.067 C  
ENDBRANCH  27  33
ENDBRANCH  25  26
ENDBRANCH   5  25
BRANCH  14  36
HETATM   36  O   UNL     1      -9.244   7.426  70.203  1.00  0.00    -0.151 OA 
BRANCH  36  37
HETATM   37  C   UNL     1      -9.030   8.716  69.643  1.00  0.00    -0.145 C  
HETATM   38  C   UNL     1     -11.061  11.778  69.934  1.00  0.00     0.030 C  
HETATM   39  C   UNL     1      -9.108   9.629  67.170  1.00  0.00    -0.134 C  
HETATM   40  C   UNL     1     -10.006  10.835  69.327  1.00  0.00    -0.159 C  
HETATM   41  O   UNL     1     -10.092   9.577  69.978  1.00  0.00    -0.209 OA 
HETATM   42  H   UNL     1      -7.150   7.962  67.060  1.00  0.00     0.000 HD 
HETATM   43  C   UNL     1      -8.710   8.522  68.165  1.00  0.00    -0.142 C  
HETATM   44  O   UNL     1      -7.349   8.083  67.981  1.00  0.00    -0.091 OA 
HETATM   45  C   UNL     1     -10.254  10.546  67.839  1.00  0.00    -0.183 C  
BRANCH  45  46
HETATM   46  O   UNL     1     -10.474  11.826  67.206  1.00  0.00    -0.205 OA 
BRANCH  46  47
HETATM   47  C   UNL     1     -11.474  11.692  66.217  1.00  0.00    -0.145 C  
HETATM   48  C   UNL     1     -12.237  12.995  66.073  1.00  0.00    -0.463 C  
HETATM   49  C   UNL     1     -11.101  10.922  62.747  1.00  0.00     1.073 C  
HETATM   50  O   UNL     1     -11.050  11.070  65.041  1.00  0.00    -0.117 OA 
HETATM   51  H   UNL     1     -10.915  13.569  61.983  1.00  0.00     0.000 HD 
HETATM   52  C   UNL     1     -11.540  13.931  65.129  1.00  0.00    -0.335 C  
HETATM   53  C   UNL     1     -12.305  15.259  65.131  1.00  0.00     0.301 C  
HETATM   54  O   UNL     1     -10.203  14.237  65.552  1.00  0.00    -0.322 OA 
HETATM   55  C   UNL     1     -11.528  13.193  63.795  1.00  0.00    -0.373 C  
HETATM   56  O   UNL     1     -10.922  14.029  62.814  1.00  0.00     2.670 OA 
HETATM   57  H   UNL     1      -9.761  14.829  64.955  1.00  0.00     0.000 HD 
HETATM   58  C   UNL     1     -10.764  11.852  63.904  1.00  0.00    -0.395 C  
ENDBRANCH  46  47
ENDBRANCH  45  46
BRANCH  39  59
HETATM   59  N   UNL     1      -9.348   8.931  65.832  1.00  0.00    -0.234 NA 
HETATM   60  C   UNL     1      -9.906   7.605  65.788  1.00  0.00     0.669 C  
HETATM   61  C   UNL     1      -9.474   9.580  64.540  1.00  0.00    -0.005 C  
ENDBRANCH  39  59
ENDBRANCH  36  37
ENDBRANCH  14  36
BRANCH  19  62
HETATM   62  O   UNL     1     -11.921   8.867  72.180  1.00  0.00    -0.357 OA 
HETATM   63  C   UNL     1     -13.261   9.126  72.565  1.00  0.00    -0.397 C  
ENDBRANCH  19  62
TORSDOF 9
ENDMDL
MODEL       55
REMARK 921   NORMALIZED FREE ENERGY PREDICTED BY IDOCK:   47.81 KCAL/MOL
REMARK 922        TOTAL FREE ENERGY PREDICTED BY IDOCK:   70.34 KCAL/MOL
REMARK 923 INTER-LIGAND FREE ENERGY PREDICTED BY IDOCK:   68.41 KCAL/MOL
REMARK 924 INTRA-LIGAND FREE ENERGY PREDICTED BY IDOCK:    1.93 KCAL/MOL
REMARK 927      BINDING AFFINITY PREDICTED BY RF-SCORE:    0.00 PKD
ROOT
HETATM    1  C   UNL     1      -5.877  15.279  69.010  1.00  0.00    -0.098 C  
HETATM    2  C   UNL     1      -5.336  15.890  67.893  1.00  0.00    -0.143 C  
HETATM    3  C   UNL     1      -5.599  16.127  66.427  1.00  0.00     1.273 C  
HETATM    4  C   UNL     1      -6.706  15.995  65.668  1.00  0.00     4.229 C  
HETATM    5  C   UNL     1      -7.930  15.438  66.253  1.00  0.00     0.568 C  
HETATM    6  O   UNL     1     -13.154  15.165  72.386  1.00  0.00    -0.320 OA 
HETATM    7  C   UNL     1      -8.772  16.648  66.797  1.00  0.00    -0.256 C  
HETATM    8  C   UNL     1      -6.667  14.130  72.815  1.00  0.00     2.487 C  
HETATM    9  C   UNL     1      -8.839  16.301  68.268  1.00  0.00    -0.188 C  
HETATM   10  C   UNL     1      -8.134  18.066  66.739  1.00  0.00    -0.264 C  
HETATM   11  C   UNL     1      -9.779  17.023  69.190  1.00  0.00    -0.165 C  
HETATM   12  C   UNL     1      -6.876  14.506  70.136  1.00  0.00    -0.026 C  
HETATM   13  C   UNL     1      -7.305  14.995  71.739  1.00  0.00     3.145 C  
HETATM   14  C   UNL     1     -10.482  15.904  70.003  1.00  0.00    -0.291 C  
HETATM   15  C   UNL     1      -8.906  17.921  70.161  1.00  0.00     2.547 C  
HETATM   16  C   UNL     1      -8.325  19.199  69.617  1.00  0.00     0.495 C  
HETATM   17  O   UNL     1      -8.781  15.174  72.179  1.00  0.00     4.606 OA 
HETATM   18  O   UNL     1      -9.266  13.514  73.736  1.00  0.00     9.728 OA 
HETATM   19  C   UNL     1     -11.271  16.368  71.271  1.00  0.00     0.019 C  
HETATM   20  C   UNL     1     -11.756  15.145  72.084  1.00  0.00    -0.414 C  
HETATM   21  H   UNL     1     -13.453  14.414  72.886  1.00  0.00     0.000 HD 
HETATM   22  C   UNL     1      -9.574  14.528  73.120  1.00  0.00     7.998 C  
HETATM   23  O   UNL     1      -7.184  19.499  69.814  1.00  0.00    -0.195 OA 
HETATM   24  C   UNL     1     -10.950  15.176  73.369  1.00  0.00     1.570 C  
ENDROOT
BRANCH   5  25
HETATM   25  O   UNL     1      -8.499  14.351  65.500  1.00  0.00     1.698 OA 
BRANCH  25  26
HETATM   26  C   UNL     1      -9.778  14.756  64.937  1.00  0.00     0.330 C  
HETATM   27  C   UNL     1     -11.292  12.341  64.230  1.00  0.00    -0.352 C  
HETATM   28  C   UNL     1     -10.818  12.781  65.672  1.00  0.00    -0.273 C  
HETATM   29  C   UNL     1     -10.162  12.887  63.275  1.00  0.00     0.905 C  
HETATM   30  O   UNL     1     -10.821  14.204  65.733  1.00  0.00    -0.287 OA 
HETATM   31  C   UNL     1     -10.011  14.395  63.466  1.00  0.00     5.161 C  
HETATM   32  C   UNL     1     -11.560  12.272  66.896  1.00  0.00    -0.427 C  
BRANCH  27  33
HETATM   33  N   UNL     1     -12.628  12.764  63.784  1.00  0.00    -0.715 NA 
HETATM   34  C   UNL     1     -13.192  11.870  62.768  1.00  0.00     1.318 C  
HETATM   35  C   UNL     1     -13.595  12.887  64.876  1.00  0.00     1.554 C  
ENDBRANCH  27  33
ENDBRANCH  25  26
ENDBRANCH   5  25
BRANCH  14  36
HETATM   36  O   UNL     1     -10.750  14.587  69.436  1.00  0.00    -0.242 OA 
BRANCH  36  37
HETATM   37  C   UNL     1     -10.126  13.400  69.908  1.00  0.00     1.604 C  
HETATM   38  C   UNL     1      -7.371  11.440  68.439  1.00  0.00    -0.095 C  
HETATM   39  C   UNL     1     -10.962  10.909  70.143  1.00  0.00    -0.079 C  
HETATM   40  C   UNL     1      -8.587  11.709  69.345  1.00  0.00     0.713 C  
HETATM   41  O   UNL     1      -9.143  12.968  68.997  1.00  0.00     0.242 OA 
HETATM   42  H   UNL     1     -12.517  12.148  71.776  1.00  0.00     0.000 HD 
HETATM   43  C   UNL     1     -11.234  12.419  70.277  1.00  0.00     0.650 C  
HETATM   44  O   UNL     1     -11.827  12.759  71.547  1.00  0.00     0.717 OA 
HETATM   45  C   UNL     1      -9.718  10.690  69.139  1.00  0.00    -0.189 C  
BRANCH  45  46
HETATM   46  O   UNL     1      -9.103   9.383  69.189  1.00  0.00    -0.139 OA 
BRANCH  46  47
HETATM   47  C   UNL     1      -9.047   8.943  70.530  1.00  0.00    -0.200 C  
HETATM   48  C   UNL     1      -8.433   7.558  70.596  1.00  0.00    -0.132 C  
HETATM   49  C   UNL     1      -7.318  10.410  73.294  1.00  0.00     5.748 C  
HETATM   50  O   UNL     1      -8.569   9.895  71.434  1.00  0.00     0.396 OA 
HETATM   51  H   UNL     1      -5.015   8.945  72.877  1.00  0.00     0.000 HD 
HETATM   52  C   UNL     1      -6.933   7.631  70.639  1.00  0.00    -0.047 C  
HETATM   53  C   UNL     1      -6.391   6.198  70.584  1.00  0.00    -0.039 C  
HETATM   54  O   UNL     1      -6.387   8.312  69.500  1.00  0.00    -0.033 OA 
HETATM   55  C   UNL     1      -6.622   8.392  71.923  1.00  0.00    -0.072 C  
HETATM   56  O   UNL     1      -5.209   8.471  72.077  1.00  0.00    -0.035 OA 
HETATM   57  H   UNL     1      -5.439   8.358  69.526  1.00  0.00     0.000 HD 
HETATM   58  C   UNL     1      -7.240   9.810  71.896  1.00  0.00     1.312 C  
ENDBRANCH  46  47
ENDBRANCH  45  46
BRANCH  39  59
HETATM   59  N   UNL     1     -12.315  10.257  69.864  1.00  0.00    -0.101 NA 
HETATM   60  C   UNL     1     -12.667   9.005  70.481  1.00  0.00     0.437 C  
HETATM   61  C   UNL     1     -13.502  10.931  69.367  1.00  0.00     2.515 C  
ENDBRANCH  39  59
ENDBRANCH  36  37
ENDBRANCH  14  36
BRANCH  19  62
HETATM   62  O   UNL     1     -12.274  17.371  71.190  1.00  0.00     2.946 OA 
HETATM   63  C   UNL     1     -13.619  17.087  71.539  1.00  0.00     7.315 C  
ENDBRANCH  19  62
TORSDOF 9
ENDMDL
MODEL       56
REMARK 921   NORMALIZED FREE ENERGY PREDICTED BY IDOCK:   48.19 KCAL/MOL
REMARK 922        TOTAL FREE ENERGY PREDICTED BY IDOCK:   70.91 KCAL/MOL
REMARK 923 INTER-LIGAND FREE ENERGY PREDICTED BY IDOCK:   51.35 KCAL/MOL
REMARK 924 INTRA-LIGAND FREE ENERGY PREDICTED BY IDOCK:   19.56 KCAL/MOL
REMARK 927      BINDING AFFINITY PREDICTED BY RF-SCORE:    0.00 PKD
ROOT
HETATM    1  C   UNL     1     -12.466  12.366  64.475  1.00  0.00    -0.519 C  
HETATM    2  C   UNL     1     -12.249  13.677  64.090  1.00  0.00    -0.450 C  
HETATM    3  C   UNL     1     -11.813  15.015  64.631  1.00  0.00    -0.378 C  
HETATM    4  C   UNL     1     -11.193  15.377  65.773  1.00  0.00    -0.196 C  
HETATM    5  C   UNL     1     -10.916  14.371  66.804  1.00  0.00    -0.314 C  
HETATM    6  O   UNL     1      -8.299   6.996  68.737  1.00  0.00    -0.120 OA 
HETATM    7  C   UNL     1      -9.479  13.802  66.519  1.00  0.00    -0.282 C  
HETATM    8  C   UNL     1     -13.116   8.366  64.465  1.00  0.00    23.397 C  
HETATM    9  C   UNL     1      -9.801  12.342  66.282  1.00  0.00    -0.257 C  
HETATM   10  C   UNL     1      -8.750  14.275  65.229  1.00  0.00     2.602 C  
HETATM   11  C   UNL     1      -8.711  11.310  66.232  1.00  0.00    -0.184 C  
HETATM   12  C   UNL     1     -12.531  10.884  65.289  1.00  0.00     3.819 C  
HETATM   13  C   UNL     1     -11.979   9.327  64.777  1.00  0.00    11.629 C  
HETATM   14  C   UNL     1      -9.211  10.155  67.140  1.00  0.00    -0.138 C  
HETATM   15  C   UNL     1      -8.598  10.802  64.735  1.00  0.00    -0.079 C  
HETATM   16  C   UNL     1      -7.914  11.694  63.732  1.00  0.00     1.734 C  
HETATM   17  O   UNL     1     -10.960   8.500  65.602  1.00  0.00     2.516 OA 
HETATM   18  O   UNL     1     -12.064   6.623  66.423  1.00  0.00     2.183 OA 
HETATM   19  C   UNL     1      -8.438   8.801  67.017  1.00  0.00    -0.109 C  
HETATM   20  C   UNL     1      -9.153   7.694  67.827  1.00  0.00    -0.130 C  
HETATM   21  H   UNL     1      -8.738   6.315  69.235  1.00  0.00     0.000 HD 
HETATM   22  C   UNL     1     -11.040   7.274  66.252  1.00  0.00     1.679 C  
HETATM   23  O   UNL     1      -8.388  11.898  62.654  1.00  0.00     0.155 OA 
HETATM   24  C   UNL     1      -9.701   6.732  66.790  1.00  0.00    -0.222 C  
ENDROOT
BRANCH   5  25
HETATM   25  O   UNL     1     -11.379  14.734  68.118  1.00  0.00    -0.280 OA 
BRANCH  25  26
HETATM   26  C   UNL     1     -10.845  13.807  69.104  1.00  0.00    -0.170 C  
HETATM   27  C   UNL     1      -7.944  14.220  69.297  1.00  0.00     0.125 C  
HETATM   28  C   UNL     1      -9.080  15.264  69.637  1.00  0.00    -0.125 C  
HETATM   29  C   UNL     1      -8.555  13.361  68.124  1.00  0.00    -0.174 C  
HETATM   30  O   UNL     1     -10.210  14.555  70.135  1.00  0.00     0.251 OA 
HETATM   31  C   UNL     1      -9.877  12.743  68.574  1.00  0.00    -0.147 C  
HETATM   32  C   UNL     1      -8.793  16.400  70.605  1.00  0.00     3.210 C  
BRANCH  27  33
HETATM   33  N   UNL     1      -7.442  13.368  70.386  1.00  0.00     1.677 NA 
HETATM   34  C   UNL     1      -6.203  12.668  70.028  1.00  0.00    -0.060 C  
HETATM   35  C   UNL     1      -7.215  14.093  71.637  1.00  0.00     3.281 C  
ENDBRANCH  27  33
ENDBRANCH  25  26
ENDBRANCH   5  25
BRANCH  14  36
HETATM   36  O   UNL     1     -10.050  10.397  68.308  1.00  0.00    -0.146 OA 
BRANCH  36  37
HETATM   37  C   UNL     1      -9.716   9.933  69.610  1.00  0.00    -0.229 C  
HETATM   38  C   UNL     1      -6.940   7.765  70.699  1.00  0.00    -0.046 C  
HETATM   39  C   UNL     1     -10.881   8.240  71.263  1.00  0.00    -0.237 C  
HETATM   40  C   UNL     1      -8.303   8.474  70.802  1.00  0.00    -0.139 C  
HETATM   41  O   UNL     1      -8.595   9.082  69.553  1.00  0.00    -0.129 OA 
HETATM   42  H   UNL     1     -12.635  10.117  71.100  1.00  0.00     0.000 HD 
HETATM   43  C   UNL     1     -10.992   9.387  70.241  1.00  0.00    -0.262 C  
HETATM   44  O   UNL     1     -11.840  10.457  70.708  1.00  0.00    -0.312 OA 
HETATM   45  C   UNL     1      -9.461   7.501  71.066  1.00  0.00    -0.160 C  
BRANCH  45  46
HETATM   46  O   UNL     1      -9.043   6.658  72.162  1.00  0.00    -0.139 OA 
BRANCH  46  47
HETATM   47  C   UNL     1      -8.443   5.486  71.649  1.00  0.00    -0.131 C  
HETATM   48  C   UNL     1      -6.990   5.418  72.076  1.00  0.00    -0.079 C  
HETATM   49  C   UNL     1      -9.323   2.074  72.251  1.00  0.00    -0.142 C  
HETATM   50  O   UNL     1      -9.207   4.327  71.802  1.00  0.00    -0.119 OA 
HETATM   51  H   UNL     1      -7.619   1.816  74.409  1.00  0.00     0.000 HD 
HETATM   52  C   UNL     1      -6.852   4.797  73.437  1.00  0.00    -0.069 C  
HETATM   53  C   UNL     1      -5.377   4.874  73.843  1.00  0.00    -0.017 C  
HETATM   54  O   UNL     1      -7.584   5.516  74.441  1.00  0.00    -0.094 OA 
HETATM   55  C   UNL     1      -7.406   3.386  73.273  1.00  0.00    -0.055 C  
HETATM   56  O   UNL     1      -7.274   2.695  74.511  1.00  0.00    -0.039 OA 
HETATM   57  H   UNL     1      -7.498   5.124  75.301  1.00  0.00     0.000 HD 
HETATM   58  C   UNL     1      -8.888   3.415  72.828  1.00  0.00    -0.085 C  
ENDBRANCH  46  47
ENDBRANCH  45  46
BRANCH  39  59
HETATM   59  N   UNL     1     -12.190   7.458  71.166  1.00  0.00    -0.329 NA 
HETATM   60  C   UNL     1     -12.411   6.295  71.984  1.00  0.00    -0.146 C  
HETATM   61  C   UNL     1     -13.448   7.960  70.643  1.00  0.00     0.667 C  
ENDBRANCH  39  59
ENDBRANCH  36  37
ENDBRANCH  14  36
BRANCH  19  62
HETATM   62  O   UNL     1      -7.028   8.739  67.182  1.00  0.00    -0.070 OA 
HETATM   63  C   UNL     1      -6.253   9.922  67.276  1.00  0.00    -0.066 C  
ENDBRANCH  19  62
TORSDOF 9
ENDMDL
MODEL       57
REMARK 921   NORMALIZED FREE ENERGY PREDICTED BY IDOCK:   52.74 KCAL/MOL
REMARK 922        TOTAL FREE ENERGY PREDICTED BY IDOCK:   77.85 KCAL/MOL
REMARK 923 INTER-LIGAND FREE ENERGY PREDICTED BY IDOCK:   23.47 KCAL/MOL
REMARK 924 INTRA-LIGAND FREE ENERGY PREDICTED BY IDOCK:   54.38 KCAL/MOL
REMARK 927      BINDING AFFINITY PREDICTED BY RF-SCORE:    0.00 PKD
ROOT
HETATM    1  C   UNL     1      -8.239  12.306  64.057  1.00  0.00     3.182 C  
HETATM    2  C   UNL     1      -8.807  13.508  63.669  1.00  0.00     6.731 C  
HETATM    3  C   UNL     1      -9.969  14.421  63.970  1.00  0.00     2.403 C  
HETATM    4  C   UNL     1     -10.830  14.488  65.006  1.00  0.00    -0.425 C  
HETATM    5  C   UNL     1     -10.779  13.473  66.064  1.00  0.00    -0.279 C  
HETATM    6  O   UNL     1      -6.401   8.971  71.118  1.00  0.00    -0.053 OA 
HETATM    7  C   UNL     1      -9.814  14.018  67.178  1.00  0.00    -0.240 C  
HETATM    8  C   UNL     1      -5.693   9.197  64.577  1.00  0.00    -0.064 C  
HETATM    9  C   UNL     1      -8.748  12.944  67.171  1.00  0.00    -0.205 C  
HETATM   10  C   UNL     1      -9.057  15.349  66.901  1.00  0.00    -0.265 C  
HETATM   11  C   UNL     1      -7.723  12.867  68.266  1.00  0.00    -0.137 C  
HETATM   12  C   UNL     1      -7.809  10.874  64.848  1.00  0.00     0.268 C  
HETATM   13  C   UNL     1      -6.254  10.349  65.396  1.00  0.00    -0.127 C  
HETATM   14  C   UNL     1      -7.694  11.373  68.684  1.00  0.00    -0.137 C  
HETATM   15  C   UNL     1      -6.323  13.274  67.643  1.00  0.00    -0.161 C  
HETATM   16  C   UNL     1      -6.059  14.734  67.384  1.00  0.00     0.207 C  
HETATM   17  O   UNL     1      -5.986   9.969  66.875  1.00  0.00    -0.053 OA 
HETATM   18  O   UNL     1      -5.570   7.681  66.958  1.00  0.00    -0.029 OA 
HETATM   19  C   UNL     1      -6.486  10.931  69.572  1.00  0.00    -0.095 C  
HETATM   20  C   UNL     1      -6.480   9.395  69.754  1.00  0.00    -0.041 C  
HETATM   21  H   UNL     1      -6.397   8.028  71.230  1.00  0.00     0.000 HD 
HETATM   22  C   UNL     1      -5.620   8.780  67.496  1.00  0.00    -0.039 C  
HETATM   23  O   UNL     1      -5.586  15.109  66.352  1.00  0.00     1.683 OA 
HETATM   24  C   UNL     1      -5.264   8.908  68.990  1.00  0.00    -0.036 C  
ENDROOT
BRANCH   5  25
HETATM   25  O   UNL     1     -12.049  12.856  66.347  1.00  0.00    -0.401 OA 
BRANCH  25  26
HETATM   26  C   UNL     1     -12.329  12.933  67.772  1.00  0.00     0.266 C  
HETATM   27  C   UNL     1     -11.630  10.358  69.000  1.00  0.00    -0.150 C  
HETATM   28  C   UNL     1     -10.653  11.362  68.268  1.00  0.00    -0.195 C  
HETATM   29  C   UNL     1     -13.000  10.538  68.239  1.00  0.00     4.657 C  
HETATM   30  O   UNL     1     -11.123  12.688  68.487  1.00  0.00    -0.237 OA 
HETATM   31  C   UNL     1     -13.430  12.003  68.294  1.00  0.00     6.471 C  
HETATM   32  C   UNL     1      -9.170  11.344  68.598  1.00  0.00    -0.149 C  
BRANCH  27  33
HETATM   33  N   UNL     1     -11.797  10.496  70.454  1.00  0.00    -0.311 NA 
HETATM   34  C   UNL     1     -12.844   9.617  70.987  1.00  0.00    -0.262 C  
HETATM   35  C   UNL     1     -10.566  10.253  71.208  1.00  0.00     0.946 C  
ENDBRANCH  27  33
ENDBRANCH  25  26
ENDBRANCH   5  25
BRANCH  14  36
HETATM   36  O   UNL     1      -8.882  10.529  68.620  1.00  0.00    -0.132 OA 
BRANCH  36  37
HETATM   37  C   UNL     1      -8.863   9.203  68.105  1.00  0.00    -0.129 C  
HETATM   38  C   UNL     1     -11.626   7.142  66.800  1.00  0.00     1.554 C  
HETATM   39  C   UNL     1      -8.448   6.852  69.227  1.00  0.00    -0.129 C  
HETATM   40  C   UNL     1     -10.228   7.428  67.379  1.00  0.00    -0.246 C  
HETATM   41  O   UNL     1     -10.166   8.793  67.763  1.00  0.00    -0.202 OA 
HETATM   42  H   UNL     1      -6.176   8.013  69.567  1.00  0.00     0.000 HD 
HETATM   43  C   UNL     1      -8.082   8.343  69.093  1.00  0.00    -0.119 C  
HETATM   44  O   UNL     1      -6.662   8.549  68.951  1.00  0.00    -0.052 OA 
HETATM   45  C   UNL     1      -9.940   6.627  68.658  1.00  0.00    -0.147 C  
BRANCH  45  46
HETATM   46  O   UNL     1     -10.295   5.257  68.370  1.00  0.00    -0.164 OA 
BRANCH  46  47
HETATM   47  C   UNL     1      -9.777   4.895  67.106  1.00  0.00    -0.175 C  
HETATM   48  C   UNL     1      -8.408   5.518  66.910  1.00  0.00    -0.108 C  
HETATM   49  C   UNL     1      -9.051   1.633  65.837  1.00  0.00    -0.049 C  
HETATM   50  O   UNL     1      -9.912   3.542  66.789  1.00  0.00     0.000 OA 
HETATM   51  H   UNL     1      -6.438   1.658  66.731  1.00  0.00     0.000 HD 
HETATM   52  C   UNL     1      -7.330   4.661  67.509  1.00  0.00    -0.074 C  
HETATM   53  C   UNL     1      -6.001   5.412  67.375  1.00  0.00    -0.026 C  
HETATM   54  O   UNL     1      -7.527   4.440  68.914  1.00  0.00    -0.055 OA 
HETATM   55  C   UNL     1      -7.412   3.347  66.740  1.00  0.00    -0.076 C  
HETATM   56  O   UNL     1      -6.387   2.477  67.210  1.00  0.00    -0.030 OA 
HETATM   57  H   UNL     1      -6.846   3.898  69.294  1.00  0.00     0.000 HD 
HETATM   58  C   UNL     1      -8.800   2.684  66.910  1.00  0.00    -0.133 C  
ENDBRANCH  46  47
ENDBRANCH  45  46
BRANCH  39  59
HETATM   59  N   UNL     1      -8.088   6.454  70.657  1.00  0.00    -0.112 NA 
HETATM   60  C   UNL     1      -9.020   6.668  71.733  1.00  0.00    -0.140 C  
HETATM   61  C   UNL     1      -7.071   5.493  71.047  1.00  0.00    -0.069 C  
ENDBRANCH  39  59
ENDBRANCH  36  37
ENDBRANCH  14  36
BRANCH  19  62
HETATM   62  O   UNL     1      -6.179  11.601  70.787  1.00  0.00    -0.305 OA 
HETATM   63  C   UNL     1      -6.189  10.907  72.024  1.00  0.00     1.868 C  
ENDBRANCH  19  62
TORSDOF 9
ENDMDL
MODEL       58
REMARK 921   NORMALIZED FREE ENERGY PREDICTED BY IDOCK:   56.73 KCAL/MOL
REMARK 922        TOTAL FREE ENERGY PREDICTED BY IDOCK:   83.94 KCAL/MOL
REMARK 923 INTER-LIGAND FREE ENERGY PREDICTED BY IDOCK:   72.38 KCAL/MOL
REMARK 924 INTRA-LIGAND FREE ENERGY PREDICTED BY IDOCK:   11.56 KCAL/MOL
REMARK 927      BINDING AFFINITY PREDICTED BY RF-SCORE:    0.00 PKD
ROOT
HETATM    1  C   UNL     1      -9.847   2.538  69.794  1.00  0.00     0.255 C  
HETATM    2  C   UNL     1      -9.224   1.692  70.695  1.00  0.00    -0.157 C  
HETATM    3  C   UNL     1      -8.032   1.610  71.614  1.00  0.00    -0.041 C  
HETATM    4  C   UNL     1      -7.188   2.545  72.096  1.00  0.00    -0.039 C  
HETATM    5  C   UNL     1      -7.299   3.934  71.638  1.00  0.00    -0.054 C  
HETATM    6  O   UNL     1     -11.950  10.280  69.881  1.00  0.00    -0.396 OA 
HETATM    7  C   UNL     1      -8.261   4.673  72.637  1.00  0.00    -0.107 C  
HETATM    8  C   UNL     1     -12.528   4.257  67.287  1.00  0.00    14.979 C  
HETATM    9  C   UNL     1      -9.370   5.091  71.696  1.00  0.00    -0.188 C  
HETATM   10  C   UNL     1      -8.958   3.825  73.740  1.00  0.00    -0.088 C  
HETATM   11  C   UNL     1     -10.417   6.077  72.128  1.00  0.00    -0.246 C  
HETATM   12  C   UNL     1     -10.350   3.853  68.856  1.00  0.00     0.948 C  
HETATM   13  C   UNL     1     -11.935   4.520  68.664  1.00  0.00    10.262 C  
HETATM   14  C   UNL     1     -10.515   7.096  70.961  1.00  0.00    -0.215 C  
HETATM   15  C   UNL     1     -11.788   5.293  72.268  1.00  0.00     0.171 C  
HETATM   16  C   UNL     1     -11.988   4.422  73.481  1.00  0.00     0.335 C  
HETATM   17  O   UNL     1     -12.245   6.008  68.965  1.00  0.00     1.553 OA 
HETATM   18  O   UNL     1     -12.756   7.052  66.949  1.00  0.00     5.592 OA 
HETATM   19  C   UNL     1     -11.757   8.046  70.980  1.00  0.00    -0.277 C  
HETATM   20  C   UNL     1     -11.828   8.870  69.674  1.00  0.00     0.732 C  
HETATM   21  H   UNL     1     -11.994  10.786  69.078  1.00  0.00     0.000 HD 
HETATM   22  C   UNL     1     -12.671   7.067  68.171  1.00  0.00     7.295 C  
HETATM   23  O   UNL     1     -12.426   3.314  73.387  1.00  0.00     0.406 OA 
HETATM   24  C   UNL     1     -13.049   8.348  68.940  1.00  0.00     7.889 C  
ENDROOT
BRANCH   5  25
HETATM   25  O   UNL     1      -6.061   4.498  71.166  1.00  0.00    -0.016 OA 
BRANCH  25  26
HETATM   26  C   UNL     1      -5.470   3.624  70.165  1.00  0.00    -0.012 C  
HETATM   27  C   UNL     1      -7.171   3.665  67.771  1.00  0.00    -0.059 C  
HETATM   28  C   UNL     1      -6.390   4.883  68.407  1.00  0.00    -0.036 C  
HETATM   29  C   UNL     1      -7.553   2.770  69.012  1.00  0.00    -0.047 C  
HETATM   30  O   UNL     1      -5.192   4.391  68.999  1.00  0.00    -0.007 OA 
HETATM   31  C   UNL     1      -6.290   2.388  69.781  1.00  0.00    -0.028 C  
HETATM   32  C   UNL     1      -6.014   6.071  67.538  1.00  0.00    -0.017 C  
BRANCH  27  33
HETATM   33  N   UNL     1      -6.494   2.881  66.727  1.00  0.00    -0.035 NA 
HETATM   34  C   UNL     1      -5.968   1.607  67.231  1.00  0.00    -0.020 C  
HETATM   35  C   UNL     1      -7.340   2.602  65.566  1.00  0.00    -0.067 C  
ENDBRANCH  27  33
ENDBRANCH  25  26
ENDBRANCH   5  25
BRANCH  14  36
HETATM   36  O   UNL     1      -9.361   7.442  70.138  1.00  0.00    -0.158 OA 
BRANCH  36  37
HETATM   37  C   UNL     1      -8.735   8.718  70.182  1.00  0.00    -0.149 C  
HETATM   38  C   UNL     1      -9.509  11.653  72.274  1.00  0.00    18.243 C  
HETATM   39  C   UNL     1      -8.638  10.724  68.472  1.00  0.00    -0.148 C  
HETATM   40  C   UNL     1      -8.904  10.886  71.083  1.00  0.00     5.679 C  
HETATM   41  O   UNL     1      -9.395   9.554  71.103  1.00  0.00    -0.222 OA 
HETATM   42  H   UNL     1      -7.420   8.863  67.178  1.00  0.00     0.000 HD 
HETATM   43  C   UNL     1      -8.602   9.208  68.744  1.00  0.00    -0.131 C  
HETATM   44  O   UNL     1      -7.503   8.557  68.073  1.00  0.00    -0.094 OA 
HETATM   45  C   UNL     1      -9.334  11.463  69.726  1.00  0.00     1.272 C  
BRANCH  45  46
HETATM   46  O   UNL     1      -9.120  12.890  69.803  1.00  0.00     1.787 OA 
BRANCH  46  47
HETATM   47  C   UNL     1     -10.162  13.556  69.120  1.00  0.00     0.157 C  
HETATM   48  C   UNL     1     -10.413  14.911  69.753  1.00  0.00    -0.151 C  
HETATM   49  C   UNL     1     -10.310  14.551  65.689  1.00  0.00    -0.367 C  
HETATM   50  O   UNL     1     -10.064  13.513  67.727  1.00  0.00    -0.226 OA 
HETATM   51  H   UNL     1      -9.234  17.048  66.168  1.00  0.00     0.000 HD 
HETATM   52  C   UNL     1      -9.487  15.952  69.194  1.00  0.00    -0.260 C  
HETATM   53  C   UNL     1      -9.723  17.255  69.965  1.00  0.00     1.134 C  
HETATM   54  O   UNL     1      -8.106  15.614  69.388  1.00  0.00    -0.230 OA 
HETATM   55  C   UNL     1      -9.825  16.009  67.708  1.00  0.00    -0.231 C  
HETATM   56  O   UNL     1      -9.023  17.013  67.094  1.00  0.00    -0.214 OA 
HETATM   57  H   UNL     1      -7.519  16.272  69.034  1.00  0.00     0.000 HD 
HETATM   58  C   UNL     1      -9.588  14.640  67.028  1.00  0.00    -0.240 C  
ENDBRANCH  46  47
ENDBRANCH  45  46
BRANCH  39  59
HETATM   59  N   UNL     1      -9.197  10.888  67.060  1.00  0.00    -0.152 NA 
HETATM   60  C   UNL     1     -10.196   9.981  66.558  1.00  0.00    -0.224 C  
HETATM   61  C   UNL     1      -9.165  12.102  66.264  1.00  0.00    -0.183 C  
ENDBRANCH  39  59
ENDBRANCH  36  37
ENDBRANCH  14  36
BRANCH  19  62
HETATM   62  O   UNL     1     -12.058   8.844  72.117  1.00  0.00    -0.358 OA 
HETATM   63  C   UNL     1     -13.400   9.076  72.509  1.00  0.00    -0.423 C  
ENDBRANCH  19  62
TORSDOF 9
ENDMDL
MODEL       59
REMARK 921   NORMALIZED FREE ENERGY PREDICTED BY IDOCK:   57.49 KCAL/MOL
REMARK 922        TOTAL FREE ENERGY PREDICTED BY IDOCK:   85.11 KCAL/MOL
REMARK 923 INTER-LIGAND FREE ENERGY PREDICTED BY IDOCK:   54.17 KCAL/MOL
REMARK 924 INTRA-LIGAND FREE ENERGY PREDICTED BY IDOCK:   30.94 KCAL/MOL
REMARK 927      BINDING AFFINITY PREDICTED BY RF-SCORE:    0.00 PKD
ROOT
HETATM    1  C   UNL     1      -6.027  15.198  68.787  1.00  0.00    -0.088 C  
HETATM    2  C   UNL     1      -5.332  15.797  67.751  1.00  0.00    -0.141 C  
HETATM    3  C   UNL     1      -5.514  16.321  66.349  1.00  0.00     1.038 C  
HETATM    4  C   UNL     1      -6.611  16.623  65.625  1.00  0.00     2.019 C  
HETATM    5  C   UNL     1      -7.945  16.348  66.171  1.00  0.00    -0.094 C  
HETATM    6  O   UNL     1     -13.046  16.607  72.407  1.00  0.00     0.217 OA 
HETATM    7  C   UNL     1      -8.411  17.647  66.923  1.00  0.00    -0.261 C  
HETATM    8  C   UNL     1      -7.119  13.744  72.409  1.00  0.00     4.777 C  
HETATM    9  C   UNL     1      -8.576  17.110  68.328  1.00  0.00    -0.241 C  
HETATM   10  C   UNL     1      -7.398  18.821  67.050  1.00  0.00    -0.224 C  
HETATM   11  C   UNL     1      -9.276  17.915  69.385  1.00  0.00     0.376 C  
HETATM   12  C   UNL     1      -7.206  14.571  69.826  1.00  0.00    -0.005 C  
HETATM   13  C   UNL     1      -7.483  14.908  71.500  1.00  0.00     2.835 C  
HETATM   14  C   UNL     1     -10.269  16.926  70.052  1.00  0.00     0.344 C  
HETATM   15  C   UNL     1      -8.186  18.372  70.442  1.00  0.00     3.132 C  
HETATM   16  C   UNL     1      -7.266  19.504  70.069  1.00  0.00     0.225 C  
HETATM   17  O   UNL     1      -8.849  15.423  72.023  1.00  0.00     4.605 OA 
HETATM   18  O   UNL     1      -9.787  13.747  73.335  1.00  0.00     7.750 OA 
HETATM   19  C   UNL     1     -10.897  17.391  71.406  1.00  0.00     1.973 C  
HETATM   20  C   UNL     1     -11.710  16.244  72.048  1.00  0.00    -0.443 C  
HETATM   21  H   UNL     1     -13.546  15.902  72.802  1.00  0.00     0.000 HD 
HETATM   22  C   UNL     1      -9.795  14.888  72.890  1.00  0.00     5.957 C  
HETATM   23  O   UNL     1      -6.088  19.439  70.261  1.00  0.00    -0.252 OA 
HETATM   24  C   UNL     1     -10.931  15.849  73.289  1.00  0.00     1.934 C  
ENDROOT
BRANCH   5  25
HETATM   25  O   UNL     1      -8.796  15.593  65.289  1.00  0.00     0.497 OA 
BRANCH  25  26
HETATM   26  C   UNL     1      -9.884  16.434  64.814  1.00  0.00     1.525 C  
HETATM   27  C   UNL     1     -10.309  18.596  66.755  1.00  0.00    -0.407 C  
HETATM   28  C   UNL     1      -9.007  18.323  65.902  1.00  0.00     0.229 C  
HETATM   29  C   UNL     1     -10.902  17.159  67.014  1.00  0.00    -0.044 C  
HETATM   30  O   UNL     1      -9.396  17.761  64.653  1.00  0.00     3.092 OA 
HETATM   31  C   UNL     1     -11.148  16.455  65.680  1.00  0.00     0.055 C  
HETATM   32  C   UNL     1      -8.047  19.463  65.609  1.00  0.00     0.165 C  
BRANCH  27  33
HETATM   33  N   UNL     1     -11.320  19.506  66.197  1.00  0.00     0.274 NA 
HETATM   34  C   UNL     1     -12.085  20.204  67.237  1.00  0.00     3.011 C  
HETATM   35  C   UNL     1     -10.765  20.508  65.286  1.00  0.00     0.599 C  
ENDBRANCH  27  33
ENDBRANCH  25  26
ENDBRANCH   5  25
BRANCH  14  36
HETATM   36  O   UNL     1     -10.897  15.841  69.307  1.00  0.00    -0.220 OA 
BRANCH  36  37
HETATM   37  C   UNL     1     -10.375  14.518  69.280  1.00  0.00    -0.142 C  
HETATM   38  C   UNL     1      -9.188  12.511  66.424  1.00  0.00    -0.177 C  
HETATM   39  C   UNL     1     -11.466  12.154  69.705  1.00  0.00    -0.238 C  
HETATM   40  C   UNL     1      -9.704  12.770  67.852  1.00  0.00    -0.217 C  
HETATM   41  O   UNL     1     -10.092  14.132  67.955  1.00  0.00    -0.223 OA 
HETATM   42  H   UNL     1     -11.706  13.273  72.010  1.00  0.00     0.000 HD 
HETATM   43  C   UNL     1     -11.322  13.639  70.089  1.00  0.00     0.072 C  
HETATM   44  O   UNL     1     -11.116  13.821  71.506  1.00  0.00     1.734 OA 
HETATM   45  C   UNL     1     -10.965  11.958  68.184  1.00  0.00    -0.227 C  
BRANCH  45  46
HETATM   46  O   UNL     1     -10.687  10.595  67.793  1.00  0.00    -0.216 OA 
BRANCH  46  47
HETATM   47  C   UNL     1      -9.862   9.988  68.766  1.00  0.00    -0.167 C  
HETATM   48  C   UNL     1     -10.478   8.680  69.224  1.00  0.00    -0.226 C  
HETATM   49  C   UNL     1      -6.475   8.887  68.456  1.00  0.00    -0.055 C  
HETATM   50  O   UNL     1      -8.502   9.974  68.448  1.00  0.00    -0.109 OA 
HETATM   51  H   UNL     1      -7.176   6.332  67.677  1.00  0.00     0.000 HD 
HETATM   52  C   UNL     1     -10.097   7.551  68.311  1.00  0.00    -0.183 C  
HETATM   53  C   UNL     1     -10.851   6.298  68.771  1.00  0.00    -0.398 C  
HETATM   54  O   UNL     1     -10.501   7.788  66.954  1.00  0.00    -0.319 OA 
HETATM   55  C   UNL     1      -8.579   7.468  68.415  1.00  0.00    -0.124 C  
HETATM   56  O   UNL     1      -8.123   6.384  67.612  1.00  0.00    -0.112 OA 
HETATM   57  H   UNL     1     -10.260   7.074  66.375  1.00  0.00     0.000 HD 
HETATM   58  C   UNL     1      -7.913   8.789  67.963  1.00  0.00    -0.106 C  
ENDBRANCH  46  47
ENDBRANCH  45  46
BRANCH  39  59
HETATM   59  N   UNL     1     -12.876  11.742  70.123  1.00  0.00     0.175 NA 
HETATM   60  C   UNL     1     -13.182  10.366  70.411  1.00  0.00     0.053 C  
HETATM   61  C   UNL     1     -13.892  12.618  70.680  1.00  0.00     2.358 C  
ENDBRANCH  39  59
ENDBRANCH  36  37
ENDBRANCH  14  36
BRANCH  19  62
HETATM   62  O   UNL     1     -11.575  18.635  71.516  1.00  0.00     4.477 OA 
HETATM   63  C   UNL     1     -11.141  19.769  70.784  1.00  0.00     4.326 C  
ENDBRANCH  19  62
TORSDOF 9
ENDMDL
MODEL       60
REMARK 921   NORMALIZED FREE ENERGY PREDICTED BY IDOCK:   57.95 KCAL/MOL
REMARK 922        TOTAL FREE ENERGY PREDICTED BY IDOCK:   85.81 KCAL/MOL
REMARK 923 INTER-LIGAND FREE ENERGY PREDICTED BY IDOCK:   53.50 KCAL/MOL
REMARK 924 INTRA-LIGAND FREE ENERGY PREDICTED BY IDOCK:   32.31 KCAL/MOL
REMARK 927      BINDING AFFINITY PREDICTED BY RF-SCORE:    0.00 PKD
ROOT
HETATM    1  C   UNL     1      -6.752  12.427  65.997  1.00  0.00     2.295 C  
HETATM    2  C   UNL     1      -6.666  11.843  64.745  1.00  0.00     3.833 C  
HETATM    3  C   UNL     1      -7.442  10.977  63.786  1.00  0.00     0.700 C  
HETATM    4  C   UNL     1      -8.741  10.620  63.728  1.00  0.00    -0.144 C  
HETATM    5  C   UNL     1      -9.657  11.021  64.802  1.00  0.00    -0.248 C  
HETATM    6  O   UNL     1     -12.340  16.726  69.825  1.00  0.00     0.324 OA 
HETATM    7  C   UNL     1     -10.292  12.394  64.377  1.00  0.00    -0.370 C  
HETATM    8  C   UNL     1      -6.094  14.722  69.271  1.00  0.00    -0.106 C  
HETATM    9  C   UNL     1      -9.817  13.280  65.508  1.00  0.00    -0.154 C  
HETATM   10  C   UNL     1      -9.767  13.070  63.078  1.00  0.00     3.268 C  
HETATM   11  C   UNL     1     -10.392  14.654  65.705  1.00  0.00    -0.349 C  
HETATM   12  C   UNL     1      -7.256  13.033  67.494  1.00  0.00    -0.154 C  
HETATM   13  C   UNL     1      -7.103  14.632  68.136  1.00  0.00    -0.124 C  
HETATM   14  C   UNL     1     -10.720  14.738  67.220  1.00  0.00    -0.294 C  
HETATM   15  C   UNL     1      -9.262  15.705  65.344  1.00  0.00     0.324 C  
HETATM   16  C   UNL     1      -8.959  15.950  63.889  1.00  0.00    11.002 C  
HETATM   17  O   UNL     1      -8.330  15.449  68.615  1.00  0.00    -0.149 OA 
HETATM   18  O   UNL     1      -8.171  15.690  70.924  1.00  0.00     1.934 OA 
HETATM   19  C   UNL     1     -11.021  16.166  67.780  1.00  0.00    -0.293 C  
HETATM   20  C   UNL     1     -11.141  16.130  69.321  1.00  0.00    -0.327 C  
HETATM   21  H   UNL     1     -12.414  16.704  70.772  1.00  0.00     0.000 HD 
HETATM   22  C   UNL     1      -8.713  15.946  69.856  1.00  0.00     0.402 C  
HETATM   23  O   UNL     1      -7.834  15.988  63.485  1.00  0.00    15.577 OA 
HETATM   24  C   UNL     1      -9.932  16.889  69.833  1.00  0.00     0.404 C  
ENDROOT
BRANCH   5  25
HETATM   25  O   UNL     1     -10.418   9.934  65.361  1.00  0.00    -0.110 OA 
BRANCH  25  26
HETATM   26  C   UNL     1      -9.522   8.970  65.979  1.00  0.00    -0.256 C  
HETATM   27  C   UNL     1      -8.982   6.826  64.046  1.00  0.00     1.128 C  
HETATM   28  C   UNL     1      -8.616   8.356  63.899  1.00  0.00     0.119 C  
HETATM   29  C   UNL     1     -10.318   6.833  64.883  1.00  0.00     4.257 C  
HETATM   30  O   UNL     1      -8.338   8.880  65.194  1.00  0.00    -0.142 OA 
HETATM   31  C   UNL     1     -10.094   7.565  66.204  1.00  0.00     0.256 C  
HETATM   32  C   UNL     1      -7.476   8.774  62.985  1.00  0.00    -0.102 C  
BRANCH  27  33
HETATM   33  N   UNL     1      -7.977   5.931  64.639  1.00  0.00    -0.118 NA 
HETATM   34  C   UNL     1      -6.619   6.482  64.569  1.00  0.00    -0.038 C  
HETATM   35  C   UNL     1      -8.258   5.578  66.031  1.00  0.00    -0.114 C  
ENDBRANCH  27  33
ENDBRANCH  25  26
ENDBRANCH   5  25
BRANCH  14  36
HETATM   36  O   UNL     1     -11.126  13.567  67.990  1.00  0.00    -0.243 OA 
BRANCH  36  37
HETATM   37  C   UNL     1     -10.477  13.168  69.191  1.00  0.00     0.099 C  
HETATM   38  C   UNL     1      -6.952  12.260  69.776  1.00  0.00     0.337 C  
HETATM   39  C   UNL     1     -10.649  11.001  70.685  1.00  0.00     1.352 C  
HETATM   40  C   UNL     1      -8.462  12.327  70.072  1.00  0.00     3.230 C  
HETATM   41  O   UNL     1      -9.124  12.869  68.939  1.00  0.00     0.110 OA 
HETATM   42  H   UNL     1     -13.017  11.986  70.901  1.00  0.00     0.000 HD 
HETATM   43  C   UNL     1     -11.337  12.087  69.835  1.00  0.00    -0.065 C  
HETATM   44  O   UNL     1     -12.481  12.660  70.500  1.00  0.00    -0.284 OA 
HETATM   45  C   UNL     1      -9.087  10.940  70.288  1.00  0.00     1.787 C  
BRANCH  45  46
HETATM   46  O   UNL     1      -8.234  10.251  71.229  1.00  0.00     1.200 OA 
BRANCH  46  47
HETATM   47  C   UNL     1      -6.981   9.998  70.627  1.00  0.00    -0.020 C  
HETATM   48  C   UNL     1      -6.809   8.509  70.395  1.00  0.00    -0.037 C  
HETATM   49  C   UNL     1      -5.734  11.161  67.485  1.00  0.00    -0.047 C  
HETATM   50  O   UNL     1      -6.665  10.848  69.565  1.00  0.00    -0.088 OA 
HETATM   51  H   UNL     1      -6.677   8.975  66.085  1.00  0.00     0.000 HD 
HETATM   52  C   UNL     1      -7.431   8.086  69.095  1.00  0.00    -0.095 C  
HETATM   53  C   UNL     1      -7.320   6.561  68.994  1.00  0.00    -0.093 C  
HETATM   54  O   UNL     1      -8.832   8.392  69.036  1.00  0.00    -0.144 OA 
HETATM   55  C   UNL     1      -6.664   8.864  68.031  1.00  0.00    -0.069 C  
HETATM   56  O   UNL     1      -7.155   8.491  66.748  1.00  0.00    -0.072 OA 
HETATM   57  H   UNL     1      -9.226   8.125  68.214  1.00  0.00     0.000 HD 
HETATM   58  C   UNL     1      -6.810  10.390  68.240  1.00  0.00    -0.065 C  
ENDBRANCH  46  47
ENDBRANCH  45  46
BRANCH  39  59
HETATM   59  N   UNL     1     -11.531   9.758  70.580  1.00  0.00    -0.300 NA 
HETATM   60  C   UNL     1     -12.448   9.601  69.482  1.00  0.00     1.144 C  
HETATM   61  C   UNL     1     -11.289   8.482  71.228  1.00  0.00    -0.271 C  
ENDBRANCH  39  59
ENDBRANCH  36  37
ENDBRANCH  14  36
BRANCH  19  62
HETATM   62  O   UNL     1     -12.022  16.991  67.198  1.00  0.00     1.332 OA 
HETATM   63  C   UNL     1     -11.674  18.055  66.329  1.00  0.00     2.575 C  
ENDBRANCH  19  62
TORSDOF 9
ENDMDL
MODEL       61
REMARK 921   NORMALIZED FREE ENERGY PREDICTED BY IDOCK:   59.51 KCAL/MOL
REMARK 922        TOTAL FREE ENERGY PREDICTED BY IDOCK:   88.19 KCAL/MOL
REMARK 923 INTER-LIGAND FREE ENERGY PREDICTED BY IDOCK:   79.58 KCAL/MOL
REMARK 924 INTRA-LIGAND FREE ENERGY PREDICTED BY IDOCK:    8.60 KCAL/MOL
REMARK 927      BINDING AFFINITY PREDICTED BY RF-SCORE:    0.00 PKD
ROOT
HETATM    1  C   UNL     1     -11.500   3.589  70.469  1.00  0.00     6.728 C  
HETATM    2  C   UNL     1     -11.196   2.652  71.441  1.00  0.00     2.920 C  
HETATM    3  C   UNL     1     -10.115   2.267  72.419  1.00  0.00    -0.227 C  
HETATM    4  C   UNL     1      -9.037   2.927  72.892  1.00  0.00    -0.109 C  
HETATM    5  C   UNL     1      -8.700   4.250  72.357  1.00  0.00    -0.108 C  
HETATM    6  O   UNL     1     -11.104  11.590  70.050  1.00  0.00    -0.476 OA 
HETATM    7  C   UNL     1      -9.415   5.311  73.269  1.00  0.00    -0.148 C  
HETATM    8  C   UNL     1     -13.442   5.882  67.751  1.00  0.00    17.801 C  
HETATM    9  C   UNL     1     -10.312   5.989  72.255  1.00  0.00    -0.223 C  
HETATM   10  C   UNL     1     -10.372   4.792  74.380  1.00  0.00    -0.324 C  
HETATM   11  C   UNL     1     -11.015   7.275  72.584  1.00  0.00    -0.341 C  
HETATM   12  C   UNL     1     -11.544   4.931  69.440  1.00  0.00     4.376 C  
HETATM   13  C   UNL     1     -12.838   6.039  69.138  1.00  0.00     7.011 C  
HETATM   14  C   UNL     1     -10.758   8.196  71.362  1.00  0.00    -0.232 C  
HETATM   15  C   UNL     1     -12.564   6.960  72.700  1.00  0.00     0.462 C  
HETATM   16  C   UNL     1     -13.059   6.273  73.946  1.00  0.00     6.945 C  
HETATM   17  O   UNL     1     -12.681   7.567  69.346  1.00  0.00     2.203 OA 
HETATM   18  O   UNL     1     -12.784   8.585  67.256  1.00  0.00     8.000 OA 
HETATM   19  C   UNL     1     -11.644   9.481  71.272  1.00  0.00    -0.374 C  
HETATM   20  C   UNL     1     -11.419  10.201  69.923  1.00  0.00    -0.254 C  
HETATM   21  H   UNL     1     -10.966  12.033  69.220  1.00  0.00     0.000 HD 
HETATM   22  C   UNL     1     -12.734   8.652  68.478  1.00  0.00     7.157 C  
HETATM   23  O   UNL     1     -13.816   5.349  73.889  1.00  0.00     5.047 OA 
HETATM   24  C   UNL     1     -12.720  10.034  69.159  1.00  0.00     1.707 C  
ENDROOT
BRANCH   5  25
HETATM   25  O   UNL     1      -7.335   4.375  71.916  1.00  0.00    -0.064 OA 
BRANCH  25  26
HETATM   26  C   UNL     1      -7.302   4.767  70.516  1.00  0.00    -0.050 C  
HETATM   27  C   UNL     1      -6.102   2.581  68.964  1.00  0.00    -0.025 C  
HETATM   28  C   UNL     1      -7.440   2.531  69.803  1.00  0.00    -0.043 C  
HETATM   29  C   UNL     1      -5.192   3.594  69.759  1.00  0.00    -0.008 C  
HETATM   30  O   UNL     1      -8.048   3.819  69.760  1.00  0.00    -0.054 OA 
HETATM   31  C   UNL     1      -5.910   4.934  69.895  1.00  0.00    -0.017 C  
HETATM   32  C   UNL     1      -8.510   1.512  69.454  1.00  0.00    -0.074 C  
BRANCH  27  33
HETATM   33  N   UNL     1      -6.194   2.939  67.540  1.00  0.00    -0.031 NA 
HETATM   34  C   UNL     1      -5.556   1.948  66.667  1.00  0.00    -0.017 C  
HETATM   35  C   UNL     1      -7.568   3.143  67.077  1.00  0.00    -0.075 C  
ENDBRANCH  27  33
ENDBRANCH  25  26
ENDBRANCH   5  25
BRANCH  14  36
HETATM   36  O   UNL     1      -9.530   8.117  70.578  1.00  0.00    -0.161 OA 
BRANCH  36  37
HETATM   37  C   UNL     1      -9.199   9.056  69.563  1.00  0.00    -0.152 C  
HETATM   38  C   UNL     1      -8.248   8.487  66.047  1.00  0.00    -0.118 C  
HETATM   39  C   UNL     1      -7.144  10.674  69.221  1.00  0.00    -0.107 C  
HETATM   40  C   UNL     1      -8.372   9.268  67.369  1.00  0.00    -0.122 C  
HETATM   41  O   UNL     1      -8.851   8.387  68.374  1.00  0.00    -0.139 OA 
HETATM   42  H   UNL     1      -8.199  11.601  71.378  1.00  0.00     0.000 HD 
HETATM   43  C   UNL     1      -8.185  10.029  70.155  1.00  0.00    -0.053 C  
HETATM   44  O   UNL     1      -8.831  10.996  71.009  1.00  0.00     3.533 OA 
HETATM   45  C   UNL     1      -7.019   9.782  67.883  1.00  0.00    -0.078 C  
BRANCH  45  46
HETATM   46  O   UNL     1      -6.375  10.429  66.763  1.00  0.00    -0.067 OA 
BRANCH  46  47
HETATM   47  C   UNL     1      -7.079  10.120  65.577  1.00  0.00    -0.138 C  
HETATM   48  C   UNL     1      -8.564  10.347  65.782  1.00  0.00    -0.172 C  
HETATM   49  C   UNL     1      -6.767  11.606  62.341  1.00  0.00     0.877 C  
HETATM   50  O   UNL     1      -6.510  10.640  64.413  1.00  0.00    -0.004 OA 
HETATM   51  H   UNL     1      -8.711  13.509  62.817  1.00  0.00     0.000 HD 
HETATM   52  C   UNL     1      -8.934  11.781  65.535  1.00  0.00     0.104 C  
HETATM   53  C   UNL     1     -10.418  11.950  65.876  1.00  0.00    -0.296 C  
HETATM   54  O   UNL     1      -8.219  12.684  66.391  1.00  0.00    -0.391 OA 
HETATM   55  C   UNL     1      -8.574  12.024  64.073  1.00  0.00     1.507 C  
HETATM   56  O   UNL     1      -8.936  13.357  63.728  1.00  0.00     2.692 OA 
HETATM   57  H   UNL     1      -8.452  13.591  66.235  1.00  0.00     0.000 HD 
HETATM   58  C   UNL     1      -7.065  11.794  63.823  1.00  0.00     3.341 C  
ENDBRANCH  46  47
ENDBRANCH  45  46
BRANCH  39  59
HETATM   59  N   UNL     1      -5.919  10.963  70.086  1.00  0.00    -0.105 NA 
HETATM   60  C   UNL     1      -5.676  12.288  70.593  1.00  0.00    -0.135 C  
HETATM   61  C   UNL     1      -5.150   9.982  70.832  1.00  0.00    -0.054 C  
ENDBRANCH  39  59
ENDBRANCH  36  37
ENDBRANCH  14  36
BRANCH  19  62
HETATM   62  O   UNL     1     -11.717  10.405  72.350  1.00  0.00     1.305 OA 
HETATM   63  C   UNL     1     -12.945  11.019  72.702  1.00  0.00     1.435 C  
ENDBRANCH  19  62
TORSDOF 9
ENDMDL
MODEL       62
REMARK 921   NORMALIZED FREE ENERGY PREDICTED BY IDOCK:   59.67 KCAL/MOL
REMARK 922        TOTAL FREE ENERGY PREDICTED BY IDOCK:   88.44 KCAL/MOL
REMARK 923 INTER-LIGAND FREE ENERGY PREDICTED BY IDOCK:   77.40 KCAL/MOL
REMARK 924 INTRA-LIGAND FREE ENERGY PREDICTED BY IDOCK:   11.04 KCAL/MOL
REMARK 927      BINDING AFFINITY PREDICTED BY RF-SCORE:    0.00 PKD
ROOT
HETATM    1  C   UNL     1     -12.782  16.132  70.706  1.00  0.00     0.433 C  
HETATM    2  C   UNL     1     -13.461  16.087  71.911  1.00  0.00     0.014 C  
HETATM    3  C   UNL     1     -13.971  15.120  72.949  1.00  0.00    -0.267 C  
HETATM    4  C   UNL     1     -13.705  13.820  73.191  1.00  0.00     0.611 C  
HETATM    5  C   UNL     1     -12.830  13.072  72.281  1.00  0.00    -0.102 C  
HETATM    6  O   UNL     1      -6.067  12.750  67.907  1.00  0.00    -0.086 OA 
HETATM    7  C   UNL     1     -11.367  13.200  72.841  1.00  0.00     6.470 C  
HETATM    8  C   UNL     1     -10.725  17.379  67.445  1.00  0.00    -0.251 C  
HETATM    9  C   UNL     1     -10.685  13.892  71.680  1.00  0.00     3.857 C  
HETATM   10  C   UNL     1     -11.133  14.130  74.066  1.00  0.00     3.571 C  
HETATM   11  C   UNL     1      -9.189  13.997  71.616  1.00  0.00     8.115 C  
HETATM   12  C   UNL     1     -11.870  15.790  69.323  1.00  0.00    -0.358 C  
HETATM   13  C   UNL     1     -10.459  16.586  68.716  1.00  0.00    -0.309 C  
HETATM   14  C   UNL     1      -8.817  13.567  70.172  1.00  0.00     3.312 C  
HETATM   15  C   UNL     1      -8.804  15.519  71.835  1.00  0.00     6.141 C  
HETATM   16  C   UNL     1      -8.867  16.074  73.234  1.00  0.00    14.839 C  
HETATM   17  O   UNL     1      -9.132  15.828  68.455  1.00  0.00    -0.180 OA 
HETATM   18  O   UNL     1      -8.765  15.803  66.157  1.00  0.00    -0.325 OA 
HETATM   19  C   UNL     1      -7.360  13.896  69.710  1.00  0.00     0.413 C  
HETATM   20  C   UNL     1      -7.187  13.589  68.205  1.00  0.00    -0.117 C  
HETATM   21  H   UNL     1      -5.960  12.562  66.982  1.00  0.00     0.000 HD 
HETATM   22  C   UNL     1      -8.397  15.573  67.303  1.00  0.00    -0.193 C  
HETATM   23  O   UNL     1      -9.382  17.128  73.465  1.00  0.00    12.231 OA 
HETATM   24  C   UNL     1      -7.012  14.941  67.539  1.00  0.00    -0.203 C  
ENDROOT
BRANCH   5  25
HETATM   25  O   UNL     1     -13.393  11.834  71.810  1.00  0.00    -0.407 OA 
BRANCH  25  26
HETATM   26  C   UNL     1     -12.332  10.872  71.561  1.00  0.00    -0.239 C  
HETATM   27  C   UNL     1     -13.493   8.529  70.223  1.00  0.00     1.757 C  
HETATM   28  C   UNL     1     -13.444  10.012  69.678  1.00  0.00     1.943 C  
HETATM   29  C   UNL     1     -13.615   8.703  71.785  1.00  0.00    -0.439 C  
HETATM   30  O   UNL     1     -12.256  10.631  70.160  1.00  0.00    -0.300 OA 
HETATM   31  C   UNL     1     -12.445   9.536  72.304  1.00  0.00    -0.299 C  
HETATM   32  C   UNL     1     -13.515  10.266  68.182  1.00  0.00     9.425 C  
BRANCH  27  33
HETATM   33  N   UNL     1     -12.389   7.626  69.864  1.00  0.00     0.827 NA 
HETATM   34  C   UNL     1     -11.316   7.622  70.863  1.00  0.00    -0.276 C  
HETATM   35  C   UNL     1     -12.816   6.244  69.642  1.00  0.00     4.005 C  
ENDBRANCH  27  33
ENDBRANCH  25  26
ENDBRANCH   5  25
BRANCH  14  36
HETATM   36  O   UNL     1      -9.595  12.577  69.435  1.00  0.00     0.649 OA 
BRANCH  36  37
HETATM   37  C   UNL     1      -9.046  11.349  68.974  1.00  0.00     0.084 C  
HETATM   38  C   UNL     1      -6.585   9.119  70.574  1.00  0.00    -0.061 C  
HETATM   39  C   UNL     1      -7.397  10.754  67.003  1.00  0.00    -0.110 C  
HETATM   40  C   UNL     1      -7.412   9.713  69.419  1.00  0.00    -0.093 C  
HETATM   41  O   UNL     1      -8.099  10.861  69.894  1.00  0.00     0.211 OA 
HETATM   42  H   UNL     1      -9.433  11.681  65.731  1.00  0.00     0.000 HD 
HETATM   43  C   UNL     1      -8.593  11.566  67.534  1.00  0.00    -0.143 C  
HETATM   44  O   UNL     1      -9.715  11.545  66.628  1.00  0.00    -0.193 OA 
HETATM   45  C   UNL     1      -6.539  10.209  68.256  1.00  0.00    -0.054 C  
BRANCH  45  46
HETATM   46  O   UNL     1      -5.613   9.141  67.957  1.00  0.00    -0.038 OA 
BRANCH  46  47
HETATM   47  C   UNL     1      -6.203   8.259  67.024  1.00  0.00    -0.055 C  
HETATM   48  C   UNL     1      -5.858   6.825  67.377  1.00  0.00    -0.013 C  
HETATM   49  C   UNL     1      -9.665   7.789  66.268  1.00  0.00    -0.149 C  
HETATM   50  O   UNL     1      -7.538   8.537  66.725  1.00  0.00    -0.088 OA 
HETATM   51  H   UNL     1      -9.999   5.788  68.140  1.00  0.00     0.000 HD 
HETATM   52  C   UNL     1      -6.817   6.269  68.390  1.00  0.00    -0.071 C  
HETATM   53  C   UNL     1      -6.332   4.868  68.778  1.00  0.00    -0.035 C  
HETATM   54  O   UNL     1      -6.838   7.038  69.601  1.00  0.00    -0.048 OA 
HETATM   55  C   UNL     1      -8.175   6.315  67.698  1.00  0.00    -0.117 C  
HETATM   56  O   UNL     1      -9.153   5.759  68.571  1.00  0.00    -0.115 OA 
HETATM   57  H   UNL     1      -7.445   6.687  70.242  1.00  0.00     0.000 HD 
HETATM   58  C   UNL     1      -8.559   7.764  67.315  1.00  0.00    -0.128 C  
ENDBRANCH  46  47
ENDBRANCH  45  46
BRANCH  39  59
HETATM   59  N   UNL     1      -6.743  11.616  65.925  1.00  0.00     0.447 NA 
HETATM   60  C   UNL     1      -5.317  11.811  65.907  1.00  0.00     0.728 C  
HETATM   61  C   UNL     1      -7.321  11.955  64.636  1.00  0.00     3.396 C  
ENDBRANCH  39  59
ENDBRANCH  36  37
ENDBRANCH  14  36
BRANCH  19  62
HETATM   62  O   UNL     1      -6.233  13.467  70.462  1.00  0.00    -0.115 OA 
HETATM   63  C   UNL     1      -5.399  12.421  69.993  1.00  0.00    -0.103 C  
ENDBRANCH  19  62
TORSDOF 9
ENDMDL
MODEL       63
REMARK 921   NORMALIZED FREE ENERGY PREDICTED BY IDOCK:   61.24 KCAL/MOL
REMARK 922        TOTAL FREE ENERGY PREDICTED BY IDOCK:   90.83 KCAL/MOL
REMARK 923 INTER-LIGAND FREE ENERGY PREDICTED BY IDOCK:   18.12 KCAL/MOL
REMARK 924 INTRA-LIGAND FREE ENERGY PREDICTED BY IDOCK:   72.71 KCAL/MOL
REMARK 927      BINDING AFFINITY PREDICTED BY RF-SCORE:    0.00 PKD
ROOT
HETATM    1  C   UNL     1      -8.299   9.556  70.626  1.00  0.00    -0.159 C  
HETATM    2  C   UNL     1      -9.256   9.567  71.627  1.00  0.00     0.716 C  
HETATM    3  C   UNL     1     -10.417  10.375  72.147  1.00  0.00     4.776 C  
HETATM    4  C   UNL     1     -11.147  11.373  71.607  1.00  0.00     3.952 C  
HETATM    5  C   UNL     1     -10.777  11.922  70.298  1.00  0.00     1.455 C  
HETATM    6  O   UNL     1      -8.456  10.661  62.682  1.00  0.00    -0.176 OA 
HETATM    7  C   UNL     1     -11.578  11.111  69.216  1.00  0.00    -0.388 C  
HETATM    8  C   UNL     1      -5.372   8.438  68.056  1.00  0.00    -0.034 C  
HETATM    9  C   UNL     1     -10.439  10.512  68.419  1.00  0.00    -0.212 C  
HETATM   10  C   UNL     1     -12.426   9.897  69.693  1.00  0.00     0.544 C  
HETATM   11  C   UNL     1     -10.687   9.857  67.090  1.00  0.00    -0.276 C  
HETATM   12  C   UNL     1      -7.367   9.843  69.244  1.00  0.00    -0.084 C  
HETATM   13  C   UNL     1      -6.863   8.737  68.013  1.00  0.00    -0.070 C  
HETATM   14  C   UNL     1      -9.606  10.446  66.145  1.00  0.00    -0.196 C  
HETATM   15  C   UNL     1     -10.450   8.300  67.269  1.00  0.00    -0.373 C  
HETATM   16  C   UNL     1     -11.518   7.494  67.960  1.00  0.00     0.900 C  
HETATM   17  O   UNL     1      -7.191   8.964  66.515  1.00  0.00    -0.083 OA 
HETATM   18  O   UNL     1      -5.192   9.399  65.406  1.00  0.00    -0.035 OA 
HETATM   19  C   UNL     1      -9.406   9.703  64.783  1.00  0.00    -0.222 C  
HETATM   20  C   UNL     1      -8.181  10.273  64.031  1.00  0.00    -0.151 C  
HETATM   21  H   UNL     1      -7.703  11.011  62.219  1.00  0.00     0.000 HD 
HETATM   22  C   UNL     1      -6.399   9.187  65.394  1.00  0.00    -0.064 C  
HETATM   23  O   UNL     1     -11.246   6.697  68.809  1.00  0.00    -0.248 OA 
HETATM   24  C   UNL     1      -7.150   9.161  64.049  1.00  0.00    -0.096 C  
ENDROOT
BRANCH   5  25
HETATM   25  O   UNL     1     -10.645  13.355  70.278  1.00  0.00     1.027 OA 
BRANCH  25  26
HETATM   26  C   UNL     1     -11.870  13.956  69.772  1.00  0.00    -0.329 C  
HETATM   27  C   UNL     1     -11.761  13.966  66.838  1.00  0.00    -0.399 C  
HETATM   28  C   UNL     1     -11.761  12.703  67.787  1.00  0.00    -0.356 C  
HETATM   29  C   UNL     1     -11.003  15.069  67.672  1.00  0.00    -0.305 C  
HETATM   30  O   UNL     1     -12.534  13.008  68.944  1.00  0.00     0.035 OA 
HETATM   31  C   UNL     1     -11.707  15.277  69.010  1.00  0.00    -0.368 C  
HETATM   32  C   UNL     1     -12.244  11.364  67.258  1.00  0.00     1.005 C  
BRANCH  27  33
HETATM   33  N   UNL     1     -13.056  14.457  66.343  1.00  0.00     0.514 NA 
HETATM   34  C   UNL     1     -13.159  15.920  66.389  1.00  0.00     4.061 C  
HETATM   35  C   UNL     1     -13.364  14.017  64.981  1.00  0.00     0.528 C  
ENDBRANCH  27  33
ENDBRANCH  25  26
ENDBRANCH   5  25
BRANCH  14  36
HETATM   36  O   UNL     1      -9.098  11.804  66.301  1.00  0.00    -0.214 OA 
BRANCH  36  37
HETATM   37  C   UNL     1      -9.400  12.618  67.428  1.00  0.00    -0.189 C  
HETATM   38  C   UNL     1     -10.999  15.936  67.578  1.00  0.00    -0.280 C  
HETATM   39  C   UNL     1      -7.888  13.943  69.135  1.00  0.00     0.151 C  
HETATM   40  C   UNL     1     -10.160  14.748  68.083  1.00  0.00    -0.221 C  
HETATM   41  O   UNL     1      -9.971  13.836  67.012  1.00  0.00    -0.242 OA 
HETATM   42  H   UNL     1      -7.202  11.506  69.598  1.00  0.00     0.000 HD 
HETATM   43  C   UNL     1      -8.146  12.680  68.293  1.00  0.00    -0.161 C  
HETATM   44  O   UNL     1      -7.984  11.468  69.059  1.00  0.00    -0.094 OA 
HETATM   45  C   UNL     1      -8.748  15.163  68.523  1.00  0.00    -0.172 C  
BRANCH  45  46
HETATM   46  O   UNL     1      -8.911  16.306  69.392  1.00  0.00    -0.204 OA 
BRANCH  46  47
HETATM   47  C   UNL     1      -8.182  17.398  68.870  1.00  0.00    -0.170 C  
HETATM   48  C   UNL     1      -7.906  17.179  67.395  1.00  0.00    -0.191 C  
HETATM   49  C   UNL     1      -9.120  20.844  68.717  1.00  0.00     1.237 C  
HETATM   50  O   UNL     1      -8.666  18.652  69.248  1.00  0.00    -0.011 OA 
HETATM   51  H   UNL     1     -10.273  20.617  66.219  1.00  0.00     0.000 HD 
HETATM   52  C   UNL     1      -9.057  17.645  66.552  1.00  0.00    -0.265 C  
HETATM   53  C   UNL     1      -8.751  17.283  65.094  1.00  0.00     2.550 C  
HETATM   54  O   UNL     1     -10.283  16.977  66.884  1.00  0.00    -0.291 OA 
HETATM   55  C   UNL     1      -9.163  19.139  66.838  1.00  0.00    -0.310 C  
HETATM   56  O   UNL     1     -10.207  19.686  66.040  1.00  0.00    -0.453 OA 
HETATM   57  H   UNL     1     -11.011  17.272  66.351  1.00  0.00     0.000 HD 
HETATM   58  C   UNL     1      -9.437  19.403  68.338  1.00  0.00    -0.374 C  
ENDBRANCH  46  47
ENDBRANCH  45  46
BRANCH  39  59
HETATM   59  N   UNL     1      -6.371  14.053  69.282  1.00  0.00    -0.104 NA 
HETATM   60  C   UNL     1      -5.761  14.068  70.586  1.00  0.00    -0.177 C  
HETATM   61  C   UNL     1      -5.389  13.729  68.263  1.00  0.00    -0.109 C  
ENDBRANCH  39  59
ENDBRANCH  36  37
ENDBRANCH  14  36
BRANCH  19  62
HETATM   62  O   UNL     1     -10.497   9.471  63.903  1.00  0.00     1.953 OA 
HETATM   63  C   UNL     1     -10.909  10.462  62.977  1.00  0.00     1.567 C  
ENDBRANCH  19  62
TORSDOF 9
ENDMDL
MODEL       64
REMARK 921   NORMALIZED FREE ENERGY PREDICTED BY IDOCK:   64.53 KCAL/MOL
REMARK 922        TOTAL FREE ENERGY PREDICTED BY IDOCK:   95.86 KCAL/MOL
REMARK 923 INTER-LIGAND FREE ENERGY PREDICTED BY IDOCK:   66.79 KCAL/MOL
REMARK 924 INTRA-LIGAND FREE ENERGY PREDICTED BY IDOCK:   29.07 KCAL/MOL
REMARK 927      BINDING AFFINITY PREDICTED BY RF-SCORE:    0.00 PKD
ROOT
HETATM    1  C   UNL     1     -11.249  11.653  65.316  1.00  0.00    -0.263 C  
HETATM    2  C   UNL     1     -10.753  12.241  64.165  1.00  0.00    -0.412 C  
HETATM    3  C   UNL     1      -9.933  13.415  63.693  1.00  0.00     1.734 C  
HETATM    4  C   UNL     1      -9.114  14.272  64.337  1.00  0.00     4.216 C  
HETATM    5  C   UNL     1      -8.985  14.200  65.797  1.00  0.00     0.680 C  
HETATM    6  O   UNL     1      -8.118   9.726  72.446  1.00  0.00     1.270 OA 
HETATM    7  C   UNL     1      -7.782  13.237  66.106  1.00  0.00     2.187 C  
HETATM    8  C   UNL     1     -12.889   9.057  67.960  1.00  0.00     9.692 C  
HETATM    9  C   UNL     1      -8.488  12.155  66.893  1.00  0.00    -0.173 C  
HETATM   10  C   UNL     1      -7.110  12.502  64.911  1.00  0.00     6.651 C  
HETATM   11  C   UNL     1      -7.709  11.123  67.656  1.00  0.00    -0.113 C  
HETATM   12  C   UNL     1     -11.594  11.197  66.908  1.00  0.00     0.103 C  
HETATM   13  C   UNL     1     -11.517   9.631  67.640  1.00  0.00     0.818 C  
HETATM   14  C   UNL     1      -8.377  11.069  69.056  1.00  0.00    -0.085 C  
HETATM   15  C   UNL     1      -7.901   9.733  66.919  1.00  0.00    -0.102 C  
HETATM   16  C   UNL     1      -7.133   9.492  65.646  1.00  0.00    -0.093 C  
HETATM   17  O   UNL     1     -10.653   9.349  68.896  1.00  0.00    -0.217 OA 
HETATM   18  O   UNL     1     -12.094   8.898  70.666  1.00  0.00    -0.173 OA 
HETATM   19  C   UNL     1      -7.992   9.849  69.955  1.00  0.00    -0.180 C  
HETATM   20  C   UNL     1      -8.866   9.819  71.230  1.00  0.00     1.071 C  
HETATM   21  H   UNL     1      -8.655   9.707  73.230  1.00  0.00     0.000 HD 
HETATM   22  C   UNL     1     -10.966   8.962  70.194  1.00  0.00    -0.227 C  
HETATM   23  O   UNL     1      -7.661   9.030  64.677  1.00  0.00    -0.106 OA 
HETATM   24  C   UNL     1      -9.755   8.599  71.076  1.00  0.00    -0.266 C  
ENDROOT
BRANCH   5  25
HETATM   25  O   UNL     1      -9.186  15.458  66.467  1.00  0.00    -0.246 OA 
BRANCH  25  26
HETATM   26  C   UNL     1      -8.949  16.554  65.540  1.00  0.00     0.576 C  
HETATM   27  C   UNL     1     -10.495  18.884  66.438  1.00  0.00    -0.439 C  
HETATM   28  C   UNL     1      -9.327  18.158  67.216  1.00  0.00    -0.252 C  
HETATM   29  C   UNL     1     -11.191  17.724  65.628  1.00  0.00     0.777 C  
HETATM   30  O   UNL     1      -8.398  17.650  66.263  1.00  0.00    -0.360 OA 
HETATM   31  C   UNL     1     -10.164  17.031  64.736  1.00  0.00     1.351 C  
HETATM   32  C   UNL     1      -8.532  18.921  68.263  1.00  0.00    -0.365 C  
BRANCH  27  33
HETATM   33  N   UNL     1     -10.145  20.016  65.568  1.00  0.00    -0.315 NA 
HETATM   34  C   UNL     1     -10.716  21.284  66.035  1.00  0.00     3.798 C  
HETATM   35  C   UNL     1      -8.702  20.197  65.397  1.00  0.00     0.670 C  
ENDBRANCH  27  33
ENDBRANCH  25  26
ENDBRANCH   5  25
BRANCH  14  36
HETATM   36  O   UNL     1      -8.988  12.244  69.667  1.00  0.00     1.326 OA 
BRANCH  36  37
HETATM   37  C   UNL     1      -8.271  13.446  69.917  1.00  0.00     2.089 C  
HETATM   38  C   UNL     1      -7.022  14.827  73.099  1.00  0.00     3.627 C  
HETATM   39  C   UNL     1      -8.941  15.994  69.778  1.00  0.00     0.234 C  
HETATM   40  C   UNL     1      -7.454  14.851  71.621  1.00  0.00     3.097 C  
HETATM   41  O   UNL     1      -8.039  13.599  71.298  1.00  0.00     4.835 OA 
HETATM   42  H   UNL     1      -9.165  15.249  67.324  1.00  0.00     0.000 HD 
HETATM   43  C   UNL     1      -9.000  14.571  69.190  1.00  0.00     0.034 C  
HETATM   44  O   UNL     1      -8.710  14.549  67.777  1.00  0.00    -0.160 OA 
HETATM   45  C   UNL     1      -8.542  15.898  71.338  1.00  0.00     5.376 C  
BRANCH  45  46
HETATM   46  O   UNL     1      -8.088  17.131  71.939  1.00  0.00    10.183 OA 
BRANCH  46  47
HETATM   47  C   UNL     1      -6.742  17.361  71.576  1.00  0.00     4.314 C  
HETATM   48  C   UNL     1      -6.418  16.621  70.293  1.00  0.00     0.439 C  
HETATM   49  C   UNL     1      -5.129  20.459  70.812  1.00  0.00    -0.285 C  
HETATM   50  O   UNL     1      -6.337  18.695  71.661  1.00  0.00     1.162 OA 
HETATM   51  H   UNL     1      -5.670  20.293  68.109  1.00  0.00     0.000 HD 
HETATM   52  C   UNL     1      -6.799  17.431  69.087  1.00  0.00    -0.228 C  
HETATM   53  C   UNL     1      -6.551  16.571  67.843  1.00  0.00    -0.155 C  
HETATM   54  O   UNL     1      -8.194  17.765  69.074  1.00  0.00    -0.184 OA 
HETATM   55  C   UNL     1      -5.944  18.690  69.184  1.00  0.00    -0.236 C  
HETATM   56  O   UNL     1      -6.202  19.508  68.048  1.00  0.00    -0.211 OA 
HETATM   57  H   UNL     1      -8.436  18.278  68.311  1.00  0.00     0.000 HD 
HETATM   58  C   UNL     1      -6.241  19.469  70.487  1.00  0.00    -0.090 C  
ENDBRANCH  46  47
ENDBRANCH  45  46
BRANCH  39  59
HETATM   59  N   UNL     1     -10.232  16.685  69.342  1.00  0.00    -0.274 NA 
HETATM   60  C   UNL     1     -11.258  15.952  68.650  1.00  0.00    -0.360 C  
HETATM   61  C   UNL     1     -10.769  17.917  69.894  1.00  0.00     1.142 C  
ENDBRANCH  39  59
ENDBRANCH  36  37
ENDBRANCH  14  36
BRANCH  19  62
HETATM   62  O   UNL     1      -6.635   9.546  70.246  1.00  0.00    -0.057 OA 
HETATM   63  C   UNL     1      -6.275   8.308  70.836  1.00  0.00    -0.033 C  
ENDBRANCH  19  62
TORSDOF 9
ENDMDL
MODEL       65
REMARK 921   NORMALIZED FREE ENERGY PREDICTED BY IDOCK:   67.27 KCAL/MOL
REMARK 922        TOTAL FREE ENERGY PREDICTED BY IDOCK:  100.03 KCAL/MOL
REMARK 923 INTER-LIGAND FREE ENERGY PREDICTED BY IDOCK:   55.21 KCAL/MOL
REMARK 924 INTRA-LIGAND FREE ENERGY PREDICTED BY IDOCK:   44.81 KCAL/MOL
REMARK 927      BINDING AFFINITY PREDICTED BY RF-SCORE:    0.00 PKD
ROOT
HETATM    1  C   UNL     1      -8.239  12.306  64.057  1.00  0.00     3.182 C  
HETATM    2  C   UNL     1      -8.810  13.504  63.662  1.00  0.00     6.731 C  
HETATM    3  C   UNL     1      -9.972  14.418  63.961  1.00  0.00     2.403 C  
HETATM    4  C   UNL     1     -10.828  14.492  65.000  1.00  0.00    -0.425 C  
HETATM    5  C   UNL     1     -10.771  13.486  66.067  1.00  0.00    -0.279 C  
HETATM    6  O   UNL     1      -6.362   9.032  71.136  1.00  0.00    -0.053 OA 
HETATM    7  C   UNL     1      -9.802  14.042  67.172  1.00  0.00    -0.240 C  
HETATM    8  C   UNL     1      -5.686   9.205  64.590  1.00  0.00    -0.063 C  
HETATM    9  C   UNL     1      -8.734  12.969  67.168  1.00  0.00    -0.204 C  
HETATM   10  C   UNL     1      -9.048  15.371  66.880  1.00  0.00    -0.265 C  
HETATM   11  C   UNL     1      -7.703  12.902  68.258  1.00  0.00    -0.137 C  
HETATM   12  C   UNL     1      -7.803  10.881  64.857  1.00  0.00     0.268 C  
HETATM   13  C   UNL     1      -6.245  10.363  65.402  1.00  0.00    -0.127 C  
HETATM   14  C   UNL     1      -7.670  11.412  68.689  1.00  0.00    -0.137 C  
HETATM   15  C   UNL     1      -6.307  13.306  67.626  1.00  0.00    -0.161 C  
HETATM   16  C   UNL     1      -6.046  14.765  67.353  1.00  0.00     0.207 C  
HETATM   17  O   UNL     1      -5.969   9.995  66.883  1.00  0.00    -0.053 OA 
HETATM   18  O   UNL     1      -5.550   7.708  66.982  1.00  0.00    -0.029 OA 
HETATM   19  C   UNL     1      -6.457  10.979  69.575  1.00  0.00    -0.109 C  
HETATM   20  C   UNL     1      -6.448   9.445  69.769  1.00  0.00    -0.041 C  
HETATM   21  H   UNL     1      -6.356   8.089  71.256  1.00  0.00     0.000 HD 
HETATM   22  C   UNL     1      -5.599   8.812  67.512  1.00  0.00    -0.039 C  
HETATM   23  O   UNL     1      -5.579  15.131  66.316  1.00  0.00     2.237 OA 
HETATM   24  C   UNL     1      -5.235   8.952  69.003  1.00  0.00    -0.036 C  
ENDROOT
BRANCH   5  25
HETATM   25  O   UNL     1     -12.038  12.870  66.361  1.00  0.00    -0.401 OA 
BRANCH  25  26
HETATM   26  C   UNL     1     -12.311  12.958  67.787  1.00  0.00     0.266 C  
HETATM   27  C   UNL     1     -11.603  10.395  69.032  1.00  0.00    -0.150 C  
HETATM   28  C   UNL     1     -10.631  11.393  68.287  1.00  0.00    -0.195 C  
HETATM   29  C   UNL     1     -12.977  10.567  68.277  1.00  0.00     4.657 C  
HETATM   30  O   UNL     1     -11.101  12.721  68.498  1.00  0.00    -0.238 OA 
HETATM   31  C   UNL     1     -13.409  12.031  68.321  1.00  0.00     5.506 C  
HETATM   32  C   UNL     1      -9.147  11.380  68.610  1.00  0.00    -0.138 C  
BRANCH  27  33
HETATM   33  N   UNL     1     -11.763  10.543  70.486  1.00  0.00    -0.325 NA 
HETATM   34  C   UNL     1     -11.943   9.257  71.168  1.00  0.00    -0.322 C  
HETATM   35  C   UNL     1     -10.653  11.251  71.126  1.00  0.00     3.591 C  
ENDBRANCH  27  33
ENDBRANCH  25  26
ENDBRANCH   5  25
BRANCH  14  36
HETATM   36  O   UNL     1      -8.857  10.565  68.638  1.00  0.00    -0.132 OA 
BRANCH  36  37
HETATM   37  C   UNL     1      -8.839   9.236  68.134  1.00  0.00    -0.129 C  
HETATM   38  C   UNL     1      -8.145   8.019  64.724  1.00  0.00    -0.143 C  
HETATM   39  C   UNL     1     -10.734   7.446  67.731  1.00  0.00    -0.179 C  
HETATM   40  C   UNL     1      -8.684   7.954  66.165  1.00  0.00    -0.158 C  
HETATM   41  O   UNL     1      -8.572   9.242  66.751  1.00  0.00    -0.125 OA 
HETATM   42  H   UNL     1     -10.805   7.731  70.288  1.00  0.00     0.000 HD 
HETATM   43  C   UNL     1     -10.115   8.551  68.609  1.00  0.00    -0.190 C  
HETATM   44  O   UNL     1     -10.009   8.157  69.993  1.00  0.00    -0.187 OA 
HETATM   45  C   UNL     1     -10.178   7.603  66.225  1.00  0.00     0.225 C  
BRANCH  45  46
HETATM   46  O   UNL     1     -10.361   6.451  65.373  1.00  0.00     1.300 OA 
BRANCH  46  47
HETATM   47  C   UNL     1      -9.342   5.509  65.634  1.00  0.00    -0.047 C  
HETATM   48  C   UNL     1      -9.035   5.474  67.119  1.00  0.00    -0.112 C  
HETATM   49  C   UNL     1      -9.341   1.987  65.021  1.00  0.00    -0.062 C  
HETATM   50  O   UNL     1      -9.507   4.281  64.989  1.00  0.00    -0.155 OA 
HETATM   51  H   UNL     1     -10.347   1.359  67.514  1.00  0.00     0.000 HD 
HETATM   52  C   UNL     1      -9.968   4.548  67.844  1.00  0.00    -0.053 C  
HETATM   53  C   UNL     1      -9.672   4.660  69.344  1.00  0.00    -0.272 C  
HETATM   54  O   UNL     1     -11.345   4.919  67.677  1.00  0.00     1.074 OA 
HETATM   55  C   UNL     1      -9.701   3.177  67.233  1.00  0.00     0.152 C  
HETATM   56  O   UNL     1     -10.514   2.214  67.895  1.00  0.00     1.926 OA 
HETATM   57  H   UNL     1     -11.935   4.333  68.135  1.00  0.00     0.000 HD 
HETATM   58  C   UNL     1      -9.995   3.175  65.714  1.00  0.00     0.381 C  
ENDBRANCH  46  47
ENDBRANCH  45  46
BRANCH  39  59
HETATM   59  N   UNL     1     -12.235   7.469  68.017  1.00  0.00     3.136 NA 
HETATM   60  C   UNL     1     -12.878   6.345  68.644  1.00  0.00     7.543 C  
HETATM   61  C   UNL     1     -13.067   8.655  68.118  1.00  0.00    12.532 C  
ENDBRANCH  39  59
ENDBRANCH  36  37
ENDBRANCH  14  36
BRANCH  19  62
HETATM   62  O   UNL     1      -6.145  11.659  70.783  1.00  0.00    -0.342 OA 
HETATM   63  C   UNL     1      -7.018  12.644  71.310  1.00  0.00     4.349 C  
ENDBRANCH  19  62
TORSDOF 9
ENDMDL
MODEL       66
REMARK 921   NORMALIZED FREE ENERGY PREDICTED BY IDOCK:   68.35 KCAL/MOL
REMARK 922        TOTAL FREE ENERGY PREDICTED BY IDOCK:  101.68 KCAL/MOL
REMARK 923 INTER-LIGAND FREE ENERGY PREDICTED BY IDOCK:   83.52 KCAL/MOL
REMARK 924 INTRA-LIGAND FREE ENERGY PREDICTED BY IDOCK:   18.17 KCAL/MOL
REMARK 927      BINDING AFFINITY PREDICTED BY RF-SCORE:    0.00 PKD
ROOT
HETATM    1  C   UNL     1      -7.525   8.096  67.208  1.00  0.00    -0.090 C  
HETATM    2  C   UNL     1      -7.910   7.264  68.246  1.00  0.00    -0.122 C  
HETATM    3  C   UNL     1      -8.568   7.288  69.602  1.00  0.00    -0.137 C  
HETATM    4  C   UNL     1      -9.298   8.223  70.244  1.00  0.00    -0.159 C  
HETATM    5  C   UNL     1      -9.481   9.548  69.639  1.00  0.00    -0.199 C  
HETATM    6  O   UNL     1     -11.091  14.006  63.119  1.00  0.00     0.735 OA 
HETATM    7  C   UNL     1     -10.801   9.487  68.788  1.00  0.00    -0.173 C  
HETATM    8  C   UNL     1      -6.294   9.525  63.622  1.00  0.00    -0.099 C  
HETATM    9  C   UNL     1     -10.255   9.790  67.409  1.00  0.00    -0.284 C  
HETATM   10  C   UNL     1     -11.518   8.113  68.651  1.00  0.00     1.015 C  
HETATM   11  C   UNL     1     -11.177  10.116  66.269  1.00  0.00     0.614 C  
HETATM   12  C   UNL     1      -7.289   9.389  66.143  1.00  0.00    -0.096 C  
HETATM   13  C   UNL     1      -7.577   9.471  64.439  1.00  0.00    -0.122 C  
HETATM   14  C   UNL     1     -10.565  11.379  65.606  1.00  0.00    -0.258 C  
HETATM   15  C   UNL     1     -11.130   8.902  65.251  1.00  0.00     5.272 C  
HETATM   16  C   UNL     1     -11.880   7.646  65.609  1.00  0.00     8.846 C  
HETATM   17  O   UNL     1      -8.508  10.539  63.810  1.00  0.00    -0.171 OA 
HETATM   18  O   UNL     1      -7.188  11.980  62.547  1.00  0.00     1.041 OA 
HETATM   19  C   UNL     1     -11.122  11.752  64.193  1.00  0.00    -0.374 C  
HETATM   20  C   UNL     1     -10.299  12.905  63.574  1.00  0.00     0.227 C  
HETATM   21  H   UNL     1     -10.586  14.715  62.738  1.00  0.00     0.000 HD 
HETATM   22  C   UNL     1      -8.286  11.586  62.924  1.00  0.00     0.541 C  
HETATM   23  O   UNL     1     -11.380   6.566  65.488  1.00  0.00     2.929 OA 
HETATM   24  C   UNL     1      -9.559  12.284  62.405  1.00  0.00     2.364 C  
ENDROOT
BRANCH   5  25
HETATM   25  O   UNL     1      -9.152  10.643  70.514  1.00  0.00     0.906 OA 
BRANCH  25  26
HETATM   26  C   UNL     1     -10.022  10.623  71.680  1.00  0.00     5.289 C  
HETATM   27  C   UNL     1     -12.272   8.817  71.133  1.00  0.00    -0.244 C  
HETATM   28  C   UNL     1     -10.741   8.436  71.206  1.00  0.00    -0.230 C  
HETATM   29  C   UNL     1     -12.271  10.290  70.570  1.00  0.00    -0.390 C  
HETATM   30  O   UNL     1     -10.110   9.286  72.159  1.00  0.00    -0.064 OA 
HETATM   31  C   UNL     1     -11.433  11.187  71.478  1.00  0.00     1.550 C  
HETATM   32  C   UNL     1     -10.335   7.008  71.530  1.00  0.00    -0.218 C  
BRANCH  27  33
HETATM   33  N   UNL     1     -13.070   8.709  72.364  1.00  0.00    -0.369 NA 
HETATM   34  C   UNL     1     -14.401   9.311  72.228  1.00  0.00    -0.094 C  
HETATM   35  C   UNL     1     -13.234   7.333  72.833  1.00  0.00     1.349 C  
ENDBRANCH  27  33
ENDBRANCH  25  26
ENDBRANCH   5  25
BRANCH  14  36
HETATM   36  O   UNL     1      -9.837  12.381  66.376  1.00  0.00    -0.229 OA 
BRANCH  36  37
HETATM   37  C   UNL     1     -10.485  13.410  67.114  1.00  0.00    -0.249 C  
HETATM   38  C   UNL     1     -12.483  16.268  65.918  1.00  0.00     2.888 C  
HETATM   39  C   UNL     1      -9.577  15.427  68.551  1.00  0.00    -0.201 C  
HETATM   40  C   UNL     1     -11.636  15.454  66.914  1.00  0.00     0.019 C  
HETATM   41  O   UNL     1     -11.097  14.328  66.239  1.00  0.00    -0.312 OA 
HETATM   42  H   UNL     1      -8.712  13.398  69.877  1.00  0.00     0.000 HD 
HETATM   43  C   UNL     1      -9.477  13.951  68.122  1.00  0.00    -0.207 C  
HETATM   44  O   UNL     1      -9.341  13.061  69.249  1.00  0.00     0.538 OA 
HETATM   45  C   UNL     1     -10.424  16.237  67.441  1.00  0.00    -0.304 C  
BRANCH  45  46
HETATM   46  O   UNL     1     -10.921  17.527  67.860  1.00  0.00    -0.323 OA 
BRANCH  46  47
HETATM   47  C   UNL     1     -10.682  17.695  69.242  1.00  0.00     0.250 C  
HETATM   48  C   UNL     1      -9.680  18.812  69.462  1.00  0.00     0.171 C  
HETATM   49  C   UNL     1     -12.998  18.557  71.825  1.00  0.00    18.080 C  
HETATM   50  O   UNL     1     -11.832  17.706  70.033  1.00  0.00     2.766 OA 
HETATM   51  H   UNL     1     -12.560  21.272  71.575  1.00  0.00     0.000 HD 
HETATM   52  C   UNL     1     -10.358  20.151  69.497  1.00  0.00     0.211 C  
HETATM   53  C   UNL     1      -9.272  21.227  69.603  1.00  0.00     3.438 C  
HETATM   54  O   UNL     1     -11.082  20.427  68.289  1.00  0.00     0.238 OA 
HETATM   55  C   UNL     1     -11.307  20.070  70.688  1.00  0.00     5.346 C  
HETATM   56  O   UNL     1     -11.968  21.322  70.833  1.00  0.00     7.149 OA 
HETATM   57  H   UNL     1     -11.511  21.274  68.311  1.00  0.00     0.000 HD 
HETATM   58  C   UNL     1     -12.341  18.934  70.503  1.00  0.00    15.380 C  
ENDBRANCH  46  47
ENDBRANCH  45  46
BRANCH  39  59
HETATM   59  N   UNL     1      -8.159  15.859  68.921  1.00  0.00    -0.198 NA 
HETATM   60  C   UNL     1      -7.525  16.955  68.236  1.00  0.00    -0.192 C  
HETATM   61  C   UNL     1      -7.481  15.579  70.173  1.00  0.00     0.339 C  
ENDBRANCH  39  59
ENDBRANCH  36  37
ENDBRANCH  14  36
BRANCH  19  62
HETATM   62  O   UNL     1     -12.515  11.928  63.973  1.00  0.00    -0.375 OA 
HETATM   63  C   UNL     1     -13.122  13.199  64.130  1.00  0.00     0.512 C  
ENDBRANCH  19  62
TORSDOF 9
ENDMDL
MODEL       67
REMARK 921   NORMALIZED FREE ENERGY PREDICTED BY IDOCK:   71.69 KCAL/MOL
REMARK 922        TOTAL FREE ENERGY PREDICTED BY IDOCK:  106.78 KCAL/MOL
REMARK 923 INTER-LIGAND FREE ENERGY PREDICTED BY IDOCK:  102.52 KCAL/MOL
REMARK 924 INTRA-LIGAND FREE ENERGY PREDICTED BY IDOCK:    4.26 KCAL/MOL
REMARK 927      BINDING AFFINITY PREDICTED BY RF-SCORE:    0.00 PKD
ROOT
HETATM    1  C   UNL     1     -11.527  13.513  65.933  1.00  0.00    -0.338 C  
HETATM    2  C   UNL     1     -12.866  13.262  66.179  1.00  0.00     0.188 C  
HETATM    3  C   UNL     1     -13.868  13.174  67.302  1.00  0.00     9.244 C  
HETATM    4  C   UNL     1     -13.834  13.582  68.587  1.00  0.00     7.758 C  
HETATM    5  C   UNL     1     -12.603  14.161  69.137  1.00  0.00     0.254 C  
HETATM    6  O   UNL     1      -6.337  19.159  68.287  1.00  0.00    -0.222 OA 
HETATM    7  C   UNL     1     -12.691  15.715  68.925  1.00  0.00     0.779 C  
HETATM    8  C   UNL     1      -7.990  14.330  64.131  1.00  0.00    14.031 C  
HETATM    9  C   UNL     1     -11.482  15.943  68.044  1.00  0.00    -0.236 C  
HETATM   10  C   UNL     1     -13.897  16.275  68.117  1.00  0.00     7.283 C  
HETATM   11  C   UNL     1     -10.969  17.330  67.781  1.00  0.00    -0.163 C  
HETATM   12  C   UNL     1      -9.895  13.950  66.026  1.00  0.00    -0.306 C  
HETATM   13  C   UNL     1      -8.993  15.038  65.029  1.00  0.00     2.365 C  
HETATM   14  C   UNL     1      -9.436  17.241  68.009  1.00  0.00    -0.271 C  
HETATM   15  C   UNL     1     -11.264  17.672  66.261  1.00  0.00     0.810 C  
HETATM   16  C   UNL     1     -12.675  18.030  65.874  1.00  0.00     9.410 C  
HETATM   17  O   UNL     1      -8.230  16.254  65.614  1.00  0.00     0.077 OA 
HETATM   18  O   UNL     1      -5.952  15.861  65.348  1.00  0.00     4.581 OA 
HETATM   19  C   UNL     1      -8.592  18.449  67.485  1.00  0.00    -0.257 C  
HETATM   20  C   UNL     1      -7.081  18.146  67.605  1.00  0.00    -0.200 C  
HETATM   21  H   UNL     1      -5.408  18.973  68.361  1.00  0.00     0.000 HD 
HETATM   22  C   UNL     1      -6.883  16.592  65.665  1.00  0.00     1.858 C  
HETATM   23  O   UNL     1     -13.197  17.554  64.910  1.00  0.00     8.214 OA 
HETATM   24  C   UNL     1      -6.586  18.016  66.177  1.00  0.00    -0.293 C  
ENDROOT
BRANCH   5  25
HETATM   25  O   UNL     1     -12.166  13.552  70.366  1.00  0.00    -0.339 OA 
BRANCH  25  26
HETATM   26  C   UNL     1     -12.586  12.160  70.404  1.00  0.00    -0.032 C  
HETATM   27  C   UNL     1     -10.319  10.526  71.304  1.00  0.00     2.191 C  
HETATM   28  C   UNL     1     -11.057  11.661  72.117  1.00  0.00     7.170 C  
HETATM   29  C   UNL     1     -10.415  11.007  69.806  1.00  0.00     0.025 C  
HETATM   30  O   UNL     1     -12.428  11.672  71.732  1.00  0.00    -0.144 OA 
HETATM   31  C   UNL     1     -11.879  11.215  69.425  1.00  0.00    -0.415 C  
HETATM   32  C   UNL     1     -11.012  11.650  73.636  1.00  0.00    18.320 C  
BRANCH  27  33
HETATM   33  N   UNL     1     -10.796   9.143  71.460  1.00  0.00    -0.343 NA 
HETATM   34  C   UNL     1     -10.737   8.382  70.207  1.00  0.00    -0.234 C  
HETATM   35  C   UNL     1     -10.078   8.391  72.489  1.00  0.00    -0.292 C  
ENDBRANCH  27  33
ENDBRANCH  25  26
ENDBRANCH   5  25
BRANCH  14  36
HETATM   36  O   UNL     1      -8.851  16.329  68.985  1.00  0.00    -0.238 OA 
BRANCH  36  37
HETATM   37  C   UNL     1      -7.885  15.344  68.640  1.00  0.00    -0.142 C  
HETATM   38  C   UNL     1      -8.233  12.335  66.538  1.00  0.00     0.110 C  
HETATM   39  C   UNL     1      -6.650  13.480  70.040  1.00  0.00     0.112 C  
HETATM   40  C   UNL     1      -7.593  13.254  67.595  1.00  0.00    -0.170 C  
HETATM   41  O   UNL     1      -8.473  14.339  67.849  1.00  0.00    -0.149 OA 
HETATM   42  H   UNL     1      -5.784  15.637  71.145  1.00  0.00     0.000 HD 
HETATM   43  C   UNL     1      -7.189  14.919  69.928  1.00  0.00    -0.069 C  
HETATM   44  O   UNL     1      -6.217  15.901  70.342  1.00  0.00    -0.059 OA 
HETATM   45  C   UNL     1      -7.399  12.556  68.949  1.00  0.00    -0.022 C  
BRANCH  45  46
HETATM   46  O   UNL     1      -6.765  11.289  68.669  1.00  0.00    -0.062 OA 
BRANCH  46  47
HETATM   47  C   UNL     1      -7.500  10.251  69.284  1.00  0.00    -0.112 C  
HETATM   48  C   UNL     1      -8.012   9.285  68.233  1.00  0.00    -0.102 C  
HETATM   49  C   UNL     1      -6.398   7.857  71.699  1.00  0.00    -0.039 C  
HETATM   50  O   UNL     1      -6.892   9.700  70.414  1.00  0.00    -0.090 OA 
HETATM   51  H   UNL     1      -5.657   5.997  69.798  1.00  0.00     0.000 HD 
HETATM   52  C   UNL     1      -6.979   8.248  67.900  1.00  0.00    -0.078 C  
HETATM   53  C   UNL     1      -7.525   7.390  66.753  1.00  0.00    -0.096 C  
HETATM   54  O   UNL     1      -5.757   8.830  67.420  1.00  0.00    -0.038 OA 
HETATM   55  C   UNL     1      -6.744   7.504  69.210  1.00  0.00    -0.041 C  
HETATM   56  O   UNL     1      -5.803   6.460  68.981  1.00  0.00    -0.019 OA 
HETATM   57  H   UNL     1      -5.103   8.174  67.209  1.00  0.00     0.000 HD 
HETATM   58  C   UNL     1      -6.227   8.461  70.311  1.00  0.00    -0.034 C  
ENDBRANCH  46  47
ENDBRANCH  45  46
BRANCH  39  59
HETATM   59  N   UNL     1      -6.692  13.125  71.525  1.00  0.00     2.026 NA 
HETATM   60  C   UNL     1      -6.475  14.137  72.526  1.00  0.00     1.655 C  
HETATM   61  C   UNL     1      -7.335  11.961  72.108  1.00  0.00    10.383 C  
ENDBRANCH  39  59
ENDBRANCH  36  37
ENDBRANCH  14  36
BRANCH  19  62
HETATM   62  O   UNL     1      -8.889  19.782  67.878  1.00  0.00    -0.316 OA 
HETATM   63  C   UNL     1     -10.098  20.407  67.480  1.00  0.00    -0.355 C  
ENDBRANCH  19  62
TORSDOF 9
ENDMDL
MODEL       68
REMARK 921   NORMALIZED FREE ENERGY PREDICTED BY IDOCK:   72.09 KCAL/MOL
REMARK 922        TOTAL FREE ENERGY PREDICTED BY IDOCK:  107.39 KCAL/MOL
REMARK 923 INTER-LIGAND FREE ENERGY PREDICTED BY IDOCK:   42.46 KCAL/MOL
REMARK 924 INTRA-LIGAND FREE ENERGY PREDICTED BY IDOCK:   64.93 KCAL/MOL
REMARK 927      BINDING AFFINITY PREDICTED BY RF-SCORE:    0.00 PKD
ROOT
HETATM    1  C   UNL     1      -8.537  14.122  71.110  1.00  0.00     5.304 C  
HETATM    2  C   UNL     1      -7.457  13.257  71.063  1.00  0.00     4.590 C  
HETATM    3  C   UNL     1      -6.683  12.379  70.113  1.00  0.00     0.510 C  
HETATM    4  C   UNL     1      -6.642  12.308  68.767  1.00  0.00    -0.084 C  
HETATM    5  C   UNL     1      -7.548  13.137  67.964  1.00  0.00    -0.144 C  
HETATM    6  O   UNL     1     -10.993  20.299  66.618  1.00  0.00    -0.020 OA 
HETATM    7  C   UNL     1      -6.789  14.476  67.649  1.00  0.00    -0.203 C  
HETATM    8  C   UNL     1     -11.229  16.922  72.264  1.00  0.00     0.954 C  
HETATM    9  C   UNL     1      -7.710  15.479  68.310  1.00  0.00    -0.115 C  
HETATM   10  C   UNL     1      -5.399  14.700  68.310  1.00  0.00    -0.113 C  
HETATM   11  C   UNL     1      -7.559  16.951  68.054  1.00  0.00    -0.182 C  
HETATM   12  C   UNL     1      -9.828  15.156  70.754  1.00  0.00     0.917 C  
HETATM   13  C   UNL     1     -10.096  16.789  71.258  1.00  0.00     3.314 C  
HETATM   14  C   UNL     1      -8.996  17.456  67.754  1.00  0.00    -0.236 C  
HETATM   15  C   UNL     1      -7.026  17.619  69.388  1.00  0.00    -0.088 C  
HETATM   16  C   UNL     1      -5.571  17.445  69.737  1.00  0.00    -0.219 C  
HETATM   17  O   UNL     1     -10.312  17.941  70.244  1.00  0.00     0.707 OA 
HETATM   18  O   UNL     1     -12.510  18.674  70.455  1.00  0.00    12.323 OA 
HETATM   19  C   UNL     1      -9.199  19.006  67.778  1.00  0.00    -0.298 C  
HETATM   20  C   UNL     1     -10.699  19.358  67.654  1.00  0.00    -0.417 C  
HETATM   21  H   UNL     1     -11.915  20.516  66.542  1.00  0.00     0.000 HD 
HETATM   22  C   UNL     1     -11.385  18.785  69.982  1.00  0.00     4.440 C  
HETATM   23  O   UNL     1      -5.226  17.144  70.842  1.00  0.00    -0.244 OA 
HETATM   24  C   UNL     1     -11.086  19.936  69.002  1.00  0.00     1.492 C  
ENDROOT
BRANCH   5  25
HETATM   25  O   UNL     1      -8.301  12.402  66.982  1.00  0.00    -0.179 OA 
BRANCH  25  26
HETATM   26  C   UNL     1      -7.981  10.986  67.072  1.00  0.00    -0.137 C  
HETATM   27  C   UNL     1      -8.175  10.164  69.885  1.00  0.00    -0.109 C  
HETATM   28  C   UNL     1      -9.339  10.718  68.971  1.00  0.00    -0.156 C  
HETATM   29  C   UNL     1      -6.889  10.905  69.353  1.00  0.00    -0.114 C  
HETATM   30  O   UNL     1      -9.097  10.302  67.631  1.00  0.00    -0.137 OA 
HETATM   31  C   UNL     1      -6.715  10.629  67.861  1.00  0.00    -0.064 C  
HETATM   32  C   UNL     1     -10.782  10.375  69.301  1.00  0.00    -0.270 C  
BRANCH  27  33
HETATM   33  N   UNL     1      -7.975   8.708  69.941  1.00  0.00    -0.101 NA 
HETATM   34  C   UNL     1      -6.746   8.334  70.649  1.00  0.00    -0.037 C  
HETATM   35  C   UNL     1      -9.094   7.989  70.553  1.00  0.00    -0.153 C  
ENDBRANCH  27  33
ENDBRANCH  25  26
ENDBRANCH   5  25
BRANCH  14  36
HETATM   36  O   UNL     1      -9.991  16.614  67.100  1.00  0.00    -0.255 OA 
BRANCH  36  37
HETATM   37  C   UNL     1     -10.305  15.300  67.544  1.00  0.00    -0.244 C  
HETATM   38  C   UNL     1      -8.402  12.166  67.162  1.00  0.00    -0.183 C  
HETATM   39  C   UNL     1     -12.147  13.556  66.819  1.00  0.00    -0.375 C  
HETATM   40  C   UNL     1      -9.640  13.044  67.423  1.00  0.00    -0.211 C  
HETATM   41  O   UNL     1      -9.308  14.394  67.134  1.00  0.00    -0.203 OA 
HETATM   42  H   UNL     1     -13.576  15.483  67.751  1.00  0.00     0.000 HD 
HETATM   43  C   UNL     1     -11.744  15.010  67.129  1.00  0.00    -0.215 C  
HETATM   44  O   UNL     1     -12.680  15.663  68.011  1.00  0.00     1.034 OA 
HETATM   45  C   UNL     1     -10.817  12.703  66.498  1.00  0.00    -0.258 C  
BRANCH  45  46
HETATM   46  O   UNL     1     -10.973  11.267  66.549  1.00  0.00    -0.282 OA 
BRANCH  46  47
HETATM   47  C   UNL     1     -11.030  10.756  65.234  1.00  0.00     0.122 C  
HETATM   48  C   UNL     1     -11.124  11.895  64.238  1.00  0.00    -0.418 C  
HETATM   49  C   UNL     1      -8.623   8.754  63.506  1.00  0.00    -0.059 C  
HETATM   50  O   UNL     1     -10.101   9.748  64.962  1.00  0.00    -0.225 OA 
HETATM   51  H   UNL     1      -7.298  10.929  62.440  1.00  0.00     0.000 HD 
HETATM   52  C   UNL     1      -9.763  12.426  63.889  1.00  0.00     0.015 C  
HETATM   53  C   UNL     1      -9.952  13.643  62.977  1.00  0.00     5.551 C  
HETATM   54  O   UNL     1      -9.048  12.893  65.042  1.00  0.00     0.059 OA 
HETATM   55  C   UNL     1      -9.043  11.244  63.249  1.00  0.00    -0.151 C  
HETATM   56  O   UNL     1      -7.747  11.665  62.838  1.00  0.00     0.649 OA 
HETATM   57  H   UNL     1      -8.187  13.229  64.821  1.00  0.00     0.000 HD 
HETATM   58  C   UNL     1      -8.934  10.056  64.234  1.00  0.00    -0.236 C  
ENDBRANCH  46  47
ENDBRANCH  45  46
BRANCH  39  59
HETATM   59  N   UNL     1     -13.286  13.640  65.804  1.00  0.00    -0.326 NA 
HETATM   60  C   UNL     1     -14.018  12.460  65.426  1.00  0.00     5.437 C  
HETATM   61  C   UNL     1     -14.030  14.836  65.452  1.00  0.00     3.011 C  
ENDBRANCH  39  59
ENDBRANCH  36  37
ENDBRANCH  14  36
BRANCH  19  62
HETATM   62  O   UNL     1      -8.394  19.867  66.984  1.00  0.00    -0.294 OA 
HETATM   63  C   UNL     1      -6.980  19.787  67.027  1.00  0.00    -0.211 C  
ENDBRANCH  19  62
TORSDOF 9
ENDMDL
MODEL       69
REMARK 921   NORMALIZED FREE ENERGY PREDICTED BY IDOCK:   73.72 KCAL/MOL
REMARK 922        TOTAL FREE ENERGY PREDICTED BY IDOCK:  109.88 KCAL/MOL
REMARK 923 INTER-LIGAND FREE ENERGY PREDICTED BY IDOCK:   78.48 KCAL/MOL
REMARK 924 INTRA-LIGAND FREE ENERGY PREDICTED BY IDOCK:   31.40 KCAL/MOL
REMARK 927      BINDING AFFINITY PREDICTED BY RF-SCORE:    0.00 PKD
ROOT
HETATM    1  C   UNL     1      -6.659  15.105  68.292  1.00  0.00    -0.114 C  
HETATM    2  C   UNL     1      -6.193  15.859  67.230  1.00  0.00    -0.117 C  
HETATM    3  C   UNL     1      -6.646  16.497  65.940  1.00  0.00     1.490 C  
HETATM    4  C   UNL     1      -7.869  16.769  65.440  1.00  0.00     2.012 C  
HETATM    5  C   UNL     1      -9.068  16.327  66.160  1.00  0.00    -0.341 C  
HETATM    6  O   UNL     1     -13.048  15.539  73.125  1.00  0.00    -0.452 OA 
HETATM    7  C   UNL     1      -9.491  17.502  67.114  1.00  0.00    -0.259 C  
HETATM    8  C   UNL     1      -7.017  13.221  71.862  1.00  0.00     4.856 C  
HETATM    9  C   UNL     1      -9.378  16.820  68.460  1.00  0.00    -0.246 C  
HETATM   10  C   UNL     1      -8.557  18.743  67.203  1.00  0.00    -0.287 C  
HETATM   11  C   UNL     1      -9.945  17.457  69.697  1.00  0.00     0.243 C  
HETATM   12  C   UNL     1      -7.598  14.281  69.433  1.00  0.00     0.077 C  
HETATM   13  C   UNL     1      -7.612  14.430  71.156  1.00  0.00     2.730 C  
HETATM   14  C   UNL     1     -10.738  16.325  70.403  1.00  0.00    -0.102 C  
HETATM   15  C   UNL     1      -8.727  17.904  70.608  1.00  0.00     4.904 C  
HETATM   16  C   UNL     1      -7.966  19.143  70.218  1.00  0.00     1.503 C  
HETATM   17  O   UNL     1      -8.902  14.771  71.945  1.00  0.00     3.913 OA 
HETATM   18  O   UNL     1      -9.485  12.901  73.201  1.00  0.00    16.579 OA 
HETATM   19  C   UNL     1     -11.160  16.601  71.883  1.00  0.00     0.856 C  
HETATM   20  C   UNL     1     -11.769  15.331  72.519  1.00  0.00    -0.434 C  
HETATM   21  H   UNL     1     -13.422  14.758  73.517  1.00  0.00     0.000 HD 
HETATM   22  C   UNL     1      -9.648  14.074  72.889  1.00  0.00    10.179 C  
HETATM   23  O   UNL     1      -6.770  19.164  70.210  1.00  0.00     0.064 OA 
HETATM   24  C   UNL     1     -10.766  14.889  73.568  1.00  0.00     2.895 C  
ENDROOT
BRANCH   5  25
HETATM   25  O   UNL     1     -10.001  15.588  65.350  1.00  0.00    -0.337 OA 
BRANCH  25  26
HETATM   26  C   UNL     1     -11.015  16.486  64.821  1.00  0.00    -0.177 C  
HETATM   27  C   UNL     1     -11.040  18.928  66.452  1.00  0.00     0.277 C  
HETATM   28  C   UNL     1      -9.846  18.381  65.574  1.00  0.00     0.677 C  
HETATM   29  C   UNL     1     -11.775  17.625  66.949  1.00  0.00     1.985 C  
HETATM   30  O   UNL     1     -10.390  17.707  64.443  1.00  0.00     1.431 OA 
HETATM   31  C   UNL     1     -12.200  16.784  65.747  1.00  0.00     3.252 C  
HETATM   32  C   UNL     1      -8.784  19.341  65.064  1.00  0.00     2.387 C  
BRANCH  27  33
HETATM   33  N   UNL     1     -11.977  19.874  65.829  1.00  0.00     1.980 NA 
HETATM   34  C   UNL     1     -13.006  20.346  66.762  1.00  0.00     5.935 C  
HETATM   35  C   UNL     1     -11.322  21.042  65.238  1.00  0.00     3.062 C  
ENDBRANCH  27  33
ENDBRANCH  25  26
ENDBRANCH   5  25
BRANCH  14  36
HETATM   36  O   UNL     1     -11.405  15.265  69.655  1.00  0.00    -0.251 OA 
BRANCH  36  37
HETATM   37  C   UNL     1     -10.743  14.477  68.673  1.00  0.00    -0.253 C  
HETATM   38  C   UNL     1     -11.873  13.458  65.316  1.00  0.00    -0.373 C  
HETATM   39  C   UNL     1     -10.096  11.922  68.565  1.00  0.00    -0.206 C  
HETATM   40  C   UNL     1     -11.022  13.401  66.598  1.00  0.00    -0.287 C  
HETATM   41  O   UNL     1     -11.572  14.299  67.549  1.00  0.00    -0.324 OA 
HETATM   42  H   UNL     1      -8.687  12.744  70.556  1.00  0.00     0.000 HD 
HETATM   43  C   UNL     1     -10.214  13.229  69.372  1.00  0.00     0.521 C  
HETATM   44  O   UNL     1      -9.016  13.522  70.120  1.00  0.00     2.516 OA 
HETATM   45  C   UNL     1     -11.052  12.020  67.269  1.00  0.00    -0.285 C  
BRANCH  45  46
HETATM   46  O   UNL     1     -10.788  11.054  66.229  1.00  0.00    -0.247 OA 
BRANCH  46  47
HETATM   47  C   UNL     1      -9.686  11.487  65.457  1.00  0.00    -0.230 C  
HETATM   48  C   UNL     1      -8.442  11.553  66.321  1.00  0.00    -0.108 C  
HETATM   49  C   UNL     1      -8.234   9.953  62.573  1.00  0.00    -0.147 C  
HETATM   50  O   UNL     1      -9.565  10.861  64.214  1.00  0.00    -0.231 OA 
HETATM   51  H   UNL     1      -6.428   8.465  64.038  1.00  0.00     0.000 HD 
HETATM   52  C   UNL     1      -7.762  10.216  66.398  1.00  0.00    -0.111 C  
HETATM   53  C   UNL     1      -6.591  10.339  67.379  1.00  0.00    -0.068 C  
HETATM   54  O   UNL     1      -8.623   9.196  66.926  1.00  0.00    -0.121 OA 
HETATM   55  C   UNL     1      -7.371   9.901  64.959  1.00  0.00    -0.135 C  
HETATM   56  O   UNL     1      -6.671   8.661  64.935  1.00  0.00    -0.068 OA 
HETATM   57  H   UNL     1      -8.194   8.350  66.974  1.00  0.00     0.000 HD 
HETATM   58  C   UNL     1      -8.616   9.833  64.043  1.00  0.00    -0.197 C  
ENDBRANCH  46  47
ENDBRANCH  45  46
BRANCH  39  59
HETATM   59  N   UNL     1     -10.259  10.786  69.573  1.00  0.00    -0.167 NA 
HETATM   60  C   UNL     1     -11.545  10.175  69.786  1.00  0.00    -0.182 C  
HETATM   61  C   UNL     1      -9.199   9.929  70.074  1.00  0.00    -0.183 C  
ENDBRANCH  39  59
ENDBRANCH  36  37
ENDBRANCH  14  36
BRANCH  19  62
HETATM   62  O   UNL     1     -11.896  17.765  72.236  1.00  0.00     1.908 OA 
HETATM   63  C   UNL     1     -13.266  17.681  72.587  1.00  0.00     7.289 C  
ENDBRANCH  19  62
TORSDOF 9
ENDMDL
MODEL       70
REMARK 921   NORMALIZED FREE ENERGY PREDICTED BY IDOCK:   74.91 KCAL/MOL
REMARK 922        TOTAL FREE ENERGY PREDICTED BY IDOCK:  111.70 KCAL/MOL
REMARK 923 INTER-LIGAND FREE ENERGY PREDICTED BY IDOCK:   58.69 KCAL/MOL
REMARK 924 INTRA-LIGAND FREE ENERGY PREDICTED BY IDOCK:   53.01 KCAL/MOL
REMARK 927      BINDING AFFINITY PREDICTED BY RF-SCORE:    0.00 PKD
ROOT
HETATM    1  C   UNL     1      -7.573  13.837  72.208  1.00  0.00     7.234 C  
HETATM    2  C   UNL     1      -6.272  13.390  72.059  1.00  0.00     1.493 C  
HETATM    3  C   UNL     1      -5.355  12.722  71.066  1.00  0.00    -0.173 C  
HETATM    4  C   UNL     1      -5.450  12.511  69.737  1.00  0.00    -0.092 C  
HETATM    5  C   UNL     1      -6.678  12.883  69.025  1.00  0.00    -0.095 C  
HETATM    6  O   UNL     1     -12.557  18.241  67.722  1.00  0.00     3.276 OA 
HETATM    7  C   UNL     1      -6.482  14.353  68.507  1.00  0.00    -0.094 C  
HETATM    8  C   UNL     1     -10.924  15.672  73.559  1.00  0.00     1.993 C  
HETATM    9  C   UNL     1      -7.613  15.054  69.228  1.00  0.00    -0.187 C  
HETATM   10  C   UNL     1      -5.192  15.112  68.933  1.00  0.00    -0.096 C  
HETATM   11  C   UNL     1      -8.021  16.449  68.851  1.00  0.00    -0.236 C  
HETATM   12  C   UNL     1      -9.178  14.322  71.981  1.00  0.00     7.647 C  
HETATM   13  C   UNL     1      -9.943  15.814  72.405  1.00  0.00     4.769 C  
HETATM   14  C   UNL     1      -9.568  16.398  68.738  1.00  0.00    -0.249 C  
HETATM   15  C   UNL     1      -7.604  17.411  70.040  1.00  0.00     1.537 C  
HETATM   16  C   UNL     1      -6.151  17.784  70.176  1.00  0.00    -0.031 C  
HETATM   17  O   UNL     1     -10.668  16.697  71.358  1.00  0.00     0.769 OA 
HETATM   18  O   UNL     1     -12.943  16.660  71.847  1.00  0.00     0.723 OA 
HETATM   19  C   UNL     1     -10.300  17.779  68.684  1.00  0.00    -0.350 C  
HETATM   20  C   UNL     1     -11.832  17.583  68.765  1.00  0.00     2.228 C  
HETATM   21  H   UNL     1     -13.499  18.121  67.771  1.00  0.00     0.000 HD 
HETATM   22  C   UNL     1     -11.993  17.089  71.203  1.00  0.00     1.878 C  
HETATM   23  O   UNL     1      -5.596  17.749  71.234  1.00  0.00    -0.004 OA 
HETATM   24  C   UNL     1     -12.236  18.150  70.112  1.00  0.00     9.805 C  
ENDROOT
BRANCH   5  25
HETATM   25  O   UNL     1      -7.233  11.826  68.221  1.00  0.00    -0.072 OA 
BRANCH  25  26
HETATM   26  C   UNL     1      -6.599  11.817  66.912  1.00  0.00    -0.114 C  
HETATM   27  C   UNL     1      -8.606  11.045  64.911  1.00  0.00     0.056 C  
HETATM   28  C   UNL     1      -8.628  12.324  65.838  1.00  0.00     0.464 C  
HETATM   29  C   UNL     1      -7.887   9.951  65.789  1.00  0.00    -0.121 C  
HETATM   30  O   UNL     1      -7.284  12.737  66.069  1.00  0.00     1.578 OA 
HETATM   31  C   UNL     1      -6.510  10.454  66.215  1.00  0.00    -0.102 C  
HETATM   32  C   UNL     1      -9.413  13.551  65.409  1.00  0.00     0.232 C  
BRANCH  27  33
HETATM   33  N   UNL     1      -7.984  11.166  63.583  1.00  0.00     0.477 NA 
HETATM   34  C   UNL     1      -6.656  10.547  63.524  1.00  0.00     0.043 C  
HETATM   35  C   UNL     1      -8.800  10.607  62.504  1.00  0.00    -0.275 C  
ENDBRANCH  27  33
ENDBRANCH  25  26
ENDBRANCH   5  25
BRANCH  14  36
HETATM   36  O   UNL     1     -10.273  15.197  68.301  1.00  0.00    -0.219 OA 
BRANCH  36  37
HETATM   37  C   UNL     1      -9.879  13.886  68.687  1.00  0.00    -0.175 C  
HETATM   38  C   UNL     1     -10.368  10.672  66.949  1.00  0.00    -0.288 C  
HETATM   39  C   UNL     1     -10.677  12.271  70.613  1.00  0.00     3.006 C  
HETATM   40  C   UNL     1     -10.080  11.605  68.140  1.00  0.00    -0.196 C  
HETATM   41  O   UNL     1     -10.318  12.945  67.736  1.00  0.00    -0.215 OA 
HETATM   42  H   UNL     1      -9.680  14.235  71.944  1.00  0.00     0.000 HD 
HETATM   43  C   UNL     1     -10.311  13.689  70.135  1.00  0.00     1.545 C  
HETATM   44  O   UNL     1      -9.410  14.358  71.042  1.00  0.00     2.664 OA 
HETATM   45  C   UNL     1     -11.023  11.360  69.327  1.00  0.00    -0.229 C  
BRANCH  45  46
HETATM   46  O   UNL     1     -11.025   9.934  69.560  1.00  0.00    -0.231 OA 
BRANCH  46  47
HETATM   47  C   UNL     1     -10.481   9.276  68.434  1.00  0.00    -0.206 C  
HETATM   48  C   UNL     1      -9.306  10.066  67.890  1.00  0.00    -0.151 C  
HETATM   49  C   UNL     1      -9.048   6.007  68.230  1.00  0.00    -0.111 C  
HETATM   50  O   UNL     1     -10.303   7.900  68.595  1.00  0.00    -0.203 OA 
HETATM   51  H   UNL     1      -6.486   6.888  68.764  1.00  0.00     0.000 HD 
HETATM   52  C   UNL     1      -8.036   9.716  68.611  1.00  0.00    -0.089 C  
HETATM   53  C   UNL     1      -6.928  10.636  68.087  1.00  0.00    -0.073 C  
HETATM   54  O   UNL     1      -8.126   9.957  70.023  1.00  0.00    -0.173 OA 
HETATM   55  C   UNL     1      -7.831   8.231  68.330  1.00  0.00    -0.118 C  
HETATM   56  O   UNL     1      -6.614   7.813  68.939  1.00  0.00    -0.046 OA 
HETATM   57  H   UNL     1      -7.323   9.736  70.479  1.00  0.00     0.000 HD 
HETATM   58  C   UNL     1      -9.016   7.392  68.864  1.00  0.00    -0.130 C  
ENDBRANCH  46  47
ENDBRANCH  45  46
BRANCH  39  59
HETATM   59  N   UNL     1     -11.693  12.451  71.740  1.00  0.00     2.029 NA 
HETATM   60  C   UNL     1     -13.025  12.915  71.456  1.00  0.00    -0.294 C  
HETATM   61  C   UNL     1     -11.639  11.823  73.048  1.00  0.00     9.323 C  
ENDBRANCH  39  59
ENDBRANCH  36  37
ENDBRANCH  14  36
BRANCH  19  62
HETATM   62  O   UNL     1      -9.950  18.762  67.721  1.00  0.00    -0.321 OA 
HETATM   63  C   UNL     1     -10.500  20.067  67.779  1.00  0.00    -0.318 C  
ENDBRANCH  19  62
TORSDOF 9
ENDMDL
MODEL       71
REMARK 921   NORMALIZED FREE ENERGY PREDICTED BY IDOCK:   76.89 KCAL/MOL
REMARK 922        TOTAL FREE ENERGY PREDICTED BY IDOCK:  114.71 KCAL/MOL
REMARK 923 INTER-LIGAND FREE ENERGY PREDICTED BY IDOCK:   68.55 KCAL/MOL
REMARK 924 INTRA-LIGAND FREE ENERGY PREDICTED BY IDOCK:   46.15 KCAL/MOL
REMARK 927      BINDING AFFINITY PREDICTED BY RF-SCORE:    0.00 PKD
ROOT
HETATM    1  C   UNL     1     -10.668  16.152  63.554  1.00  0.00     4.203 C  
HETATM    2  C   UNL     1     -11.832  15.648  63.002  1.00  0.00     3.683 C  
HETATM    3  C   UNL     1     -12.565  14.352  62.761  1.00  0.00     2.333 C  
HETATM    4  C   UNL     1     -12.413  13.112  63.269  1.00  0.00    -0.252 C  
HETATM    5  C   UNL     1     -11.296  12.826  64.176  1.00  0.00    -0.390 C  
HETATM    6  O   UNL     1      -6.780  15.026  70.481  1.00  0.00    -0.035 OA 
HETATM    7  C   UNL     1     -11.817  13.072  65.638  1.00  0.00    -0.445 C  
HETATM    8  C   UNL     1      -7.834  18.622  65.069  1.00  0.00     1.987 C  
HETATM    9  C   UNL     1     -10.882  14.174  66.085  1.00  0.00    -0.296 C  
HETATM   10  C   UNL     1     -13.249  13.653  65.815  1.00  0.00     0.230 C  
HETATM   11  C   UNL     1     -10.798  14.578  67.529  1.00  0.00    -0.289 C  
HETATM   12  C   UNL     1      -9.214  16.387  64.386  1.00  0.00     5.441 C  
HETATM   13  C   UNL     1      -8.813  17.575  65.579  1.00  0.00     0.947 C  
HETATM   14  C   UNL     1      -9.279  14.643  67.841  1.00  0.00    -0.197 C  
HETATM   15  C   UNL     1     -11.433  16.024  67.662  1.00  0.00    -0.016 C  
HETATM   16  C   UNL     1     -12.934  16.147  67.627  1.00  0.00     3.617 C  
HETATM   17  O   UNL     1      -8.298  17.187  66.989  1.00  0.00    -0.192 OA 
HETATM   18  O   UNL     1      -6.079  17.869  67.151  1.00  0.00    -0.139 OA 
HETATM   19  C   UNL     1      -8.881  15.359  69.173  1.00  0.00    -0.249 C  
HETATM   20  C   UNL     1      -7.346  15.519  69.263  1.00  0.00    -0.202 C  
HETATM   21  H   UNL     1      -5.836  15.124  70.537  1.00  0.00     0.000 HD 
HETATM   22  C   UNL     1      -7.097  17.406  67.653  1.00  0.00    -0.163 C  
HETATM   23  O   UNL     1     -13.476  16.978  66.959  1.00  0.00     7.041 OA 
HETATM   24  C   UNL     1      -7.092  17.010  69.142  1.00  0.00    -0.221 C  
ENDROOT
BRANCH   5  25
HETATM   25  O   UNL     1     -10.508  11.683  63.797  1.00  0.00    -0.321 OA 
BRANCH  25  26
HETATM   26  C   UNL     1      -9.152  12.101  63.477  1.00  0.00     0.755 C  
HETATM   27  C   UNL     1      -7.750  12.716  65.983  1.00  0.00     1.757 C  
HETATM   28  C   UNL     1      -8.338  11.318  65.538  1.00  0.00     0.140 C  
HETATM   29  C   UNL     1      -8.733  13.765  65.336  1.00  0.00     2.084 C  
HETATM   30  O   UNL     1      -8.240  11.219  64.120  1.00  0.00     0.402 OA 
HETATM   31  C   UNL     1      -8.794  13.551  63.825  1.00  0.00     6.263 C  
HETATM   32  C   UNL     1      -7.766  10.039  66.124  1.00  0.00    -0.108 C  
BRANCH  27  33
HETATM   33  N   UNL     1      -6.348  13.011  65.651  1.00  0.00     5.164 NA 
HETATM   34  C   UNL     1      -5.403  12.184  66.409  1.00  0.00     0.614 C  
HETATM   35  C   UNL     1      -6.043  12.869  64.227  1.00  0.00    12.333 C  
ENDBRANCH  27  33
ENDBRANCH  25  26
ENDBRANCH   5  25
BRANCH  14  36
HETATM   36  O   UNL     1      -8.316  13.765  67.184  1.00  0.00    -0.185 OA 
BRANCH  36  37
HETATM   37  C   UNL     1      -7.821  12.575  67.783  1.00  0.00    -0.151 C  
HETATM   38  C   UNL     1      -9.557   9.406  68.514  1.00  0.00    -0.154 C  
HETATM   39  C   UNL     1      -7.027  11.999  70.232  1.00  0.00     1.144 C  
HETATM   40  C   UNL     1      -8.453  10.472  68.634  1.00  0.00    -0.138 C  
HETATM   41  O   UNL     1      -8.854  11.626  67.911  1.00  0.00    -0.143 OA 
HETATM   42  H   UNL     1      -5.293  13.759  69.510  1.00  0.00     0.000 HD 
HETATM   43  C   UNL     1      -7.067  12.980  69.045  1.00  0.00    -0.026 C  
HETATM   44  O   UNL     1      -5.763  13.506  68.724  1.00  0.00    -0.077 OA 
HETATM   45  C   UNL     1      -8.240  10.946  70.079  1.00  0.00     0.933 C  
BRANCH  45  46
HETATM   46  O   UNL     1      -8.132   9.753  70.888  1.00  0.00    -0.252 OA 
BRANCH  46  47
HETATM   47  C   UNL     1      -9.038   8.781  70.411  1.00  0.00    -0.176 C  
HETATM   48  C   UNL     1      -8.828   8.561  68.925  1.00  0.00    -0.139 C  
HETATM   49  C   UNL     1      -9.376   5.362  71.399  1.00  0.00    -0.179 C  
HETATM   50  O   UNL     1      -9.145   7.643  71.214  1.00  0.00    -0.136 OA 
HETATM   51  H   UNL     1      -7.613   4.436  69.486  1.00  0.00     0.000 HD 
HETATM   52  C   UNL     1      -7.740   7.557  68.673  1.00  0.00    -0.119 C  
HETATM   53  C   UNL     1      -7.510   7.481  67.160  1.00  0.00    -0.099 C  
HETATM   54  O   UNL     1      -6.488   7.953  69.252  1.00  0.00    -0.035 OA 
HETATM   55  C   UNL     1      -8.248   6.271  69.315  1.00  0.00    -0.114 C  
HETATM   56  O   UNL     1      -7.296   5.237  69.086  1.00  0.00    -0.060 OA 
HETATM   57  H   UNL     1      -5.799   7.318  69.093  1.00  0.00     0.000 HD 
HETATM   58  C   UNL     1      -8.483   6.458  70.833  1.00  0.00    -0.131 C  
ENDBRANCH  46  47
ENDBRANCH  45  46
BRANCH  39  59
HETATM   59  N   UNL     1      -6.891  12.858  71.488  1.00  0.00     2.983 NA 
HETATM   60  C   UNL     1      -5.592  13.174  72.022  1.00  0.00     0.275 C  
HETATM   61  C   UNL     1      -7.893  13.767  72.013  1.00  0.00     8.145 C  
ENDBRANCH  39  59
ENDBRANCH  36  37
ENDBRANCH  14  36
BRANCH  19  62
HETATM   62  O   UNL     1      -9.438  14.962  70.418  1.00  0.00     0.449 OA 
HETATM   63  C   UNL     1     -10.167  15.880  71.215  1.00  0.00     1.460 C  
ENDBRANCH  19  62
TORSDOF 9
ENDMDL
MODEL       72
REMARK 921   NORMALIZED FREE ENERGY PREDICTED BY IDOCK:   77.58 KCAL/MOL
REMARK 922        TOTAL FREE ENERGY PREDICTED BY IDOCK:  115.76 KCAL/MOL
REMARK 923 INTER-LIGAND FREE ENERGY PREDICTED BY IDOCK:   42.78 KCAL/MOL
REMARK 924 INTRA-LIGAND FREE ENERGY PREDICTED BY IDOCK:   72.98 KCAL/MOL
REMARK 927      BINDING AFFINITY PREDICTED BY RF-SCORE:    0.00 PKD
ROOT
HETATM    1  C   UNL     1      -7.525   8.096  67.208  1.00  0.00    -0.090 C  
HETATM    2  C   UNL     1      -7.910   7.264  68.246  1.00  0.00    -0.122 C  
HETATM    3  C   UNL     1      -8.568   7.288  69.602  1.00  0.00    -0.137 C  
HETATM    4  C   UNL     1      -9.298   8.223  70.244  1.00  0.00    -0.159 C  
HETATM    5  C   UNL     1      -9.481   9.548  69.639  1.00  0.00    -0.199 C  
HETATM    6  O   UNL     1     -11.091  14.006  63.119  1.00  0.00     0.735 OA 
HETATM    7  C   UNL     1     -10.801   9.487  68.788  1.00  0.00    -0.173 C  
HETATM    8  C   UNL     1      -6.294   9.525  63.622  1.00  0.00    -0.099 C  
HETATM    9  C   UNL     1     -10.255   9.790  67.409  1.00  0.00    -0.284 C  
HETATM   10  C   UNL     1     -11.518   8.113  68.651  1.00  0.00     1.015 C  
HETATM   11  C   UNL     1     -11.177  10.116  66.269  1.00  0.00     0.614 C  
HETATM   12  C   UNL     1      -7.289   9.389  66.143  1.00  0.00    -0.096 C  
HETATM   13  C   UNL     1      -7.577   9.471  64.439  1.00  0.00    -0.122 C  
HETATM   14  C   UNL     1     -10.565  11.379  65.606  1.00  0.00    -0.258 C  
HETATM   15  C   UNL     1     -11.130   8.902  65.251  1.00  0.00     5.272 C  
HETATM   16  C   UNL     1     -11.880   7.646  65.609  1.00  0.00     8.846 C  
HETATM   17  O   UNL     1      -8.508  10.539  63.810  1.00  0.00    -0.171 OA 
HETATM   18  O   UNL     1      -7.188  11.980  62.547  1.00  0.00     1.041 OA 
HETATM   19  C   UNL     1     -11.122  11.752  64.193  1.00  0.00    -0.374 C  
HETATM   20  C   UNL     1     -10.299  12.905  63.574  1.00  0.00     0.227 C  
HETATM   21  H   UNL     1     -10.586  14.715  62.738  1.00  0.00     0.000 HD 
HETATM   22  C   UNL     1      -8.286  11.586  62.924  1.00  0.00     0.541 C  
HETATM   23  O   UNL     1     -11.380   6.566  65.488  1.00  0.00     2.929 OA 
HETATM   24  C   UNL     1      -9.559  12.284  62.405  1.00  0.00     2.364 C  
ENDROOT
BRANCH   5  25
HETATM   25  O   UNL     1      -9.152  10.643  70.514  1.00  0.00     0.906 OA 
BRANCH  25  26
HETATM   26  C   UNL     1     -10.022  10.623  71.680  1.00  0.00     5.289 C  
HETATM   27  C   UNL     1     -12.272   8.817  71.133  1.00  0.00    -0.244 C  
HETATM   28  C   UNL     1     -10.741   8.436  71.206  1.00  0.00    -0.230 C  
HETATM   29  C   UNL     1     -12.271  10.290  70.570  1.00  0.00    -0.390 C  
HETATM   30  O   UNL     1     -10.110   9.286  72.159  1.00  0.00    -0.064 OA 
HETATM   31  C   UNL     1     -11.433  11.187  71.478  1.00  0.00     1.550 C  
HETATM   32  C   UNL     1     -10.335   7.008  71.530  1.00  0.00    -0.218 C  
BRANCH  27  33
HETATM   33  N   UNL     1     -13.070   8.709  72.364  1.00  0.00    -0.369 NA 
HETATM   34  C   UNL     1     -14.401   9.311  72.228  1.00  0.00    -0.094 C  
HETATM   35  C   UNL     1     -13.234   7.333  72.833  1.00  0.00     1.349 C  
ENDBRANCH  27  33
ENDBRANCH  25  26
ENDBRANCH   5  25
BRANCH  14  36
HETATM   36  O   UNL     1      -9.837  12.381  66.376  1.00  0.00    -0.229 OA 
BRANCH  36  37
HETATM   37  C   UNL     1     -10.485  13.410  67.114  1.00  0.00    -0.249 C  
HETATM   38  C   UNL     1     -12.483  16.268  65.918  1.00  0.00     2.888 C  
HETATM   39  C   UNL     1      -9.577  15.427  68.551  1.00  0.00    -0.201 C  
HETATM   40  C   UNL     1     -11.636  15.454  66.914  1.00  0.00     0.019 C  
HETATM   41  O   UNL     1     -11.097  14.328  66.239  1.00  0.00    -0.312 OA 
HETATM   42  H   UNL     1      -8.712  13.398  69.877  1.00  0.00     0.000 HD 
HETATM   43  C   UNL     1      -9.477  13.951  68.122  1.00  0.00    -0.207 C  
HETATM   44  O   UNL     1      -9.341  13.061  69.249  1.00  0.00     0.538 OA 
HETATM   45  C   UNL     1     -10.424  16.237  67.441  1.00  0.00    -0.304 C  
BRANCH  45  46
HETATM   46  O   UNL     1     -10.921  17.527  67.860  1.00  0.00    -0.323 OA 
BRANCH  46  47
HETATM   47  C   UNL     1     -10.682  17.695  69.242  1.00  0.00     0.250 C  
HETATM   48  C   UNL     1     -11.404  16.617  70.028  1.00  0.00     0.089 C  
HETATM   49  C   UNL     1      -7.569  17.621  70.998  1.00  0.00     5.590 C  
HETATM   50  O   UNL     1      -9.347  17.939  69.575  1.00  0.00     0.257 OA 
HETATM   51  H   UNL     1      -7.701  14.910  71.506  1.00  0.00     0.000 HD 
HETATM   52  C   UNL     1     -10.579  15.366  70.117  1.00  0.00    -0.295 C  
HETATM   53  C   UNL     1     -11.422  14.295  70.818  1.00  0.00    -0.082 C  
HETATM   54  O   UNL     1     -10.250  14.836  68.824  1.00  0.00    -0.227 OA 
HETATM   55  C   UNL     1      -9.319  15.788  70.864  1.00  0.00     2.277 C  
HETATM   56  O   UNL     1      -8.487  14.646  71.041  1.00  0.00     2.225 OA 
HETATM   57  H   UNL     1      -9.728  14.044  68.880  1.00  0.00     0.000 HD 
HETATM   58  C   UNL     1      -8.558  16.894  70.095  1.00  0.00     2.205 C  
ENDBRANCH  46  47
ENDBRANCH  45  46
BRANCH  39  59
HETATM   59  N   UNL     1      -8.159  15.859  68.921  1.00  0.00    -0.198 NA 
HETATM   60  C   UNL     1      -7.525  16.955  68.236  1.00  0.00    -0.192 C  
HETATM   61  C   UNL     1      -7.481  15.579  70.173  1.00  0.00     0.339 C  
ENDBRANCH  39  59
ENDBRANCH  36  37
ENDBRANCH  14  36
BRANCH  19  62
HETATM   62  O   UNL     1     -12.515  11.928  63.973  1.00  0.00    -0.375 OA 
HETATM   63  C   UNL     1     -13.122  13.199  64.130  1.00  0.00     0.512 C  
ENDBRANCH  19  62
TORSDOF 9
ENDMDL
MODEL       73
REMARK 921   NORMALIZED FREE ENERGY PREDICTED BY IDOCK:   80.75 KCAL/MOL
REMARK 922        TOTAL FREE ENERGY PREDICTED BY IDOCK:  120.60 KCAL/MOL
REMARK 923 INTER-LIGAND FREE ENERGY PREDICTED BY IDOCK:   30.68 KCAL/MOL
REMARK 924 INTRA-LIGAND FREE ENERGY PREDICTED BY IDOCK:   89.92 KCAL/MOL
REMARK 927      BINDING AFFINITY PREDICTED BY RF-SCORE:    0.00 PKD
ROOT
HETATM    1  C   UNL     1      -6.979   3.343  67.568  1.00  0.00    -0.050 C  
HETATM    2  C   UNL     1      -7.483   2.142  68.034  1.00  0.00    -0.055 C  
HETATM    3  C   UNL     1      -8.434   1.572  69.056  1.00  0.00    -0.080 C  
HETATM    4  C   UNL     1      -9.408   2.131  69.804  1.00  0.00    -0.159 C  
HETATM    5  C   UNL     1      -9.615   3.583  69.767  1.00  0.00    -0.136 C  
HETATM    6  O   UNL     1     -10.232  10.366  65.455  1.00  0.00    -0.278 OA 
HETATM    7  C   UNL     1     -10.682   3.866  68.648  1.00  0.00     2.385 C  
HETATM    8  C   UNL     1      -5.145   6.189  65.340  1.00  0.00    -0.013 C  
HETATM    9  C   UNL     1      -9.876   4.739  67.711  1.00  0.00    -0.194 C  
HETATM   10  C   UNL     1     -11.164   2.669  67.779  1.00  0.00     8.593 C  
HETATM   11  C   UNL     1     -10.543   5.503  66.603  1.00  0.00    -0.365 C  
HETATM   12  C   UNL     1      -6.671   4.971  67.225  1.00  0.00    -0.055 C  
HETATM   13  C   UNL     1      -6.564   5.767  65.693  1.00  0.00    -0.044 C  
HETATM   14  C   UNL     1      -9.962   6.939  66.699  1.00  0.00    -0.143 C  
HETATM   15  C   UNL     1     -10.105   4.841  65.231  1.00  0.00    -0.054 C  
HETATM   16  C   UNL     1     -10.748   3.538  64.834  1.00  0.00     0.334 C  
HETATM   17  O   UNL     1      -7.454   6.984  65.332  1.00  0.00    -0.079 OA 
HETATM   18  O   UNL     1      -6.075   8.851  65.163  1.00  0.00    -0.058 OA 
HETATM   19  C   UNL     1     -10.220   7.869  65.469  1.00  0.00     2.020 C  
HETATM   20  C   UNL     1      -9.432   9.191  65.614  1.00  0.00    -0.240 C  
HETATM   21  H   UNL     1      -9.748  11.179  65.545  1.00  0.00     0.000 HD 
HETATM   22  C   UNL     1      -7.169   8.314  65.042  1.00  0.00    -0.080 C  
HETATM   23  O   UNL     1     -10.099   2.623  64.421  1.00  0.00    -0.079 OA 
HETATM   24  C   UNL     1      -8.367   9.142  64.535  1.00  0.00    -0.175 C  
ENDROOT
BRANCH   5  25
HETATM   25  O   UNL     1      -9.642   4.206  71.064  1.00  0.00    -0.156 OA 
BRANCH  25  26
HETATM   26  C   UNL     1      -9.381   5.631  70.933  1.00  0.00    -0.160 C  
HETATM   27  C   UNL     1     -11.874   7.087  71.468  1.00  0.00    -0.314 C  
HETATM   28  C   UNL     1     -11.077   6.164  72.471  1.00  0.00    -0.274 C  
HETATM   29  C   UNL     1     -11.617   6.430  70.058  1.00  0.00    -0.446 C  
HETATM   30  O   UNL     1      -9.688   6.265  72.170  1.00  0.00    -0.155 OA 
HETATM   31  C   UNL     1     -10.115   6.349  69.795  1.00  0.00    -0.211 C  
HETATM   32  C   UNL     1     -11.233   6.368  73.968  1.00  0.00     0.891 C  
BRANCH  27  33
HETATM   33  N   UNL     1     -11.564   8.525  71.458  1.00  0.00    -0.275 NA 
HETATM   34  C   UNL     1     -11.493   9.078  70.101  1.00  0.00    -0.062 C  
HETATM   35  C   UNL     1     -12.509   9.331  72.233  1.00  0.00    -0.307 C  
ENDBRANCH  27  33
ENDBRANCH  25  26
ENDBRANCH   5  25
BRANCH  14  36
HETATM   36  O   UNL     1      -9.568   7.531  67.973  1.00  0.00    -0.141 OA 
BRANCH  36  37
HETATM   37  C   UNL     1      -8.283   8.094  68.200  1.00  0.00    -0.129 C  
HETATM   38  C   UNL     1      -6.053   7.782  71.120  1.00  0.00    -0.034 C  
HETATM   39  C   UNL     1      -7.457  10.568  68.601  1.00  0.00    -0.095 C  
HETATM   40  C   UNL     1      -6.602   8.401  69.820  1.00  0.00    -0.039 C  
HETATM   41  O   UNL     1      -7.816   7.747  69.482  1.00  0.00    -0.106 OA 
HETATM   42  H   UNL     1      -8.391  10.699  66.206  1.00  0.00     0.000 HD 
HETATM   43  C   UNL     1      -8.368   9.576  67.851  1.00  0.00    -0.115 C  
HETATM   44  O   UNL     1      -8.337   9.776  66.423  1.00  0.00    -0.119 OA 
HETATM   45  C   UNL     1      -6.963   9.885  69.976  1.00  0.00    -0.119 C  
BRANCH  45  46
HETATM   46  O   UNL     1      -5.829  10.517  70.610  1.00  0.00    -0.094 OA 
BRANCH  46  47
HETATM   47  C   UNL     1      -5.523  11.718  69.931  1.00  0.00    -0.094 C  
HETATM   48  C   UNL     1      -5.199  11.424  68.480  1.00  0.00    -0.043 C  
HETATM   49  C   UNL     1      -7.586  14.594  69.431  1.00  0.00    -0.081 C  
HETATM   50  O   UNL     1      -6.405  12.770  70.186  1.00  0.00    -0.077 OA 
HETATM   51  H   UNL     1      -8.610  13.679  67.035  1.00  0.00     0.000 HD 
HETATM   52  C   UNL     1      -6.446  11.363  67.646  1.00  0.00    -0.063 C  
HETATM   53  C   UNL     1      -6.045  10.947  66.227  1.00  0.00    -0.137 C  
HETATM   54  O   UNL     1      -7.366  10.365  68.113  1.00  0.00    -0.086 OA 
HETATM   55  C   UNL     1      -7.055  12.756  67.764  1.00  0.00    -0.132 C  
HETATM   56  O   UNL     1      -8.230  12.812  66.961  1.00  0.00    -0.169 OA 
HETATM   57  H   UNL     1      -8.155  10.326  67.586  1.00  0.00     0.000 HD 
HETATM   58  C   UNL     1      -7.393  13.096  69.235  1.00  0.00     0.227 C  
ENDBRANCH  46  47
ENDBRANCH  45  46
BRANCH  39  59
HETATM   59  N   UNL     1      -8.202  11.901  68.613  1.00  0.00    -0.115 NA 
HETATM   60  C   UNL     1      -9.497  12.023  67.998  1.00  0.00    -0.199 C  
HETATM   61  C   UNL     1      -7.969  13.001  69.532  1.00  0.00     1.066 C  
ENDBRANCH  39  59
ENDBRANCH  36  37
ENDBRANCH  14  36
BRANCH  19  62
HETATM   62  O   UNL     1     -11.534   8.097  64.979  1.00  0.00     8.629 OA 
HETATM   63  C   UNL     1     -12.647   7.422  65.540  1.00  0.00    13.423 C  
ENDBRANCH  19  62
TORSDOF 9
ENDMDL
MODEL       74
REMARK 921   NORMALIZED FREE ENERGY PREDICTED BY IDOCK:   85.74 KCAL/MOL
REMARK 922        TOTAL FREE ENERGY PREDICTED BY IDOCK:  128.22 KCAL/MOL
REMARK 923 INTER-LIGAND FREE ENERGY PREDICTED BY IDOCK:   76.63 KCAL/MOL
REMARK 924 INTRA-LIGAND FREE ENERGY PREDICTED BY IDOCK:   51.59 KCAL/MOL
REMARK 927      BINDING AFFINITY PREDICTED BY RF-SCORE:    0.00 PKD
ROOT
HETATM    1  C   UNL     1     -10.164  12.411  65.719  1.00  0.00    -0.283 C  
HETATM    2  C   UNL     1      -9.535  12.767  64.539  1.00  0.00     0.443 C  
HETATM    3  C   UNL     1      -8.235  13.318  64.008  1.00  0.00     8.287 C  
HETATM    4  C   UNL     1      -7.012  13.454  64.559  1.00  0.00    16.079 C  
HETATM    5  C   UNL     1      -6.805  13.117  65.972  1.00  0.00     4.251 C  
HETATM    6  O   UNL     1      -8.059   8.060  72.123  1.00  0.00    -0.113 OA 
HETATM    7  C   UNL     1      -6.366  11.609  66.025  1.00  0.00     0.545 C  
HETATM    8  C   UNL     1     -12.739  10.868  68.441  1.00  0.00     2.112 C  
HETATM    9  C   UNL     1      -7.489  11.023  66.853  1.00  0.00    -0.133 C  
HETATM   10  C   UNL     1      -6.372  10.799  64.696  1.00  0.00     0.212 C  
HETATM   11  C   UNL     1      -7.388   9.635  67.419  1.00  0.00    -0.087 C  
HETATM   12  C   UNL     1     -10.550  12.012  67.317  1.00  0.00    -0.252 C  
HETATM   13  C   UNL     1     -11.329  10.597  67.937  1.00  0.00    -0.268 C  
HETATM   14  C   UNL     1      -7.820   9.775  68.903  1.00  0.00    -0.087 C  
HETATM   15  C   UNL     1      -8.427   8.723  66.644  1.00  0.00    -0.111 C  
HETATM   16  C   UNL     1      -8.075   8.270  65.251  1.00  0.00    -0.142 C  
HETATM   17  O   UNL     1     -10.673   9.700  69.017  1.00  0.00    -0.217 OA 
HETATM   18  O   UNL     1     -11.923   9.905  70.969  1.00  0.00    -0.311 OA 
HETATM   19  C   UNL     1      -8.132   8.440  69.656  1.00  0.00    -0.115 C  
HETATM   20  C   UNL     1      -8.728   8.733  71.053  1.00  0.00    -0.202 C  
HETATM   21  H   UNL     1      -8.425   8.240  72.982  1.00  0.00     0.000 HD 
HETATM   22  C   UNL     1     -11.023   9.381  70.324  1.00  0.00    -0.262 C  
HETATM   23  O   UNL     1      -8.865   8.334  64.357  1.00  0.00     0.095 OA 
HETATM   24  C   UNL     1     -10.171   8.273  70.975  1.00  0.00    -0.230 C  
ENDROOT
BRANCH   5  25
HETATM   25  O   UNL     1      -6.166  14.156  66.736  1.00  0.00     0.700 OA 
BRANCH  25  26
HETATM   26  C   UNL     1      -7.021  14.550  67.845  1.00  0.00    -0.162 C  
HETATM   27  C   UNL     1      -6.727  17.441  68.267  1.00  0.00    -0.183 C  
HETATM   28  C   UNL     1      -7.284  16.718  66.977  1.00  0.00    -0.201 C  
HETATM   29  C   UNL     1      -5.654  16.435  68.834  1.00  0.00    -0.122 C  
HETATM   30  O   UNL     1      -7.948  15.525  67.380  1.00  0.00    -0.153 OA 
HETATM   31  C   UNL     1      -6.306  15.079  69.093  1.00  0.00    -0.108 C  
HETATM   32  C   UNL     1      -8.218  17.464  66.039  1.00  0.00    -0.161 C  
BRANCH  27  33
HETATM   33  N   UNL     1      -7.691  17.844  69.302  1.00  0.00     0.004 NA 
HETATM   34  C   UNL     1      -7.217  17.549  70.659  1.00  0.00     3.051 C  
HETATM   35  C   UNL     1      -8.056  19.260  69.241  1.00  0.00    -0.057 C  
ENDBRANCH  27  33
ENDBRANCH  25  26
ENDBRANCH   5  25
BRANCH  14  36
HETATM   36  O   UNL     1      -7.565  10.988  69.672  1.00  0.00    -0.064 OA 
BRANCH  36  37
HETATM   37  C   UNL     1      -8.464  12.089  69.698  1.00  0.00     1.595 C  
HETATM   38  C   UNL     1      -8.086  15.402  71.272  1.00  0.00     3.552 C  
HETATM   39  C   UNL     1     -10.795  12.472  70.873  1.00  0.00     3.591 C  
HETATM   40  C   UNL     1      -8.837  14.214  70.643  1.00  0.00     3.545 C  
HETATM   41  O   UNL     1      -7.923  13.142  70.461  1.00  0.00     3.065 OA 
HETATM   42  H   UNL     1     -11.330  10.559  69.237  1.00  0.00     0.000 HD 
HETATM   43  C   UNL     1      -9.833  11.551  70.098  1.00  0.00     2.133 C  
HETATM   44  O   UNL     1     -10.478  10.895  68.987  1.00  0.00    -0.201 OA 
HETATM   45  C   UNL     1      -9.943  13.661  71.554  1.00  0.00     7.838 C  
BRANCH  45  46
HETATM   46  O   UNL     1     -10.713  14.799  72.000  1.00  0.00     0.669 OA 
BRANCH  46  47
HETATM   47  C   UNL     1     -10.042  15.988  71.636  1.00  0.00     2.832 C  
HETATM   48  C   UNL     1      -9.416  15.831  70.264  1.00  0.00     0.620 C  
HETATM   49  C   UNL     1     -11.383  19.276  71.222  1.00  0.00     6.390 C  
HETATM   50  O   UNL     1     -10.764  17.159  71.876  1.00  0.00     1.708 OA 
HETATM   51  H   UNL     1     -11.908  18.930  68.533  1.00  0.00     0.000 HD 
HETATM   52  C   UNL     1     -10.403  16.149  69.177  1.00  0.00    -0.259 C  
HETATM   53  C   UNL     1      -9.733  15.853  67.831  1.00  0.00    -0.216 C  
HETATM   54  O   UNL     1     -11.568  15.314  69.239  1.00  0.00    -0.292 OA 
HETATM   55  C   UNL     1     -10.772  17.610  69.408  1.00  0.00     0.346 C  
HETATM   56  O   UNL     1     -11.678  18.020  68.389  1.00  0.00     1.271 OA 
HETATM   57  H   UNL     1     -12.193  15.514  68.551  1.00  0.00     0.000 HD 
HETATM   58  C   UNL     1     -11.408  17.811  70.805  1.00  0.00     2.896 C  
ENDBRANCH  46  47
ENDBRANCH  45  46
BRANCH  39  59
HETATM   59  N   UNL     1     -11.672  11.553  71.721  1.00  0.00     1.564 NA 
HETATM   60  C   UNL     1     -13.106  11.664  71.677  1.00  0.00    -0.351 C  
HETATM   61  C   UNL     1     -11.277  10.272  72.280  1.00  0.00     2.743 C  
ENDBRANCH  39  59
ENDBRANCH  36  37
ENDBRANCH  14  36
BRANCH  19  62
HETATM   62  O   UNL     1      -7.186   7.381  69.705  1.00  0.00    -0.073 OA 
HETATM   63  C   UNL     1      -7.307   6.256  68.851  1.00  0.00    -0.086 C  
ENDBRANCH  19  62
TORSDOF 9
ENDMDL
MODEL       75
REMARK 921   NORMALIZED FREE ENERGY PREDICTED BY IDOCK:   87.23 KCAL/MOL
REMARK 922        TOTAL FREE ENERGY PREDICTED BY IDOCK:  130.50 KCAL/MOL
REMARK 923 INTER-LIGAND FREE ENERGY PREDICTED BY IDOCK:   40.38 KCAL/MOL
REMARK 924 INTRA-LIGAND FREE ENERGY PREDICTED BY IDOCK:   90.12 KCAL/MOL
REMARK 927      BINDING AFFINITY PREDICTED BY RF-SCORE:    0.00 PKD
ROOT
HETATM    1  C   UNL     1      -7.525   8.096  67.208  1.00  0.00    -0.090 C  
HETATM    2  C   UNL     1      -7.910   7.264  68.246  1.00  0.00    -0.122 C  
HETATM    3  C   UNL     1      -8.568   7.288  69.602  1.00  0.00    -0.137 C  
HETATM    4  C   UNL     1      -9.298   8.223  70.244  1.00  0.00    -0.159 C  
HETATM    5  C   UNL     1      -9.481   9.548  69.639  1.00  0.00    -0.199 C  
HETATM    6  O   UNL     1     -11.091  14.006  63.119  1.00  0.00     0.735 OA 
HETATM    7  C   UNL     1     -10.801   9.487  68.788  1.00  0.00    -0.173 C  
HETATM    8  C   UNL     1      -6.294   9.525  63.622  1.00  0.00    -0.099 C  
HETATM    9  C   UNL     1     -10.255   9.790  67.409  1.00  0.00    -0.284 C  
HETATM   10  C   UNL     1     -11.518   8.113  68.651  1.00  0.00     1.015 C  
HETATM   11  C   UNL     1     -11.177  10.116  66.269  1.00  0.00     0.614 C  
HETATM   12  C   UNL     1      -7.289   9.389  66.143  1.00  0.00    -0.096 C  
HETATM   13  C   UNL     1      -7.577   9.471  64.439  1.00  0.00    -0.122 C  
HETATM   14  C   UNL     1     -10.565  11.379  65.606  1.00  0.00    -0.258 C  
HETATM   15  C   UNL     1     -11.130   8.902  65.251  1.00  0.00     5.272 C  
HETATM   16  C   UNL     1     -11.880   7.646  65.609  1.00  0.00     8.846 C  
HETATM   17  O   UNL     1      -8.508  10.539  63.810  1.00  0.00    -0.171 OA 
HETATM   18  O   UNL     1      -7.188  11.980  62.547  1.00  0.00     1.041 OA 
HETATM   19  C   UNL     1     -11.122  11.752  64.193  1.00  0.00    -0.374 C  
HETATM   20  C   UNL     1     -10.299  12.905  63.574  1.00  0.00     0.227 C  
HETATM   21  H   UNL     1     -10.586  14.715  62.738  1.00  0.00     0.000 HD 
HETATM   22  C   UNL     1      -8.286  11.586  62.924  1.00  0.00     0.541 C  
HETATM   23  O   UNL     1     -11.380   6.566  65.488  1.00  0.00     2.929 OA 
HETATM   24  C   UNL     1      -9.559  12.284  62.405  1.00  0.00     2.364 C  
ENDROOT
BRANCH   5  25
HETATM   25  O   UNL     1      -9.152  10.643  70.514  1.00  0.00     0.906 OA 
BRANCH  25  26
HETATM   26  C   UNL     1      -8.178  10.209  71.504  1.00  0.00     2.959 C  
HETATM   27  C   UNL     1      -8.072   7.275  71.483  1.00  0.00    -0.101 C  
HETATM   28  C   UNL     1      -7.703   8.250  70.296  1.00  0.00    -0.084 C  
HETATM   29  C   UNL     1      -9.222   8.029  72.253  1.00  0.00    -0.243 C  
HETATM   30  O   UNL     1      -7.169   9.450  70.847  1.00  0.00    -0.156 OA 
HETATM   31  C   UNL     1      -8.732   9.409  72.688  1.00  0.00     2.037 C  
HETATM   32  C   UNL     1      -6.750   7.785  69.208  1.00  0.00    -0.044 C  
BRANCH  27  33
HETATM   33  N   UNL     1      -6.994   6.859  72.394  1.00  0.00    -0.066 NA 
HETATM   34  C   UNL     1      -7.498   6.157  73.580  1.00  0.00    -0.088 C  
HETATM   35  C   UNL     1      -5.983   6.015  71.755  1.00  0.00    -0.035 C  
ENDBRANCH  27  33
ENDBRANCH  25  26
ENDBRANCH   5  25
BRANCH  14  36
HETATM   36  O   UNL     1      -9.837  12.381  66.376  1.00  0.00    -0.229 OA 
BRANCH  36  37
HETATM   37  C   UNL     1     -10.485  13.410  67.114  1.00  0.00    -0.249 C  
HETATM   38  C   UNL     1     -12.483  16.268  65.918  1.00  0.00     2.888 C  
HETATM   39  C   UNL     1      -9.577  15.427  68.551  1.00  0.00    -0.201 C  
HETATM   40  C   UNL     1     -11.636  15.454  66.914  1.00  0.00     0.019 C  
HETATM   41  O   UNL     1     -11.097  14.328  66.239  1.00  0.00    -0.312 OA 
HETATM   42  H   UNL     1      -8.712  13.398  69.877  1.00  0.00     0.000 HD 
HETATM   43  C   UNL     1      -9.477  13.951  68.122  1.00  0.00    -0.207 C  
HETATM   44  O   UNL     1      -9.341  13.061  69.249  1.00  0.00     0.538 OA 
HETATM   45  C   UNL     1     -10.424  16.237  67.441  1.00  0.00    -0.304 C  
BRANCH  45  46
HETATM   46  O   UNL     1     -10.921  17.527  67.860  1.00  0.00    -0.323 OA 
BRANCH  46  47
HETATM   47  C   UNL     1     -10.682  17.695  69.242  1.00  0.00     0.250 C  
HETATM   48  C   UNL     1     -11.404  16.617  70.028  1.00  0.00     0.089 C  
HETATM   49  C   UNL     1      -7.569  17.621  70.998  1.00  0.00     5.590 C  
HETATM   50  O   UNL     1      -9.347  17.939  69.575  1.00  0.00     0.257 OA 
HETATM   51  H   UNL     1      -7.701  14.910  71.506  1.00  0.00     0.000 HD 
HETATM   52  C   UNL     1     -10.579  15.366  70.117  1.00  0.00    -0.295 C  
HETATM   53  C   UNL     1     -11.422  14.295  70.818  1.00  0.00    -0.082 C  
HETATM   54  O   UNL     1     -10.250  14.836  68.824  1.00  0.00    -0.227 OA 
HETATM   55  C   UNL     1      -9.319  15.788  70.864  1.00  0.00     2.277 C  
HETATM   56  O   UNL     1      -8.487  14.646  71.041  1.00  0.00     2.225 OA 
HETATM   57  H   UNL     1      -9.728  14.044  68.880  1.00  0.00     0.000 HD 
HETATM   58  C   UNL     1      -8.558  16.894  70.095  1.00  0.00     2.205 C  
ENDBRANCH  46  47
ENDBRANCH  45  46
BRANCH  39  59
HETATM   59  N   UNL     1      -8.159  15.859  68.921  1.00  0.00    -0.198 NA 
HETATM   60  C   UNL     1      -7.525  16.955  68.236  1.00  0.00    -0.192 C  
HETATM   61  C   UNL     1      -7.481  15.579  70.173  1.00  0.00     0.339 C  
ENDBRANCH  39  59
ENDBRANCH  36  37
ENDBRANCH  14  36
BRANCH  19  62
HETATM   62  O   UNL     1     -12.515  11.928  63.973  1.00  0.00    -0.375 OA 
HETATM   63  C   UNL     1     -13.122  13.199  64.130  1.00  0.00     0.512 C  
ENDBRANCH  19  62
TORSDOF 9
ENDMDL
MODEL       76
REMARK 921   NORMALIZED FREE ENERGY PREDICTED BY IDOCK:   87.94 KCAL/MOL
REMARK 922        TOTAL FREE ENERGY PREDICTED BY IDOCK:  131.58 KCAL/MOL
REMARK 923 INTER-LIGAND FREE ENERGY PREDICTED BY IDOCK:  103.82 KCAL/MOL
REMARK 924 INTRA-LIGAND FREE ENERGY PREDICTED BY IDOCK:   27.75 KCAL/MOL
REMARK 927      BINDING AFFINITY PREDICTED BY RF-SCORE:    0.00 PKD
ROOT
HETATM    1  C   UNL     1     -13.915   9.990  67.846  1.00  0.00    15.492 C  
HETATM    2  C   UNL     1     -14.294  11.298  68.096  1.00  0.00    15.205 C  
HETATM    3  C   UNL     1     -13.785  12.584  68.695  1.00  0.00     7.556 C  
HETATM    4  C   UNL     1     -12.549  13.007  69.031  1.00  0.00     0.574 C  
HETATM    5  C   UNL     1     -11.409  12.091  68.917  1.00  0.00    -0.278 C  
HETATM    6  O   UNL     1      -7.414   6.524  64.671  1.00  0.00    -0.075 OA 
HETATM    7  C   UNL     1     -10.797  12.293  67.484  1.00  0.00    -0.271 C  
HETATM    8  C   UNL     1     -13.744   6.191  66.447  1.00  0.00    15.508 C  
HETATM    9  C   UNL     1     -10.974  10.905  66.908  1.00  0.00    -0.286 C  
HETATM   10  C   UNL     1     -11.541  13.242  66.500  1.00  0.00    -0.392 C  
HETATM   11  C   UNL     1     -10.292  10.506  65.631  1.00  0.00    -0.274 C  
HETATM   12  C   UNL     1     -13.076   8.536  67.638  1.00  0.00    14.850 C  
HETATM   13  C   UNL     1     -12.999   7.503  66.252  1.00  0.00    14.142 C  
HETATM   14  C   UNL     1      -9.652   9.124  65.933  1.00  0.00    -0.273 C  
HETATM   15  C   UNL     1     -11.410  10.345  64.519  1.00  0.00     2.039 C  
HETATM   16  C   UNL     1     -11.995  11.595  63.914  1.00  0.00    -0.218 C  
HETATM   17  O   UNL     1     -11.654   7.115  65.586  1.00  0.00     4.446 OA 
HETATM   18  O   UNL     1     -11.316   4.840  65.935  1.00  0.00     0.178 OA 
HETATM   19  C   UNL     1      -9.159   8.310  64.692  1.00  0.00     0.607 C  
HETATM   20  C   UNL     1      -8.724   6.888  65.116  1.00  0.00     0.152 C  
HETATM   21  H   UNL     1      -7.146   5.650  64.931  1.00  0.00     0.000 HD 
HETATM   22  C   UNL     1     -10.994   5.904  65.419  1.00  0.00     2.154 C  
HETATM   23  O   UNL     1     -13.175  11.725  63.772  1.00  0.00    -0.546 OA 
HETATM   24  C   UNL     1      -9.754   5.957  64.506  1.00  0.00     1.548 C  
ENDROOT
BRANCH   5  25
HETATM   25  O   UNL     1     -10.612  11.994  70.112  1.00  0.00     0.854 OA 
BRANCH  25  26
HETATM   26  C   UNL     1      -9.221  12.285  69.804  1.00  0.00     2.344 C  
HETATM   27  C   UNL     1      -8.995  15.129  69.109  1.00  0.00    -0.219 C  
HETATM   28  C   UNL     1      -9.451  14.519  70.494  1.00  0.00     1.874 C  
HETATM   29  C   UNL     1      -9.505  14.083  68.046  1.00  0.00    -0.206 C  
HETATM   30  O   UNL     1      -8.758  13.292  70.696  1.00  0.00     4.891 OA 
HETATM   31  C   UNL     1      -8.924  12.705  68.359  1.00  0.00    -0.125 C  
HETATM   32  C   UNL     1      -9.303  15.340  71.763  1.00  0.00     4.229 C  
BRANCH  27  33
HETATM   33  N   UNL     1      -7.568  15.434  68.927  1.00  0.00    -0.149 NA 
HETATM   34  C   UNL     1      -6.878  15.688  70.196  1.00  0.00     0.127 C  
HETATM   35  C   UNL     1      -6.836  14.390  68.208  1.00  0.00    -0.111 C  
ENDBRANCH  27  33
ENDBRANCH  25  26
ENDBRANCH   5  25
BRANCH  14  36
HETATM   36  O   UNL     1      -9.164   8.771  67.261  1.00  0.00    -0.136 OA 
BRANCH  36  37
HETATM   37  C   UNL     1      -7.835   8.328  67.503  1.00  0.00    -0.106 C  
HETATM   38  C   UNL     1      -6.373   4.961  67.162  1.00  0.00    -0.040 C  
HETATM   39  C   UNL     1      -6.411   8.058  69.708  1.00  0.00    -0.037 C  
HETATM   40  C   UNL     1      -6.467   6.417  67.654  1.00  0.00    -0.052 C  
HETATM   41  O   UNL     1      -7.735   6.940  67.288  1.00  0.00    -0.105 OA 
HETATM   42  H   UNL     1      -6.807  10.601  69.638  1.00  0.00     0.000 HD 
HETATM   43  C   UNL     1      -7.417   8.868  68.867  1.00  0.00    -0.082 C  
HETATM   44  O   UNL     1      -7.067  10.265  68.788  1.00  0.00    -0.067 OA 
HETATM   45  C   UNL     1      -6.401   6.533  69.184  1.00  0.00    -0.035 C  
BRANCH  45  46
HETATM   46  O   UNL     1      -5.269   5.740  69.605  1.00  0.00    -0.004 OA 
BRANCH  46  47
HETATM   47  C   UNL     1      -5.665   4.879  70.653  1.00  0.00    -0.016 C  
HETATM   48  C   UNL     1      -6.259   5.687  71.791  1.00  0.00    -0.039 C  
HETATM   49  C   UNL     1      -8.067   2.232  70.588  1.00  0.00    -0.054 C  
HETATM   50  O   UNL     1      -6.372   3.747  70.240  1.00  0.00    -0.026 OA 
HETATM   51  H   UNL     1     -10.167   3.861  71.337  1.00  0.00     0.000 HD 
HETATM   52  C   UNL     1      -7.719   5.954  71.564  1.00  0.00    -0.101 C  
HETATM   53  C   UNL     1      -8.212   6.870  72.689  1.00  0.00    -0.115 C  
HETATM   54  O   UNL     1      -7.960   6.659  70.337  1.00  0.00    -0.111 OA 
HETATM   55  C   UNL     1      -8.361   4.571  71.527  1.00  0.00    -0.102 C  
HETATM   56  O   UNL     1      -9.767   4.723  71.360  1.00  0.00    -0.157 OA 
HETATM   57  H   UNL     1      -8.884   6.827  70.192  1.00  0.00     0.000 HD 
HETATM   58  C   UNL     1      -7.774   3.713  70.381  1.00  0.00    -0.047 C  
ENDBRANCH  46  47
ENDBRANCH  45  46
BRANCH  39  59
HETATM   59  N   UNL     1      -6.722   8.382  71.168  1.00  0.00    -0.047 NA 
HETATM   60  C   UNL     1      -7.797   9.277  71.507  1.00  0.00     0.283 C  
HETATM   61  C   UNL     1      -6.342   7.582  72.320  1.00  0.00    -0.043 C  
ENDBRANCH  39  59
ENDBRANCH  36  37
ENDBRANCH  14  36
BRANCH  19  62
HETATM   62  O   UNL     1      -8.255   8.873  63.752  1.00  0.00    -0.160 OA 
HETATM   63  C   UNL     1      -8.022  10.271  63.713  1.00  0.00    -0.128 C  
ENDBRANCH  19  62
TORSDOF 9
ENDMDL
MODEL       77
REMARK 921   NORMALIZED FREE ENERGY PREDICTED BY IDOCK:   94.10 KCAL/MOL
REMARK 922        TOTAL FREE ENERGY PREDICTED BY IDOCK:  140.99 KCAL/MOL
REMARK 923 INTER-LIGAND FREE ENERGY PREDICTED BY IDOCK:   77.81 KCAL/MOL
REMARK 924 INTRA-LIGAND FREE ENERGY PREDICTED BY IDOCK:   63.18 KCAL/MOL
REMARK 927      BINDING AFFINITY PREDICTED BY RF-SCORE:    0.00 PKD
ROOT
HETATM    1  C   UNL     1     -12.469  12.362  64.474  1.00  0.00    -0.519 C  
HETATM    2  C   UNL     1     -12.229  13.683  64.140  1.00  0.00    -0.450 C  
HETATM    3  C   UNL     1     -11.770  14.991  64.734  1.00  0.00    -0.370 C  
HETATM    4  C   UNL     1     -11.144  15.297  65.889  1.00  0.00    -0.287 C  
HETATM    5  C   UNL     1     -10.886  14.246  66.880  1.00  0.00    -0.298 C  
HETATM    6  O   UNL     1      -8.398   6.756  68.520  1.00  0.00    -0.119 OA 
HETATM    7  C   UNL     1      -9.459  13.664  66.572  1.00  0.00    -0.270 C  
HETATM    8  C   UNL     1     -13.189   8.377  64.306  1.00  0.00    23.333 C  
HETATM    9  C   UNL     1      -9.806  12.220  66.278  1.00  0.00    -0.254 C  
HETATM   10  C   UNL     1      -8.721  14.175  65.301  1.00  0.00     2.581 C  
HETATM   11  C   UNL     1      -8.734  11.172  66.187  1.00  0.00    -0.188 C  
HETATM   12  C   UNL     1     -12.560  10.850  65.229  1.00  0.00     4.389 C  
HETATM   13  C   UNL     1     -12.035   9.305  64.655  1.00  0.00    12.035 C  
HETATM   14  C   UNL     1      -9.254   9.991  67.049  1.00  0.00    -0.146 C  
HETATM   15  C   UNL     1      -8.629  10.722  64.671  1.00  0.00    -0.064 C  
HETATM   16  C   UNL     1      -7.929  11.640  63.704  1.00  0.00     1.663 C  
HETATM   17  O   UNL     1     -11.031   8.429  65.447  1.00  0.00     3.619 OA 
HETATM   18  O   UNL     1     -12.167   6.541  66.194  1.00  0.00     2.971 OA 
HETATM   19  C   UNL     1      -8.505   8.630  66.873  1.00  0.00    -0.112 C  
HETATM   20  C   UNL     1      -9.239   7.505  67.638  1.00  0.00    -0.127 C  
HETATM   21  H   UNL     1      -8.849   6.064  68.990  1.00  0.00     0.000 HD 
HETATM   22  C   UNL     1     -11.132   7.179  66.048  1.00  0.00     2.537 C  
HETATM   23  O   UNL     1      -8.399  11.895  62.635  1.00  0.00     0.155 OA 
HETATM   24  C   UNL     1      -9.803   6.593  66.564  1.00  0.00    -0.165 C  
ENDROOT
BRANCH   5  25
HETATM   25  O   UNL     1     -11.342  14.565  68.207  1.00  0.00    -0.270 OA 
BRANCH  25  26
HETATM   26  C   UNL     1     -11.899  13.378  68.837  1.00  0.00    -0.334 C  
HETATM   27  C   UNL     1     -10.713  13.097  71.509  1.00  0.00     6.029 C  
HETATM   28  C   UNL     1     -11.613  14.286  70.986  1.00  0.00    -0.030 C  
HETATM   29  C   UNL     1      -9.924  12.626  70.228  1.00  0.00     3.642 C  
HETATM   30  O   UNL     1     -12.546  13.764  70.044  1.00  0.00    -0.275 OA 
HETATM   31  C   UNL     1     -10.910  12.243  69.127  1.00  0.00    -0.149 C  
HETATM   32  C   UNL     1     -12.393  15.132  71.978  1.00  0.00    -0.429 C  
BRANCH  27  33
HETATM   33  N   UNL     1     -11.379  11.971  72.179  1.00  0.00     5.067 NA 
HETATM   34  C   UNL     1     -12.144  11.133  71.248  1.00  0.00    -0.097 C  
HETATM   35  C   UNL     1     -10.460  11.109  72.924  1.00  0.00    14.225 C  
ENDBRANCH  27  33
ENDBRANCH  25  26
ENDBRANCH   5  25
BRANCH  14  36
HETATM   36  O   UNL     1     -10.090  10.201  68.226  1.00  0.00    -0.148 OA 
BRANCH  36  37
HETATM   37  C   UNL     1      -9.769   9.673  69.507  1.00  0.00    -0.203 C  
HETATM   38  C   UNL     1      -7.047   7.393  70.501  1.00  0.00    -0.057 C  
HETATM   39  C   UNL     1     -10.977   7.937  71.082  1.00  0.00    -0.239 C  
HETATM   40  C   UNL     1      -8.393   8.130  70.634  1.00  0.00    -0.123 C  
HETATM   41  O   UNL     1      -8.668   8.799  69.413  1.00  0.00    -0.137 OA 
HETATM   42  H   UNL     1     -12.685   9.860  71.000  1.00  0.00     0.000 HD 
HETATM   43  C   UNL     1     -11.059   9.130  70.112  1.00  0.00    -0.222 C  
HETATM   44  O   UNL     1     -11.882  10.198  70.624  1.00  0.00    -0.293 OA 
HETATM   45  C   UNL     1      -9.574   7.174  70.854  1.00  0.00    -0.167 C  
BRANCH  45  46
HETATM   46  O   UNL     1      -9.178   6.273  71.913  1.00  0.00    -0.147 OA 
BRANCH  46  47
HETATM   47  C   UNL     1      -8.604   5.112  71.348  1.00  0.00    -0.128 C  
HETATM   48  C   UNL     1      -8.999   4.995  69.889  1.00  0.00    -0.142 C  
HETATM   49  C   UNL     1      -5.148   4.259  71.022  1.00  0.00     0.000 C  
HETATM   50  O   UNL     1      -7.256   4.920  71.661  1.00  0.00    -0.061 OA 
HETATM   51  H   UNL     1      -4.903   5.408  68.523  1.00  0.00     0.000 HD 
HETATM   52  C   UNL     1      -8.072   5.785  69.011  1.00  0.00    -0.101 C  
HETATM   53  C   UNL     1      -8.606   5.712  67.576  1.00  0.00    -0.108 C  
HETATM   54  O   UNL     1      -8.044   7.177  69.360  1.00  0.00    -0.125 OA 
HETATM   55  C   UNL     1      -6.703   5.148  69.225  1.00  0.00    -0.052 C  
HETATM   56  O   UNL     1      -5.756   5.805  68.390  1.00  0.00    -0.010 OA 
HETATM   57  H   UNL     1      -7.458   7.677  68.804  1.00  0.00     0.000 HD 
HETATM   58  C   UNL     1      -6.269   5.241  70.707  1.00  0.00    -0.023 C  
ENDBRANCH  46  47
ENDBRANCH  45  46
BRANCH  39  59
HETATM   59  N   UNL     1     -12.303   7.191  70.949  1.00  0.00    -0.327 NA 
HETATM   60  C   UNL     1     -13.039   7.219  69.712  1.00  0.00     2.890 C  
HETATM   61  C   UNL     1     -12.752   6.090  71.784  1.00  0.00     0.559 C  
ENDBRANCH  39  59
ENDBRANCH  36  37
ENDBRANCH  14  36
BRANCH  19  62
HETATM   62  O   UNL     1      -7.096   8.537  67.034  1.00  0.00    -0.073 OA 
HETATM   63  C   UNL     1      -6.325   7.675  66.215  1.00  0.00    -0.045 C  
ENDBRANCH  19  62
TORSDOF 9
ENDMDL
MODEL       78
REMARK 921   NORMALIZED FREE ENERGY PREDICTED BY IDOCK:   96.48 KCAL/MOL
REMARK 922        TOTAL FREE ENERGY PREDICTED BY IDOCK:  144.61 KCAL/MOL
REMARK 923 INTER-LIGAND FREE ENERGY PREDICTED BY IDOCK:   91.86 KCAL/MOL
REMARK 924 INTRA-LIGAND FREE ENERGY PREDICTED BY IDOCK:   52.75 KCAL/MOL
REMARK 927      BINDING AFFINITY PREDICTED BY RF-SCORE:    0.00 PKD
ROOT
HETATM    1  C   UNL     1      -9.963  15.785  64.106  1.00  0.00     3.401 C  
HETATM    2  C   UNL     1     -11.037  15.300  63.381  1.00  0.00     2.894 C  
HETATM    3  C   UNL     1     -11.714  14.013  62.983  1.00  0.00     1.354 C  
HETATM    4  C   UNL     1     -11.613  12.750  63.446  1.00  0.00    -0.506 C  
HETATM    5  C   UNL     1     -10.621  12.428  64.477  1.00  0.00    -0.322 C  
HETATM    6  O   UNL     1      -7.002  14.341  71.421  1.00  0.00     0.244 OA 
HETATM    7  C   UNL     1     -11.333  12.596  65.868  1.00  0.00    -0.373 C  
HETATM    8  C   UNL     1      -7.386  18.196  66.099  1.00  0.00    -0.309 C  
HETATM    9  C   UNL     1     -10.479  13.681  66.487  1.00  0.00    -0.281 C  
HETATM   10  C   UNL     1     -12.784  13.158  65.883  1.00  0.00    -0.108 C  
HETATM   11  C   UNL     1     -10.592  14.012  67.948  1.00  0.00    -0.246 C  
HETATM   12  C   UNL     1      -8.633  15.988  65.133  1.00  0.00     2.804 C  
HETATM   13  C   UNL     1      -8.408  17.117  66.424  1.00  0.00    -0.280 C  
HETATM   14  C   UNL     1      -9.128  14.072  68.460  1.00  0.00    -0.163 C  
HETATM   15  C   UNL     1     -11.258  15.446  68.066  1.00  0.00    -0.326 C  
HETATM   16  C   UNL     1     -12.743  15.560  67.840  1.00  0.00     1.751 C  
HETATM   17  O   UNL     1      -8.078  16.663  67.869  1.00  0.00    -0.167 OA 
HETATM   18  O   UNL     1      -5.909  17.352  68.355  1.00  0.00    -0.150 OA 
HETATM   19  C   UNL     1      -8.917  14.724  69.866  1.00  0.00     0.488 C  
HETATM   20  C   UNL     1      -7.410  14.890  70.165  1.00  0.00     0.195 C  
HETATM   21  H   UNL     1      -6.075  14.443  71.606  1.00  0.00     0.000 HD 
HETATM   22  C   UNL     1      -6.977  16.857  68.696  1.00  0.00    -0.191 C  
HETATM   23  O   UNL     1     -13.204  16.419  67.148  1.00  0.00     4.344 OA 
HETATM   24  C   UNL     1      -7.163  16.387  70.151  1.00  0.00     0.929 C  
ENDROOT
BRANCH   5  25
HETATM   25  O   UNL     1      -9.775  11.310  64.150  1.00  0.00    -0.238 OA 
BRANCH  25  26
HETATM   26  C   UNL     1      -8.393  11.751  64.047  1.00  0.00     1.477 C  
HETATM   27  C   UNL     1      -7.419  12.401  66.740  1.00  0.00     0.177 C  
HETATM   28  C   UNL     1      -7.905  10.991  66.217  1.00  0.00    -0.141 C  
HETATM   29  C   UNL     1      -8.303  13.430  65.937  1.00  0.00     1.698 C  
HETATM   30  O   UNL     1      -7.580  10.887  64.834  1.00  0.00     0.120 OA 
HETATM   31  C   UNL     1      -8.119  13.208  64.438  1.00  0.00     7.388 C  
HETATM   32  C   UNL     1      -7.412   9.725  66.897  1.00  0.00    -0.091 C  
BRANCH  27  33
HETATM   33  N   UNL     1      -5.987  12.720  66.634  1.00  0.00     0.335 NA 
HETATM   34  C   UNL     1      -5.160  11.904  67.530  1.00  0.00    -0.076 C  
HETATM   35  C   UNL     1      -5.459  12.589  65.275  1.00  0.00     5.315 C  
ENDBRANCH  27  33
ENDBRANCH  25  26
ENDBRANCH   5  25
BRANCH  14  36
HETATM   36  O   UNL     1      -8.075  13.236  67.893  1.00  0.00    -0.132 OA 
BRANCH  36  37
HETATM   37  C   UNL     1      -7.680  11.996  68.467  1.00  0.00    -0.127 C  
HETATM   38  C   UNL     1      -9.422   8.747  68.489  1.00  0.00    -0.149 C  
HETATM   39  C   UNL     1      -7.414  11.182  70.962  1.00  0.00     3.700 C  
HETATM   40  C   UNL     1      -8.407   9.809  68.951  1.00  0.00    -0.120 C  
HETATM   41  O   UNL     1      -8.682  11.027  68.274  1.00  0.00    -0.131 OA 
HETATM   42  H   UNL     1      -5.627  13.029  70.812  1.00  0.00     0.000 HD 
HETATM   43  C   UNL     1      -7.231  12.279  69.897  1.00  0.00     0.866 C  
HETATM   44  O   UNL     1      -5.907  12.852  69.921  1.00  0.00    -0.110 OA 
HETATM   45  C   UNL     1      -8.528  10.135  70.447  1.00  0.00     0.449 C  
BRANCH  45  46
HETATM   46  O   UNL     1      -8.555   8.867  71.140  1.00  0.00    -0.180 OA 
BRANCH  46  47
HETATM   47  C   UNL     1      -9.317   7.942  70.391  1.00  0.00    -0.159 C  
HETATM   48  C   UNL     1      -9.919   6.900  71.314  1.00  0.00    -0.189 C  
HETATM   49  C   UNL     1     -12.186   8.543  68.345  1.00  0.00     4.186 C  
HETATM   50  O   UNL     1     -10.165   8.520  69.444  1.00  0.00    -0.200 OA 
HETATM   51  H   UNL     1     -13.979   8.123  70.402  1.00  0.00     0.000 HD 
HETATM   52  C   UNL     1     -11.217   7.377  71.898  1.00  0.00    -0.247 C  
HETATM   53  C   UNL     1     -11.697   6.324  72.904  1.00  0.00     0.040 C  
HETATM   54  O   UNL     1     -11.067   8.599  72.636  1.00  0.00    -0.260 OA 
HETATM   55  C   UNL     1     -12.128   7.583  70.693  1.00  0.00    -0.087 C  
HETATM   56  O   UNL     1     -13.411   7.995  71.153  1.00  0.00    -0.168 OA 
HETATM   57  H   UNL     1     -11.889   8.902  73.006  1.00  0.00     0.000 HD 
HETATM   58  C   UNL     1     -11.542   8.636  69.722  1.00  0.00     0.371 C  
ENDBRANCH  46  47
ENDBRANCH  45  46
BRANCH  39  59
HETATM   59  N   UNL     1      -7.582  11.909  72.295  1.00  0.00    11.200 NA 
HETATM   60  C   UNL     1      -8.761  12.692  72.559  1.00  0.00    22.375 C  
HETATM   61  C   UNL     1      -6.892  11.594  73.533  1.00  0.00     7.805 C  
ENDBRANCH  39  59
ENDBRANCH  36  37
ENDBRANCH  14  36
BRANCH  19  62
HETATM   62  O   UNL     1      -9.627  14.261  71.006  1.00  0.00     2.767 OA 
HETATM   63  C   UNL     1      -9.003  14.201  72.278  1.00  0.00     9.410 C  
ENDBRANCH  19  62
TORSDOF 9
ENDMDL
MODEL       79
REMARK 921   NORMALIZED FREE ENERGY PREDICTED BY IDOCK:   99.46 KCAL/MOL
REMARK 922        TOTAL FREE ENERGY PREDICTED BY IDOCK:  149.16 KCAL/MOL
REMARK 923 INTER-LIGAND FREE ENERGY PREDICTED BY IDOCK:   67.60 KCAL/MOL
REMARK 924 INTRA-LIGAND FREE ENERGY PREDICTED BY IDOCK:   81.55 KCAL/MOL
REMARK 927      BINDING AFFINITY PREDICTED BY RF-SCORE:    0.00 PKD
ROOT
HETATM    1  C   UNL     1     -11.015   9.615  71.059  1.00  0.00    -0.431 C  
HETATM    2  C   UNL     1     -10.959  10.280  72.271  1.00  0.00     3.299 C  
HETATM    3  C   UNL     1     -10.039  10.545  73.437  1.00  0.00    13.594 C  
HETATM    4  C   UNL     1      -8.710  10.383  73.603  1.00  0.00    10.868 C  
HETATM    5  C   UNL     1      -7.913   9.755  72.544  1.00  0.00     3.128 C  
HETATM    6  O   UNL     1      -6.141   9.074  64.710  1.00  0.00    -0.064 OA 
HETATM    7  C   UNL     1      -7.386  10.910  71.618  1.00  0.00     4.800 C  
HETATM    8  C   UNL     1     -12.112   8.326  67.377  1.00  0.00     5.224 C  
HETATM    9  C   UNL     1      -8.020  10.520  70.300  1.00  0.00     0.629 C  
HETATM   10  C   UNL     1      -7.884  12.356  71.899  1.00  0.00    13.216 C  
HETATM   11  C   UNL     1      -7.594  11.172  69.016  1.00  0.00    -0.119 C  
HETATM   12  C   UNL     1     -10.674   8.766  69.636  1.00  0.00    -0.212 C  
HETATM   13  C   UNL     1     -11.024   9.191  67.996  1.00  0.00     0.031 C  
HETATM   14  C   UNL     1      -7.380  10.000  68.022  1.00  0.00    -0.087 C  
HETATM   15  C   UNL     1      -8.793  12.082  68.519  1.00  0.00    -0.095 C  
HETATM   16  C   UNL     1      -9.019  13.400  69.211  1.00  0.00     0.817 C  
HETATM   17  O   UNL     1      -9.917   9.290  66.915  1.00  0.00    -0.197 OA 
HETATM   18  O   UNL     1     -10.256   7.567  65.388  1.00  0.00     1.654 OA 
HETATM   19  C   UNL     1      -7.257  10.392  66.513  1.00  0.00    -0.118 C  
HETATM   20  C   UNL     1      -7.239   9.127  65.624  1.00  0.00    -0.082 C  
HETATM   21  H   UNL     1      -6.129   8.297  64.163  1.00  0.00     0.000 HD 
HETATM   22  C   UNL     1      -9.669   8.582  65.745  1.00  0.00     0.095 C  
HETATM   23  O   UNL     1     -10.112  13.747  69.551  1.00  0.00     0.274 OA 
HETATM   24  C   UNL     1      -8.548   9.159  64.858  1.00  0.00    -0.208 C  
ENDROOT
BRANCH   5  25
HETATM   25  O   UNL     1      -7.091   8.664  72.997  1.00  0.00    -0.297 OA 
BRANCH  25  26
HETATM   26  C   UNL     1      -6.996   7.651  71.957  1.00  0.00    -0.064 C  
HETATM   27  C   UNL     1      -6.229   5.105  73.203  1.00  0.00    -0.043 C  
HETATM   28  C   UNL     1      -7.548   5.935  73.465  1.00  0.00    -0.097 C  
HETATM   29  C   UNL     1      -5.143   6.204  72.892  1.00  0.00    -0.027 C  
HETATM   30  O   UNL     1      -7.908   6.602  72.259  1.00  0.00    -0.096 OA 
HETATM   31  C   UNL     1      -5.601   7.063  71.715  1.00  0.00    -0.036 C  
HETATM   32  C   UNL     1      -8.790   5.232  73.985  1.00  0.00    -0.117 C  
BRANCH  27  33
HETATM   33  N   UNL     1      -6.264   4.068  72.161  1.00  0.00    -0.016 NA 
HETATM   34  C   UNL     1      -7.104   2.924  72.531  1.00  0.00    -0.032 C  
HETATM   35  C   UNL     1      -6.711   4.564  70.858  1.00  0.00    -0.035 C  
ENDBRANCH  27  33
ENDBRANCH  25  26
ENDBRANCH   5  25
BRANCH  14  36
HETATM   36  O   UNL     1      -6.917   8.688  68.460  1.00  0.00    -0.063 OA 
BRANCH  36  37
HETATM   37  C   UNL     1      -7.697   7.827  69.280  1.00  0.00    -0.100 C  
HETATM   38  C   UNL     1      -9.004   4.452  68.577  1.00  0.00    -0.151 C  
HETATM   39  C   UNL     1     -10.186   7.948  70.146  1.00  0.00    -0.202 C  
HETATM   40  C   UNL     1      -8.911   5.809  69.299  1.00  0.00    -0.119 C  
HETATM   41  O   UNL     1      -8.013   6.644  68.584  1.00  0.00    -0.115 OA 
HETATM   42  H   UNL     1      -9.128  10.004  71.277  1.00  0.00     0.000 HD 
HETATM   43  C   UNL     1      -8.850   8.652  69.839  1.00  0.00    -0.144 C  
HETATM   44  O   UNL     1      -8.409   9.489  70.929  1.00  0.00    -0.280 OA 
HETATM   45  C   UNL     1     -10.248   6.565  69.318  1.00  0.00    -0.187 C  
BRANCH  45  46
HETATM   46  O   UNL     1     -11.245   5.619  69.764  1.00  0.00    -0.274 OA 
BRANCH  46  47
HETATM   47  C   UNL     1     -10.671   4.748  70.717  1.00  0.00     0.257 C  
HETATM   48  C   UNL     1     -10.258   5.528  71.950  1.00  0.00    -0.251 C  
HETATM   49  C   UNL     1     -12.149   1.934  72.352  1.00  0.00     1.621 C  
HETATM   50  O   UNL     1     -11.380   3.562  70.921  1.00  0.00     3.363 OA 
HETATM   51  H   UNL     1     -13.069   3.419  74.491  1.00  0.00     0.000 HD 
HETATM   52  C   UNL     1     -11.408   5.685  72.903  1.00  0.00    -0.273 C  
HETATM   53  C   UNL     1     -10.944   6.580  74.057  1.00  0.00     0.347 C  
HETATM   54  O   UNL     1     -12.527   6.352  72.302  1.00  0.00    -0.532 OA 
HETATM   55  C   UNL     1     -11.778   4.260  73.297  1.00  0.00     0.009 C  
HETATM   56  O   UNL     1     -12.839   4.307  74.245  1.00  0.00     3.419 OA 
HETATM   57  H   UNL     1     -13.255   6.452  72.904  1.00  0.00     0.000 HD 
HETATM   58  C   UNL     1     -12.197   3.429  72.062  1.00  0.00     4.479 C  
ENDBRANCH  46  47
ENDBRANCH  45  46
BRANCH  39  59
HETATM   59  N   UNL     1     -11.273   9.008  69.979  1.00  0.00    -0.183 NA 
HETATM   60  C   UNL     1     -12.507   8.915  70.713  1.00  0.00     0.064 C  
HETATM   61  C   UNL     1     -11.080  10.357  69.476  1.00  0.00    -0.264 C  
ENDBRANCH  39  59
ENDBRANCH  36  37
ENDBRANCH  14  36
BRANCH  19  62
HETATM   62  O   UNL     1      -6.303  11.350  66.075  1.00  0.00    -0.012 OA 
HETATM   63  C   UNL     1      -6.488  12.732  66.332  1.00  0.00     2.034 C  
ENDBRANCH  19  62
TORSDOF 9
ENDMDL
MODEL       80
REMARK 921   NORMALIZED FREE ENERGY PREDICTED BY IDOCK:  102.27 KCAL/MOL
REMARK 922        TOTAL FREE ENERGY PREDICTED BY IDOCK:  153.45 KCAL/MOL
REMARK 923 INTER-LIGAND FREE ENERGY PREDICTED BY IDOCK:   58.48 KCAL/MOL
REMARK 924 INTRA-LIGAND FREE ENERGY PREDICTED BY IDOCK:   94.97 KCAL/MOL
REMARK 927      BINDING AFFINITY PREDICTED BY RF-SCORE:    0.00 PKD
ROOT
HETATM    1  C   UNL     1      -8.431  13.154  71.097  1.00  0.00    10.074 C  
HETATM    2  C   UNL     1      -7.353  12.293  70.987  1.00  0.00     5.179 C  
HETATM    3  C   UNL     1      -6.629  11.421  69.992  1.00  0.00    -0.033 C  
HETATM    4  C   UNL     1      -6.663  11.355  68.645  1.00  0.00    -0.070 C  
HETATM    5  C   UNL     1      -7.616  12.183  67.898  1.00  0.00    -0.123 C  
HETATM    6  O   UNL     1     -11.156  19.337  66.773  1.00  0.00    -0.310 OA 
HETATM    7  C   UNL     1      -6.880  13.526  67.546  1.00  0.00    -0.156 C  
HETATM    8  C   UNL     1     -11.065  15.940  72.410  1.00  0.00     0.452 C  
HETATM    9  C   UNL     1      -7.767  14.523  68.261  1.00  0.00    -0.126 C  
HETATM   10  C   UNL     1      -5.456  13.753  68.129  1.00  0.00    -0.116 C  
HETATM   11  C   UNL     1      -7.636  15.997  68.002  1.00  0.00    -0.137 C  
HETATM   12  C   UNL     1      -9.744  14.184  70.818  1.00  0.00     3.233 C  
HETATM   13  C   UNL     1      -9.988  15.814  71.343  1.00  0.00     2.176 C  
HETATM   14  C   UNL     1      -9.089  16.497  67.785  1.00  0.00    -0.204 C  
HETATM   15  C   UNL     1      -7.031  16.662  69.307  1.00  0.00    -0.225 C  
HETATM   16  C   UNL     1      -5.558  16.493  69.574  1.00  0.00    -0.157 C  
HETATM   17  O   UNL     1     -10.265  16.969  70.346  1.00  0.00     0.594 OA 
HETATM   18  O   UNL     1     -12.450  17.693  70.682  1.00  0.00     5.966 OA 
HETATM   19  C   UNL     1      -9.295  18.047  67.826  1.00  0.00    -0.263 C  
HETATM   20  C   UNL     1     -10.802  18.394  67.787  1.00  0.00    -0.234 C  
HETATM   21  H   UNL     1     -12.081  19.551  66.749  1.00  0.00     0.000 HD 
HETATM   22  C   UNL     1     -11.354  17.809  70.147  1.00  0.00     2.625 C  
HETATM   23  O   UNL     1      -5.151  16.189  70.656  1.00  0.00    -0.169 OA 
HETATM   24  C   UNL     1     -11.115  18.966  69.157  1.00  0.00     1.883 C  
ENDROOT
BRANCH   5  25
HETATM   25  O   UNL     1      -8.419  11.449  66.956  1.00  0.00    -0.147 OA 
BRANCH  25  26
HETATM   26  C   UNL     1      -8.092  10.033  67.025  1.00  0.00    -0.117 C  
HETATM   27  C   UNL     1      -9.481   8.647  64.840  1.00  0.00     0.659 C  
HETATM   28  C   UNL     1      -8.378   9.771  64.707  1.00  0.00    -0.155 C  
HETATM   29  C   UNL     1     -10.246   9.020  66.168  1.00  0.00    -0.141 C  
HETATM   30  O   UNL     1      -7.475   9.648  65.802  1.00  0.00    -0.095 OA 
HETATM   31  C   UNL     1      -9.258   9.086  67.330  1.00  0.00    -0.158 C  
HETATM   32  C   UNL     1      -7.547   9.863  63.439  1.00  0.00    -0.139 C  
BRANCH  27  33
HETATM   33  N   UNL     1      -9.039   7.244  64.847  1.00  0.00     0.615 NA 
HETATM   34  C   UNL     1      -7.662   7.085  64.365  1.00  0.00    -0.113 C  
HETATM   35  C   UNL     1      -9.142   6.606  66.160  1.00  0.00    -0.118 C  
ENDBRANCH  27  33
ENDBRANCH  25  26
ENDBRANCH   5  25
BRANCH  14  36
HETATM   36  O   UNL     1     -10.116  15.654  67.184  1.00  0.00    -0.247 OA 
BRANCH  36  37
HETATM   37  C   UNL     1     -10.408  14.342  67.648  1.00  0.00    -0.248 C  
HETATM   38  C   UNL     1      -8.537  11.202  67.166  1.00  0.00    -0.139 C  
HETATM   39  C   UNL     1     -12.292  12.602  67.029  1.00  0.00     0.326 C  
HETATM   40  C   UNL     1      -9.756  12.084  67.494  1.00  0.00    -0.187 C  
HETATM   41  O   UNL     1      -9.437  13.433  67.184  1.00  0.00    -0.227 OA 
HETATM   42  H   UNL     1     -13.661  14.534  68.037  1.00  0.00     0.000 HD 
HETATM   43  C   UNL     1     -11.868  14.055  67.314  1.00  0.00    -0.411 C  
HETATM   44  O   UNL     1     -12.752  14.712  68.245  1.00  0.00     0.327 OA 
HETATM   45  C   UNL     1     -10.983  11.744  66.636  1.00  0.00    -0.294 C  
BRANCH  45  46
HETATM   46  O   UNL     1     -11.140  10.309  66.699  1.00  0.00    -0.045 OA 
BRANCH  46  47
HETATM   47  C   UNL     1     -11.266   9.795  65.390  1.00  0.00     2.643 C  
HETATM   48  C   UNL     1     -12.487  10.389  64.714  1.00  0.00     6.312 C  
HETATM   49  C   UNL     1      -8.980  10.056  62.654  1.00  0.00    -0.278 C  
HETATM   50  O   UNL     1     -10.078   9.777  64.656  1.00  0.00    -0.074 OA 
HETATM   51  H   UNL     1     -10.109  12.382  61.684  1.00  0.00     0.000 HD 
HETATM   52  C   UNL     1     -12.166  11.711  64.079  1.00  0.00    -0.117 C  
HETATM   53  C   UNL     1     -13.470  12.297  63.527  1.00  0.00     0.805 C  
HETATM   54  O   UNL     1     -11.667  12.665  65.029  1.00  0.00    -0.326 OA 
HETATM   55  C   UNL     1     -11.107  11.388  63.032  1.00  0.00     0.177 C  
HETATM   56  O   UNL     1     -10.769  12.584  62.337  1.00  0.00     1.503 OA 
HETATM   57  H   UNL     1     -11.464  13.502  64.627  1.00  0.00     0.000 HD 
HETATM   58  C   UNL     1      -9.847  10.771  63.683  1.00  0.00    -0.350 C  
ENDBRANCH  46  47
ENDBRANCH  45  46
BRANCH  39  59
HETATM   59  N   UNL     1     -13.485  12.686  66.080  1.00  0.00     1.896 NA 
HETATM   60  C   UNL     1     -14.241  11.508  65.746  1.00  0.00    12.973 C  
HETATM   61  C   UNL     1     -14.245  13.884  65.767  1.00  0.00     4.948 C  
ENDBRANCH  39  59
ENDBRANCH  36  37
ENDBRANCH  14  36
BRANCH  19  62
HETATM   62  O   UNL     1      -8.539  18.914  66.992  1.00  0.00    -0.276 OA 
HETATM   63  C   UNL     1      -7.677  18.396  65.993  1.00  0.00    -0.165 C  
ENDBRANCH  19  62
TORSDOF 9
ENDMDL
MODEL       81
REMARK 921   NORMALIZED FREE ENERGY PREDICTED BY IDOCK:  122.82 KCAL/MOL
REMARK 922        TOTAL FREE ENERGY PREDICTED BY IDOCK:  184.80 KCAL/MOL
REMARK 923 INTER-LIGAND FREE ENERGY PREDICTED BY IDOCK:   72.03 KCAL/MOL
REMARK 924 INTRA-LIGAND FREE ENERGY PREDICTED BY IDOCK:  112.77 KCAL/MOL
REMARK 927      BINDING AFFINITY PREDICTED BY RF-SCORE:    0.00 PKD
ROOT
HETATM    1  C   UNL     1      -5.860  12.804  66.242  1.00  0.00     2.552 C  
HETATM    2  C   UNL     1      -5.702  12.170  65.021  1.00  0.00     4.334 C  
HETATM    3  C   UNL     1      -6.464  11.372  63.993  1.00  0.00     1.968 C  
HETATM    4  C   UNL     1      -7.783  11.175  63.788  1.00  0.00     0.810 C  
HETATM    5  C   UNL     1      -8.759  11.722  64.737  1.00  0.00     0.730 C  
HETATM    6  O   UNL     1     -11.272  17.884  69.286  1.00  0.00     0.379 OA 
HETATM    7  C   UNL     1      -9.164  13.146  64.211  1.00  0.00     1.835 C  
HETATM    8  C   UNL     1      -5.304  15.115  69.523  1.00  0.00    -0.093 C  
HETATM    9  C   UNL     1      -8.716  14.007  65.372  1.00  0.00     2.161 C  
HETATM   10  C   UNL     1      -8.410  13.708  62.971  1.00  0.00    12.559 C  
HETATM   11  C   UNL     1      -9.134  15.447  65.471  1.00  0.00     0.350 C  
HETATM   12  C   UNL     1      -6.454  13.519  67.655  1.00  0.00    -0.169 C  
HETATM   13  C   UNL     1      -6.178  15.109  68.278  1.00  0.00    -0.119 C  
HETATM   14  C   UNL     1      -9.622  15.623  66.934  1.00  0.00    -0.230 C  
HETATM   15  C   UNL     1      -7.846  16.339  65.227  1.00  0.00     3.577 C  
HETATM   16  C   UNL     1      -7.348  16.494  63.814  1.00  0.00    16.642 C  
HETATM   17  O   UNL     1      -7.340  16.086  68.590  1.00  0.00    -0.143 OA 
HETATM   18  O   UNL     1      -7.421  16.386  70.896  1.00  0.00     2.664 OA 
HETATM   19  C   UNL     1      -9.804  17.096  67.425  1.00  0.00    -0.264 C  
HETATM   20  C   UNL     1     -10.107  17.129  68.941  1.00  0.00    -0.322 C  
HETATM   21  H   UNL     1     -11.457  17.904  70.218  1.00  0.00     0.000 HD 
HETATM   22  C   UNL     1      -7.799  16.669  69.766  1.00  0.00     0.706 C  
HETATM   23  O   UNL     1      -6.188  16.380  63.546  1.00  0.00    10.987 OA 
HETATM   24  C   UNL     1      -8.879  17.752  69.579  1.00  0.00     0.692 C  
ENDROOT
BRANCH   5  25
HETATM   25  O   UNL     1      -9.710  10.756  65.222  1.00  0.00    -0.219 OA 
BRANCH  25  26
HETATM   26  C   UNL     1      -9.020   9.709  65.958  1.00  0.00    -0.162 C  
HETATM   27  C   UNL     1      -9.864   9.830  68.767  1.00  0.00    -0.169 C  
HETATM   28  C   UNL     1     -10.774   9.531  67.511  1.00  0.00    -0.245 C  
HETATM   29  C   UNL     1      -8.768  10.821  68.216  1.00  0.00    -0.136 C  
HETATM   30  O   UNL     1      -9.990   8.845  66.539  1.00  0.00    -0.250 OA 
HETATM   31  C   UNL     1      -8.039  10.178  67.039  1.00  0.00    -0.117 C  
HETATM   32  C   UNL     1     -12.066   8.750  67.686  1.00  0.00     4.920 C  
BRANCH  27  33
HETATM   33  N   UNL     1      -9.258   8.688  69.468  1.00  0.00    -0.149 NA 
HETATM   34  C   UNL     1     -10.226   7.624  69.756  1.00  0.00    -0.210 C  
HETATM   35  C   UNL     1      -8.127   8.098  68.750  1.00  0.00    -0.120 C  
ENDBRANCH  27  33
ENDBRANCH  25  26
ENDBRANCH   5  25
BRANCH  14  36
HETATM   36  O   UNL     1     -10.258  14.538  67.673  1.00  0.00    -0.225 OA 
BRANCH  36  37
HETATM   37  C   UNL     1      -9.747  14.037  68.902  1.00  0.00    -0.043 C  
HETATM   38  C   UNL     1      -6.454  12.563  69.659  1.00  0.00    -0.057 C  
HETATM   39  C   UNL     1     -10.349  11.923  70.362  1.00  0.00     2.750 C  
HETATM   40  C   UNL     1      -7.946  12.875  69.878  1.00  0.00     2.112 C  
HETATM   41  O   UNL     1      -8.450  13.521  68.718  1.00  0.00    -0.065 OA 
HETATM   42  H   UNL     1     -12.533  13.282  70.466  1.00  0.00     0.000 HD 
HETATM   43  C   UNL     1     -10.805  13.108  69.489  1.00  0.00     0.179 C  
HETATM   44  O   UNL     1     -11.874  13.860  70.100  1.00  0.00    -0.290 OA 
HETATM   45  C   UNL     1      -8.799  11.609  70.047  1.00  0.00     2.590 C  
BRANCH  45  46
HETATM   46  O   UNL     1      -8.121  10.788  71.023  1.00  0.00     2.045 OA 
BRANCH  46  47
HETATM   47  C   UNL     1      -6.891  10.344  70.488  1.00  0.00     0.031 C  
HETATM   48  C   UNL     1      -6.956   8.856  70.204  1.00  0.00    -0.043 C  
HETATM   49  C   UNL     1      -5.258  11.376  67.480  1.00  0.00    -0.050 C  
HETATM   50  O   UNL     1      -6.365  11.161  69.485  1.00  0.00    -0.075 OA 
HETATM   51  H   UNL     1      -6.458   9.428  65.934  1.00  0.00     0.000 HD 
HETATM   52  C   UNL     1      -7.552   8.586  68.852  1.00  0.00    -0.096 C  
HETATM   53  C   UNL     1      -7.691   7.069  68.692  1.00  0.00    -0.120 C  
HETATM   54  O   UNL     1      -8.874   9.128  68.721  1.00  0.00    -0.131 OA 
HETATM   55  C   UNL     1      -6.595   9.255  67.871  1.00  0.00    -0.063 C  
HETATM   56  O   UNL     1      -7.054   9.012  66.545  1.00  0.00    -0.079 OA 
HETATM   57  H   UNL     1      -9.251   8.958  67.865  1.00  0.00     0.000 HD 
HETATM   58  C   UNL     1      -6.495  10.776  68.135  1.00  0.00    -0.058 C  
ENDBRANCH  46  47
ENDBRANCH  45  46
BRANCH  39  59
HETATM   59  N   UNL     1     -11.415  10.842  70.198  1.00  0.00    -0.312 NA 
HETATM   60  C   UNL     1     -12.288  10.840  69.054  1.00  0.00     0.197 C  
HETATM   61  C   UNL     1     -11.418   9.540  70.843  1.00  0.00    -0.334 C  
ENDBRANCH  39  59
ENDBRANCH  36  37
ENDBRANCH  14  36
BRANCH  19  62
HETATM   62  O   UNL     1     -10.620  18.016  66.711  1.00  0.00    -0.344 OA 
HETATM   63  C   UNL     1     -10.043  18.998  65.867  1.00  0.00    -0.236 C  
ENDBRANCH  19  62
TORSDOF 9
ENDMDL
MODEL       82
REMARK 921   NORMALIZED FREE ENERGY PREDICTED BY IDOCK:  122.92 KCAL/MOL
REMARK 922        TOTAL FREE ENERGY PREDICTED BY IDOCK:  184.96 KCAL/MOL
REMARK 923 INTER-LIGAND FREE ENERGY PREDICTED BY IDOCK:  128.30 KCAL/MOL
REMARK 924 INTRA-LIGAND FREE ENERGY PREDICTED BY IDOCK:   56.66 KCAL/MOL
REMARK 927      BINDING AFFINITY PREDICTED BY RF-SCORE:    0.00 PKD
ROOT
HETATM    1  C   UNL     1     -11.563   2.789  70.420  1.00  0.00     8.707 C  
HETATM    2  C   UNL     1     -11.159   1.858  71.361  1.00  0.00     1.901 C  
HETATM    3  C   UNL     1     -10.033   1.550  72.315  1.00  0.00    -0.197 C  
HETATM    4  C   UNL     1      -9.015   2.294  72.794  1.00  0.00    -0.089 C  
HETATM    5  C   UNL     1      -8.810   3.658  72.293  1.00  0.00    -0.092 C  
HETATM    6  O   UNL     1     -11.922  10.801  70.228  1.00  0.00    -0.290 OA 
HETATM    7  C   UNL     1      -9.608   4.622  73.244  1.00  0.00    -0.143 C  
HETATM    8  C   UNL     1     -13.750   4.965  67.792  1.00  0.00    26.459 C  
HETATM    9  C   UNL     1     -10.579   5.240  72.261  1.00  0.00    -0.280 C  
HETATM   10  C   UNL     1     -10.496   3.984  74.351  1.00  0.00    -0.278 C  
HETATM   11  C   UNL     1     -11.394   6.444  72.635  1.00  0.00    -0.266 C  
HETATM   12  C   UNL     1     -11.747   4.149  69.431  1.00  0.00     9.272 C  
HETATM   13  C   UNL     1     -13.143   5.139  69.176  1.00  0.00    15.621 C  
HETATM   14  C   UNL     1     -11.242   7.420  71.438  1.00  0.00    -0.246 C  
HETATM   15  C   UNL     1     -12.905   5.983  72.760  1.00  0.00     0.672 C  
HETATM   16  C   UNL     1     -13.316   5.219  73.991  1.00  0.00     8.252 C  
HETATM   17  O   UNL     1     -13.126   6.669  69.426  1.00  0.00     3.075 OA 
HETATM   18  O   UNL     1     -13.354   7.730  67.368  1.00  0.00    12.845 OA 
HETATM   19  C   UNL     1     -12.246   8.618  71.395  1.00  0.00    -0.304 C  
HETATM   20  C   UNL     1     -12.108   9.393  70.064  1.00  0.00     0.350 C  
HETATM   21  H   UNL     1     -11.838  11.278  69.410  1.00  0.00     0.000 HD 
HETATM   22  C   UNL     1     -13.293   7.767  68.591  1.00  0.00    11.550 C  
HETATM   23  O   UNL     1     -13.984   4.230  73.917  1.00  0.00     4.580 OA 
HETATM   24  C   UNL     1     -13.398   9.125  69.312  1.00  0.00     5.087 C  
ENDROOT
BRANCH   5  25
HETATM   25  O   UNL     1      -7.470   3.922  71.840  1.00  0.00    -0.057 OA 
BRANCH  25  26
HETATM   26  C   UNL     1      -7.507   4.620  70.565  1.00  0.00    -0.053 C  
HETATM   27  C   UNL     1      -9.803   3.627  69.026  1.00  0.00     0.163 C  
HETATM   28  C   UNL     1      -9.841   4.383  70.413  1.00  0.00    -0.216 C  
HETATM   29  C   UNL     1      -8.457   2.808  69.076  1.00  0.00    -0.100 C  
HETATM   30  O   UNL     1      -8.753   5.301  70.455  1.00  0.00    -0.117 OA 
HETATM   31  C   UNL     1      -7.285   3.757  69.317  1.00  0.00    -0.049 C  
HETATM   32  C   UNL     1     -11.092   5.141  70.823  1.00  0.00     0.315 C  
BRANCH  27  33
HETATM   33  N   UNL     1      -9.902   4.431  67.799  1.00  0.00    -0.132 NA 
HETATM   34  C   UNL     1      -9.814   5.872  68.060  1.00  0.00    -0.125 C  
HETATM   35  C   UNL     1      -8.897   4.085  66.792  1.00  0.00    -0.122 C  
ENDBRANCH  27  33
ENDBRANCH  25  26
ENDBRANCH   5  25
BRANCH  14  36
HETATM   36  O   UNL     1     -10.024   7.478  70.637  1.00  0.00    -0.184 OA 
BRANCH  36  37
HETATM   37  C   UNL     1      -9.781   8.492  69.670  1.00  0.00    -0.179 C  
HETATM   38  C   UNL     1     -12.163  10.345  67.552  1.00  0.00     2.770 C  
HETATM   39  C   UNL     1      -8.631   8.464  67.296  1.00  0.00    -0.123 C  
HETATM   40  C   UNL     1     -10.793   9.792  67.987  1.00  0.00    -0.223 C  
HETATM   41  O   UNL     1     -10.989   8.886  69.063  1.00  0.00    -0.102 OA 
HETATM   42  H   UNL     1      -6.675   7.827  68.843  1.00  0.00     0.000 HD 
HETATM   43  C   UNL     1      -8.659   7.998  68.764  1.00  0.00    -0.128 C  
HETATM   44  O   UNL     1      -7.375   8.135  69.408  1.00  0.00    -0.072 OA 
HETATM   45  C   UNL     1     -10.104   8.976  66.884  1.00  0.00    -0.267 C  
BRANCH  45  46
HETATM   46  O   UNL     1     -10.169   9.777  65.683  1.00  0.00    -0.265 OA 
BRANCH  46  47
HETATM   47  C   UNL     1      -9.927  11.130  66.010  1.00  0.00    -0.236 C  
HETATM   48  C   UNL     1      -8.739  11.233  66.947  1.00  0.00    -0.157 C  
HETATM   49  C   UNL     1      -9.108  13.845  63.834  1.00  0.00     5.805 C  
HETATM   50  O   UNL     1      -9.956  12.005  64.922  1.00  0.00    -0.258 OA 
HETATM   51  H   UNL     1      -6.383  13.461  64.068  1.00  0.00     0.000 HD 
HETATM   52  C   UNL     1      -7.447  11.268  66.184  1.00  0.00     0.045 C  
HETATM   53  C   UNL     1      -6.299  11.251  67.200  1.00  0.00    -0.096 C  
HETATM   54  O   UNL     1      -7.269  10.108  65.358  1.00  0.00    -0.132 OA 
HETATM   55  C   UNL     1      -7.538  12.529  65.332  1.00  0.00     3.647 C  
HETATM   56  O   UNL     1      -6.326  12.676  64.599  1.00  0.00     6.872 OA 
HETATM   57  H   UNL     1      -6.452  10.130  64.875  1.00  0.00     0.000 HD 
HETATM   58  C   UNL     1      -8.745  12.465  64.366  1.00  0.00     1.887 C  
ENDBRANCH  46  47
ENDBRANCH  45  46
BRANCH  39  59
HETATM   59  N   UNL     1      -7.942   7.350  66.511  1.00  0.00    -0.108 NA 
HETATM   60  C   UNL     1      -8.694   6.515  65.611  1.00  0.00    -0.091 C  
HETATM   61  C   UNL     1      -6.522   7.260  66.222  1.00  0.00    -0.048 C  
ENDBRANCH  39  59
ENDBRANCH  36  37
ENDBRANCH  14  36
BRANCH  19  62
HETATM   62  O   UNL     1     -12.388   9.500  72.500  1.00  0.00    -0.162 OA 
HETATM   63  C   UNL     1     -12.733   9.010  73.784  1.00  0.00     4.414 C  
ENDBRANCH  19  62
TORSDOF 9
ENDMDL
MODEL       83
REMARK 921   NORMALIZED FREE ENERGY PREDICTED BY IDOCK:  133.44 KCAL/MOL
REMARK 922        TOTAL FREE ENERGY PREDICTED BY IDOCK:  201.01 KCAL/MOL
REMARK 923 INTER-LIGAND FREE ENERGY PREDICTED BY IDOCK:   70.65 KCAL/MOL
REMARK 924 INTRA-LIGAND FREE ENERGY PREDICTED BY IDOCK:  130.36 KCAL/MOL
REMARK 927      BINDING AFFINITY PREDICTED BY RF-SCORE:    0.00 PKD
ROOT
HETATM    1  C   UNL     1     -12.650  17.257  70.909  1.00  0.00     6.457 C  
HETATM    2  C   UNL     1     -13.416  17.159  72.057  1.00  0.00     6.463 C  
HETATM    3  C   UNL     1     -14.202  16.167  72.876  1.00  0.00     0.151 C  
HETATM    4  C   UNL     1     -14.240  14.818  72.883  1.00  0.00     0.341 C  
HETATM    5  C   UNL     1     -13.475  14.062  71.885  1.00  0.00    -0.421 C  
HETATM    6  O   UNL     1      -6.611  12.989  67.797  1.00  0.00    -0.113 OA 
HETATM    7  C   UNL     1     -12.068  13.759  72.516  1.00  0.00     0.675 C  
HETATM    8  C   UNL     1     -10.121  18.554  68.020  1.00  0.00    -0.403 C  
HETATM    9  C   UNL     1     -11.165  14.470  71.531  1.00  0.00     0.482 C  
HETATM   10  C   UNL     1     -11.739  14.387  73.901  1.00  0.00     0.740 C  
HETATM   11  C   UNL     1      -9.680  14.246  71.547  1.00  0.00     5.156 C  
HETATM   12  C   UNL     1     -11.725  16.963  69.523  1.00  0.00     0.980 C  
HETATM   13  C   UNL     1     -10.133  17.515  69.131  1.00  0.00    -0.231 C  
HETATM   14  C   UNL     1      -9.295  13.999  70.064  1.00  0.00     1.813 C  
HETATM   15  C   UNL     1      -8.998  15.581  72.061  1.00  0.00     6.460 C  
HETATM   16  C   UNL     1      -9.052  15.885  73.535  1.00  0.00    13.972 C  
HETATM   17  O   UNL     1      -8.982  16.535  68.786  1.00  0.00    -0.232 OA 
HETATM   18  O   UNL     1      -8.447  16.825  66.540  1.00  0.00    -0.230 OA 
HETATM   19  C   UNL     1      -7.769  14.067  69.729  1.00  0.00     0.612 C  
HETATM   20  C   UNL     1      -7.546  13.993  68.201  1.00  0.00    -0.141 C  
HETATM   21  H   UNL     1      -6.474  12.944  66.857  1.00  0.00     0.000 HD 
HETATM   22  C   UNL     1      -8.229  16.324  67.637  1.00  0.00    -0.153 C  
HETATM   23  O   UNL     1      -9.346  16.972  73.937  1.00  0.00    12.969 OA 
HETATM   24  C   UNL     1      -7.034  15.365  67.806  1.00  0.00    -0.183 C  
ENDROOT
BRANCH   5  25
HETATM   25  O   UNL     1     -14.251  13.082  71.170  1.00  0.00     1.139 OA 
BRANCH  25  26
HETATM   26  C   UNL     1     -13.489  11.851  71.036  1.00  0.00     0.735 C  
HETATM   27  C   UNL     1     -11.751  12.080  68.680  1.00  0.00    -0.326 C  
HETATM   28  C   UNL     1     -11.710  12.970  69.985  1.00  0.00    -0.215 C  
HETATM   29  C   UNL     1     -13.276  11.712  68.519  1.00  0.00     4.134 C  
HETATM   30  O   UNL     1     -12.102  12.165  71.093  1.00  0.00    -0.149 OA 
HETATM   31  C   UNL     1     -13.774  11.015  69.783  1.00  0.00     2.659 C  
HETATM   32  C   UNL     1     -10.424  13.680  70.372  1.00  0.00     1.884 C  
BRANCH  27  33
HETATM   33  N   UNL     1     -10.898  10.883  68.635  1.00  0.00    -0.200 NA 
HETATM   34  C   UNL     1      -9.476  11.209  68.482  1.00  0.00    -0.193 C  
HETATM   35  C   UNL     1     -11.047  10.015  69.804  1.00  0.00    -0.274 C  
ENDBRANCH  27  33
ENDBRANCH  25  26
ENDBRANCH   5  25
BRANCH  14  36
HETATM   36  O   UNL     1     -10.206  13.352  69.126  1.00  0.00    -0.010 OA 
BRANCH  36  37
HETATM   37  C   UNL     1      -9.904  12.123  68.478  1.00  0.00    -0.162 C  
HETATM   38  C   UNL     1      -9.635   8.724  69.880  1.00  0.00    -0.182 C  
HETATM   39  C   UNL     1      -7.707  11.179  67.364  1.00  0.00    -0.120 C  
HETATM   40  C   UNL     1      -9.420   9.848  68.850  1.00  0.00    -0.170 C  
HETATM   41  O   UNL     1      -9.860  11.074  69.417  1.00  0.00    -0.105 OA 
HETATM   42  H   UNL     1      -8.242  13.198  65.860  1.00  0.00     0.000 HD 
HETATM   43  C   UNL     1      -8.669  12.355  67.614  1.00  0.00    -0.178 C  
HETATM   44  O   UNL     1      -9.011  13.052  66.398  1.00  0.00    -0.133 OA 
HETATM   45  C   UNL     1      -7.939  10.063  68.505  1.00  0.00    -0.102 C  
BRANCH  45  46
HETATM   46  O   UNL     1      -7.394   8.757  68.216  1.00  0.00    -0.084 OA 
BRANCH  46  47
HETATM   47  C   UNL     1      -7.917   8.293  66.988  1.00  0.00    -0.100 C  
HETATM   48  C   UNL     1      -8.729   7.032  67.213  1.00  0.00    -0.120 C  
HETATM   49  C   UNL     1     -10.144   9.951  64.737  1.00  0.00     0.018 C  
HETATM   50  O   UNL     1      -8.489   9.285  66.189  1.00  0.00    -0.122 OA 
HETATM   51  H   UNL     1     -12.415   8.915  65.918  1.00  0.00     0.000 HD 
HETATM   52  C   UNL     1     -10.142   7.359  67.601  1.00  0.00    -0.186 C  
HETATM   53  C   UNL     1     -10.858   6.043  67.924  1.00  0.00    -0.378 C  
HETATM   54  O   UNL     1     -10.210   8.157  68.792  1.00  0.00    -0.199 OA 
HETATM   55  C   UNL     1     -10.702   8.123  66.406  1.00  0.00     0.706 C  
HETATM   56  O   UNL     1     -12.066   8.439  66.663  1.00  0.00     4.795 OA 
HETATM   57  H   UNL     1     -11.104   8.364  69.038  1.00  0.00     0.000 HD 
HETATM   58  C   UNL     1      -9.892   9.414  66.140  1.00  0.00    -0.285 C  
ENDBRANCH  46  47
ENDBRANCH  45  46
BRANCH  39  59
HETATM   59  N   UNL     1      -6.328  11.798  67.145  1.00  0.00    -0.131 NA 
HETATM   60  C   UNL     1      -5.168  11.254  67.801  1.00  0.00    -0.041 C  
HETATM   61  C   UNL     1      -5.934  12.633  66.024  1.00  0.00     3.273 C  
ENDBRANCH  39  59
ENDBRANCH  36  37
ENDBRANCH  14  36
BRANCH  19  62
HETATM   62  O   UNL     1      -6.824  13.273  70.432  1.00  0.00     0.444 OA 
HETATM   63  C   UNL     1      -6.195  12.166  69.809  1.00  0.00    -0.132 C  
ENDBRANCH  19  62
TORSDOF 9
ENDMDL
MODEL       84
REMARK 921   NORMALIZED FREE ENERGY PREDICTED BY IDOCK:  138.04 KCAL/MOL
REMARK 922        TOTAL FREE ENERGY PREDICTED BY IDOCK:  208.04 KCAL/MOL
REMARK 923 INTER-LIGAND FREE ENERGY PREDICTED BY IDOCK:  185.43 KCAL/MOL
REMARK 924 INTRA-LIGAND FREE ENERGY PREDICTED BY IDOCK:   22.61 KCAL/MOL
REMARK 927      BINDING AFFINITY PREDICTED BY RF-SCORE:    0.00 PKD
ROOT
HETATM    1  C   UNL     1     -12.015   7.394  67.200  1.00  0.00     3.250 C  
HETATM    2  C   UNL     1     -12.684   8.328  66.429  1.00  0.00    13.837 C  
HETATM    3  C   UNL     1     -13.177   9.752  66.456  1.00  0.00    16.522 C  
HETATM    4  C   UNL     1     -12.897  10.798  67.260  1.00  0.00     6.423 C  
HETATM    5  C   UNL     1     -12.022  10.610  68.423  1.00  0.00     0.187 C  
HETATM    6  O   UNL     1      -5.290   7.491  71.573  1.00  0.00    -0.034 OA 
HETATM    7  C   UNL     1     -10.556  10.924  67.951  1.00  0.00    -0.246 C  
HETATM    8  C   UNL     1      -9.994   4.110  68.448  1.00  0.00     0.019 C  
HETATM    9  C   UNL     1      -9.890   9.590  68.211  1.00  0.00    -0.174 C  
HETATM   10  C   UNL     1     -10.321  11.211  66.440  1.00  0.00    -0.300 C  
HETATM   11  C   UNL     1      -8.395   9.454  68.173  1.00  0.00    -0.119 C  
HETATM   12  C   UNL     1     -11.110   6.582  68.377  1.00  0.00    -0.340 C  
HETATM   13  C   UNL     1      -9.711   5.582  68.188  1.00  0.00    -0.132 C  
HETATM   14  C   UNL     1      -8.030   8.663  69.458  1.00  0.00    -0.097 C  
HETATM   15  C   UNL     1      -8.023   8.596  66.893  1.00  0.00    -0.095 C  
HETATM   16  C   UNL     1      -8.080   9.267  65.546  1.00  0.00    -0.113 C  
HETATM   17  O   UNL     1      -8.379   5.878  68.923  1.00  0.00    -0.102 OA 
HETATM   18  O   UNL     1      -8.030   4.182  70.477  1.00  0.00    -0.054 OA 
HETATM   19  C   UNL     1      -6.580   8.082  69.519  1.00  0.00    -0.038 C  
HETATM   20  C   UNL     1      -6.415   7.166  70.753  1.00  0.00    -0.043 C  
HETATM   21  H   UNL     1      -5.188   6.927  72.332  1.00  0.00     0.000 HD 
HETATM   22  C   UNL     1      -7.651   5.183  69.882  1.00  0.00    -0.064 C  
HETATM   23  O   UNL     1      -8.604   8.740  64.609  1.00  0.00    -0.169 OA 
HETATM   24  C   UNL     1      -6.258   5.765  70.192  1.00  0.00    -0.027 C  
ENDROOT
BRANCH   5  25
HETATM   25  O   UNL     1     -12.577  11.094  69.660  1.00  0.00    -0.201 OA 
BRANCH  25  26
HETATM   26  C   UNL     1     -11.837  10.541  70.783  1.00  0.00    -0.365 C  
HETATM   27  C   UNL     1     -13.761   9.566  72.777  1.00  0.00    -0.034 C  
HETATM   28  C   UNL     1     -13.577   9.046  71.297  1.00  0.00    -0.199 C  
HETATM   29  C   UNL     1     -13.406  11.100  72.688  1.00  0.00     0.984 C  
HETATM   30  O   UNL     1     -12.204   9.174  70.941  1.00  0.00    -0.274 OA 
HETATM   31  C   UNL     1     -11.998  11.271  72.122  1.00  0.00     2.008 C  
HETATM   32  C   UNL     1     -14.010   7.635  70.936  1.00  0.00     0.072 C  
BRANCH  27  33
HETATM   33  N   UNL     1     -13.001   8.897  73.843  1.00  0.00     3.140 NA 
HETATM   34  C   UNL     1     -13.298   7.463  73.933  1.00  0.00     6.181 C  
HETATM   35  C   UNL     1     -11.551   9.058  73.716  1.00  0.00     5.381 C  
ENDBRANCH  27  33
ENDBRANCH  25  26
ENDBRANCH   5  25
BRANCH  14  36
HETATM   36  O   UNL     1      -8.805   8.786  70.687  1.00  0.00    -0.149 OA 
BRANCH  36  37
HETATM   37  C   UNL     1      -8.475   9.706  71.720  1.00  0.00     1.560 C  
HETATM   38  C   UNL     1     -10.644  12.035  73.581  1.00  0.00    21.464 C  
HETATM   39  C   UNL     1      -7.081  11.945  71.745  1.00  0.00     6.973 C  
HETATM   40  C   UNL     1      -9.321  11.466  73.036  1.00  0.00    20.962 C  
HETATM   41  O   UNL     1      -9.618  10.432  72.110  1.00  0.00     4.351 OA 
HETATM   42  H   UNL     1      -5.291  10.210  71.105  1.00  0.00     0.000 HD 
HETATM   43  C   UNL     1      -7.257  10.496  71.254  1.00  0.00     2.123 C  
HETATM   44  O   UNL     1      -6.050   9.718  71.396  1.00  0.00    -0.217 OA 
HETATM   45  C   UNL     1      -8.509  12.503  72.247  1.00  0.00    20.266 C  
BRANCH  45  46
HETATM   46  O   UNL     1      -8.457  13.691  73.067  1.00  0.00     9.311 OA 
BRANCH  46  47
HETATM   47  C   UNL     1      -7.587  14.633  72.473  1.00  0.00     5.310 C  
HETATM   48  C   UNL     1      -7.377  14.293  71.010  1.00  0.00     1.987 C  
HETATM   49  C   UNL     1      -8.012  18.166  72.130  1.00  0.00    11.919 C  
HETATM   50  O   UNL     1      -7.873  15.964  72.782  1.00  0.00     9.748 OA 
HETATM   51  H   UNL     1      -9.239  17.971  69.664  1.00  0.00     0.000 HD 
HETATM   52  C   UNL     1      -8.466  14.876  70.155  1.00  0.00     0.722 C  
HETATM   53  C   UNL     1      -8.248  14.391  68.718  1.00  0.00    -0.126 C  
HETATM   54  O   UNL     1      -9.769  14.416  70.542  1.00  0.00     0.657 OA 
HETATM   55  C   UNL     1      -8.345  16.383  70.355  1.00  0.00     2.468 C  
HETATM   56  O   UNL     1      -9.315  17.032  69.540  1.00  0.00     0.062 OA 
HETATM   57  H   UNL     1     -10.458  14.785  70.002  1.00  0.00     0.000 HD 
HETATM   58  C   UNL     1      -8.545  16.769  71.840  1.00  0.00    11.552 C  
ENDBRANCH  46  47
ENDBRANCH  45  46
BRANCH  39  59
HETATM   59  N   UNL     1      -6.298  12.671  70.652  1.00  0.00     0.054 NA 
HETATM   60  C   UNL     1      -5.412  13.756  70.983  1.00  0.00    -0.188 C  
HETATM   61  C   UNL     1      -5.996  12.152  69.330  1.00  0.00    -0.086 C  
ENDBRANCH  39  59
ENDBRANCH  36  37
ENDBRANCH  14  36
BRANCH  19  62
HETATM   62  O   UNL     1      -5.443   8.915  69.333  1.00  0.00    -0.034 OA 
HETATM   63  C   UNL     1      -5.570  10.201  68.750  1.00  0.00    -0.038 C  
ENDBRANCH  19  62
TORSDOF 9
ENDMDL
MODEL       85
REMARK 921   NORMALIZED FREE ENERGY PREDICTED BY IDOCK:  140.42 KCAL/MOL
REMARK 922        TOTAL FREE ENERGY PREDICTED BY IDOCK:  211.67 KCAL/MOL
REMARK 923 INTER-LIGAND FREE ENERGY PREDICTED BY IDOCK:   65.02 KCAL/MOL
REMARK 924 INTRA-LIGAND FREE ENERGY PREDICTED BY IDOCK:  146.64 KCAL/MOL
REMARK 927      BINDING AFFINITY PREDICTED BY RF-SCORE:    0.00 PKD
ROOT
HETATM    1  C   UNL     1     -12.650  17.257  70.909  1.00  0.00     6.457 C  
HETATM    2  C   UNL     1     -13.416  17.159  72.057  1.00  0.00     6.463 C  
HETATM    3  C   UNL     1     -14.202  16.167  72.876  1.00  0.00     0.151 C  
HETATM    4  C   UNL     1     -14.240  14.818  72.883  1.00  0.00     0.341 C  
HETATM    5  C   UNL     1     -13.475  14.062  71.885  1.00  0.00    -0.421 C  
HETATM    6  O   UNL     1      -6.611  12.989  67.797  1.00  0.00    -0.113 OA 
HETATM    7  C   UNL     1     -12.068  13.759  72.516  1.00  0.00     0.675 C  
HETATM    8  C   UNL     1     -10.121  18.554  68.020  1.00  0.00    -0.403 C  
HETATM    9  C   UNL     1     -11.165  14.470  71.531  1.00  0.00     0.482 C  
HETATM   10  C   UNL     1     -11.739  14.387  73.901  1.00  0.00     0.740 C  
HETATM   11  C   UNL     1      -9.680  14.246  71.547  1.00  0.00     5.156 C  
HETATM   12  C   UNL     1     -11.725  16.963  69.523  1.00  0.00     0.980 C  
HETATM   13  C   UNL     1     -10.133  17.515  69.131  1.00  0.00    -0.231 C  
HETATM   14  C   UNL     1      -9.295  13.999  70.064  1.00  0.00     1.813 C  
HETATM   15  C   UNL     1      -8.998  15.581  72.061  1.00  0.00     6.460 C  
HETATM   16  C   UNL     1      -9.052  15.885  73.535  1.00  0.00    13.972 C  
HETATM   17  O   UNL     1      -8.982  16.535  68.786  1.00  0.00    -0.232 OA 
HETATM   18  O   UNL     1      -8.447  16.825  66.540  1.00  0.00    -0.230 OA 
HETATM   19  C   UNL     1      -7.769  14.067  69.729  1.00  0.00     0.612 C  
HETATM   20  C   UNL     1      -7.546  13.993  68.201  1.00  0.00    -0.141 C  
HETATM   21  H   UNL     1      -6.474  12.944  66.857  1.00  0.00     0.000 HD 
HETATM   22  C   UNL     1      -8.229  16.324  67.637  1.00  0.00    -0.153 C  
HETATM   23  O   UNL     1      -9.346  16.972  73.937  1.00  0.00    12.969 OA 
HETATM   24  C   UNL     1      -7.034  15.365  67.806  1.00  0.00    -0.183 C  
ENDROOT
BRANCH   5  25
HETATM   25  O   UNL     1     -14.251  13.082  71.170  1.00  0.00     1.139 OA 
BRANCH  25  26
HETATM   26  C   UNL     1     -13.489  11.851  71.036  1.00  0.00     0.735 C  
HETATM   27  C   UNL     1     -11.751  12.080  68.680  1.00  0.00    -0.326 C  
HETATM   28  C   UNL     1     -11.710  12.970  69.985  1.00  0.00    -0.215 C  
HETATM   29  C   UNL     1     -13.276  11.712  68.519  1.00  0.00     4.134 C  
HETATM   30  O   UNL     1     -12.102  12.165  71.093  1.00  0.00    -0.149 OA 
HETATM   31  C   UNL     1     -13.774  11.015  69.783  1.00  0.00     2.659 C  
HETATM   32  C   UNL     1     -10.424  13.680  70.372  1.00  0.00     1.884 C  
BRANCH  27  33
HETATM   33  N   UNL     1     -10.898  10.883  68.635  1.00  0.00    -0.200 NA 
HETATM   34  C   UNL     1      -9.476  11.209  68.482  1.00  0.00    -0.193 C  
HETATM   35  C   UNL     1     -11.047  10.015  69.804  1.00  0.00    -0.274 C  
ENDBRANCH  27  33
ENDBRANCH  25  26
ENDBRANCH   5  25
BRANCH  14  36
HETATM   36  O   UNL     1     -10.206  13.352  69.126  1.00  0.00    -0.010 OA 
BRANCH  36  37
HETATM   37  C   UNL     1      -9.904  12.123  68.478  1.00  0.00    -0.162 C  
HETATM   38  C   UNL     1      -9.635   8.724  69.880  1.00  0.00    -0.182 C  
HETATM   39  C   UNL     1      -7.707  11.179  67.364  1.00  0.00    -0.120 C  
HETATM   40  C   UNL     1      -9.420   9.848  68.850  1.00  0.00    -0.170 C  
HETATM   41  O   UNL     1      -9.860  11.074  69.417  1.00  0.00    -0.105 OA 
HETATM   42  H   UNL     1      -8.242  13.198  65.860  1.00  0.00     0.000 HD 
HETATM   43  C   UNL     1      -8.669  12.355  67.614  1.00  0.00    -0.178 C  
HETATM   44  O   UNL     1      -9.011  13.052  66.398  1.00  0.00    -0.133 OA 
HETATM   45  C   UNL     1      -7.939  10.063  68.505  1.00  0.00    -0.102 C  
BRANCH  45  46
HETATM   46  O   UNL     1      -7.394   8.757  68.216  1.00  0.00    -0.084 OA 
BRANCH  46  47
HETATM   47  C   UNL     1      -8.050   7.790  69.010  1.00  0.00    -0.125 C  
HETATM   48  C   UNL     1      -7.058   7.125  69.944  1.00  0.00    -0.073 C  
HETATM   49  C   UNL     1     -10.727   8.247  71.336  1.00  0.00    -0.282 C  
HETATM   50  O   UNL     1      -9.259   8.217  69.565  1.00  0.00    -0.157 OA 
HETATM   51  H   UNL     1      -9.042   8.648  73.487  1.00  0.00     0.000 HD 
HETATM   52  C   UNL     1      -6.879   7.923  71.204  1.00  0.00    -0.045 C  
HETATM   53  C   UNL     1      -5.780   7.253  72.035  1.00  0.00    -0.037 C  
HETATM   54  O   UNL     1      -6.427   9.260  70.942  1.00  0.00    -0.065 OA 
HETATM   55  C   UNL     1      -8.261   7.938  71.849  1.00  0.00    -0.116 C  
HETATM   56  O   UNL     1      -8.182   8.639  73.085  1.00  0.00    -0.409 OA 
HETATM   57  H   UNL     1      -6.314   9.766  71.739  1.00  0.00     0.000 HD 
HETATM   58  C   UNL     1      -9.305   8.602  70.920  1.00  0.00    -0.189 C  
ENDBRANCH  46  47
ENDBRANCH  45  46
BRANCH  39  59
HETATM   59  N   UNL     1      -6.328  11.798  67.145  1.00  0.00    -0.131 NA 
HETATM   60  C   UNL     1      -5.168  11.254  67.801  1.00  0.00    -0.041 C  
HETATM   61  C   UNL     1      -5.934  12.633  66.024  1.00  0.00     3.273 C  
ENDBRANCH  39  59
ENDBRANCH  36  37
ENDBRANCH  14  36
BRANCH  19  62
HETATM   62  O   UNL     1      -6.824  13.273  70.432  1.00  0.00     0.444 OA 
HETATM   63  C   UNL     1      -6.195  12.166  69.809  1.00  0.00    -0.132 C  
ENDBRANCH  19  62
TORSDOF 9
ENDMDL
