MODEL        1
REMARK 921   NORMALIZED FREE ENERGY PREDICTED BY IDOCK:   -6.66 KCAL/MOL
REMARK 922        TOTAL FREE ENERGY PREDICTED BY IDOCK:   -8.01 KCAL/MOL
REMARK 923 INTER-LIGAND FREE ENERGY PREDICTED BY IDOCK:   -7.43 KCAL/MOL
REMARK 924 INTRA-LIGAND FREE ENERGY PREDICTED BY IDOCK:   -0.58 KCAL/MOL
REMARK 927      BINDING AFFINITY PREDICTED BY RF-SCORE:    0.00 PKD
ROOT
HETATM    1  C   UNL     1      -9.029  15.754  66.452  1.00  0.00    -0.366 C  
HETATM    2  C   UNL     1      -9.993  16.089  65.478  1.00  0.00    -0.282 C  
HETATM    3  C   UNL     1     -10.092  17.001  66.674  1.00  0.00    -0.308 C  
HETATM    4  C   UNL     1      -8.498  17.009  67.983  1.00  0.00    -0.216 C  
HETATM    5  C   UNL     1      -8.614  17.585  66.746  1.00  0.00    -0.276 C  
HETATM    6  C   UNL     1      -7.269  18.002  68.427  1.00  0.00    -0.255 C  
HETATM    7  C   UNL     1      -9.704  18.629  67.936  1.00  0.00    -0.350 C  
HETATM    8  C   UNL     1      -7.751  18.272  65.716  1.00  0.00    -0.009 C  
HETATM    9  C   UNL     1      -6.573  17.325  69.587  1.00  0.00    -0.109 C  
HETATM   10  C   UNL     1      -7.016  15.929  69.385  1.00  0.00    -0.211 C  
HETATM   11  C   UNL     1     -10.415  17.577  69.194  1.00  0.00    -0.190 C  
HETATM   12  C   UNL     1     -10.862  15.937  68.896  1.00  0.00    -0.274 C  
HETATM   13  O   UNL     1      -7.658  15.841  68.182  1.00  0.00    -0.120 OA 
HETATM   14  O   UNL     1      -6.785  14.994  70.130  1.00  0.00    -0.169 OA 
HETATM   15  C   UNL     1      -9.952  14.965  67.847  1.00  0.00    -0.219 C  
HETATM   16  C   UNL     1     -10.749  13.674  67.465  1.00  0.00    -0.259 C  
HETATM   17  C   UNL     1     -10.173  14.979  71.195  1.00  0.00     0.984 C  
HETATM   18  C   UNL     1     -10.941  12.887  68.782  1.00  0.00    -0.292 C  
HETATM   19  C   UNL     1     -11.734  13.651  69.830  1.00  0.00    -0.346 C  
HETATM   20  C   UNL     1     -11.324  15.113  70.177  1.00  0.00    -0.300 C  
HETATM   21  C   UNL     1     -12.496  15.913  70.867  1.00  0.00    -0.352 C  
HETATM   22  C   UNL     1     -12.712  12.993  70.481  1.00  0.00    -0.111 C  
HETATM   23  C   UNL     1     -13.797  15.155  71.086  1.00  0.00    -0.495 C  
HETATM   24  C   UNL     1     -13.505  13.740  71.470  1.00  0.00    -0.284 C  
HETATM   25  O   UNL     1     -13.933  13.198  72.480  1.00  0.00    -0.676 OA 
ENDROOT
BRANCH  16  26
HETATM   26  S   UNL     1     -12.408  13.944  66.693  1.00  0.00    -0.278 SA 
BRANCH  26  27
HETATM   27  C   UNL     1     -12.292  12.884  65.295  1.00  0.00    -0.490 C  
HETATM   28  C   UNL     1     -10.892  12.460  64.954  1.00  0.00    -0.333 C  
HETATM   29  O   UNL     1     -13.281  12.501  64.686  1.00  0.00    -0.848 OA 
ENDBRANCH  26  27
ENDBRANCH  16  26
TORSDOF 2
ENDMDL
MODEL        2
REMARK 921   NORMALIZED FREE ENERGY PREDICTED BY IDOCK:   -6.62 KCAL/MOL
REMARK 922        TOTAL FREE ENERGY PREDICTED BY IDOCK:   -7.97 KCAL/MOL
REMARK 923 INTER-LIGAND FREE ENERGY PREDICTED BY IDOCK:   -7.42 KCAL/MOL
REMARK 924 INTRA-LIGAND FREE ENERGY PREDICTED BY IDOCK:   -0.55 KCAL/MOL
REMARK 927      BINDING AFFINITY PREDICTED BY RF-SCORE:    0.00 PKD
ROOT
HETATM    1  C   UNL     1     -11.770  12.974  68.471  1.00  0.00    -0.377 C  
HETATM    2  C   UNL     1     -11.093  13.123  69.699  1.00  0.00     0.014 C  
HETATM    3  C   UNL     1     -10.208  13.512  68.543  1.00  0.00    -0.229 C  
HETATM    4  C   UNL     1     -11.126  13.832  66.724  1.00  0.00    -0.308 C  
HETATM    5  C   UNL     1     -11.090  14.632  67.835  1.00  0.00    -0.301 C  
HETATM    6  C   UNL     1     -11.491  15.084  65.728  1.00  0.00    -0.236 C  
HETATM    7  C   UNL     1      -9.334  14.704  67.056  1.00  0.00    -0.244 C  
HETATM    8  C   UNL     1     -11.733  15.890  68.363  1.00  0.00    -0.246 C  
HETATM    9  C   UNL     1     -12.072  14.473  64.472  1.00  0.00    -0.501 C  
HETATM   10  C   UNL     1     -12.482  13.149  64.985  1.00  0.00    -0.460 C  
HETATM   11  C   UNL     1      -8.936  13.134  66.301  1.00  0.00     0.098 C  
HETATM   12  C   UNL     1      -9.494  11.627  66.930  1.00  0.00    -0.195 C  
HETATM   13  O   UNL     1     -12.348  13.143  66.345  1.00  0.00    -0.366 OA 
HETATM   14  O   UNL     1     -12.935  12.236  64.318  1.00  0.00    -0.701 OA 
HETATM   15  C   UNL     1     -11.027  11.497  67.644  1.00  0.00    -0.296 C  
HETATM   16  C   UNL     1     -11.146  10.160  68.447  1.00  0.00    -0.218 C  
HETATM   17  C   UNL     1      -9.889  10.443  64.668  1.00  0.00    -0.405 C  
HETATM   18  C   UNL     1     -11.017   9.024  67.407  1.00  0.00     0.040 C  
HETATM   19  C   UNL     1      -9.686   9.027  66.672  1.00  0.00    -0.295 C  
HETATM   20  C   UNL     1      -9.175  10.352  66.032  1.00  0.00    -0.200 C  
HETATM   21  C   UNL     1      -7.620  10.326  65.769  1.00  0.00    -0.143 C  
HETATM   22  C   UNL     1      -9.042   7.853  66.532  1.00  0.00    -0.209 C  
HETATM   23  C   UNL     1      -6.888   9.050  66.161  1.00  0.00    -0.081 C  
HETATM   24  C   UNL     1      -7.738   7.859  65.854  1.00  0.00    -0.093 C  
HETATM   25  O   UNL     1      -7.379   6.919  65.158  1.00  0.00    -0.073 OA 
ENDROOT
BRANCH  16  26
HETATM   26  S   UNL     1      -9.881   9.893  69.770  1.00  0.00    -0.234 SA 
BRANCH  26  27
HETATM   27  C   UNL     1     -10.916   9.510  71.138  1.00  0.00    -0.368 C  
HETATM   28  C   UNL     1     -12.335   9.982  70.993  1.00  0.00    -0.458 C  
HETATM   29  O   UNL     1     -10.512   8.876  72.102  1.00  0.00    -0.336 OA 
ENDBRANCH  26  27
ENDBRANCH  16  26
TORSDOF 2
ENDMDL
MODEL        3
REMARK 921   NORMALIZED FREE ENERGY PREDICTED BY IDOCK:   -6.62 KCAL/MOL
REMARK 922        TOTAL FREE ENERGY PREDICTED BY IDOCK:   -7.97 KCAL/MOL
REMARK 923 INTER-LIGAND FREE ENERGY PREDICTED BY IDOCK:   -7.54 KCAL/MOL
REMARK 924 INTRA-LIGAND FREE ENERGY PREDICTED BY IDOCK:   -0.43 KCAL/MOL
REMARK 927      BINDING AFFINITY PREDICTED BY RF-SCORE:    0.00 PKD
ROOT
HETATM    1  C   UNL     1     -10.550  12.228  68.827  1.00  0.00    -0.223 C  
HETATM    2  C   UNL     1     -11.957  12.254  68.907  1.00  0.00    -0.300 C  
HETATM    3  C   UNL     1     -11.491  12.495  67.495  1.00  0.00    -0.397 C  
HETATM    4  C   UNL     1      -9.530  12.028  67.061  1.00  0.00    -0.198 C  
HETATM    5  C   UNL     1     -10.607  11.199  67.229  1.00  0.00    -0.279 C  
HETATM    6  C   UNL     1      -8.686  10.902  66.215  1.00  0.00    -0.175 C  
HETATM    7  C   UNL     1     -10.858  12.079  65.539  1.00  0.00    -0.336 C  
HETATM    8  C   UNL     1     -10.911   9.727  67.366  1.00  0.00    -0.265 C  
HETATM    9  C   UNL     1      -7.235  11.327  66.271  1.00  0.00     0.007 C  
HETATM   10  C   UNL     1      -7.262  12.212  67.454  1.00  0.00    -0.147 C  
HETATM   11  C   UNL     1     -10.191  13.735  65.608  1.00  0.00    -0.326 C  
HETATM   12  C   UNL     1     -10.213  14.693  67.043  1.00  0.00    -0.261 C  
HETATM   13  O   UNL     1      -8.481  12.095  68.063  1.00  0.00    -0.153 OA 
HETATM   14  O   UNL     1      -6.331  12.880  67.865  1.00  0.00    -0.092 OA 
HETATM   15  C   UNL     1     -10.012  13.978  68.568  1.00  0.00    -0.230 C  
HETATM   16  C   UNL     1     -10.431  14.972  69.700  1.00  0.00    -0.213 C  
HETATM   17  C   UNL     1      -7.921  15.841  66.718  1.00  0.00    -0.273 C  
HETATM   18  C   UNL     1      -9.449  16.162  69.609  1.00  0.00    -0.009 C  
HETATM   19  C   UNL     1      -9.510  16.894  68.277  1.00  0.00    -0.250 C  
HETATM   20  C   UNL     1      -9.428  16.074  66.955  1.00  0.00    -0.230 C  
HETATM   21  C   UNL     1      -9.999  16.874  65.721  1.00  0.00    -0.209 C  
HETATM   22  C   UNL     1      -9.547  18.240  68.300  1.00  0.00    -0.332 C  
HETATM   23  C   UNL     1     -10.516  18.277  66.004  1.00  0.00    -0.380 C  
HETATM   24  C   UNL     1      -9.644  18.948  67.016  1.00  0.00    -0.312 C  
HETATM   25  O   UNL     1      -9.100  20.032  66.845  1.00  0.00    -0.329 OA 
ENDROOT
BRANCH  16  26
HETATM   26  S   UNL     1     -12.159  15.627  69.605  1.00  0.00    -0.229 SA 
BRANCH  26  27
HETATM   27  C   UNL     1     -12.729  15.276  71.231  1.00  0.00    -0.401 C  
HETATM   28  C   UNL     1     -12.032  16.051  72.312  1.00  0.00    -0.633 C  
HETATM   29  O   UNL     1     -13.645  14.494  71.444  1.00  0.00    -0.366 OA 
ENDBRANCH  26  27
ENDBRANCH  16  26
TORSDOF 2
ENDMDL
MODEL        4
REMARK 921   NORMALIZED FREE ENERGY PREDICTED BY IDOCK:   -6.58 KCAL/MOL
REMARK 922        TOTAL FREE ENERGY PREDICTED BY IDOCK:   -7.93 KCAL/MOL
REMARK 923 INTER-LIGAND FREE ENERGY PREDICTED BY IDOCK:   -7.49 KCAL/MOL
REMARK 924 INTRA-LIGAND FREE ENERGY PREDICTED BY IDOCK:   -0.44 KCAL/MOL
REMARK 927      BINDING AFFINITY PREDICTED BY RF-SCORE:    0.00 PKD
ROOT
HETATM    1  C   UNL     1     -11.897  12.224  68.305  1.00  0.00    -0.367 C  
HETATM    2  C   UNL     1     -11.289  12.260  69.577  1.00  0.00    -0.258 C  
HETATM    3  C   UNL     1     -10.401  12.888  68.535  1.00  0.00    -0.239 C  
HETATM    4  C   UNL     1     -11.270  13.375  66.730  1.00  0.00    -0.310 C  
HETATM    5  C   UNL     1     -11.359  14.010  67.940  1.00  0.00    -0.317 C  
HETATM    6  C   UNL     1     -11.716  14.716  65.895  1.00  0.00    -0.301 C  
HETATM    7  C   UNL     1      -9.588  14.354  67.275  1.00  0.00    -0.227 C  
HETATM    8  C   UNL     1     -12.145  15.117  68.598  1.00  0.00    -0.184 C  
HETATM    9  C   UNL     1     -12.181  14.236  64.537  1.00  0.00    -0.476 C  
HETATM   10  C   UNL     1     -12.478  12.821  64.842  1.00  0.00    -0.497 C  
HETATM   11  C   UNL     1      -9.005  12.949  66.336  1.00  0.00    -0.017 C  
HETATM   12  C   UNL     1      -9.436  11.324  66.723  1.00  0.00    -0.196 C  
HETATM   13  O   UNL     1     -12.400  12.636  66.194  1.00  0.00    -0.570 OA 
HETATM   14  O   UNL     1     -12.809  11.973  64.033  1.00  0.00    -0.575 OA 
HETATM   15  C   UNL     1     -10.977  10.953  67.327  1.00  0.00    -0.355 C  
HETATM   16  C   UNL     1     -10.996   9.511  67.933  1.00  0.00    -0.110 C  
HETATM   17  C   UNL     1      -9.617  10.439  64.302  1.00  0.00    -0.377 C  
HETATM   18  C   UNL     1     -10.712   8.550  66.756  1.00  0.00    -0.081 C  
HETATM   19  C   UNL     1      -9.358   8.780  66.103  1.00  0.00    -0.297 C  
HETATM   20  C   UNL     1      -8.955  10.223  65.678  1.00  0.00    -0.198 C  
HETATM   21  C   UNL     1      -7.395  10.379  65.500  1.00  0.00    -0.139 C  
HETATM   22  C   UNL     1      -8.596   7.701  65.840  1.00  0.00    -0.164 C  
HETATM   23  C   UNL     1      -6.557   9.134  65.754  1.00  0.00    -0.068 C  
HETATM   24  C   UNL     1      -7.271   7.924  65.242  1.00  0.00    -0.061 C  
HETATM   25  O   UNL     1      -6.792   7.128  64.445  1.00  0.00    -0.045 OA 
ENDROOT
BRANCH  16  26
HETATM   26  S   UNL     1      -9.766   9.179  69.274  1.00  0.00    -0.169 SA 
BRANCH  26  27
HETATM   27  C   UNL     1     -10.763   8.288  70.416  1.00  0.00    -0.232 C  
HETATM   28  C   UNL     1     -11.445   9.145  71.443  1.00  0.00    -0.420 C  
HETATM   29  O   UNL     1     -10.910   7.076  70.343  1.00  0.00    -0.236 OA 
ENDBRANCH  26  27
ENDBRANCH  16  26
TORSDOF 2
ENDMDL
MODEL        5
REMARK 921   NORMALIZED FREE ENERGY PREDICTED BY IDOCK:   -6.37 KCAL/MOL
REMARK 922        TOTAL FREE ENERGY PREDICTED BY IDOCK:   -7.69 KCAL/MOL
REMARK 923 INTER-LIGAND FREE ENERGY PREDICTED BY IDOCK:   -7.25 KCAL/MOL
REMARK 924 INTRA-LIGAND FREE ENERGY PREDICTED BY IDOCK:   -0.44 KCAL/MOL
REMARK 927      BINDING AFFINITY PREDICTED BY RF-SCORE:    0.00 PKD
ROOT
HETATM    1  C   UNL     1     -10.879  10.217  66.905  1.00  0.00    -0.205 C  
HETATM    2  C   UNL     1     -10.173  10.182  65.685  1.00  0.00    -0.288 C  
HETATM    3  C   UNL     1      -9.269  10.582  66.822  1.00  0.00    -0.175 C  
HETATM    4  C   UNL     1      -9.957  10.235  68.735  1.00  0.00    -0.179 C  
HETATM    5  C   UNL     1      -9.452   9.354  67.816  1.00  0.00    -0.152 C  
HETATM    6  C   UNL     1      -9.645   9.233  69.997  1.00  0.00    -0.235 C  
HETATM    7  C   UNL     1      -7.962  10.390  68.450  1.00  0.00    -0.110 C  
HETATM    8  C   UNL     1      -9.305   7.865  67.616  1.00  0.00    -0.161 C  
HETATM    9  C   UNL     1     -10.516   9.705  71.140  1.00  0.00    -0.281 C  
HETATM   10  C   UNL     1     -11.543  10.464  70.396  1.00  0.00    -0.337 C  
HETATM   11  C   UNL     1      -8.492  12.054  68.825  1.00  0.00     0.065 C  
HETATM   12  C   UNL     1      -9.736  12.860  67.942  1.00  0.00    -0.218 C  
HETATM   13  O   UNL     1     -11.373  10.241  69.058  1.00  0.00    -0.231 OA 
HETATM   14  O   UNL     1     -12.440  11.123  70.891  1.00  0.00    -0.362 OA 
HETATM   15  C   UNL     1     -11.070  12.003  67.342  1.00  0.00    -0.337 C  
HETATM   16  C   UNL     1     -11.846  12.862  66.289  1.00  0.00    -0.416 C  
HETATM   17  C   UNL     1     -10.798  14.122  69.931  1.00  0.00     0.087 C  
HETATM   18  C   UNL     1     -12.386  14.092  67.055  1.00  0.00    -0.278 C  
HETATM   19  C   UNL     1     -11.289  14.951  67.665  1.00  0.00    -0.348 C  
HETATM   20  C   UNL     1     -10.182  14.273  68.525  1.00  0.00    -0.245 C  
HETATM   21  C   UNL     1      -8.891  15.170  68.651  1.00  0.00    -0.186 C  
HETATM   22  C   UNL     1     -11.374  16.285  67.505  1.00  0.00     0.047 C  
HETATM   23  C   UNL     1      -8.931  16.518  67.944  1.00  0.00    -0.205 C  
HETATM   24  C   UNL     1     -10.296  17.116  68.062  1.00  0.00    -0.353 C  
HETATM   25  O   UNL     1     -10.522  18.230  68.514  1.00  0.00    -0.336 OA 
ENDROOT
BRANCH  16  26
HETATM   26  S   UNL     1     -10.858  13.457  64.843  1.00  0.00    -0.374 SA 
BRANCH  26  27
HETATM   27  C   UNL     1     -11.994  13.169  63.532  1.00  0.00    -0.513 C  
HETATM   28  C   UNL     1     -12.190  11.719  63.190  1.00  0.00    -0.273 C  
HETATM   29  O   UNL     1     -12.597  14.080  62.982  1.00  0.00    -0.643 OA 
ENDBRANCH  26  27
ENDBRANCH  16  26
TORSDOF 2
ENDMDL
MODEL        6
REMARK 921   NORMALIZED FREE ENERGY PREDICTED BY IDOCK:   -6.32 KCAL/MOL
REMARK 922        TOTAL FREE ENERGY PREDICTED BY IDOCK:   -7.63 KCAL/MOL
REMARK 923 INTER-LIGAND FREE ENERGY PREDICTED BY IDOCK:   -7.37 KCAL/MOL
REMARK 924 INTRA-LIGAND FREE ENERGY PREDICTED BY IDOCK:   -0.26 KCAL/MOL
REMARK 927      BINDING AFFINITY PREDICTED BY RF-SCORE:    0.00 PKD
ROOT
HETATM    1  C   UNL     1     -11.784  15.519  68.225  1.00  0.00    -0.287 C  
HETATM    2  C   UNL     1     -11.166  16.216  69.284  1.00  0.00    -0.337 C  
HETATM    3  C   UNL     1     -10.173  15.351  68.552  1.00  0.00    -0.219 C  
HETATM    4  C   UNL     1     -10.737  14.632  66.703  1.00  0.00    -0.305 C  
HETATM    5  C   UNL     1     -10.327  15.888  67.062  1.00  0.00    -0.297 C  
HETATM    6  C   UNL     1     -10.371  14.870  65.121  1.00  0.00    -0.431 C  
HETATM    7  C   UNL     1      -8.763  14.771  67.112  1.00  0.00    -0.241 C  
HETATM    8  C   UNL     1     -10.243  17.277  66.478  1.00  0.00    -0.325 C  
HETATM    9  C   UNL     1     -11.145  13.827  64.344  1.00  0.00    -0.356 C  
HETATM   10  C   UNL     1     -12.196  13.488  65.327  1.00  0.00    -0.441 C  
HETATM   11  C   UNL     1      -9.210  13.117  67.619  1.00  0.00    -0.207 C  
HETATM   12  C   UNL     1     -10.485  12.795  68.736  1.00  0.00    -0.179 C  
HETATM   13  O   UNL     1     -12.126  14.372  66.368  1.00  0.00    -0.414 OA 
HETATM   14  O   UNL     1     -13.034  12.614  65.201  1.00  0.00    -0.754 OA 
HETATM   15  C   UNL     1     -11.886  13.751  68.755  1.00  0.00    -0.398 C  
HETATM   16  C   UNL     1     -12.704  13.500  70.065  1.00  0.00     0.054 C  
HETATM   17  C   UNL     1     -11.365  10.633  67.630  1.00  0.00    -0.284 C  
HETATM   18  C   UNL     1     -13.148  12.020  70.014  1.00  0.00     0.908 C  
HETATM   19  C   UNL     1     -11.984  11.042  69.977  1.00  0.00    -0.430 C  
HETATM   20  C   UNL     1     -10.843  11.258  68.940  1.00  0.00    -0.253 C  
HETATM   21  C   UNL     1      -9.517  10.505  69.346  1.00  0.00    -0.158 C  
HETATM   22  C   UNL     1     -12.036   9.973  70.794  1.00  0.00    -0.426 C  
HETATM   23  C   UNL     1      -9.562   9.706  70.641  1.00  0.00    -0.214 C  
HETATM   24  C   UNL     1     -10.895   9.045  70.787  1.00  0.00    -0.251 C  
HETATM   25  O   UNL     1     -11.052   7.844  70.960  1.00  0.00    -0.242 OA 
ENDROOT
BRANCH  16  26
HETATM   26  S   UNL     1     -11.799  13.788  71.653  1.00  0.00     0.981 SA 
BRANCH  26  27
HETATM   27  C   UNL     1     -13.120  14.315  72.688  1.00  0.00    -0.478 C  
HETATM   28  C   UNL     1     -12.737  15.359  73.697  1.00  0.00    -0.713 C  
HETATM   29  O   UNL     1     -14.258  13.886  72.559  1.00  0.00    -0.671 OA 
ENDBRANCH  26  27
ENDBRANCH  16  26
TORSDOF 2
ENDMDL
MODEL        7
REMARK 921   NORMALIZED FREE ENERGY PREDICTED BY IDOCK:   -6.25 KCAL/MOL
REMARK 922        TOTAL FREE ENERGY PREDICTED BY IDOCK:   -7.56 KCAL/MOL
REMARK 923 INTER-LIGAND FREE ENERGY PREDICTED BY IDOCK:   -7.17 KCAL/MOL
REMARK 924 INTRA-LIGAND FREE ENERGY PREDICTED BY IDOCK:   -0.39 KCAL/MOL
REMARK 927      BINDING AFFINITY PREDICTED BY RF-SCORE:    0.00 PKD
ROOT
HETATM    1  C   UNL     1      -9.573  16.243  65.902  1.00  0.00    -0.336 C  
HETATM    2  C   UNL     1     -10.904  16.640  65.655  1.00  0.00    -0.142 C  
HETATM    3  C   UNL     1     -10.654  16.474  67.131  1.00  0.00    -0.270 C  
HETATM    4  C   UNL     1      -8.687  16.373  67.745  1.00  0.00    -0.180 C  
HETATM    5  C   UNL     1      -9.425  17.459  67.355  1.00  0.00    -0.246 C  
HETATM    6  C   UNL     1      -7.597  17.295  68.556  1.00  0.00    -0.251 C  
HETATM    7  C   UNL     1     -10.079  16.953  69.090  1.00  0.00    -0.269 C  
HETATM    8  C   UNL     1      -9.228  18.917  67.019  1.00  0.00    -0.325 C  
HETATM    9  C   UNL     1      -6.360  16.440  68.725  1.00  0.00    -0.135 C  
HETATM   10  C   UNL     1      -6.575  15.445  67.653  1.00  0.00    -0.169 C  
HETATM   11  C   UNL     1      -9.975  15.180  69.289  1.00  0.00    -0.243 C  
HETATM   12  C   UNL     1     -10.189  14.080  67.977  1.00  0.00    -0.238 C  
HETATM   13  O   UNL     1      -7.639  15.842  66.892  1.00  0.00    -0.223 OA 
HETATM   14  O   UNL     1      -5.878  14.471  67.435  1.00  0.00    -0.342 OA 
HETATM   15  C   UNL     1      -9.648  14.470  66.418  1.00  0.00    -0.324 C  
HETATM   16  C   UNL     1     -10.272  13.499  65.362  1.00  0.00    -0.302 C  
HETATM   17  C   UNL     1      -8.421  12.341  68.705  1.00  0.00     0.007 C  
HETATM   18  C   UNL     1      -9.735  12.091  65.704  1.00  0.00    -0.241 C  
HETATM   19  C   UNL     1     -10.134  11.615  67.092  1.00  0.00    -0.227 C  
HETATM   20  C   UNL     1      -9.899  12.551  68.314  1.00  0.00    -0.227 C  
HETATM   21  C   UNL     1     -10.792  12.153  69.551  1.00  0.00     0.068 C  
HETATM   22  C   UNL     1     -10.599  10.357  67.215  1.00  0.00    -0.322 C  
HETATM   23  C   UNL     1     -11.708  10.951  69.367  1.00  0.00    -0.397 C  
HETATM   24  C   UNL     1     -11.020   9.906  68.550  1.00  0.00    -0.180 C  
HETATM   25  O   UNL     1     -10.868   8.745  68.905  1.00  0.00    -0.143 OA 
ENDROOT
BRANCH  16  26
HETATM   26  S   UNL     1     -12.121  13.429  65.319  1.00  0.00    -0.442 SA 
BRANCH  26  27
HETATM   27  C   UNL     1     -12.393  13.067  63.620  1.00  0.00    -0.417 C  
HETATM   28  C   UNL     1     -12.528  11.603  63.313  1.00  0.00    -0.262 C  
HETATM   29  O   UNL     1     -12.501  13.946  62.777  1.00  0.00    -0.391 OA 
ENDBRANCH  26  27
ENDBRANCH  16  26
TORSDOF 2
ENDMDL
MODEL        8
REMARK 921   NORMALIZED FREE ENERGY PREDICTED BY IDOCK:   -6.14 KCAL/MOL
REMARK 922        TOTAL FREE ENERGY PREDICTED BY IDOCK:   -7.43 KCAL/MOL
REMARK 923 INTER-LIGAND FREE ENERGY PREDICTED BY IDOCK:   -7.24 KCAL/MOL
REMARK 924 INTRA-LIGAND FREE ENERGY PREDICTED BY IDOCK:   -0.19 KCAL/MOL
REMARK 927      BINDING AFFINITY PREDICTED BY RF-SCORE:    0.00 PKD
ROOT
HETATM    1  C   UNL     1     -11.950  14.820  66.019  1.00  0.00    -0.155 C  
HETATM    2  C   UNL     1     -11.655  15.313  64.731  1.00  0.00    -0.322 C  
HETATM    3  C   UNL     1     -10.623  14.310  65.175  1.00  0.00    -0.423 C  
HETATM    4  C   UNL     1     -11.104  13.120  66.790  1.00  0.00    -0.289 C  
HETATM    5  C   UNL     1     -11.531  13.042  65.491  1.00  0.00    -0.352 C  
HETATM    6  C   UNL     1     -11.484  11.553  67.100  1.00  0.00    -0.313 C  
HETATM    7  C   UNL     1      -9.701  12.454  65.496  1.00  0.00    -0.150 C  
HETATM    8  C   UNL     1     -12.557  12.307  64.664  1.00  0.00    -0.376 C  
HETATM    9  C   UNL     1     -11.576  11.428  68.605  1.00  0.00    -0.384 C  
HETATM   10  C   UNL     1     -11.786  12.843  68.978  1.00  0.00    -0.327 C  
HETATM   11  C   UNL     1      -8.778  13.344  66.741  1.00  0.00    -0.093 C  
HETATM   12  C   UNL     1      -9.114  14.984  67.159  1.00  0.00    -0.229 C  
HETATM   13  O   UNL     1     -11.999  13.570  67.841  1.00  0.00    -0.357 OA 
HETATM   14  O   UNL     1     -11.835  13.281  70.113  1.00  0.00    -0.312 OA 
HETATM   15  C   UNL     1     -10.705  15.571  67.160  1.00  0.00    -0.315 C  
HETATM   16  C   UNL     1     -10.712  17.135  67.209  1.00  0.00    -0.208 C  
HETATM   17  C   UNL     1      -8.647  14.788  69.693  1.00  0.00     0.192 C  
HETATM   18  C   UNL     1     -10.069  17.523  68.560  1.00  0.00    -0.363 C  
HETATM   19  C   UNL     1      -8.634  17.043  68.704  1.00  0.00    -0.265 C  
HETATM   20  C   UNL     1      -8.296  15.553  68.400  1.00  0.00    -0.154 C  
HETATM   21  C   UNL     1      -6.762  15.338  68.104  1.00  0.00    -0.137 C  
HETATM   22  C   UNL     1      -7.724  17.916  69.178  1.00  0.00    -0.021 C  
HETATM   23  C   UNL     1      -5.879  16.576  68.170  1.00  0.00    -0.124 C  
HETATM   24  C   UNL     1      -6.328  17.465  69.284  1.00  0.00    -0.244 C  
HETATM   25  O   UNL     1      -5.600  17.860  70.185  1.00  0.00    -0.230 OA 
ENDROOT
BRANCH  16  26
HETATM   26  S   UNL     1      -9.792  17.992  65.851  1.00  0.00     0.082 SA 
BRANCH  26  27
HETATM   27  C   UNL     1     -10.442  19.619  65.995  1.00  0.00    -0.523 C  
HETATM   28  C   UNL     1      -9.853  20.424  67.118  1.00  0.00    -0.601 C  
HETATM   29  O   UNL     1     -11.275  20.058  65.214  1.00  0.00    -0.248 OA 
ENDBRANCH  26  27
ENDBRANCH  16  26
TORSDOF 2
ENDMDL
MODEL        9
REMARK 921   NORMALIZED FREE ENERGY PREDICTED BY IDOCK:   -6.14 KCAL/MOL
REMARK 922        TOTAL FREE ENERGY PREDICTED BY IDOCK:   -7.43 KCAL/MOL
REMARK 923 INTER-LIGAND FREE ENERGY PREDICTED BY IDOCK:   -6.90 KCAL/MOL
REMARK 924 INTRA-LIGAND FREE ENERGY PREDICTED BY IDOCK:   -0.53 KCAL/MOL
REMARK 927      BINDING AFFINITY PREDICTED BY RF-SCORE:    0.00 PKD
ROOT
HETATM    1  C   UNL     1      -7.628  14.643  68.862  1.00  0.00    -0.139 C  
HETATM    2  C   UNL     1      -6.482  14.088  68.257  1.00  0.00    -0.116 C  
HETATM    3  C   UNL     1      -7.117  15.123  67.365  1.00  0.00    -0.219 C  
HETATM    4  C   UNL     1      -8.496  16.390  68.230  1.00  0.00    -0.195 C  
HETATM    5  C   UNL     1      -7.129  16.396  68.320  1.00  0.00    -0.143 C  
HETATM    6  C   UNL     1      -8.618  17.966  68.672  1.00  0.00    -0.272 C  
HETATM    7  C   UNL     1      -7.559  17.003  66.548  1.00  0.00    -0.326 C  
HETATM    8  C   UNL     1      -6.035  17.077  69.106  1.00  0.00    -0.185 C  
HETATM    9  C   UNL     1     -10.045  18.168  69.135  1.00  0.00    -0.194 C  
HETATM   10  C   UNL     1     -10.427  16.772  69.436  1.00  0.00    -0.312 C  
HETATM   11  C   UNL     1      -9.039  16.188  65.966  1.00  0.00    -0.354 C  
HETATM   12  C   UNL     1      -9.446  14.568  66.400  1.00  0.00    -0.316 C  
HETATM   13  O   UNL     1      -9.312  15.984  69.361  1.00  0.00    -0.254 OA 
HETATM   14  O   UNL     1     -11.536  16.393  69.767  1.00  0.00    -0.253 OA 
HETATM   15  C   UNL     1      -9.082  13.965  67.943  1.00  0.00    -0.194 C  
HETATM   16  C   UNL     1      -9.209  12.406  67.966  1.00  0.00    -0.203 C  
HETATM   17  C   UNL     1     -12.002  14.900  66.579  1.00  0.00    -0.085 C  
HETATM   18  C   UNL     1     -10.696  12.095  67.681  1.00  0.00    -0.252 C  
HETATM   19  C   UNL     1     -11.169  12.596  66.326  1.00  0.00    -0.354 C  
HETATM   20  C   UNL     1     -10.880  14.072  65.919  1.00  0.00    -0.288 C  
HETATM   21  C   UNL     1     -10.965  14.288  64.359  1.00  0.00    -0.204 C  
HETATM   22  C   UNL     1     -11.899  11.759  65.565  1.00  0.00     0.007 C  
HETATM   23  C   UNL     1     -11.313  13.065  63.524  1.00  0.00    -0.319 C  
HETATM   24  C   UNL     1     -12.326  12.229  64.239  1.00  0.00    -0.427 C  
HETATM   25  O   UNL     1     -13.400  11.889  63.760  1.00  0.00    -0.614 OA 
ENDROOT
BRANCH  16  26
HETATM   26  S   UNL     1      -8.170  11.490  66.739  1.00  0.00    -0.151 SA 
BRANCH  26  27
HETATM   27  C   UNL     1      -8.691   9.838  67.041  1.00  0.00    -0.135 C  
HETATM   28  C   UNL     1      -9.268   9.141  65.843  1.00  0.00    -0.286 C  
HETATM   29  O   UNL     1      -8.552   9.302  68.132  1.00  0.00    -0.124 OA 
ENDBRANCH  26  27
ENDBRANCH  16  26
TORSDOF 2
ENDMDL
MODEL       10
REMARK 921   NORMALIZED FREE ENERGY PREDICTED BY IDOCK:   -6.13 KCAL/MOL
REMARK 922        TOTAL FREE ENERGY PREDICTED BY IDOCK:   -7.42 KCAL/MOL
REMARK 923 INTER-LIGAND FREE ENERGY PREDICTED BY IDOCK:   -7.08 KCAL/MOL
REMARK 924 INTRA-LIGAND FREE ENERGY PREDICTED BY IDOCK:   -0.34 KCAL/MOL
REMARK 927      BINDING AFFINITY PREDICTED BY RF-SCORE:    0.00 PKD
ROOT
HETATM    1  C   UNL     1      -8.786  16.295  69.374  1.00  0.00    -0.044 C  
HETATM    2  C   UNL     1      -7.969  15.231  69.810  1.00  0.00    -0.039 C  
HETATM    3  C   UNL     1      -7.650  15.611  68.387  1.00  0.00    -0.121 C  
HETATM    4  C   UNL     1      -8.368  17.424  67.716  1.00  0.00    -0.218 C  
HETATM    5  C   UNL     1      -7.310  17.157  68.543  1.00  0.00    -0.231 C  
HETATM    6  C   UNL     1      -7.793  18.909  67.316  1.00  0.00    -0.250 C  
HETATM    7  C   UNL     1      -6.767  16.624  66.777  1.00  0.00    -0.241 C  
HETATM    8  C   UNL     1      -6.343  17.890  69.440  1.00  0.00    -0.239 C  
HETATM    9  C   UNL     1      -8.970  19.686  66.768  1.00  0.00    -0.415 C  
HETATM   10  C   UNL     1     -10.091  18.915  67.344  1.00  0.00    -0.361 C  
HETATM   11  C   UNL     1      -8.176  16.008  65.866  1.00  0.00     0.460 C  
HETATM   12  C   UNL     1      -9.475  15.157  66.618  1.00  0.00    -0.285 C  
HETATM   13  O   UNL     1      -9.589  18.011  68.238  1.00  0.00    -0.291 OA 
HETATM   14  O   UNL     1     -11.273  19.100  67.118  1.00  0.00    -0.271 OA 
HETATM   15  C   UNL     1      -9.994  15.567  68.179  1.00  0.00    -0.217 C  
HETATM   16  C   UNL     1     -10.908  14.441  68.767  1.00  0.00    -0.251 C  
HETATM   17  C   UNL     1     -11.390  16.127  65.179  1.00  0.00    -0.030 C  
HETATM   18  C   UNL     1     -12.157  14.388  67.858  1.00  0.00    -0.280 C  
HETATM   19  C   UNL     1     -11.837  14.043  66.412  1.00  0.00    -0.437 C  
HETATM   20  C   UNL     1     -10.714  14.831  65.674  1.00  0.00    -0.345 C  
HETATM   21  C   UNL     1     -10.168  14.053  64.415  1.00  0.00     0.168 C  
HETATM   22  C   UNL     1     -12.604  13.120  65.801  1.00  0.00    -0.351 C  
HETATM   23  C   UNL     1     -10.808  12.703  64.123  1.00  0.00    -0.431 C  
HETATM   24  C   UNL     1     -12.273  12.759  64.415  1.00  0.00    -0.428 C  
HETATM   25  O   UNL     1     -13.147  12.465  63.609  1.00  0.00    -0.748 OA 
ENDROOT
BRANCH  16  26
HETATM   26  S   UNL     1     -10.162  12.749  68.843  1.00  0.00     0.113 SA 
BRANCH  26  27
HETATM   27  C   UNL     1     -11.582  11.785  69.223  1.00  0.00    -0.315 C  
HETATM   28  C   UNL     1     -12.094  11.962  70.624  1.00  0.00    -0.389 C  
HETATM   29  O   UNL     1     -12.121  11.066  68.394  1.00  0.00    -0.594 OA 
ENDBRANCH  26  27
ENDBRANCH  16  26
TORSDOF 2
ENDMDL
MODEL       11
REMARK 921   NORMALIZED FREE ENERGY PREDICTED BY IDOCK:   -5.87 KCAL/MOL
REMARK 922        TOTAL FREE ENERGY PREDICTED BY IDOCK:   -7.14 KCAL/MOL
REMARK 923 INTER-LIGAND FREE ENERGY PREDICTED BY IDOCK:   -6.82 KCAL/MOL
REMARK 924 INTRA-LIGAND FREE ENERGY PREDICTED BY IDOCK:   -0.31 KCAL/MOL
REMARK 927      BINDING AFFINITY PREDICTED BY RF-SCORE:    0.00 PKD
ROOT
HETATM    1  C   UNL     1      -9.232  13.270  67.012  1.00  0.00    -0.237 C  
HETATM    2  C   UNL     1      -8.602  12.875  68.211  1.00  0.00    -0.170 C  
HETATM    3  C   UNL     1      -9.848  13.673  68.492  1.00  0.00    -0.196 C  
HETATM    4  C   UNL     1     -11.169  13.936  66.929  1.00  0.00    -0.312 C  
HETATM    5  C   UNL     1     -10.946  12.830  67.707  1.00  0.00    -0.266 C  
HETATM    6  C   UNL     1     -12.658  13.420  66.471  1.00  0.00    -0.101 C  
HETATM    7  C   UNL     1     -11.877  14.096  68.815  1.00  0.00    -0.384 C  
HETATM    8  C   UNL     1     -11.318  11.369  67.755  1.00  0.00    -0.354 C  
HETATM    9  C   UNL     1     -13.008  14.193  65.218  1.00  0.00    -0.268 C  
HETATM   10  C   UNL     1     -11.661  14.610  64.777  1.00  0.00    -0.418 C  
HETATM   11  C   UNL     1     -11.403  15.760  68.371  1.00  0.00    -0.372 C  
HETATM   12  C   UNL     1      -9.821  16.164  67.815  1.00  0.00    -0.232 C  
HETATM   13  O   UNL     1     -10.729  13.971  65.546  1.00  0.00    -0.290 OA 
HETATM   14  O   UNL     1     -11.414  15.345  63.838  1.00  0.00    -0.065 OA 
HETATM   15  C   UNL     1      -8.939  15.088  66.846  1.00  0.00    -0.276 C  
HETATM   16  C   UNL     1      -7.434  15.512  66.784  1.00  0.00     0.054 C  
HETATM   17  C   UNL     1     -10.518  17.948  66.080  1.00  0.00    -0.321 C  
HETATM   18  C   UNL     1      -7.408  16.893  66.091  1.00  0.00    -0.159 C  
HETATM   19  C   UNL     1      -8.179  17.962  66.848  1.00  0.00    -0.256 C  
HETATM   20  C   UNL     1      -9.635  17.663  67.313  1.00  0.00    -0.271 C  
HETATM   21  C   UNL     1     -10.098  18.621  68.478  1.00  0.00    -0.426 C  
HETATM   22  C   UNL     1      -7.593  19.164  67.011  1.00  0.00    -0.242 C  
HETATM   23  C   UNL     1      -9.087  19.659  68.944  1.00  0.00    -0.281 C  
HETATM   24  C   UNL     1      -8.321  20.188  67.774  1.00  0.00    -0.256 C  
HETATM   25  O   UNL     1      -8.231  21.375  67.491  1.00  0.00    -0.090 OA 
ENDROOT
BRANCH  16  26
HETATM   26  S   UNL     1      -6.565  15.652  68.411  1.00  0.00    -0.123 SA 
BRANCH  26  27
HETATM   27  C   UNL     1      -5.552  14.215  68.364  1.00  0.00    -0.106 C  
HETATM   28  C   UNL     1      -5.251  13.626  69.712  1.00  0.00    -0.087 C  
HETATM   29  O   UNL     1      -5.166  13.726  67.312  1.00  0.00    -0.318 OA 
ENDBRANCH  26  27
ENDBRANCH  16  26
TORSDOF 2
ENDMDL
MODEL       12
REMARK 921   NORMALIZED FREE ENERGY PREDICTED BY IDOCK:   -5.78 KCAL/MOL
REMARK 922        TOTAL FREE ENERGY PREDICTED BY IDOCK:   -7.03 KCAL/MOL
REMARK 923 INTER-LIGAND FREE ENERGY PREDICTED BY IDOCK:   -6.61 KCAL/MOL
REMARK 924 INTRA-LIGAND FREE ENERGY PREDICTED BY IDOCK:   -0.41 KCAL/MOL
REMARK 927      BINDING AFFINITY PREDICTED BY RF-SCORE:    0.00 PKD
ROOT
HETATM    1  C   UNL     1     -11.732  11.864  68.016  1.00  0.00    -0.382 C  
HETATM    2  C   UNL     1     -11.544  11.942  69.411  1.00  0.00    -0.388 C  
HETATM    3  C   UNL     1     -10.350  12.489  68.673  1.00  0.00    -0.193 C  
HETATM    4  C   UNL     1     -10.599  12.915  66.670  1.00  0.00    -0.261 C  
HETATM    5  C   UNL     1     -11.026  13.611  67.769  1.00  0.00    -0.276 C  
HETATM    6  C   UNL     1     -10.704  14.228  65.690  1.00  0.00    -0.321 C  
HETATM    7  C   UNL     1      -9.123  13.864  67.672  1.00  0.00    -0.197 C  
HETATM    8  C   UNL     1     -11.925  14.774  68.112  1.00  0.00    -0.265 C  
HETATM    9  C   UNL     1     -10.751  13.698  64.274  1.00  0.00    -0.280 C  
HETATM   10  C   UNL     1     -11.192  12.310  64.523  1.00  0.00    -0.326 C  
HETATM   11  C   UNL     1      -8.345  12.397  67.012  1.00  0.00    -0.157 C  
HETATM   12  C   UNL     1      -8.948  10.808  67.305  1.00  0.00    -0.143 C  
HETATM   13  O   UNL     1     -11.542  12.189  65.838  1.00  0.00    -0.373 OA 
HETATM   14  O   UNL     1     -11.298  11.434  63.683  1.00  0.00    -0.386 OA 
HETATM   15  C   UNL     1     -10.615  10.518  67.416  1.00  0.00    -0.313 C  
HETATM   16  C   UNL     1     -10.887   9.108  68.039  1.00  0.00    -0.075 C  
HETATM   17  C   UNL     1      -8.417   9.812  64.981  1.00  0.00    -0.161 C  
HETATM   18  C   UNL     1     -10.299   8.081  67.043  1.00  0.00    -0.414 C  
HETATM   19  C   UNL     1      -8.801   8.235  66.833  1.00  0.00    -0.155 C  
HETATM   20  C   UNL     1      -8.221   9.642  66.501  1.00  0.00    -0.119 C  
HETATM   21  C   UNL     1      -6.677   9.738  66.808  1.00  0.00    -0.079 C  
HETATM   22  C   UNL     1      -8.045   7.121  66.858  1.00  0.00    -0.116 C  
HETATM   23  C   UNL     1      -6.015   8.480  67.354  1.00  0.00    -0.047 C  
HETATM   24  C   UNL     1      -6.592   7.271  66.691  1.00  0.00    -0.056 C  
HETATM   25  O   UNL     1      -5.928   6.422  66.111  1.00  0.00    -0.024 OA 
ENDROOT
BRANCH  16  26
HETATM   26  S   UNL     1     -10.145   8.802  69.706  1.00  0.00    -0.202 SA 
BRANCH  26  27
HETATM   27  C   UNL     1     -11.528   8.129  70.558  1.00  0.00    -0.178 C  
HETATM   28  C   UNL     1     -11.746   6.662  70.322  1.00  0.00    -0.432 C  
HETATM   29  O   UNL     1     -12.221   8.802  71.308  1.00  0.00    -0.295 OA 
ENDBRANCH  26  27
ENDBRANCH  16  26
TORSDOF 2
ENDMDL
MODEL       13
REMARK 921   NORMALIZED FREE ENERGY PREDICTED BY IDOCK:   -5.74 KCAL/MOL
REMARK 922        TOTAL FREE ENERGY PREDICTED BY IDOCK:   -6.98 KCAL/MOL
REMARK 923 INTER-LIGAND FREE ENERGY PREDICTED BY IDOCK:   -6.62 KCAL/MOL
REMARK 924 INTRA-LIGAND FREE ENERGY PREDICTED BY IDOCK:   -0.36 KCAL/MOL
REMARK 927      BINDING AFFINITY PREDICTED BY RF-SCORE:    0.00 PKD
ROOT
HETATM    1  C   UNL     1      -9.266  10.168  69.685  1.00  0.00    -0.206 C  
HETATM    2  C   UNL     1     -10.439   9.777  70.363  1.00  0.00    -0.358 C  
HETATM    3  C   UNL     1     -10.413   9.223  68.962  1.00  0.00    -0.233 C  
HETATM    4  C   UNL     1      -8.605   9.259  67.971  1.00  0.00    -0.121 C  
HETATM    5  C   UNL     1      -9.038   8.423  68.966  1.00  0.00    -0.147 C  
HETATM    6  C   UNL     1      -7.450   8.207  67.470  1.00  0.00    -0.094 C  
HETATM    7  C   UNL     1      -9.993   7.917  67.377  1.00  0.00    -0.261 C  
HETATM    8  C   UNL     1      -8.492   7.362  69.889  1.00  0.00    -0.139 C  
HETATM    9  C   UNL     1      -6.456   9.017  66.667  1.00  0.00    -0.067 C  
HETATM   10  C   UNL     1      -6.747  10.374  67.174  1.00  0.00    -0.078 C  
HETATM   11  C   UNL     1     -10.299   9.356  66.363  1.00  0.00    -0.237 C  
HETATM   12  C   UNL     1     -10.583  10.923  67.027  1.00  0.00    -0.307 C  
HETATM   13  O   UNL     1      -7.600  10.273  68.238  1.00  0.00    -0.088 OA 
HETATM   14  O   UNL     1      -6.256  11.410  66.762  1.00  0.00    -0.118 OA 
HETATM   15  C   UNL     1      -9.784  11.428  68.435  1.00  0.00    -0.203 C  
HETATM   16  C   UNL     1     -10.469  12.704  69.027  1.00  0.00     0.007 C  
HETATM   17  C   UNL     1      -9.333  12.285  65.222  1.00  0.00     0.169 C  
HETATM   18  C   UNL     1     -10.293  13.814  67.966  1.00  0.00    -0.246 C  
HETATM   19  C   UNL     1     -10.952  13.487  66.636  1.00  0.00    -0.293 C  
HETATM   20  C   UNL     1     -10.672  12.108  65.968  1.00  0.00    -0.308 C  
HETATM   21  C   UNL     1     -11.775  11.723  64.908  1.00  0.00    -0.187 C  
HETATM   22  C   UNL     1     -11.689  14.447  66.046  1.00  0.00    -0.378 C  
HETATM   23  C   UNL     1     -12.898  12.730  64.704  1.00  0.00    -0.355 C  
HETATM   24  C   UNL     1     -12.357  14.121  64.777  1.00  0.00    -0.417 C  
HETATM   25  O   UNL     1     -12.503  14.964  63.901  1.00  0.00    -0.806 OA 
ENDROOT
BRANCH  16  26
HETATM   26  S   UNL     1     -12.269  12.547  69.422  1.00  0.00     0.050 SA 
BRANCH  26  27
HETATM   27  C   UNL     1     -12.350  13.446  70.932  1.00  0.00    -0.353 C  
HETATM   28  C   UNL     1     -13.164  12.782  72.005  1.00  0.00    -0.538 C  
HETATM   29  O   UNL     1     -11.755  14.502  71.092  1.00  0.00    -0.314 OA 
ENDBRANCH  26  27
ENDBRANCH  16  26
TORSDOF 2
ENDMDL
MODEL       14
REMARK 921   NORMALIZED FREE ENERGY PREDICTED BY IDOCK:   -5.55 KCAL/MOL
REMARK 922        TOTAL FREE ENERGY PREDICTED BY IDOCK:   -6.78 KCAL/MOL
REMARK 923 INTER-LIGAND FREE ENERGY PREDICTED BY IDOCK:   -6.32 KCAL/MOL
REMARK 924 INTRA-LIGAND FREE ENERGY PREDICTED BY IDOCK:   -0.46 KCAL/MOL
REMARK 927      BINDING AFFINITY PREDICTED BY RF-SCORE:    0.00 PKD
ROOT
HETATM    1  C   UNL     1      -7.604   8.443  69.640  1.00  0.00    -0.089 C  
HETATM    2  C   UNL     1      -6.823   9.099  70.614  1.00  0.00    -0.084 C  
HETATM    3  C   UNL     1      -8.291   9.208  70.935  1.00  0.00    -0.231 C  
HETATM    4  C   UNL     1      -9.569   7.937  69.933  1.00  0.00    -0.168 C  
HETATM    5  C   UNL     1      -8.719   7.677  70.976  1.00  0.00    -0.137 C  
HETATM    6  C   UNL     1     -10.495   6.618  70.246  1.00  0.00    -0.247 C  
HETATM    7  C   UNL     1     -10.175   8.700  71.703  1.00  0.00    -0.366 C  
HETATM    8  C   UNL     1      -8.170   6.497  71.740  1.00  0.00    -0.112 C  
HETATM    9  C   UNL     1     -11.270   6.333  68.978  1.00  0.00    -0.415 C  
HETATM   10  C   UNL     1     -10.432   7.042  67.988  1.00  0.00    -0.208 C  
HETATM   11  C   UNL     1     -10.772   9.863  70.485  1.00  0.00    -0.382 C  
HETATM   12  C   UNL     1      -9.739  10.614  69.325  1.00  0.00    -0.181 C  
HETATM   13  O   UNL     1      -9.277   7.445  68.598  1.00  0.00    -0.144 OA 
HETATM   14  O   UNL     1     -10.690   7.182  66.806  1.00  0.00    -0.307 OA 
HETATM   15  C   UNL     1      -8.429   9.773  68.655  1.00  0.00    -0.116 C  
HETATM   16  C   UNL     1      -7.454  10.761  67.933  1.00  0.00    -0.090 C  
HETATM   17  C   UNL     1     -11.401  10.619  67.346  1.00  0.00    -0.185 C  
HETATM   18  C   UNL     1      -8.258  11.379  66.766  1.00  0.00    -0.160 C  
HETATM   19  C   UNL     1      -9.482  12.157  67.224  1.00  0.00    -0.184 C  
HETATM   20  C   UNL     1     -10.477  11.491  68.221  1.00  0.00    -0.219 C  
HETATM   21  C   UNL     1     -11.371  12.554  68.969  1.00  0.00    -0.342 C  
HETATM   22  C   UNL     1      -9.699  13.367  66.674  1.00  0.00    -0.275 C  
HETATM   23  C   UNL     1     -11.137  14.013  68.606  1.00  0.00    -0.286 C  
HETATM   24  C   UNL     1     -10.861  14.137  67.142  1.00  0.00    -0.290 C  
HETATM   25  O   UNL     1     -11.487  14.865  66.383  1.00  0.00    -0.344 OA 
ENDROOT
BRANCH  16  26
HETATM   26  S   UNL     1      -6.775  12.133  68.972  1.00  0.00    -0.097 SA 
BRANCH  26  27
HETATM   27  C   UNL     1      -5.990  13.114  67.742  1.00  0.00    -0.148 C  
HETATM   28  C   UNL     1      -6.432  14.550  67.720  1.00  0.00    -0.181 C  
HETATM   29  O   UNL     1      -5.130  12.662  66.999  1.00  0.00    -0.330 OA 
ENDBRANCH  26  27
ENDBRANCH  16  26
TORSDOF 2
ENDMDL
MODEL       15
REMARK 921   NORMALIZED FREE ENERGY PREDICTED BY IDOCK:   -5.54 KCAL/MOL
REMARK 922        TOTAL FREE ENERGY PREDICTED BY IDOCK:   -6.76 KCAL/MOL
REMARK 923 INTER-LIGAND FREE ENERGY PREDICTED BY IDOCK:   -6.27 KCAL/MOL
REMARK 924 INTRA-LIGAND FREE ENERGY PREDICTED BY IDOCK:   -0.49 KCAL/MOL
REMARK 927      BINDING AFFINITY PREDICTED BY RF-SCORE:    0.00 PKD
ROOT
HETATM    1  C   UNL     1     -11.162  10.090  70.846  1.00  0.00    -0.415 C  
HETATM    2  C   UNL     1     -12.238  10.346  69.972  1.00  0.00    -0.262 C  
HETATM    3  C   UNL     1     -11.993   8.866  70.109  1.00  0.00     0.328 C  
HETATM    4  C   UNL     1     -10.809   8.251  71.682  1.00  0.00    -0.256 C  
HETATM    5  C   UNL     1     -12.112   8.672  71.684  1.00  0.00    -0.385 C  
HETATM    6  C   UNL     1     -10.968   7.469  73.116  1.00  0.00    -0.420 C  
HETATM    7  C   UNL     1     -12.107   6.922  70.888  1.00  0.00    -0.424 C  
HETATM    8  C   UNL     1     -13.193   9.051  72.667  1.00  0.00    -0.375 C  
HETATM    9  C   UNL     1      -9.566   7.277  73.653  1.00  0.00    -0.315 C  
HETATM   10  C   UNL     1      -8.845   8.319  72.893  1.00  0.00    -0.232 C  
HETATM   11  C   UNL     1     -10.593   6.673  69.972  1.00  0.00    -0.266 C  
HETATM   12  C   UNL     1      -9.778   7.951  69.148  1.00  0.00    -0.162 C  
HETATM   13  O   UNL     1      -9.757   9.090  72.229  1.00  0.00    -0.260 OA 
HETATM   14  O   UNL     1      -7.642   8.509  72.911  1.00  0.00    -0.297 OA 
HETATM   15  C   UNL     1      -9.756   9.521  69.788  1.00  0.00    -0.234 C  
HETATM   16  C   UNL     1      -9.287  10.549  68.705  1.00  0.00    -0.180 C  
HETATM   17  C   UNL     1      -7.361   7.176  69.632  1.00  0.00    -0.085 C  
HETATM   18  C   UNL     1      -7.831  10.166  68.356  1.00  0.00    -0.093 C  
HETATM   19  C   UNL     1      -7.698   8.765  67.781  1.00  0.00    -0.102 C  
HETATM   20  C   UNL     1      -8.363   7.570  68.527  1.00  0.00    -0.126 C  
HETATM   21  C   UNL     1      -8.572   6.321  67.587  1.00  0.00    -0.114 C  
HETATM   22  C   UNL     1      -6.929   8.604  66.686  1.00  0.00    -0.079 C  
HETATM   23  C   UNL     1      -8.098   6.469  66.148  1.00  0.00    -0.118 C  
HETATM   24  C   UNL     1      -6.828   7.257  66.107  1.00  0.00    -0.057 C  
HETATM   25  O   UNL     1      -5.794   6.868  65.580  1.00  0.00    -0.033 OA 
ENDROOT
BRANCH  16  26
HETATM   26  S   UNL     1     -10.277  10.587  67.143  1.00  0.00    -0.235 SA 
BRANCH  26  27
HETATM   27  C   UNL     1     -10.975  12.198  67.240  1.00  0.00    -0.260 C  
HETATM   28  C   UNL     1     -10.080  13.223  67.874  1.00  0.00    -0.235 C  
HETATM   29  O   UNL     1     -12.082  12.455  66.788  1.00  0.00    -0.578 OA 
ENDBRANCH  26  27
ENDBRANCH  16  26
TORSDOF 2
ENDMDL
MODEL       16
REMARK 921   NORMALIZED FREE ENERGY PREDICTED BY IDOCK:   -5.52 KCAL/MOL
REMARK 922        TOTAL FREE ENERGY PREDICTED BY IDOCK:   -6.74 KCAL/MOL
REMARK 923 INTER-LIGAND FREE ENERGY PREDICTED BY IDOCK:   -6.24 KCAL/MOL
REMARK 924 INTRA-LIGAND FREE ENERGY PREDICTED BY IDOCK:   -0.50 KCAL/MOL
REMARK 927      BINDING AFFINITY PREDICTED BY RF-SCORE:    0.00 PKD
ROOT
HETATM    1  C   UNL     1      -9.386   9.369  64.499  1.00  0.00    -0.072 C  
HETATM    2  C   UNL     1      -9.099  10.099  63.327  1.00  0.00    -0.293 C  
HETATM    3  C   UNL     1      -7.960  10.182  64.310  1.00  0.00    -0.155 C  
HETATM    4  C   UNL     1      -7.954   8.822  65.859  1.00  0.00    -0.104 C  
HETATM    5  C   UNL     1      -7.630   8.643  64.541  1.00  0.00    -0.113 C  
HETATM    6  C   UNL     1      -7.113   7.495  66.336  1.00  0.00    -0.071 C  
HETATM    7  C   UNL     1      -6.197   9.661  65.320  1.00  0.00    -0.079 C  
HETATM    8  C   UNL     1      -7.322   7.523  63.577  1.00  0.00    -0.090 C  
HETATM    9  C   UNL     1      -7.648   7.120  67.700  1.00  0.00    -0.110 C  
HETATM   10  C   UNL     1      -8.960   7.798  67.668  1.00  0.00    -0.127 C  
HETATM   11  C   UNL     1      -6.837  10.739  66.594  1.00  0.00    -0.125 C  
HETATM   12  C   UNL     1      -8.404  11.456  66.511  1.00  0.00    -0.164 C  
HETATM   13  O   UNL     1      -9.182   8.267  66.403  1.00  0.00    -0.171 OA 
HETATM   14  O   UNL     1      -9.750   7.867  68.592  1.00  0.00    -0.153 OA 
HETATM   15  C   UNL     1      -9.708  10.618  65.823  1.00  0.00    -0.272 C  
HETATM   16  C   UNL     1     -10.897  11.594  65.536  1.00  0.00    -0.279 C  
HETATM   17  C   UNL     1      -8.978  11.306  69.026  1.00  0.00     0.024 C  
HETATM   18  C   UNL     1     -11.356  12.124  66.913  1.00  0.00    -0.402 C  
HETATM   19  C   UNL     1     -10.273  12.890  67.656  1.00  0.00    -0.220 C  
HETATM   20  C   UNL     1      -8.861  12.251  67.812  1.00  0.00    -0.174 C  
HETATM   21  C   UNL     1      -7.752  13.325  68.134  1.00  0.00    -0.143 C  
HETATM   22  C   UNL     1     -10.611  14.062  68.227  1.00  0.00    -0.253 C  
HETATM   23  C   UNL     1      -8.220  14.769  68.247  1.00  0.00    -0.142 C  
HETATM   24  C   UNL     1      -9.556  14.822  68.915  1.00  0.00    -0.210 C  
HETATM   25  O   UNL     1      -9.802  15.489  69.912  1.00  0.00    -0.286 OA 
ENDROOT
BRANCH  16  26
HETATM   26  S   UNL     1     -10.514  13.040  64.446  1.00  0.00    -0.376 SA 
BRANCH  26  27
HETATM   27  C   UNL     1     -12.040  13.216  63.592  1.00  0.00    -0.513 C  
HETATM   28  C   UNL     1     -12.704  11.917  63.235  1.00  0.00    -0.407 C  
HETATM   29  O   UNL     1     -12.528  14.312  63.351  1.00  0.00    -0.761 OA 
ENDBRANCH  26  27
ENDBRANCH  16  26
TORSDOF 2
ENDMDL
MODEL       17
REMARK 921   NORMALIZED FREE ENERGY PREDICTED BY IDOCK:   -5.52 KCAL/MOL
REMARK 922        TOTAL FREE ENERGY PREDICTED BY IDOCK:   -6.74 KCAL/MOL
REMARK 923 INTER-LIGAND FREE ENERGY PREDICTED BY IDOCK:   -6.29 KCAL/MOL
REMARK 924 INTRA-LIGAND FREE ENERGY PREDICTED BY IDOCK:   -0.45 KCAL/MOL
REMARK 927      BINDING AFFINITY PREDICTED BY RF-SCORE:    0.00 PKD
ROOT
HETATM    1  C   UNL     1      -8.780   9.463  68.996  1.00  0.00    -0.136 C  
HETATM    2  C   UNL     1      -9.888   8.738  69.482  1.00  0.00    -0.180 C  
HETATM    3  C   UNL     1      -9.698   8.511  68.004  1.00  0.00    -0.180 C  
HETATM    4  C   UNL     1      -7.887   9.073  67.193  1.00  0.00    -0.099 C  
HETATM    5  C   UNL     1      -8.199   7.980  67.958  1.00  0.00    -0.129 C  
HETATM    6  C   UNL     1      -6.535   8.369  66.584  1.00  0.00    -0.056 C  
HETATM    7  C   UNL     1      -8.973   7.669  66.226  1.00  0.00    -0.203 C  
HETATM    8  C   UNL     1      -7.505   6.856  68.687  1.00  0.00    -0.099 C  
HETATM    9  C   UNL     1      -5.676   9.493  66.048  1.00  0.00    -0.049 C  
HETATM   10  C   UNL     1      -6.237  10.638  66.794  1.00  0.00    -0.076 C  
HETATM   11  C   UNL     1      -9.497   9.218  65.505  1.00  0.00    -0.309 C  
HETATM   12  C   UNL     1     -10.098  10.531  66.448  1.00  0.00    -0.285 C  
HETATM   13  O   UNL     1      -7.101  10.164  67.742  1.00  0.00    -0.084 OA 
HETATM   14  O   UNL     1      -5.930  11.806  66.644  1.00  0.00    -0.144 OA 
HETATM   15  C   UNL     1      -9.469  10.853  67.990  1.00  0.00    -0.167 C  
HETATM   16  C   UNL     1     -10.405  11.833  68.771  1.00  0.00    -0.179 C  
HETATM   17  C   UNL     1      -9.047  12.446  65.066  1.00  0.00     0.663 C  
HETATM   18  C   UNL     1     -10.394  13.158  67.976  1.00  0.00    -0.240 C  
HETATM   19  C   UNL     1     -10.922  13.015  66.558  1.00  0.00    -0.307 C  
HETATM   20  C   UNL     1     -10.360  11.882  65.648  1.00  0.00    -0.285 C  
HETATM   21  C   UNL     1     -11.325  11.549  64.445  1.00  0.00    -0.283 C  
HETATM   22  C   UNL     1     -11.799  13.938  66.117  1.00  0.00    -0.422 C  
HETATM   23  C   UNL     1     -12.606  12.366  64.359  1.00  0.00    -0.489 C  
HETATM   24  C   UNL     1     -12.338  13.781  64.758  1.00  0.00    -0.386 C  
HETATM   25  O   UNL     1     -12.601  14.754  64.063  1.00  0.00    -0.822 OA 
ENDROOT
BRANCH  16  26
HETATM   26  S   UNL     1     -12.160  11.285  68.977  1.00  0.00    -0.143 SA 
BRANCH  26  27
HETATM   27  C   UNL     1     -12.406  11.618  70.686  1.00  0.00    -0.344 C  
HETATM   28  C   UNL     1     -12.591  10.394  71.536  1.00  0.00    -0.544 C  
HETATM   29  O   UNL     1     -12.386  12.755  71.136  1.00  0.00    -0.314 OA 
ENDBRANCH  26  27
ENDBRANCH  16  26
TORSDOF 2
ENDMDL
MODEL       18
REMARK 921   NORMALIZED FREE ENERGY PREDICTED BY IDOCK:   -5.50 KCAL/MOL
REMARK 922        TOTAL FREE ENERGY PREDICTED BY IDOCK:   -6.72 KCAL/MOL
REMARK 923 INTER-LIGAND FREE ENERGY PREDICTED BY IDOCK:   -6.18 KCAL/MOL
REMARK 924 INTRA-LIGAND FREE ENERGY PREDICTED BY IDOCK:   -0.54 KCAL/MOL
REMARK 927      BINDING AFFINITY PREDICTED BY RF-SCORE:    0.00 PKD
ROOT
HETATM    1  C   UNL     1      -9.044  12.698  67.431  1.00  0.00    -0.191 C  
HETATM    2  C   UNL     1      -8.646  12.448  68.760  1.00  0.00     0.147 C  
HETATM    3  C   UNL     1      -9.986  13.135  68.717  1.00  0.00    -0.038 C  
HETATM    4  C   UNL     1     -10.970  13.160  66.905  1.00  0.00    -0.276 C  
HETATM    5  C   UNL     1     -10.822  12.136  67.803  1.00  0.00    -0.263 C  
HETATM    6  C   UNL     1     -12.284  12.469  66.203  1.00  0.00    -0.215 C  
HETATM    7  C   UNL     1     -12.066  13.373  68.589  1.00  0.00    -0.281 C  
HETATM    8  C   UNL     1     -11.071  10.651  67.900  1.00  0.00    -0.371 C  
HETATM    9  C   UNL     1     -12.430  13.117  64.844  1.00  0.00    -0.490 C  
HETATM   10  C   UNL     1     -11.060  13.637  64.648  1.00  0.00    -0.381 C  
HETATM   11  C   UNL     1     -11.652  15.044  68.108  1.00  0.00    -0.360 C  
HETATM   12  C   UNL     1     -10.028  15.566  67.848  1.00  0.00    -0.218 C  
HETATM   13  O   UNL     1     -10.257  13.146  65.639  1.00  0.00    -0.281 OA 
HETATM   14  O   UNL     1     -10.687  14.328  63.717  1.00  0.00     0.561 OA 
HETATM   15  C   UNL     1      -8.877  14.521  67.171  1.00  0.00    -0.245 C  
HETATM   16  C   UNL     1      -7.433  15.088  67.377  1.00  0.00    -0.205 C  
HETATM   17  C   UNL     1     -10.498  17.152  65.863  1.00  0.00    -0.265 C  
HETATM   18  C   UNL     1      -7.380  16.415  66.587  1.00  0.00    -0.241 C  
HETATM   19  C   UNL     1      -8.378  17.450  67.080  1.00  0.00    -0.232 C  
HETATM   20  C   UNL     1      -9.869  17.039  67.267  1.00  0.00    -0.260 C  
HETATM   21  C   UNL     1     -10.643  18.021  68.229  1.00  0.00    -0.299 C  
HETATM   22  C   UNL     1      -7.942  18.713  67.253  1.00  0.00    -0.245 C  
HETATM   23  C   UNL     1      -9.841  19.184  68.798  1.00  0.00    -0.502 C  
HETATM   24  C   UNL     1      -8.897  19.707  67.764  1.00  0.00    -0.322 C  
HETATM   25  O   UNL     1      -8.850  20.876  67.404  1.00  0.00    -0.249 OA 
ENDROOT
BRANCH  16  26
HETATM   26  S   UNL     1      -6.935  15.422  69.127  1.00  0.00    -0.169 SA 
BRANCH  26  27
HETATM   27  C   UNL     1      -5.663  14.227  69.337  1.00  0.00    -0.092 C  
HETATM   28  C   UNL     1      -5.146  13.641  68.055  1.00  0.00    -0.104 C  
HETATM   29  O   UNL     1      -5.219  13.938  70.439  1.00  0.00    -0.095 OA 
ENDBRANCH  26  27
ENDBRANCH  16  26
TORSDOF 2
ENDMDL
MODEL       19
REMARK 921   NORMALIZED FREE ENERGY PREDICTED BY IDOCK:   -5.50 KCAL/MOL
REMARK 922        TOTAL FREE ENERGY PREDICTED BY IDOCK:   -6.71 KCAL/MOL
REMARK 923 INTER-LIGAND FREE ENERGY PREDICTED BY IDOCK:   -6.24 KCAL/MOL
REMARK 924 INTRA-LIGAND FREE ENERGY PREDICTED BY IDOCK:   -0.48 KCAL/MOL
REMARK 927      BINDING AFFINITY PREDICTED BY RF-SCORE:    0.00 PKD
ROOT
HETATM    1  C   UNL     1     -11.530  10.368  68.175  1.00  0.00    -0.194 C  
HETATM    2  C   UNL     1     -12.095  11.118  69.226  1.00  0.00    -0.377 C  
HETATM    3  C   UNL     1     -10.680  11.557  68.947  1.00  0.00    -0.245 C  
HETATM    4  C   UNL     1      -9.842  10.944  67.165  1.00  0.00    -0.184 C  
HETATM    5  C   UNL     1     -10.766  11.927  67.402  1.00  0.00    -0.271 C  
HETATM    6  C   UNL     1      -9.397  11.590  65.723  1.00  0.00    -0.238 C  
HETATM    7  C   UNL     1      -9.086  12.591  68.061  1.00  0.00    -0.200 C  
HETATM    8  C   UNL     1     -11.689  12.842  66.635  1.00  0.00    -0.459 C  
HETATM    9  C   UNL     1      -8.709  10.482  64.956  1.00  0.00    -0.193 C  
HETATM   10  C   UNL     1      -9.242   9.298  65.662  1.00  0.00    -0.231 C  
HETATM   11  C   UNL     1      -8.106  11.241  68.702  1.00  0.00    -0.145 C  
HETATM   12  C   UNL     1      -8.804   9.864  69.473  1.00  0.00    -0.208 C  
HETATM   13  O   UNL     1     -10.228   9.703  66.518  1.00  0.00    -0.239 OA 
HETATM   14  O   UNL     1      -8.911   8.143  65.466  1.00  0.00    -0.137 OA 
HETATM   15  C   UNL     1     -10.290   9.237  68.951  1.00  0.00    -0.231 C  
HETATM   16  C   UNL     1     -10.873   8.248  70.015  1.00  0.00    -0.232 C  
HETATM   17  C   UNL     1      -7.159   8.095  68.554  1.00  0.00    -0.076 C  
HETATM   18  C   UNL     1      -9.873   7.073  70.098  1.00  0.00    -0.179 C  
HETATM   19  C   UNL     1      -8.482   7.495  70.543  1.00  0.00    -0.133 C  
HETATM   20  C   UNL     1      -7.787   8.693  69.831  1.00  0.00    -0.093 C  
HETATM   21  C   UNL     1      -6.627   9.314  70.701  1.00  0.00    -0.079 C  
HETATM   22  C   UNL     1      -7.870   6.752  71.486  1.00  0.00    -0.101 C  
HETATM   23  C   UNL     1      -6.370   8.661  72.052  1.00  0.00    -0.073 C  
HETATM   24  C   UNL     1      -6.540   7.180  71.944  1.00  0.00    -0.051 C  
HETATM   25  O   UNL     1      -5.688   6.364  72.270  1.00  0.00    -0.036 OA 
ENDROOT
BRANCH  16  26
HETATM   26  S   UNL     1     -11.114   8.938  71.715  1.00  0.00    -0.377 SA 
BRANCH  26  27
HETATM   27  C   UNL     1     -12.843   8.694  71.922  1.00  0.00    -0.369 C  
HETATM   28  C   UNL     1     -13.329   7.333  71.512  1.00  0.00    -0.435 C  
HETATM   29  O   UNL     1     -13.569   9.555  72.398  1.00  0.00    -0.452 OA 
ENDBRANCH  26  27
ENDBRANCH  16  26
TORSDOF 2
ENDMDL
MODEL       20
REMARK 921   NORMALIZED FREE ENERGY PREDICTED BY IDOCK:   -5.46 KCAL/MOL
REMARK 922        TOTAL FREE ENERGY PREDICTED BY IDOCK:   -6.68 KCAL/MOL
REMARK 923 INTER-LIGAND FREE ENERGY PREDICTED BY IDOCK:   -6.31 KCAL/MOL
REMARK 924 INTRA-LIGAND FREE ENERGY PREDICTED BY IDOCK:   -0.36 KCAL/MOL
REMARK 927      BINDING AFFINITY PREDICTED BY RF-SCORE:    0.00 PKD
ROOT
HETATM    1  C   UNL     1     -10.312   9.013  68.142  1.00  0.00    -0.262 C  
HETATM    2  C   UNL     1     -10.035  10.208  68.838  1.00  0.00    -0.207 C  
HETATM    3  C   UNL     1      -8.878   9.247  68.931  1.00  0.00    -0.135 C  
HETATM    4  C   UNL     1      -8.863   7.664  67.610  1.00  0.00    -0.125 C  
HETATM    5  C   UNL     1      -8.564   8.983  67.394  1.00  0.00    -0.115 C  
HETATM    6  C   UNL     1      -8.030   7.169  66.284  1.00  0.00    -0.110 C  
HETATM    7  C   UNL     1      -7.105   8.254  68.412  1.00  0.00    -0.081 C  
HETATM    8  C   UNL     1      -8.287   9.923  66.247  1.00  0.00    -0.125 C  
HETATM    9  C   UNL     1      -8.546   5.786  65.950  1.00  0.00    -0.146 C  
HETATM   10  C   UNL     1      -9.851   5.813  66.645  1.00  0.00    -0.165 C  
HETATM   11  C   UNL     1      -7.709   6.997  69.529  1.00  0.00    -0.107 C  
HETATM   12  C   UNL     1      -9.268   7.071  70.265  1.00  0.00    -0.156 C  
HETATM   13  O   UNL     1     -10.088   7.085  67.085  1.00  0.00    -0.177 OA 
HETATM   14  O   UNL     1     -10.623   4.877  66.747  1.00  0.00    -0.226 OA 
HETATM   15  C   UNL     1     -10.594   7.715  69.428  1.00  0.00    -0.217 C  
HETATM   16  C   UNL     1     -11.775   8.006  70.412  1.00  0.00     0.007 C  
HETATM   17  C   UNL     1      -9.799   4.544  70.185  1.00  0.00    -0.296 C  
HETATM   18  C   UNL     1     -12.204   6.635  70.983  1.00  0.00    -0.344 C  
HETATM   19  C   UNL     1     -11.098   5.930  71.752  1.00  0.00    -0.324 C  
HETATM   20  C   UNL     1      -9.692   5.783  71.098  1.00  0.00    -0.210 C  
HETATM   21  C   UNL     1      -8.563   5.507  72.165  1.00  0.00    -0.126 C  
HETATM   22  C   UNL     1     -11.410   5.383  72.942  1.00  0.00    -0.365 C  
HETATM   23  C   UNL     1      -9.011   5.422  73.618  1.00  0.00    -0.124 C  
HETATM   24  C   UNL     1     -10.334   4.733  73.705  1.00  0.00    -0.220 C  
HETATM   25  O   UNL     1     -10.554   3.749  74.400  1.00  0.00    -0.207 OA 
ENDROOT
BRANCH  16  26
HETATM   26  S   UNL     1     -11.393   9.138  71.825  1.00  0.00    -0.348 SA 
BRANCH  26  27
HETATM   27  C   UNL     1     -12.948   9.930  72.037  1.00  0.00    -0.423 C  
HETATM   28  C   UNL     1     -12.937  11.404  71.747  1.00  0.00    -0.519 C  
HETATM   29  O   UNL     1     -13.954   9.313  72.357  1.00  0.00    -0.460 OA 
ENDBRANCH  26  27
ENDBRANCH  16  26
TORSDOF 2
ENDMDL
MODEL       21
REMARK 921   NORMALIZED FREE ENERGY PREDICTED BY IDOCK:   -5.38 KCAL/MOL
REMARK 922        TOTAL FREE ENERGY PREDICTED BY IDOCK:   -6.59 KCAL/MOL
REMARK 923 INTER-LIGAND FREE ENERGY PREDICTED BY IDOCK:   -6.14 KCAL/MOL
REMARK 924 INTRA-LIGAND FREE ENERGY PREDICTED BY IDOCK:   -0.45 KCAL/MOL
REMARK 927      BINDING AFFINITY PREDICTED BY RF-SCORE:    0.00 PKD
ROOT
HETATM    1  C   UNL     1      -9.654   7.935  69.900  1.00  0.00    -0.168 C  
HETATM    2  C   UNL     1     -11.020   7.690  70.154  1.00  0.00    -0.255 C  
HETATM    3  C   UNL     1     -10.660   7.327  68.736  1.00  0.00    -0.202 C  
HETATM    4  C   UNL     1      -8.654   7.147  68.294  1.00  0.00    -0.122 C  
HETATM    5  C   UNL     1      -9.479   6.287  68.969  1.00  0.00    -0.133 C  
HETATM    6  C   UNL     1      -7.567   5.967  67.944  1.00  0.00    -0.086 C  
HETATM    7  C   UNL     1      -9.982   6.181  67.117  1.00  0.00    -0.188 C  
HETATM    8  C   UNL     1      -9.392   5.030  69.800  1.00  0.00    -0.191 C  
HETATM    9  C   UNL     1      -6.273   6.670  67.598  1.00  0.00    -0.035 C  
HETATM   10  C   UNL     1      -6.501   7.981  68.242  1.00  0.00    -0.055 C  
HETATM   11  C   UNL     1      -9.760   7.771  66.332  1.00  0.00    -0.219 C  
HETATM   12  C   UNL     1      -9.998   9.264  67.164  1.00  0.00    -0.276 C  
HETATM   13  O   UNL     1      -7.637   7.907  68.999  1.00  0.00    -0.095 OA 
HETATM   14  O   UNL     1      -5.765   8.948  68.170  1.00  0.00    -0.038 OA 
HETATM   15  C   UNL     1      -9.588   9.421  68.802  1.00  0.00    -0.156 C  
HETATM   16  C   UNL     1     -10.226  10.717  69.405  1.00  0.00    -0.192 C  
HETATM   17  C   UNL     1      -8.084  10.585  66.037  1.00  0.00    -0.148 C  
HETATM   18  C   UNL     1      -9.583  11.901  68.647  1.00  0.00    -0.101 C  
HETATM   19  C   UNL     1      -9.858  11.880  67.152  1.00  0.00    -0.206 C  
HETATM   20  C   UNL     1      -9.595  10.571  66.349  1.00  0.00    -0.220 C  
HETATM   21  C   UNL     1     -10.377  10.544  64.980  1.00  0.00    -0.310 C  
HETATM   22  C   UNL     1     -10.238  13.031  66.566  1.00  0.00    -0.270 C  
HETATM   23  C   UNL     1     -11.230  11.764  64.662  1.00  0.00    -0.349 C  
HETATM   24  C   UNL     1     -10.539  13.005  65.127  1.00  0.00    -0.312 C  
HETATM   25  O   UNL     1     -10.295  13.966  64.410  1.00  0.00    -0.384 OA 
ENDROOT
BRANCH  16  26
HETATM   26  S   UNL     1     -12.065  10.856  69.264  1.00  0.00    -0.151 SA 
BRANCH  26  27
HETATM   27  C   UNL     1     -12.470  11.444  70.871  1.00  0.00    -0.379 C  
HETATM   28  C   UNL     1     -12.983  10.388  71.806  1.00  0.00    -0.580 C  
HETATM   29  O   UNL     1     -12.306  12.612  71.196  1.00  0.00    -0.314 OA 
ENDBRANCH  26  27
ENDBRANCH  16  26
TORSDOF 2
ENDMDL
MODEL       22
REMARK 921   NORMALIZED FREE ENERGY PREDICTED BY IDOCK:   -5.35 KCAL/MOL
REMARK 922        TOTAL FREE ENERGY PREDICTED BY IDOCK:   -6.55 KCAL/MOL
REMARK 923 INTER-LIGAND FREE ENERGY PREDICTED BY IDOCK:   -6.01 KCAL/MOL
REMARK 924 INTRA-LIGAND FREE ENERGY PREDICTED BY IDOCK:   -0.54 KCAL/MOL
REMARK 927      BINDING AFFINITY PREDICTED BY RF-SCORE:    0.00 PKD
ROOT
HETATM    1  C   UNL     1     -11.170  10.182  70.902  1.00  0.00    -0.383 C  
HETATM    2  C   UNL     1     -12.455  10.350  70.344  1.00  0.00    -0.348 C  
HETATM    3  C   UNL     1     -11.887   8.998  69.998  1.00  0.00     0.281 C  
HETATM    4  C   UNL     1     -10.258   8.356  71.087  1.00  0.00    -0.202 C  
HETATM    5  C   UNL     1     -11.580   8.406  71.442  1.00  0.00    -0.332 C  
HETATM    6  C   UNL     1      -9.903   7.237  72.235  1.00  0.00    -0.182 C  
HETATM    7  C   UNL     1     -11.410   6.964  70.182  1.00  0.00    -0.364 C  
HETATM    8  C   UNL     1     -12.446   8.239  72.667  1.00  0.00    -0.217 C  
HETATM    9  C   UNL     1      -8.405   7.296  72.437  1.00  0.00    -0.122 C  
HETATM   10  C   UNL     1      -8.117   8.642  71.900  1.00  0.00    -0.088 C  
HETATM   11  C   UNL     1     -10.145   7.350  68.981  1.00  0.00    -0.193 C  
HETATM   12  C   UNL     1      -9.831   8.957  68.437  1.00  0.00    -0.191 C  
HETATM   13  O   UNL     1      -9.300   9.284  71.662  1.00  0.00    -0.301 OA 
HETATM   14  O   UNL     1      -7.010   9.131  71.760  1.00  0.00    -0.288 OA 
HETATM   15  C   UNL     1      -9.976  10.275  69.493  1.00  0.00    -0.252 C  
HETATM   16  C   UNL     1     -10.003  11.619  68.693  1.00  0.00    -0.184 C  
HETATM   17  C   UNL     1      -7.263   8.750  68.239  1.00  0.00    -0.082 C  
HETATM   18  C   UNL     1      -8.627  11.728  67.996  1.00  0.00    -0.158 C  
HETATM   19  C   UNL     1      -8.353  10.593  67.022  1.00  0.00    -0.126 C  
HETATM   20  C   UNL     1      -8.561   9.122  67.492  1.00  0.00    -0.116 C  
HETATM   21  C   UNL     1      -8.731   8.127  66.280  1.00  0.00    -0.172 C  
HETATM   22  C   UNL     1      -7.856  10.909  65.812  1.00  0.00    -0.057 C  
HETATM   23  C   UNL     1      -8.658   8.737  64.887  1.00  0.00    -0.177 C  
HETATM   24  C   UNL     1      -7.624   9.816  64.855  1.00  0.00    -0.128 C  
HETATM   25  O   UNL     1      -6.691   9.851  64.064  1.00  0.00    -0.116 OA 
ENDROOT
BRANCH  16  26
HETATM   26  S   UNL     1     -11.327  11.772  67.410  1.00  0.00    -0.305 SA 
BRANCH  26  27
HETATM   27  C   UNL     1     -11.861  13.424  67.689  1.00  0.00    -0.354 C  
HETATM   28  C   UNL     1     -11.838  13.847  69.130  1.00  0.00    -0.401 C  
HETATM   29  O   UNL     1     -12.182  14.167  66.772  1.00  0.00    -0.447 OA 
ENDBRANCH  26  27
ENDBRANCH  16  26
TORSDOF 2
ENDMDL
MODEL       23
REMARK 921   NORMALIZED FREE ENERGY PREDICTED BY IDOCK:   -5.26 KCAL/MOL
REMARK 922        TOTAL FREE ENERGY PREDICTED BY IDOCK:   -6.45 KCAL/MOL
REMARK 923 INTER-LIGAND FREE ENERGY PREDICTED BY IDOCK:   -5.93 KCAL/MOL
REMARK 924 INTRA-LIGAND FREE ENERGY PREDICTED BY IDOCK:   -0.52 KCAL/MOL
REMARK 927      BINDING AFFINITY PREDICTED BY RF-SCORE:    0.00 PKD
ROOT
HETATM    1  C   UNL     1      -7.887  10.655  68.053  1.00  0.00    -0.105 C  
HETATM    2  C   UNL     1      -8.487  10.738  69.327  1.00  0.00    -0.058 C  
HETATM    3  C   UNL     1      -9.409  10.075  68.337  1.00  0.00    -0.139 C  
HETATM    4  C   UNL     1      -8.573   9.421  66.568  1.00  0.00    -0.134 C  
HETATM    5  C   UNL     1      -8.503   8.872  67.821  1.00  0.00    -0.125 C  
HETATM    6  C   UNL     1      -8.191   8.005  65.832  1.00  0.00    -0.127 C  
HETATM    7  C   UNL     1     -10.292   8.558  67.189  1.00  0.00    -0.377 C  
HETATM    8  C   UNL     1      -7.761   7.783  68.556  1.00  0.00    -0.118 C  
HETATM    9  C   UNL     1      -7.715   8.363  64.441  1.00  0.00    -0.133 C  
HETATM   10  C   UNL     1      -7.355   9.783  64.640  1.00  0.00    -0.134 C  
HETATM   11  C   UNL     1     -10.820   9.914  66.153  1.00  0.00     0.218 C  
HETATM   12  C   UNL     1     -10.317  11.543  66.418  1.00  0.00    -0.277 C  
HETATM   13  O   UNL     1      -7.416  10.069  65.976  1.00  0.00    -0.102 OA 
HETATM   14  O   UNL     1      -6.993  10.555  63.771  1.00  0.00    -0.038 OA 
HETATM   15  C   UNL     1      -8.758  11.890  66.988  1.00  0.00    -0.181 C  
HETATM   16  C   UNL     1      -8.673  13.370  67.487  1.00  0.00    -0.205 C  
HETATM   17  C   UNL     1     -10.114  12.241  63.938  1.00  0.00    -0.374 C  
HETATM   18  C   UNL     1      -8.923  14.255  66.244  1.00  0.00    -0.002 C  
HETATM   19  C   UNL     1     -10.290  14.037  65.615  1.00  0.00    -0.342 C  
HETATM   20  C   UNL     1     -10.758  12.585  65.298  1.00  0.00    -0.318 C  
HETATM   21  C   UNL     1     -12.323  12.484  65.137  1.00  0.00    -0.496 C  
HETATM   22  C   UNL     1     -11.007  15.125  65.276  1.00  0.00    -0.405 C  
HETATM   23  C   UNL     1     -13.106  13.780  65.302  1.00  0.00    -0.193 C  
HETATM   24  C   UNL     1     -12.344  14.916  64.701  1.00  0.00    -0.278 C  
HETATM   25  O   UNL     1     -12.794  15.673  63.850  1.00  0.00    -0.619 OA 
ENDROOT
BRANCH  16  26
HETATM   26  S   UNL     1      -9.878  13.852  68.805  1.00  0.00    -0.044 SA 
BRANCH  26  27
HETATM   27  C   UNL     1      -9.516  15.564  68.968  1.00  0.00    -0.242 C  
HETATM   28  C   UNL     1     -10.699  16.469  68.771  1.00  0.00    -0.339 C  
HETATM   29  O   UNL     1      -8.398  15.968  69.255  1.00  0.00    -0.243 OA 
ENDBRANCH  26  27
ENDBRANCH  16  26
TORSDOF 2
ENDMDL
MODEL       24
REMARK 921   NORMALIZED FREE ENERGY PREDICTED BY IDOCK:   -5.26 KCAL/MOL
REMARK 922        TOTAL FREE ENERGY PREDICTED BY IDOCK:   -6.45 KCAL/MOL
REMARK 923 INTER-LIGAND FREE ENERGY PREDICTED BY IDOCK:   -5.99 KCAL/MOL
REMARK 924 INTRA-LIGAND FREE ENERGY PREDICTED BY IDOCK:   -0.46 KCAL/MOL
REMARK 927      BINDING AFFINITY PREDICTED BY RF-SCORE:    0.00 PKD
ROOT
HETATM    1  C   UNL     1      -9.772  15.118  66.069  1.00  0.00    -0.361 C  
HETATM    2  C   UNL     1     -11.135  15.272  65.745  1.00  0.00    -0.301 C  
HETATM    3  C   UNL     1     -10.942  15.163  67.236  1.00  0.00    -0.327 C  
HETATM    4  C   UNL     1      -9.026  15.415  67.955  1.00  0.00    -0.173 C  
HETATM    5  C   UNL     1      -9.919  16.352  67.508  1.00  0.00    -0.250 C  
HETATM    6  C   UNL     1      -8.161  16.521  68.807  1.00  0.00    -0.248 C  
HETATM    7  C   UNL     1     -10.570  15.750  69.214  1.00  0.00    -0.244 C  
HETATM    8  C   UNL     1      -9.964  17.819  67.158  1.00  0.00    -0.322 C  
HETATM    9  C   UNL     1      -6.804  15.899  69.055  1.00  0.00    -0.153 C  
HETATM   10  C   UNL     1      -6.782  14.874  67.991  1.00  0.00    -0.141 C  
HETATM   11  C   UNL     1     -10.167  14.025  69.447  1.00  0.00     0.176 C  
HETATM   12  C   UNL     1     -10.112  12.895  68.145  1.00  0.00    -0.240 C  
HETATM   13  O   UNL     1      -7.855  15.071  67.167  1.00  0.00    -0.199 OA 
HETATM   14  O   UNL     1      -5.913  14.036  67.827  1.00  0.00    -0.192 OA 
HETATM   15  C   UNL     1      -9.562  13.363  66.611  1.00  0.00    -0.272 C  
HETATM   16  C   UNL     1      -9.947  12.290  65.539  1.00  0.00    -0.244 C  
HETATM   17  C   UNL     1      -8.108  11.501  68.995  1.00  0.00     0.037 C  
HETATM   18  C   UNL     1      -9.190  11.001  65.934  1.00  0.00    -0.220 C  
HETATM   19  C   UNL     1      -9.575  10.472  67.306  1.00  0.00    -0.188 C  
HETATM   20  C   UNL     1      -9.576  11.444  68.523  1.00  0.00    -0.190 C  
HETATM   21  C   UNL     1     -10.453  10.904  69.717  1.00  0.00    -0.056 C  
HETATM   22  C   UNL     1      -9.818   9.153  67.425  1.00  0.00    -0.237 C  
HETATM   23  C   UNL     1     -11.132   9.558  69.505  1.00  0.00    -0.168 C  
HETATM   24  C   UNL     1     -10.227   8.644  68.743  1.00  0.00    -0.207 C  
HETATM   25  O   UNL     1      -9.893   7.530  69.126  1.00  0.00    -0.165 OA 
ENDROOT
BRANCH  16  26
HETATM   26  S   UNL     1     -11.749  11.895  65.399  1.00  0.00    -0.048 SA 
BRANCH  26  27
HETATM   27  C   UNL     1     -11.999  12.125  63.674  1.00  0.00    -0.534 C  
HETATM   28  C   UNL     1     -10.766  11.933  62.839  1.00  0.00     0.106 C  
HETATM   29  O   UNL     1     -13.100  12.381  63.206  1.00  0.00    -0.630 OA 
ENDBRANCH  26  27
ENDBRANCH  16  26
TORSDOF 2
ENDMDL
MODEL       25
REMARK 921   NORMALIZED FREE ENERGY PREDICTED BY IDOCK:   -5.19 KCAL/MOL
REMARK 922        TOTAL FREE ENERGY PREDICTED BY IDOCK:   -6.38 KCAL/MOL
REMARK 923 INTER-LIGAND FREE ENERGY PREDICTED BY IDOCK:   -5.91 KCAL/MOL
REMARK 924 INTRA-LIGAND FREE ENERGY PREDICTED BY IDOCK:   -0.47 KCAL/MOL
REMARK 927      BINDING AFFINITY PREDICTED BY RF-SCORE:    0.00 PKD
ROOT
HETATM    1  C   UNL     1     -10.860   9.648  68.458  1.00  0.00    -0.202 C  
HETATM    2  C   UNL     1     -11.127  10.633  69.432  1.00  0.00    -0.315 C  
HETATM    3  C   UNL     1      -9.651  10.340  69.349  1.00  0.00    -0.237 C  
HETATM    4  C   UNL     1      -8.990   9.309  67.690  1.00  0.00    -0.119 C  
HETATM    5  C   UNL     1      -9.361  10.622  67.810  1.00  0.00    -0.154 C  
HETATM    6  C   UNL     1      -8.119   9.590  66.327  1.00  0.00    -0.111 C  
HETATM    7  C   UNL     1      -7.662  10.453  68.695  1.00  0.00    -0.101 C  
HETATM    8  C   UNL     1      -9.640  11.819  66.935  1.00  0.00    -0.204 C  
HETATM    9  C   UNL     1      -7.949   8.248  65.648  1.00  0.00    -0.113 C  
HETATM   10  C   UNL     1      -9.060   7.494  66.264  1.00  0.00    -0.157 C  
HETATM   11  C   UNL     1      -7.524   8.839  69.448  1.00  0.00    -0.080 C  
HETATM   12  C   UNL     1      -8.878   7.995  70.105  1.00  0.00    -0.143 C  
HETATM   13  O   UNL     1      -9.834   8.361  66.984  1.00  0.00    -0.186 OA 
HETATM   14  O   UNL     1      -9.294   6.310  66.102  1.00  0.00    -0.155 OA 
HETATM   15  C   UNL     1     -10.408   8.112  69.382  1.00  0.00    -0.219 C  
HETATM   16  C   UNL     1     -11.514   7.573  70.348  1.00  0.00    -0.198 C  
HETATM   17  C   UNL     1      -8.167   5.614  69.397  1.00  0.00    -0.103 C  
HETATM   18  C   UNL     1     -11.207   6.072  70.553  1.00  0.00    -0.363 C  
HETATM   19  C   UNL     1      -9.848   5.815  71.185  1.00  0.00    -0.227 C  
HETATM   20  C   UNL     1      -8.588   6.506  70.584  1.00  0.00    -0.139 C  
HETATM   21  C   UNL     1      -7.389   6.555  71.608  1.00  0.00    -0.087 C  
HETATM   22  C   UNL     1      -9.782   4.925  72.194  1.00  0.00    -0.213 C  
HETATM   23  C   UNL     1      -7.639   5.933  72.975  1.00  0.00    -0.095 C  
HETATM   24  C   UNL     1      -8.475   4.702  72.830  1.00  0.00    -0.110 C  
HETATM   25  O   UNL     1      -8.157   3.600  73.259  1.00  0.00    -0.077 OA 
ENDROOT
BRANCH  16  26
HETATM   26  S   UNL     1     -11.607   8.387  72.007  1.00  0.00    -0.379 SA 
BRANCH  26  27
HETATM   27  C   UNL     1     -13.251   9.008  71.973  1.00  0.00    -0.429 C  
HETATM   28  C   UNL     1     -14.300   7.970  71.695  1.00  0.00    -0.581 C  
HETATM   29  O   UNL     1     -13.508  10.183  72.197  1.00  0.00    -0.411 OA 
ENDBRANCH  26  27
ENDBRANCH  16  26
TORSDOF 2
ENDMDL
MODEL       26
REMARK 921   NORMALIZED FREE ENERGY PREDICTED BY IDOCK:   -5.18 KCAL/MOL
REMARK 922        TOTAL FREE ENERGY PREDICTED BY IDOCK:   -6.36 KCAL/MOL
REMARK 923 INTER-LIGAND FREE ENERGY PREDICTED BY IDOCK:   -5.91 KCAL/MOL
REMARK 924 INTRA-LIGAND FREE ENERGY PREDICTED BY IDOCK:   -0.45 KCAL/MOL
REMARK 927      BINDING AFFINITY PREDICTED BY RF-SCORE:    0.00 PKD
ROOT
HETATM    1  C   UNL     1     -10.732   8.510  67.701  1.00  0.00    -0.189 C  
HETATM    2  C   UNL     1     -10.683   9.837  68.175  1.00  0.00    -0.280 C  
HETATM    3  C   UNL     1      -9.297   9.262  68.032  1.00  0.00    -0.145 C  
HETATM    4  C   UNL     1      -9.107   7.538  66.916  1.00  0.00    -0.141 C  
HETATM    5  C   UNL     1      -9.292   8.830  66.501  1.00  0.00    -0.260 C  
HETATM    6  C   UNL     1      -8.502   7.067  65.465  1.00  0.00    -0.120 C  
HETATM    7  C   UNL     1      -7.481   8.718  67.136  1.00  0.00    -0.088 C  
HETATM    8  C   UNL     1      -9.602   9.594  65.238  1.00  0.00    -0.347 C  
HETATM    9  C   UNL     1      -8.627   5.559  65.422  1.00  0.00    -0.151 C  
HETATM   10  C   UNL     1      -9.670   5.349  66.447  1.00  0.00    -0.166 C  
HETATM   11  C   UNL     1      -7.381   7.558  68.492  1.00  0.00    -0.099 C  
HETATM   12  C   UNL     1      -8.663   7.331  69.624  1.00  0.00    -0.141 C  
HETATM   13  O   UNL     1     -10.179   6.564  66.813  1.00  0.00    -0.192 OA 
HETATM   14  O   UNL     1     -10.066   4.270  66.850  1.00  0.00    -0.196 OA 
HETATM   15  C   UNL     1     -10.283   7.430  69.132  1.00  0.00    -0.196 C  
HETATM   16  C   UNL     1     -11.227   7.553  70.374  1.00  0.00    -0.253 C  
HETATM   17  C   UNL     1      -8.387   4.780  69.937  1.00  0.00    -0.072 C  
HETATM   18  C   UNL     1     -11.059   6.239  71.170  1.00  0.00    -0.356 C  
HETATM   19  C   UNL     1      -9.640   6.010  71.664  1.00  0.00    -0.170 C  
HETATM   20  C   UNL     1      -8.455   6.141  70.661  1.00  0.00    -0.134 C  
HETATM   21  C   UNL     1      -7.077   6.376  71.392  1.00  0.00    -0.077 C  
HETATM   22  C   UNL     1      -9.474   5.614  72.941  1.00  0.00    -0.155 C  
HETATM   23  C   UNL     1      -7.117   6.427  72.913  1.00  0.00    -0.079 C  
HETATM   24  C   UNL     1      -8.101   5.427  73.431  1.00  0.00    -0.111 C  
HETATM   25  O   UNL     1      -7.832   4.558  74.250  1.00  0.00    -0.090 OA 
ENDROOT
BRANCH  16  26
HETATM   26  S   UNL     1     -10.890   8.975  71.509  1.00  0.00    -0.368 SA 
BRANCH  26  27
HETATM   27  C   UNL     1     -12.525   9.551  71.803  1.00  0.00    -0.401 C  
HETATM   28  C   UNL     1     -12.905  10.768  71.010  1.00  0.00    -0.480 C  
HETATM   29  O   UNL     1     -13.291   8.974  72.563  1.00  0.00    -0.453 OA 
ENDBRANCH  26  27
ENDBRANCH  16  26
TORSDOF 2
ENDMDL
MODEL       27
REMARK 921   NORMALIZED FREE ENERGY PREDICTED BY IDOCK:   -5.16 KCAL/MOL
REMARK 922        TOTAL FREE ENERGY PREDICTED BY IDOCK:   -6.34 KCAL/MOL
REMARK 923 INTER-LIGAND FREE ENERGY PREDICTED BY IDOCK:   -5.79 KCAL/MOL
REMARK 924 INTRA-LIGAND FREE ENERGY PREDICTED BY IDOCK:   -0.55 KCAL/MOL
REMARK 927      BINDING AFFINITY PREDICTED BY RF-SCORE:    0.00 PKD
ROOT
HETATM    1  C   UNL     1      -9.369   5.835  69.732  1.00  0.00    -0.175 C  
HETATM    2  C   UNL     1     -10.727   5.653  70.065  1.00  0.00    -0.390 C  
HETATM    3  C   UNL     1     -10.549   5.783  68.575  1.00  0.00    -0.299 C  
HETATM    4  C   UNL     1      -8.635   5.574  67.836  1.00  0.00    -0.104 C  
HETATM    5  C   UNL     1      -9.509   4.617  68.279  1.00  0.00    -0.200 C  
HETATM    6  C   UNL     1      -7.759   4.494  66.963  1.00  0.00    -0.090 C  
HETATM    7  C   UNL     1     -10.185   5.228  66.586  1.00  0.00    -0.291 C  
HETATM    8  C   UNL     1      -9.525   3.145  68.611  1.00  0.00    -0.195 C  
HETATM    9  C   UNL     1      -6.416   5.142  66.710  1.00  0.00    -0.041 C  
HETATM   10  C   UNL     1      -6.401   6.154  67.787  1.00  0.00    -0.040 C  
HETATM   11  C   UNL     1      -9.814   6.962  66.371  1.00  0.00    -0.101 C  
HETATM   12  C   UNL     1      -9.766   8.077  67.687  1.00  0.00    -0.198 C  
HETATM   13  O   UNL     1      -7.463   5.929  68.617  1.00  0.00    -0.082 OA 
HETATM   14  O   UNL     1      -5.546   7.005  67.954  1.00  0.00    -0.018 OA 
HETATM   15  C   UNL     1      -9.195   7.600  69.210  1.00  0.00    -0.145 C  
HETATM   16  C   UNL     1      -9.589   8.653  70.299  1.00  0.00    -0.170 C  
HETATM   17  C   UNL     1      -7.795   9.516  66.837  1.00  0.00    -0.101 C  
HETATM   18  C   UNL     1      -8.857   9.959  69.914  1.00  0.00    -0.222 C  
HETATM   19  C   UNL     1      -9.264  10.499  68.552  1.00  0.00    -0.168 C  
HETATM   20  C   UNL     1      -9.259   9.542  67.322  1.00  0.00    -0.154 C  
HETATM   21  C   UNL     1     -10.156  10.081  66.143  1.00  0.00    -0.317 C  
HETATM   22  C   UNL     1      -9.531  11.815  68.451  1.00  0.00    -0.188 C  
HETATM   23  C   UNL     1     -10.856  11.413  66.378  1.00  0.00    -0.323 C  
HETATM   24  C   UNL     1      -9.960  12.332  67.143  1.00  0.00    -0.205 C  
HETATM   25  O   UNL     1      -9.648  13.456  66.772  1.00  0.00    -0.247 OA 
ENDROOT
BRANCH  16  26
HETATM   26  S   UNL     1     -11.396   9.015  70.459  1.00  0.00    -0.212 SA 
BRANCH  26  27
HETATM   27  C   UNL     1     -11.665   8.588  72.143  1.00  0.00    -0.378 C  
HETATM   28  C   UNL     1     -10.493   7.924  72.808  1.00  0.00    -0.412 C  
HETATM   29  O   UNL     1     -12.709   8.853  72.722  1.00  0.00    -0.327 OA 
ENDBRANCH  26  27
ENDBRANCH  16  26
TORSDOF 2
ENDMDL
MODEL       28
REMARK 921   NORMALIZED FREE ENERGY PREDICTED BY IDOCK:   -5.15 KCAL/MOL
REMARK 922        TOTAL FREE ENERGY PREDICTED BY IDOCK:   -6.33 KCAL/MOL
REMARK 923 INTER-LIGAND FREE ENERGY PREDICTED BY IDOCK:   -5.77 KCAL/MOL
REMARK 924 INTRA-LIGAND FREE ENERGY PREDICTED BY IDOCK:   -0.56 KCAL/MOL
REMARK 927      BINDING AFFINITY PREDICTED BY RF-SCORE:    0.00 PKD
ROOT
HETATM    1  C   UNL     1     -10.985   7.080  69.335  1.00  0.00    -0.232 C  
HETATM    2  C   UNL     1     -10.279   5.885  69.580  1.00  0.00    -0.288 C  
HETATM    3  C   UNL     1      -9.657   7.041  70.319  1.00  0.00    -0.168 C  
HETATM    4  C   UNL     1     -10.785   8.759  70.494  1.00  0.00    -0.223 C  
HETATM    5  C   UNL     1     -10.893   7.572  71.169  1.00  0.00    -0.254 C  
HETATM    6  C   UNL     1     -11.595   9.592  71.653  1.00  0.00    -0.451 C  
HETATM    7  C   UNL     1      -9.315   8.439  71.844  1.00  0.00    -0.313 C  
HETATM    8  C   UNL     1     -11.835   6.875  72.119  1.00  0.00    -0.318 C  
HETATM    9  C   UNL     1     -12.074  10.871  71.002  1.00  0.00    -0.425 C  
HETATM   10  C   UNL     1     -12.020  10.481  69.577  1.00  0.00    -0.186 C  
HETATM   11  C   UNL     1      -8.532   9.380  70.542  1.00  0.00    -0.251 C  
HETATM   12  C   UNL     1      -8.554   8.886  68.889  1.00  0.00    -0.135 C  
HETATM   13  O   UNL     1     -11.771   9.139  69.498  1.00  0.00     0.268 OA 
HETATM   14  O   UNL     1     -12.234  11.214  68.629  1.00  0.00    -0.582 OA 
HETATM   15  C   UNL     1      -9.908   8.103  68.234  1.00  0.00    -0.191 C  
HETATM   16  C   UNL     1      -9.549   7.443  66.861  1.00  0.00    -0.187 C  
HETATM   17  C   UNL     1      -8.772  11.236  67.838  1.00  0.00    -0.138 C  
HETATM   18  C   UNL     1      -9.177   8.605  65.913  1.00  0.00    -0.264 C  
HETATM   19  C   UNL     1      -7.978   9.411  66.388  1.00  0.00    -0.108 C  
HETATM   20  C   UNL     1      -7.946   9.933  67.855  1.00  0.00    -0.104 C  
HETATM   21  C   UNL     1      -6.485  10.287  68.332  1.00  0.00    -0.048 C  
HETATM   22  C   UNL     1      -7.026   9.714  65.485  1.00  0.00    -0.093 C  
HETATM   23  C   UNL     1      -5.372  10.078  67.314  1.00  0.00    -0.041 C  
HETATM   24  C   UNL     1      -5.848  10.461  65.950  1.00  0.00    -0.099 C  
HETATM   25  O   UNL     1      -5.285  11.274  65.228  1.00  0.00    -0.256 OA 
ENDROOT
BRANCH  16  26
HETATM   26  S   UNL     1      -8.151   6.232  66.886  1.00  0.00    -0.110 SA 
BRANCH  26  27
HETATM   27  C   UNL     1      -8.963   4.786  66.303  1.00  0.00    -0.119 C  
HETATM   28  C   UNL     1     -10.442   4.946  66.099  1.00  0.00    -0.346 C  
HETATM   29  O   UNL     1      -8.355   3.755  66.051  1.00  0.00    -0.107 OA 
ENDBRANCH  26  27
ENDBRANCH  16  26
TORSDOF 2
ENDMDL
MODEL       29
REMARK 921   NORMALIZED FREE ENERGY PREDICTED BY IDOCK:   -5.10 KCAL/MOL
REMARK 922        TOTAL FREE ENERGY PREDICTED BY IDOCK:   -6.27 KCAL/MOL
REMARK 923 INTER-LIGAND FREE ENERGY PREDICTED BY IDOCK:   -5.71 KCAL/MOL
REMARK 924 INTRA-LIGAND FREE ENERGY PREDICTED BY IDOCK:   -0.56 KCAL/MOL
REMARK 927      BINDING AFFINITY PREDICTED BY RF-SCORE:    0.00 PKD
ROOT
HETATM    1  C   UNL     1      -7.170  12.301  66.961  1.00  0.00    -0.039 C  
HETATM    2  C   UNL     1      -6.235  12.387  68.012  1.00  0.00    -0.082 C  
HETATM    3  C   UNL     1      -7.352  11.438  68.359  1.00  0.00    -0.095 C  
HETATM    4  C   UNL     1      -8.552  10.795  66.810  1.00  0.00    -0.136 C  
HETATM    5  C   UNL     1      -7.281  10.412  67.144  1.00  0.00    -0.091 C  
HETATM    6  C   UNL     1      -8.832   9.425  65.950  1.00  0.00    -0.193 C  
HETATM    7  C   UNL     1      -8.445   9.652  68.472  1.00  0.00    -0.118 C  
HETATM    8  C   UNL     1      -6.144   9.595  66.581  1.00  0.00    -0.063 C  
HETATM    9  C   UNL     1      -9.999   9.728  65.036  1.00  0.00    -0.132 C  
HETATM   10  C   UNL     1      -9.945  11.205  65.014  1.00  0.00    -0.273 C  
HETATM   11  C   UNL     1      -9.829  10.742  68.766  1.00  0.00    -0.200 C  
HETATM   12  C   UNL     1      -9.701  12.460  68.674  1.00  0.00    -0.064 C  
HETATM   13  O   UNL     1      -8.796  11.612  65.633  1.00  0.00    -0.100 OA 
HETATM   14  O   UNL     1     -10.751  11.939  64.472  1.00  0.00    -0.280 OA 
HETATM   15  C   UNL     1      -8.682  13.196  67.536  1.00  0.00    -0.201 C  
HETATM   16  C   UNL     1      -8.463  14.704  67.889  1.00  0.00    -0.158 C  
HETATM   17  C   UNL     1     -12.025  12.916  67.639  1.00  0.00    -0.344 C  
HETATM   18  C   UNL     1      -9.851  15.375  67.776  1.00  0.00    -0.220 C  
HETATM   19  C   UNL     1     -10.879  14.799  68.737  1.00  0.00    -0.259 C  
HETATM   20  C   UNL     1     -11.074  13.255  68.806  1.00  0.00    -0.303 C  
HETATM   21  C   UNL     1     -11.766  12.801  70.149  1.00  0.00    -0.239 C  
HETATM   22  C   UNL     1     -11.644  15.663  69.431  1.00  0.00    -0.378 C  
HETATM   23  C   UNL     1     -12.131  13.906  71.130  1.00  0.00    -0.320 C  
HETATM   24  C   UNL     1     -12.614  15.110  70.388  1.00  0.00    -0.359 C  
HETATM   25  O   UNL     1     -13.692  15.655  70.587  1.00  0.00    -0.402 OA 
ENDROOT
BRANCH  16  26
HETATM   26  S   UNL     1      -7.777  15.051  69.572  1.00  0.00    -0.109 SA 
BRANCH  26  27
HETATM   27  C   UNL     1      -6.541  16.239  69.180  1.00  0.00    -0.185 C  
HETATM   28  C   UNL     1      -6.011  16.142  67.778  1.00  0.00    -0.160 C  
HETATM   29  O   UNL     1      -6.182  17.091  69.980  1.00  0.00    -0.208 OA 
ENDBRANCH  26  27
ENDBRANCH  16  26
TORSDOF 2
ENDMDL
MODEL       30
REMARK 921   NORMALIZED FREE ENERGY PREDICTED BY IDOCK:   -5.04 KCAL/MOL
REMARK 922        TOTAL FREE ENERGY PREDICTED BY IDOCK:   -6.20 KCAL/MOL
REMARK 923 INTER-LIGAND FREE ENERGY PREDICTED BY IDOCK:   -5.71 KCAL/MOL
REMARK 924 INTRA-LIGAND FREE ENERGY PREDICTED BY IDOCK:   -0.50 KCAL/MOL
REMARK 927      BINDING AFFINITY PREDICTED BY RF-SCORE:    0.00 PKD
ROOT
HETATM    1  C   UNL     1     -10.284  12.546  65.111  1.00  0.00    -0.299 C  
HETATM    2  C   UNL     1     -11.134  11.500  64.696  1.00  0.00    -0.317 C  
HETATM    3  C   UNL     1     -11.276  11.758  66.173  1.00  0.00    -0.363 C  
HETATM    4  C   UNL     1     -10.506  13.530  66.895  1.00  0.00    -0.271 C  
HETATM    5  C   UNL     1     -11.656  13.303  66.187  1.00  0.00    -0.385 C  
HETATM    6  C   UNL     1     -11.047  14.964  67.483  1.00  0.00    -0.319 C  
HETATM    7  C   UNL     1     -11.964  12.620  67.957  1.00  0.00    -0.300 C  
HETATM    8  C   UNL     1     -12.739  14.081  65.480  1.00  0.00    -0.517 C  
HETATM    9  C   UNL     1      -9.823  15.725  67.942  1.00  0.00    -0.217 C  
HETATM   10  C   UNL     1      -8.772  15.029  67.170  1.00  0.00    -0.220 C  
HETATM   11  C   UNL     1     -10.444  11.968  68.633  1.00  0.00    -0.238 C  
HETATM   12  C   UNL     1      -9.237  11.211  67.659  1.00  0.00    -0.151 C  
HETATM   13  O   UNL     1      -9.369  14.187  66.274  1.00  0.00    -0.262 OA 
HETATM   14  O   UNL     1      -7.573  15.224  67.261  1.00  0.00    -0.188 OA 
HETATM   15  C   UNL     1      -8.925  11.756  66.084  1.00  0.00    -0.145 C  
HETATM   16  C   UNL     1      -8.076  10.703  65.297  1.00  0.00    -0.086 C  
HETATM   17  C   UNL     1      -7.171  12.112  68.923  1.00  0.00    -0.079 C  
HETATM   18  C   UNL     1      -6.722  10.609  66.037  1.00  0.00    -0.128 C  
HETATM   19  C   UNL     1      -6.853  10.143  67.478  1.00  0.00    -0.077 C  
HETATM   20  C   UNL     1      -7.885  10.843  68.412  1.00  0.00    -0.123 C  
HETATM   21  C   UNL     1      -8.256   9.954  69.661  1.00  0.00    -0.178 C  
HETATM   22  C   UNL     1      -6.001   9.194  67.912  1.00  0.00    -0.049 C  
HETATM   23  C   UNL     1      -7.565   8.602  69.761  1.00  0.00    -0.079 C  
HETATM   24  C   UNL     1      -6.150   8.716  69.295  1.00  0.00    -0.042 C  
HETATM   25  O   UNL     1      -5.177   8.381  69.959  1.00  0.00    -0.023 OA 
ENDROOT
BRANCH  16  26
HETATM   26  S   UNL     1      -8.800   9.005  65.177  1.00  0.00    -0.152 SA 
BRANCH  26  27
HETATM   27  C   UNL     1      -8.409   8.602  63.511  1.00  0.00    -0.114 C  
HETATM   28  C   UNL     1      -8.937   9.577  62.498  1.00  0.00    -0.268 C  
HETATM   29  O   UNL     1      -7.730   7.627  63.220  1.00  0.00    -0.119 OA 
ENDBRANCH  26  27
ENDBRANCH  16  26
TORSDOF 2
ENDMDL
MODEL       31
REMARK 921   NORMALIZED FREE ENERGY PREDICTED BY IDOCK:   -5.00 KCAL/MOL
REMARK 922        TOTAL FREE ENERGY PREDICTED BY IDOCK:   -6.16 KCAL/MOL
REMARK 923 INTER-LIGAND FREE ENERGY PREDICTED BY IDOCK:   -5.80 KCAL/MOL
REMARK 924 INTRA-LIGAND FREE ENERGY PREDICTED BY IDOCK:   -0.36 KCAL/MOL
REMARK 927      BINDING AFFINITY PREDICTED BY RF-SCORE:    0.00 PKD
ROOT
HETATM    1  C   UNL     1      -7.811  14.985  68.615  1.00  0.00    -0.138 C  
HETATM    2  C   UNL     1      -6.671  15.126  67.798  1.00  0.00    -0.185 C  
HETATM    3  C   UNL     1      -7.930  15.107  66.971  1.00  0.00    -0.223 C  
HETATM    4  C   UNL     1      -9.712  15.393  67.967  1.00  0.00    -0.207 C  
HETATM    5  C   UNL     1      -8.751  16.305  67.621  1.00  0.00    -0.188 C  
HETATM    6  C   UNL     1     -10.873  16.545  68.117  1.00  0.00    -0.345 C  
HETATM    7  C   UNL     1      -9.645  15.812  65.991  1.00  0.00    -0.388 C  
HETATM    8  C   UNL     1      -8.394  17.748  67.878  1.00  0.00    -0.241 C  
HETATM    9  C   UNL     1     -11.973  15.933  68.957  1.00  0.00    -0.243 C  
HETATM   10  C   UNL     1     -11.226  14.845  69.622  1.00  0.00    -0.275 C  
HETATM   11  C   UNL     1     -10.158  14.103  66.070  1.00  0.00    -0.330 C  
HETATM   12  C   UNL     1      -9.258  12.894  66.910  1.00  0.00    -0.234 C  
HETATM   13  O   UNL     1      -9.894  14.996  69.352  1.00  0.00    -0.211 OA 
HETATM   14  O   UNL     1     -11.704  13.994  70.351  1.00  0.00    -0.282 OA 
HETATM   15  C   UNL     1      -8.434  13.265  68.345  1.00  0.00    -0.128 C  
HETATM   16  C   UNL     1      -7.418  12.131  68.704  1.00  0.00    -0.105 C  
HETATM   17  C   UNL     1     -11.267  11.546  67.816  1.00  0.00    -0.343 C  
HETATM   18  C   UNL     1      -8.266  10.865  68.965  1.00  0.00    -0.126 C  
HETATM   19  C   UNL     1      -9.076  10.422  67.758  1.00  0.00    -0.134 C  
HETATM   20  C   UNL     1      -9.955  11.467  67.008  1.00  0.00    -0.225 C  
HETATM   21  C   UNL     1     -10.311  11.005  65.542  1.00  0.00    -0.321 C  
HETATM   22  C   UNL     1      -9.065   9.114  67.438  1.00  0.00    -0.142 C  
HETATM   23  C   UNL     1      -9.766   9.652  65.107  1.00  0.00    -0.287 C  
HETATM   24  C   UNL     1      -9.819   8.689  66.249  1.00  0.00    -0.249 C  
HETATM   25  O   UNL     1     -10.374   7.599  66.206  1.00  0.00    -0.012 OA 
ENDROOT
BRANCH  16  26
HETATM   26  S   UNL     1      -6.155  11.737  67.411  1.00  0.00    -0.124 SA 
BRANCH  26  27
HETATM   27  C   UNL     1      -5.523  10.216  68.027  1.00  0.00    -0.038 C  
HETATM   28  C   UNL     1      -5.442   9.119  67.004  1.00  0.00    -0.040 C  
HETATM   29  O   UNL     1      -5.147  10.089  69.184  1.00  0.00    -0.036 OA 
ENDBRANCH  26  27
ENDBRANCH  16  26
TORSDOF 2
ENDMDL
MODEL       32
REMARK 921   NORMALIZED FREE ENERGY PREDICTED BY IDOCK:   -4.98 KCAL/MOL
REMARK 922        TOTAL FREE ENERGY PREDICTED BY IDOCK:   -6.14 KCAL/MOL
REMARK 923 INTER-LIGAND FREE ENERGY PREDICTED BY IDOCK:   -5.57 KCAL/MOL
REMARK 924 INTRA-LIGAND FREE ENERGY PREDICTED BY IDOCK:   -0.57 KCAL/MOL
REMARK 927      BINDING AFFINITY PREDICTED BY RF-SCORE:    0.00 PKD
ROOT
HETATM    1  C   UNL     1      -8.186  12.434  66.060  1.00  0.00     0.764 C  
HETATM    2  C   UNL     1      -7.274  11.764  66.901  1.00  0.00    -0.103 C  
HETATM    3  C   UNL     1      -8.668  11.221  67.075  1.00  0.00    -0.152 C  
HETATM    4  C   UNL     1     -10.052  11.706  65.625  1.00  0.00    -0.240 C  
HETATM    5  C   UNL     1      -9.029  10.797  65.585  1.00  0.00    -0.205 C  
HETATM    6  C   UNL     1     -10.864  10.976  64.399  1.00  0.00    -0.263 C  
HETATM    7  C   UNL     1     -10.374  10.049  66.736  1.00  0.00    -0.283 C  
HETATM    8  C   UNL     1      -8.315   9.917  64.587  1.00  0.00    -0.166 C  
HETATM    9  C   UNL     1     -11.834  12.005  63.861  1.00  0.00    -0.543 C  
HETATM   10  C   UNL     1     -11.203  13.249  64.350  1.00  0.00    -0.381 C  
HETATM   11  C   UNL     1     -11.211  11.354  67.624  1.00  0.00    -0.346 C  
HETATM   12  C   UNL     1     -10.419  12.804  68.121  1.00  0.00    -0.244 C  
HETATM   13  O   UNL     1      -9.976  12.944  64.870  1.00  0.00    -0.227 OA 
HETATM   14  O   UNL     1     -11.664  14.371  64.245  1.00  0.00    -0.376 OA 
HETATM   15  C   UNL     1      -9.213  13.509  67.159  1.00  0.00    -0.236 C  
HETATM   16  C   UNL     1      -8.412  14.574  67.977  1.00  0.00    -0.161 C  
HETATM   17  C   UNL     1     -12.393  14.422  67.720  1.00  0.00    -0.022 C  
HETATM   18  C   UNL     1      -9.425  15.683  68.343  1.00  0.00    -0.196 C  
HETATM   19  C   UNL     1     -10.579  15.186  69.199  1.00  0.00    -0.256 C  
HETATM   20  C   UNL     1     -11.365  13.917  68.753  1.00  0.00    -0.310 C  
HETATM   21  C   UNL     1     -12.155  13.255  69.947  1.00  0.00    -0.377 C  
HETATM   22  C   UNL     1     -10.929  15.922  70.271  1.00  0.00    -0.370 C  
HETATM   23  C   UNL     1     -12.038  13.941  71.300  1.00  0.00    -0.254 C  
HETATM   24  C   UNL     1     -12.021  15.425  71.121  1.00  0.00    -0.362 C  
HETATM   25  O   UNL     1     -12.794  16.194  71.678  1.00  0.00    -0.339 OA 
ENDROOT
BRANCH  16  26
HETATM   26  S   UNL     1      -7.614  13.969  69.533  1.00  0.00     0.413 SA 
BRANCH  26  27
HETATM   27  C   UNL     1      -5.990  14.613  69.337  1.00  0.00    -0.101 C  
HETATM   28  C   UNL     1      -5.633  14.974  67.924  1.00  0.00    -0.133 C  
HETATM   29  O   UNL     1      -5.239  14.783  70.287  1.00  0.00    -0.102 OA 
ENDBRANCH  26  27
ENDBRANCH  16  26
TORSDOF 2
ENDMDL
MODEL       33
REMARK 921   NORMALIZED FREE ENERGY PREDICTED BY IDOCK:   -4.95 KCAL/MOL
REMARK 922        TOTAL FREE ENERGY PREDICTED BY IDOCK:   -6.10 KCAL/MOL
REMARK 923 INTER-LIGAND FREE ENERGY PREDICTED BY IDOCK:   -5.59 KCAL/MOL
REMARK 924 INTRA-LIGAND FREE ENERGY PREDICTED BY IDOCK:   -0.51 KCAL/MOL
REMARK 927      BINDING AFFINITY PREDICTED BY RF-SCORE:    0.00 PKD
ROOT
HETATM    1  C   UNL     1     -10.683  10.026  70.203  1.00  0.00    -0.361 C  
HETATM    2  C   UNL     1     -11.650  10.510  69.298  1.00  0.00    -0.308 C  
HETATM    3  C   UNL     1     -11.969   9.102  69.730  1.00  0.00     0.590 C  
HETATM    4  C   UNL     1     -10.981   8.382  71.391  1.00  0.00    -0.253 C  
HETATM    5  C   UNL     1     -12.026   9.264  71.312  1.00  0.00    -0.414 C  
HETATM    6  C   UNL     1     -11.307   8.001  72.954  1.00  0.00    -0.364 C  
HETATM    7  C   UNL     1     -12.743   7.532  70.885  1.00  0.00    -0.108 C  
HETATM    8  C   UNL     1     -12.803  10.203  72.201  1.00  0.00    -0.381 C  
HETATM    9  C   UNL     1     -10.043   7.388  73.515  1.00  0.00    -0.390 C  
HETATM   10  C   UNL     1      -9.045   7.913  72.558  1.00  0.00    -0.187 C  
HETATM   11  C   UNL     1     -11.512   6.555  70.033  1.00  0.00    -0.476 C  
HETATM   12  C   UNL     1     -10.345   7.246  68.967  1.00  0.00    -0.208 C  
HETATM   13  O   UNL     1      -9.651   8.838  71.755  1.00  0.00    -0.261 OA 
HETATM   14  O   UNL     1      -7.862   7.626  72.534  1.00  0.00    -0.090 OA 
HETATM   15  C   UNL     1      -9.683   8.776  69.277  1.00  0.00    -0.172 C  
HETATM   16  C   UNL     1      -8.951   9.325  68.008  1.00  0.00    -0.128 C  
HETATM   17  C   UNL     1      -8.367   5.705  69.590  1.00  0.00    -0.107 C  
HETATM   18  C   UNL     1      -7.778   8.355  67.739  1.00  0.00    -0.103 C  
HETATM   19  C   UNL     1      -8.228   6.930  67.457  1.00  0.00    -0.116 C  
HETATM   20  C   UNL     1      -9.232   6.243  68.431  1.00  0.00    -0.112 C  
HETATM   21  C   UNL     1      -9.969   5.019  67.762  1.00  0.00    -0.198 C  
HETATM   22  C   UNL     1      -7.666   6.287  66.416  1.00  0.00    -0.099 C  
HETATM   23  C   UNL     1      -9.590   4.705  66.322  1.00  0.00    -0.187 C  
HETATM   24  C   UNL     1      -8.125   4.922  66.120  1.00  0.00    -0.107 C  
HETATM   25  O   UNL     1      -7.359   4.076  65.679  1.00  0.00    -0.074 OA 
ENDROOT
BRANCH  16  26
HETATM   26  S   UNL     1      -9.976   9.451  66.473  1.00  0.00    -0.271 SA 
BRANCH  26  27
HETATM   27  C   UNL     1     -10.029  11.196  66.260  1.00  0.00    -0.219 C  
HETATM   28  C   UNL     1      -8.862  11.928  66.859  1.00  0.00    -0.197 C  
HETATM   29  O   UNL     1     -10.926  11.748  65.640  1.00  0.00    -0.293 OA 
ENDBRANCH  26  27
ENDBRANCH  16  26
TORSDOF 2
ENDMDL
MODEL       34
REMARK 921   NORMALIZED FREE ENERGY PREDICTED BY IDOCK:   -4.85 KCAL/MOL
REMARK 922        TOTAL FREE ENERGY PREDICTED BY IDOCK:   -5.99 KCAL/MOL
REMARK 923 INTER-LIGAND FREE ENERGY PREDICTED BY IDOCK:   -5.46 KCAL/MOL
REMARK 924 INTRA-LIGAND FREE ENERGY PREDICTED BY IDOCK:   -0.53 KCAL/MOL
REMARK 927      BINDING AFFINITY PREDICTED BY RF-SCORE:    0.00 PKD
ROOT
HETATM    1  C   UNL     1      -8.958   5.732  70.016  1.00  0.00    -0.147 C  
HETATM    2  C   UNL     1      -7.655   5.400  69.590  1.00  0.00    -0.070 C  
HETATM    3  C   UNL     1      -7.659   6.693  70.364  1.00  0.00    -0.096 C  
HETATM    4  C   UNL     1      -9.342   7.116  71.478  1.00  0.00    -0.153 C  
HETATM    5  C   UNL     1      -8.323   6.237  71.736  1.00  0.00    -0.121 C  
HETATM    6  C   UNL     1      -9.793   7.189  73.055  1.00  0.00    -0.233 C  
HETATM    7  C   UNL     1      -7.601   7.998  72.004  1.00  0.00    -0.108 C  
HETATM    8  C   UNL     1      -7.983   5.127  72.700  1.00  0.00    -0.102 C  
HETATM    9  C   UNL     1     -11.210   7.719  73.067  1.00  0.00    -0.380 C  
HETATM   10  C   UNL     1     -11.623   7.410  71.682  1.00  0.00    -0.270 C  
HETATM   11  C   UNL     1      -8.364   9.150  70.870  1.00  0.00    -0.231 C  
HETATM   12  C   UNL     1      -8.866   8.702  69.281  1.00  0.00    -0.137 C  
HETATM   13  O   UNL     1     -10.659   6.636  71.099  1.00  0.00    -0.221 OA 
HETATM   14  O   UNL     1     -12.678   7.728  71.165  1.00  0.00    -0.273 OA 
HETATM   15  C   UNL     1      -9.499   7.159  68.973  1.00  0.00    -0.143 C  
HETATM   16  C   UNL     1      -9.531   6.877  67.434  1.00  0.00    -0.132 C  
HETATM   17  C   UNL     1     -11.003  10.151  69.183  1.00  0.00    -0.270 C  
HETATM   18  C   UNL     1     -10.509   7.912  66.831  1.00  0.00    -0.388 C  
HETATM   19  C   UNL     1     -10.071   9.352  67.048  1.00  0.00    -0.304 C  
HETATM   20  C   UNL     1      -9.671   9.817  68.480  1.00  0.00    -0.164 C  
HETATM   21  C   UNL     1      -8.788  11.124  68.457  1.00  0.00    -0.161 C  
HETATM   22  C   UNL     1     -10.133  10.193  65.998  1.00  0.00    -0.317 C  
HETATM   23  C   UNL     1      -8.483  11.712  67.087  1.00  0.00    -0.162 C  
HETATM   24  C   UNL     1      -9.676  11.576  66.196  1.00  0.00    -0.223 C  
HETATM   25  O   UNL     1     -10.207  12.510  65.610  1.00  0.00    -0.260 OA 
ENDROOT
BRANCH  16  26
HETATM   26  S   UNL     1      -7.911   7.013  66.551  1.00  0.00    -0.111 SA 
BRANCH  26  27
HETATM   27  C   UNL     1      -7.941   5.542  65.588  1.00  0.00    -0.109 C  
HETATM   28  C   UNL     1      -8.640   4.386  66.245  1.00  0.00    -0.112 C  
HETATM   29  O   UNL     1      -7.464   5.491  64.463  1.00  0.00    -0.062 OA 
ENDBRANCH  26  27
ENDBRANCH  16  26
TORSDOF 2
ENDMDL
MODEL       35
REMARK 921   NORMALIZED FREE ENERGY PREDICTED BY IDOCK:   -4.85 KCAL/MOL
REMARK 922        TOTAL FREE ENERGY PREDICTED BY IDOCK:   -5.99 KCAL/MOL
REMARK 923 INTER-LIGAND FREE ENERGY PREDICTED BY IDOCK:   -5.46 KCAL/MOL
REMARK 924 INTRA-LIGAND FREE ENERGY PREDICTED BY IDOCK:   -0.53 KCAL/MOL
REMARK 927      BINDING AFFINITY PREDICTED BY RF-SCORE:    0.00 PKD
ROOT
HETATM    1  C   UNL     1      -7.903  10.309  69.077  1.00  0.00    -0.114 C  
HETATM    2  C   UNL     1      -6.739   9.629  68.661  1.00  0.00    -0.052 C  
HETATM    3  C   UNL     1      -7.974   8.996  68.075  1.00  0.00    -0.101 C  
HETATM    4  C   UNL     1      -9.719  10.093  68.151  1.00  0.00    -0.139 C  
HETATM    5  C   UNL     1      -8.636  10.233  67.324  1.00  0.00    -0.125 C  
HETATM    6  C   UNL     1     -10.714  10.904  67.127  1.00  0.00    -0.320 C  
HETATM    7  C   UNL     1      -9.559   8.649  66.747  1.00  0.00    -0.269 C  
HETATM    8  C   UNL     1      -8.089  11.202  66.304  1.00  0.00    -0.142 C  
HETATM    9  C   UNL     1     -11.901  11.349  67.952  1.00  0.00    -0.239 C  
HETATM   10  C   UNL     1     -11.321  11.283  69.311  1.00  0.00    -0.287 C  
HETATM   11  C   UNL     1     -10.303   7.830  68.150  1.00  0.00    -0.248 C  
HETATM   12  C   UNL     1      -9.591   7.839  69.722  1.00  0.00    -0.167 C  
HETATM   13  O   UNL     1      -9.977  11.059  69.205  1.00  0.00    -0.195 OA 
HETATM   14  O   UNL     1     -11.924  11.470  70.352  1.00  0.00    -0.349 OA 
HETATM   15  C   UNL     1      -8.750   9.198  70.287  1.00  0.00    -0.223 C  
HETATM   16  C   UNL     1      -7.904   8.833  71.553  1.00  0.00    -0.104 C  
HETATM   17  C   UNL     1     -11.781   7.998  71.083  1.00  0.00    -0.307 C  
HETATM   18  C   UNL     1      -8.922   8.426  72.643  1.00  0.00    -0.304 C  
HETATM   19  C   UNL     1      -9.763   7.219  72.261  1.00  0.00    -0.177 C  
HETATM   20  C   UNL     1     -10.478   7.198  70.877  1.00  0.00    -0.225 C  
HETATM   21  C   UNL     1     -10.868   5.736  70.429  1.00  0.00    -0.360 C  
HETATM   22  C   UNL     1      -9.926   6.249  73.181  1.00  0.00    -0.183 C  
HETATM   23  C   UNL     1     -10.505   4.613  71.391  1.00  0.00    -0.083 C  
HETATM   24  C   UNL     1     -10.709   5.064  72.802  1.00  0.00    -0.236 C  
HETATM   25  O   UNL     1     -11.407   4.476  73.618  1.00  0.00    -0.292 OA 
ENDROOT
BRANCH  16  26
HETATM   26  S   UNL     1      -6.684   7.458  71.343  1.00  0.00    -0.050 SA 
BRANCH  26  27
HETATM   27  C   UNL     1      -6.066   7.319  72.983  1.00  0.00    -0.055 C  
HETATM   28  C   UNL     1      -6.252   5.963  73.601  1.00  0.00    -0.063 C  
HETATM   29  O   UNL     1      -5.499   8.246  73.545  1.00  0.00    -0.050 OA 
ENDBRANCH  26  27
ENDBRANCH  16  26
TORSDOF 2
ENDMDL
MODEL       36
REMARK 921   NORMALIZED FREE ENERGY PREDICTED BY IDOCK:   -4.83 KCAL/MOL
REMARK 922        TOTAL FREE ENERGY PREDICTED BY IDOCK:   -5.97 KCAL/MOL
REMARK 923 INTER-LIGAND FREE ENERGY PREDICTED BY IDOCK:   -5.50 KCAL/MOL
REMARK 924 INTRA-LIGAND FREE ENERGY PREDICTED BY IDOCK:   -0.46 KCAL/MOL
REMARK 927      BINDING AFFINITY PREDICTED BY RF-SCORE:    0.00 PKD
ROOT
HETATM    1  C   UNL     1     -10.596   7.614  68.338  1.00  0.00    -0.166 C  
HETATM    2  C   UNL     1     -10.783   7.286  66.979  1.00  0.00    -0.406 C  
HETATM    3  C   UNL     1      -9.353   7.063  67.397  1.00  0.00    -0.141 C  
HETATM    4  C   UNL     1      -8.963   7.013  69.422  1.00  0.00    -0.139 C  
HETATM    5  C   UNL     1      -9.535   6.061  68.620  1.00  0.00    -0.134 C  
HETATM    6  C   UNL     1      -8.550   5.919  70.574  1.00  0.00    -0.136 C  
HETATM    7  C   UNL     1      -7.665   6.093  68.176  1.00  0.00    -0.103 C  
HETATM    8  C   UNL     1     -10.259   4.743  68.743  1.00  0.00    -0.069 C  
HETATM    9  C   UNL     1      -8.308   6.707  71.842  1.00  0.00    -0.114 C  
HETATM   10  C   UNL     1      -9.052   7.946  71.532  1.00  0.00    -0.137 C  
HETATM   11  C   UNL     1      -7.026   7.753  68.344  1.00  0.00    -0.072 C  
HETATM   12  C   UNL     1      -7.972   9.156  68.010  1.00  0.00    -0.101 C  
HETATM   13  O   UNL     1      -9.763   7.755  70.380  1.00  0.00    -0.178 OA 
HETATM   14  O   UNL     1      -9.087   8.948  72.223  1.00  0.00    -0.381 OA 
HETATM   15  C   UNL     1      -9.630   9.190  68.364  1.00  0.00    -0.162 C  
HETATM   16  C   UNL     1     -10.319  10.399  67.648  1.00  0.00    -0.219 C  
HETATM   17  C   UNL     1      -7.025  10.656  69.890  1.00  0.00    -0.148 C  
HETATM   18  C   UNL     1      -9.686  11.672  68.254  1.00  0.00    -0.197 C  
HETATM   19  C   UNL     1      -8.186  11.767  68.024  1.00  0.00    -0.152 C  
HETATM   20  C   UNL     1      -7.285  10.545  68.373  1.00  0.00    -0.080 C  
HETATM   21  C   UNL     1      -5.893  10.601  67.633  1.00  0.00    -0.044 C  
HETATM   22  C   UNL     1      -7.688  12.946  67.606  1.00  0.00    -0.162 C  
HETATM   23  C   UNL     1      -5.652  11.803  66.731  1.00  0.00    -0.113 C  
HETATM   24  C   UNL     1      -6.243  13.030  67.348  1.00  0.00    -0.074 C  
HETATM   25  O   UNL     1      -5.617  14.060  67.567  1.00  0.00    -0.342 OA 
ENDROOT
BRANCH  16  26
HETATM   26  S   UNL     1     -10.130  10.465  65.808  1.00  0.00    -0.245 SA 
BRANCH  26  27
HETATM   27  C   UNL     1     -11.058  11.912  65.439  1.00  0.00    -0.306 C  
HETATM   28  C   UNL     1     -10.377  12.859  64.492  1.00  0.00    -0.380 C  
HETATM   29  O   UNL     1     -12.179  12.100  65.891  1.00  0.00    -0.604 OA 
ENDBRANCH  26  27
ENDBRANCH  16  26
TORSDOF 2
ENDMDL
MODEL       37
REMARK 921   NORMALIZED FREE ENERGY PREDICTED BY IDOCK:   -4.81 KCAL/MOL
REMARK 922        TOTAL FREE ENERGY PREDICTED BY IDOCK:   -5.95 KCAL/MOL
REMARK 923 INTER-LIGAND FREE ENERGY PREDICTED BY IDOCK:   -5.47 KCAL/MOL
REMARK 924 INTRA-LIGAND FREE ENERGY PREDICTED BY IDOCK:   -0.48 KCAL/MOL
REMARK 927      BINDING AFFINITY PREDICTED BY RF-SCORE:    0.00 PKD
ROOT
HETATM    1  C   UNL     1      -8.872  10.876  65.330  1.00  0.00    -0.179 C  
HETATM    2  C   UNL     1      -9.659  10.168  64.398  1.00  0.00    -0.366 C  
HETATM    3  C   UNL     1     -10.494  10.648  65.557  1.00  0.00    -0.246 C  
HETATM    4  C   UNL     1      -9.668  12.093  66.774  1.00  0.00    -0.207 C  
HETATM    5  C   UNL     1     -10.210  12.213  65.523  1.00  0.00    -0.294 C  
HETATM    6  C   UNL     1      -9.866  13.688  67.107  1.00  0.00    -0.242 C  
HETATM    7  C   UNL     1     -11.681  11.921  66.726  1.00  0.00    -0.281 C  
HETATM    8  C   UNL     1     -10.330  13.234  64.418  1.00  0.00    -0.372 C  
HETATM    9  C   UNL     1      -8.931  14.002  68.255  1.00  0.00    -0.190 C  
HETATM   10  C   UNL     1      -7.978  12.878  68.138  1.00  0.00    -0.153 C  
HETATM   11  C   UNL     1     -11.171  10.852  68.064  1.00  0.00    -0.378 C  
HETATM   12  C   UNL     1     -10.013   9.590  67.862  1.00  0.00    -0.209 C  
HETATM   13  O   UNL     1      -8.234  12.204  66.976  1.00  0.00    -0.173 OA 
HETATM   14  O   UNL     1      -7.068  12.633  68.908  1.00  0.00    -0.100 OA 
HETATM   15  C   UNL     1      -8.700   9.776  66.806  1.00  0.00    -0.140 C  
HETATM   16  C   UNL     1      -8.021   8.395  66.524  1.00  0.00    -0.096 C  
HETATM   17  C   UNL     1      -8.851   9.828  70.158  1.00  0.00    -0.226 C  
HETATM   18  C   UNL     1      -7.464   7.909  67.882  1.00  0.00    -0.104 C  
HETATM   19  C   UNL     1      -8.538   7.711  68.939  1.00  0.00    -0.129 C  
HETATM   20  C   UNL     1      -9.566   8.853  69.200  1.00  0.00    -0.162 C  
HETATM   21  C   UNL     1     -10.869   8.329  69.919  1.00  0.00    -0.213 C  
HETATM   22  C   UNL     1      -8.501   6.581  69.670  1.00  0.00    -0.131 C  
HETATM   23  C   UNL     1     -10.913   6.842  70.242  1.00  0.00    -0.339 C  
HETATM   24  C   UNL     1      -9.560   6.372  70.668  1.00  0.00    -0.172 C  
HETATM   25  O   UNL     1      -9.333   5.793  71.723  1.00  0.00    -0.148 OA 
ENDROOT
BRANCH  16  26
HETATM   26  S   UNL     1      -9.121   7.077  65.834  1.00  0.00     0.069 SA 
BRANCH  26  27
HETATM   27  C   UNL     1      -8.022   6.294  64.707  1.00  0.00    -0.124 C  
HETATM   28  C   UNL     1      -6.778   7.079  64.408  1.00  0.00    -0.046 C  
HETATM   29  O   UNL     1      -8.248   5.184  64.245  1.00  0.00    -0.119 OA 
ENDBRANCH  26  27
ENDBRANCH  16  26
TORSDOF 2
ENDMDL
MODEL       38
REMARK 921   NORMALIZED FREE ENERGY PREDICTED BY IDOCK:   -4.79 KCAL/MOL
REMARK 922        TOTAL FREE ENERGY PREDICTED BY IDOCK:   -5.93 KCAL/MOL
REMARK 923 INTER-LIGAND FREE ENERGY PREDICTED BY IDOCK:   -5.40 KCAL/MOL
REMARK 924 INTRA-LIGAND FREE ENERGY PREDICTED BY IDOCK:   -0.53 KCAL/MOL
REMARK 927      BINDING AFFINITY PREDICTED BY RF-SCORE:    0.00 PKD
ROOT
HETATM    1  C   UNL     1     -10.909   5.858  70.028  1.00  0.00    -0.421 C  
HETATM    2  C   UNL     1     -10.049   4.742  69.960  1.00  0.00    -0.308 C  
HETATM    3  C   UNL     1      -9.433   5.850  70.773  1.00  0.00    -0.192 C  
HETATM    4  C   UNL     1     -10.686   7.362  71.402  1.00  0.00    -0.219 C  
HETATM    5  C   UNL     1     -10.550   6.086  71.881  1.00  0.00    -0.272 C  
HETATM    6  C   UNL     1     -11.365   7.905  72.795  1.00  0.00    -0.453 C  
HETATM    7  C   UNL     1      -8.979   7.045  72.435  1.00  0.00    -0.142 C  
HETATM    8  C   UNL     1     -11.235   5.141  72.838  1.00  0.00    -0.362 C  
HETATM    9  C   UNL     1     -12.081   9.191  72.446  1.00  0.00    -0.224 C  
HETATM   10  C   UNL     1     -12.236   9.022  70.986  1.00  0.00    -0.223 C  
HETATM   11  C   UNL     1      -8.537   8.259  71.201  1.00  0.00    -0.168 C  
HETATM   12  C   UNL     1      -8.795   8.011  69.513  1.00  0.00    -0.144 C  
HETATM   13  O   UNL     1     -11.866   7.750  70.649  1.00  0.00    -0.239 OA 
HETATM   14  O   UNL     1     -12.687   9.851  70.217  1.00  0.00    -0.055 OA 
HETATM   15  C   UNL     1     -10.153   7.162  68.957  1.00  0.00    -0.183 C  
HETATM   16  C   UNL     1      -9.972   6.760  67.455  1.00  0.00    -0.141 C  
HETATM   17  C   UNL     1      -9.438  10.440  68.910  1.00  0.00    -0.190 C  
HETATM   18  C   UNL     1      -9.895   8.086  66.665  1.00  0.00    -0.322 C  
HETATM   19  C   UNL     1      -8.722   8.964  67.074  1.00  0.00    -0.130 C  
HETATM   20  C   UNL     1      -8.490   9.267  68.584  1.00  0.00    -0.123 C  
HETATM   21  C   UNL     1      -7.013   9.736  68.878  1.00  0.00    -0.062 C  
HETATM   22  C   UNL     1      -7.979   9.516  66.096  1.00  0.00    -0.107 C  
HETATM   23  C   UNL     1      -6.079   9.824  67.680  1.00  0.00    -0.051 C  
HETATM   24  C   UNL     1      -6.823  10.336  66.489  1.00  0.00    -0.101 C  
HETATM   25  O   UNL     1      -6.484  11.311  65.832  1.00  0.00    -0.003 OA 
ENDROOT
BRANCH  16  26
HETATM   26  S   UNL     1      -8.472   5.751  67.062  1.00  0.00    -0.106 SA 
BRANCH  26  27
HETATM   27  C   UNL     1      -9.217   4.316  66.371  1.00  0.00    -0.147 C  
HETATM   28  C   UNL     1     -10.609   4.531  65.850  1.00  0.00    -0.194 C  
HETATM   29  O   UNL     1      -8.625   3.249  66.293  1.00  0.00    -0.111 OA 
ENDBRANCH  26  27
ENDBRANCH  16  26
TORSDOF 2
ENDMDL
MODEL       39
REMARK 921   NORMALIZED FREE ENERGY PREDICTED BY IDOCK:   -4.73 KCAL/MOL
REMARK 922        TOTAL FREE ENERGY PREDICTED BY IDOCK:   -5.86 KCAL/MOL
REMARK 923 INTER-LIGAND FREE ENERGY PREDICTED BY IDOCK:   -5.40 KCAL/MOL
REMARK 924 INTRA-LIGAND FREE ENERGY PREDICTED BY IDOCK:   -0.47 KCAL/MOL
REMARK 927      BINDING AFFINITY PREDICTED BY RF-SCORE:    0.00 PKD
ROOT
HETATM    1  C   UNL     1     -10.220  12.786  64.537  1.00  0.00    -0.333 C  
HETATM    2  C   UNL     1     -11.130  11.832  64.036  1.00  0.00    -0.461 C  
HETATM    3  C   UNL     1     -11.514  12.269  65.426  1.00  0.00    -0.402 C  
HETATM    4  C   UNL     1     -10.624  13.982  66.152  1.00  0.00    -0.290 C  
HETATM    5  C   UNL     1     -11.635  13.844  65.238  1.00  0.00    -0.332 C  
HETATM    6  C   UNL     1     -11.031  15.534  66.498  1.00  0.00    -0.243 C  
HETATM    7  C   UNL     1     -12.389  13.410  66.953  1.00  0.00    -0.262 C  
HETATM    8  C   UNL     1     -12.420  14.685  64.261  1.00  0.00    -0.267 C  
HETATM    9  C   UNL     1      -9.813  16.159  67.142  1.00  0.00    -0.241 C  
HETATM   10  C   UNL     1      -8.758  15.241  66.664  1.00  0.00    -0.291 C  
HETATM   11  C   UNL     1     -11.155  12.628  67.981  1.00  0.00    -0.288 C  
HETATM   12  C   UNL     1      -9.920  11.605  67.345  1.00  0.00    -0.200 C  
HETATM   13  O   UNL     1      -9.297  14.398  65.733  1.00  0.00    -0.163 OA 
HETATM   14  O   UNL     1      -7.585  15.273  66.989  1.00  0.00    -0.205 OA 
HETATM   15  C   UNL     1      -9.222  11.923  65.832  1.00  0.00    -0.147 C  
HETATM   16  C   UNL     1      -8.417  10.680  65.326  1.00  0.00    -0.150 C  
HETATM   17  C   UNL     1      -8.022  12.337  68.938  1.00  0.00     0.126 C  
HETATM   18  C   UNL     1      -7.267  10.477  66.338  1.00  0.00    -0.129 C  
HETATM   19  C   UNL     1      -7.749  10.196  67.752  1.00  0.00    -0.090 C  
HETATM   20  C   UNL     1      -8.817  11.133  68.391  1.00  0.00    -0.157 C  
HETATM   21  C   UNL     1      -9.563  10.450  69.601  1.00  0.00    -0.142 C  
HETATM   22  C   UNL     1      -7.163   9.190  68.428  1.00  0.00    -0.077 C  
HETATM   23  C   UNL     1      -9.133   9.032  69.949  1.00  0.00    -0.176 C  
HETATM   24  C   UNL     1      -7.654   8.892  69.782  1.00  0.00    -0.069 C  
HETATM   25  O   UNL     1      -6.896   8.498  70.660  1.00  0.00    -0.037 OA 
ENDROOT
BRANCH  16  26
HETATM   26  S   UNL     1      -9.369   9.099  65.191  1.00  0.00    -0.007 SA 
BRANCH  26  27
HETATM   27  C   UNL     1      -8.147   8.043  64.496  1.00  0.00    -0.132 C  
HETATM   28  C   UNL     1      -8.024   6.709  65.173  1.00  0.00    -0.124 C  
HETATM   29  O   UNL     1      -7.488   8.367  63.518  1.00  0.00    -0.105 OA 
ENDBRANCH  26  27
ENDBRANCH  16  26
TORSDOF 2
ENDMDL
MODEL       40
REMARK 921   NORMALIZED FREE ENERGY PREDICTED BY IDOCK:   -4.67 KCAL/MOL
REMARK 922        TOTAL FREE ENERGY PREDICTED BY IDOCK:   -5.79 KCAL/MOL
REMARK 923 INTER-LIGAND FREE ENERGY PREDICTED BY IDOCK:   -5.37 KCAL/MOL
REMARK 924 INTRA-LIGAND FREE ENERGY PREDICTED BY IDOCK:   -0.41 KCAL/MOL
REMARK 927      BINDING AFFINITY PREDICTED BY RF-SCORE:    0.00 PKD
ROOT
HETATM    1  C   UNL     1     -10.220  10.978  68.575  1.00  0.00    -0.203 C  
HETATM    2  C   UNL     1     -11.465  11.063  67.920  1.00  0.00    -0.358 C  
HETATM    3  C   UNL     1     -11.150   9.639  68.300  1.00  0.00    -0.102 C  
HETATM    4  C   UNL     1      -9.637   9.347  69.671  1.00  0.00    -0.188 C  
HETATM    5  C   UNL     1     -10.922   9.776  69.869  1.00  0.00    -0.299 C  
HETATM    6  C   UNL     1      -9.460   8.879  71.235  1.00  0.00    -0.343 C  
HETATM    7  C   UNL     1     -11.032   7.899  69.465  1.00  0.00    -0.078 C  
HETATM    8  C   UNL     1     -11.779  10.363  70.964  1.00  0.00    -0.430 C  
HETATM    9  C   UNL     1      -7.971   8.784  71.484  1.00  0.00    -0.160 C  
HETATM   10  C   UNL     1      -7.462   9.638  70.390  1.00  0.00    -0.158 C  
HETATM   11  C   UNL     1      -9.742   7.447  68.314  1.00  0.00    -0.159 C  
HETATM   12  C   UNL     1      -9.164   8.518  67.091  1.00  0.00    -0.173 C  
HETATM   13  O   UNL     1      -8.520  10.267  69.795  1.00  0.00    -0.159 OA 
HETATM   14  O   UNL     1      -6.291   9.812  70.108  1.00  0.00    -0.057 OA 
HETATM   15  C   UNL     1      -9.056  10.186  67.377  1.00  0.00    -0.149 C  
HETATM   16  C   UNL     1      -8.863  10.962  66.032  1.00  0.00    -0.188 C  
HETATM   17  C   UNL     1      -6.676   7.827  67.188  1.00  0.00    -0.068 C  
HETATM   18  C   UNL     1      -7.504  10.496  65.461  1.00  0.00    -0.111 C  
HETATM   19  C   UNL     1      -7.451   9.005  65.169  1.00  0.00    -0.097 C  
HETATM   20  C   UNL     1      -7.903   7.999  66.269  1.00  0.00    -0.099 C  
HETATM   21  C   UNL     1      -8.268   6.586  65.671  1.00  0.00    -0.137 C  
HETATM   22  C   UNL     1      -6.930   8.613  63.991  1.00  0.00    -0.082 C  
HETATM   23  C   UNL     1      -8.118   6.428  64.165  1.00  0.00    -0.052 C  
HETATM   24  C   UNL     1      -6.912   7.174  63.691  1.00  0.00    -0.061 C  
HETATM   25  O   UNL     1      -6.002   6.671  63.044  1.00  0.00    -0.036 OA 
ENDROOT
BRANCH  16  26
HETATM   26  S   UNL     1     -10.165  10.690  64.746  1.00  0.00    -0.283 SA 
BRANCH  26  27
HETATM   27  C   UNL     1     -10.833  12.311  64.613  1.00  0.00    -0.308 C  
HETATM   28  C   UNL     1     -12.318  12.353  64.395  1.00  0.00    -0.532 C  
HETATM   29  O   UNL     1     -10.139  13.312  64.728  1.00  0.00    -0.306 OA 
ENDBRANCH  26  27
ENDBRANCH  16  26
TORSDOF 2
ENDMDL
MODEL       41
REMARK 921   NORMALIZED FREE ENERGY PREDICTED BY IDOCK:   -4.67 KCAL/MOL
REMARK 922        TOTAL FREE ENERGY PREDICTED BY IDOCK:   -5.79 KCAL/MOL
REMARK 923 INTER-LIGAND FREE ENERGY PREDICTED BY IDOCK:   -5.21 KCAL/MOL
REMARK 924 INTRA-LIGAND FREE ENERGY PREDICTED BY IDOCK:   -0.58 KCAL/MOL
REMARK 927      BINDING AFFINITY PREDICTED BY RF-SCORE:    0.00 PKD
ROOT
HETATM    1  C   UNL     1      -7.134   7.087  67.342  1.00  0.00    -0.088 C  
HETATM    2  C   UNL     1      -6.046   7.684  68.011  1.00  0.00    -0.040 C  
HETATM    3  C   UNL     1      -6.616   6.544  68.815  1.00  0.00    -0.051 C  
HETATM    4  C   UNL     1      -7.876   5.240  67.833  1.00  0.00    -0.092 C  
HETATM    5  C   UNL     1      -6.512   5.344  67.776  1.00  0.00    -0.048 C  
HETATM    6  C   UNL     1      -7.869   3.694  67.282  1.00  0.00    -0.079 C  
HETATM    7  C   UNL     1      -6.929   4.585  69.492  1.00  0.00    -0.050 C  
HETATM    8  C   UNL     1      -5.354   4.803  66.973  1.00  0.00    -0.012 C  
HETATM    9  C   UNL     1      -9.266   3.418  66.771  1.00  0.00    -0.194 C  
HETATM   10  C   UNL     1      -9.749   4.798  66.557  1.00  0.00    -0.193 C  
HETATM   11  C   UNL     1      -8.478   5.243  70.091  1.00  0.00    -0.109 C  
HETATM   12  C   UNL     1      -8.999   6.854  69.757  1.00  0.00    -0.141 C  
HETATM   13  O   UNL     1      -8.700   5.660  66.712  1.00  0.00    -0.114 OA 
HETATM   14  O   UNL     1     -10.877   5.114  66.224  1.00  0.00    -0.296 OA 
HETATM   15  C   UNL     1      -8.653   7.588  68.269  1.00  0.00    -0.124 C  
HETATM   16  C   UNL     1      -8.900   9.131  68.347  1.00  0.00    -0.129 C  
HETATM   17  C   UNL     1     -11.519   6.344  69.494  1.00  0.00    -0.412 C  
HETATM   18  C   UNL     1     -10.411   9.309  68.616  1.00  0.00    -0.236 C  
HETATM   19  C   UNL     1     -10.870   8.680  69.922  1.00  0.00    -0.210 C  
HETATM   20  C   UNL     1     -10.476   7.206  70.235  1.00  0.00    -0.232 C  
HETATM   21  C   UNL     1     -10.575   6.876  71.774  1.00  0.00    -0.235 C  
HETATM   22  C   UNL     1     -11.677   9.405  70.719  1.00  0.00    -0.349 C  
HETATM   23  C   UNL     1     -11.033   8.010  72.682  1.00  0.00    -0.448 C  
HETATM   24  C   UNL     1     -12.092   8.814  72.000  1.00  0.00    -0.377 C  
HETATM   25  O   UNL     1     -13.198   9.038  72.474  1.00  0.00    -0.445 OA 
ENDROOT
BRANCH  16  26
HETATM   26  S   UNL     1      -7.958  10.036  69.659  1.00  0.00    -0.174 SA 
BRANCH  26  27
HETATM   27  C   UNL     1      -7.246  11.334  68.710  1.00  0.00    -0.104 C  
HETATM   28  C   UNL     1      -7.372  11.156  67.224  1.00  0.00    -0.118 C  
HETATM   29  O   UNL     1      -6.729  12.312  69.232  1.00  0.00    -0.105 OA 
ENDBRANCH  26  27
ENDBRANCH  16  26
TORSDOF 2
ENDMDL
MODEL       42
REMARK 921   NORMALIZED FREE ENERGY PREDICTED BY IDOCK:   -4.64 KCAL/MOL
REMARK 922        TOTAL FREE ENERGY PREDICTED BY IDOCK:   -5.76 KCAL/MOL
REMARK 923 INTER-LIGAND FREE ENERGY PREDICTED BY IDOCK:   -5.52 KCAL/MOL
REMARK 924 INTRA-LIGAND FREE ENERGY PREDICTED BY IDOCK:   -0.24 KCAL/MOL
REMARK 927      BINDING AFFINITY PREDICTED BY RF-SCORE:    0.00 PKD
ROOT
HETATM    1  C   UNL     1      -9.078   8.015  67.756  1.00  0.00    -0.136 C  
HETATM    2  C   UNL     1      -7.917   7.766  66.996  1.00  0.00    -0.116 C  
HETATM    3  C   UNL     1      -7.617   8.674  68.160  1.00  0.00    -0.097 C  
HETATM    4  C   UNL     1      -9.032   8.780  69.657  1.00  0.00    -0.145 C  
HETATM    5  C   UNL     1      -8.123   7.793  69.385  1.00  0.00    -0.126 C  
HETATM    6  C   UNL     1      -9.222   8.295  71.214  1.00  0.00    -0.207 C  
HETATM    7  C   UNL     1      -7.123   9.266  70.110  1.00  0.00    -0.072 C  
HETATM    8  C   UNL     1      -7.802   6.381  69.810  1.00  0.00    -0.114 C  
HETATM    9  C   UNL     1     -10.529   8.891  71.688  1.00  0.00    -0.408 C  
HETATM   10  C   UNL     1     -11.189   9.153  70.391  1.00  0.00    -0.240 C  
HETATM   11  C   UNL     1      -7.877  10.812  69.626  1.00  0.00     0.023 C  
HETATM   12  C   UNL     1      -8.675  11.028  68.112  1.00  0.00    -0.141 C  
HETATM   13  O   UNL     1     -10.447   8.579  69.397  1.00  0.00    -0.217 OA 
HETATM   14  O   UNL     1     -12.254   9.721  70.236  1.00  0.00    -0.135 OA 
HETATM   15  C   UNL     1      -9.562   9.765  67.409  1.00  0.00    -0.187 C  
HETATM   16  C   UNL     1      -9.869  10.081  65.908  1.00  0.00    -0.264 C  
HETATM   17  C   UNL     1     -10.572  12.571  68.949  1.00  0.00    -0.152 C  
HETATM   18  C   UNL     1     -10.769  11.338  65.911  1.00  0.00    -0.291 C  
HETATM   19  C   UNL     1     -10.102  12.555  66.532  1.00  0.00    -0.250 C  
HETATM   20  C   UNL     1      -9.425  12.420  67.928  1.00  0.00    -0.198 C  
HETATM   21  C   UNL     1      -8.378  13.569  68.196  1.00  0.00    -0.167 C  
HETATM   22  C   UNL     1     -10.201  13.728  65.879  1.00  0.00    -0.322 C  
HETATM   23  C   UNL     1      -8.205  14.600  67.090  1.00  0.00    -0.227 C  
HETATM   24  C   UNL     1      -9.526  14.899  66.459  1.00  0.00    -0.283 C  
HETATM   25  O   UNL     1     -10.001  16.022  66.354  1.00  0.00    -0.262 OA 
ENDROOT
BRANCH  16  26
HETATM   26  S   UNL     1      -8.401  10.410  64.832  1.00  0.00    -0.141 SA 
BRANCH  26  27
HETATM   27  C   UNL     1      -9.132  10.287  63.237  1.00  0.00    -0.265 C  
HETATM   28  C   UNL     1      -9.806  11.544  62.767  1.00  0.00    -0.142 C  
HETATM   29  O   UNL     1      -9.056   9.269  62.563  1.00  0.00    -0.239 OA 
ENDBRANCH  26  27
ENDBRANCH  16  26
TORSDOF 2
ENDMDL
MODEL       43
REMARK 921   NORMALIZED FREE ENERGY PREDICTED BY IDOCK:   -4.64 KCAL/MOL
REMARK 922        TOTAL FREE ENERGY PREDICTED BY IDOCK:   -5.76 KCAL/MOL
REMARK 923 INTER-LIGAND FREE ENERGY PREDICTED BY IDOCK:   -5.21 KCAL/MOL
REMARK 924 INTRA-LIGAND FREE ENERGY PREDICTED BY IDOCK:   -0.55 KCAL/MOL
REMARK 927      BINDING AFFINITY PREDICTED BY RF-SCORE:    0.00 PKD
ROOT
HETATM    1  C   UNL     1      -9.353   8.246  70.834  1.00  0.00    -0.187 C  
HETATM    2  C   UNL     1     -10.633   8.794  70.610  1.00  0.00    -0.258 C  
HETATM    3  C   UNL     1     -10.692   7.289  70.673  1.00  0.00    -0.252 C  
HETATM    4  C   UNL     1      -9.053   6.317  71.461  1.00  0.00    -0.145 C  
HETATM    5  C   UNL     1     -10.047   7.009  72.100  1.00  0.00    -0.198 C  
HETATM    6  C   UNL     1      -8.644   5.483  72.814  1.00  0.00    -0.120 C  
HETATM    7  C   UNL     1     -10.834   5.364  71.491  1.00  0.00    -0.218 C  
HETATM    8  C   UNL     1     -10.374   7.538  73.475  1.00  0.00    -0.373 C  
HETATM    9  C   UNL     1      -7.246   4.953  72.580  1.00  0.00    -0.083 C  
HETATM   10  C   UNL     1      -6.789   5.868  71.513  1.00  0.00    -0.067 C  
HETATM   11  C   UNL     1     -10.083   4.862  69.950  1.00  0.00    -0.332 C  
HETATM   12  C   UNL     1      -9.526   5.992  68.770  1.00  0.00    -0.137 C  
HETATM   13  O   UNL     1      -7.711   6.866  71.364  1.00  0.00    -0.090 OA 
HETATM   14  O   UNL     1      -5.732   5.791  70.914  1.00  0.00    -0.016 OA 
HETATM   15  C   UNL     1      -8.835   7.468  69.239  1.00  0.00    -0.136 C  
HETATM   16  C   UNL     1      -8.754   8.447  68.022  1.00  0.00    -0.139 C  
HETATM   17  C   UNL     1      -7.437   4.677  68.005  1.00  0.00    -0.073 C  
HETATM   18  C   UNL     1      -7.798   7.785  67.004  1.00  0.00    -0.112 C  
HETATM   19  C   UNL     1      -8.288   6.436  66.505  1.00  0.00    -0.115 C  
HETATM   20  C   UNL     1      -8.739   5.361  67.539  1.00  0.00    -0.107 C  
HETATM   21  C   UNL     1      -9.664   4.261  66.890  1.00  0.00    -0.239 C  
HETATM   22  C   UNL     1      -8.229   6.195  65.181  1.00  0.00    -0.141 C  
HETATM   23  C   UNL     1      -9.955   4.410  65.403  1.00  0.00    -0.231 C  
HETATM   24  C   UNL     1      -8.736   4.904  64.692  1.00  0.00    -0.152 C  
HETATM   25  O   UNL     1      -8.222   4.342  63.734  1.00  0.00    -0.089 OA 
ENDROOT
BRANCH  16  26
HETATM   26  S   UNL     1     -10.356   8.816  67.171  1.00  0.00    -0.287 SA 
BRANCH  26  27
HETATM   27  C   UNL     1     -10.520  10.532  67.517  1.00  0.00    -0.239 C  
HETATM   28  C   UNL     1      -9.267  11.183  68.028  1.00  0.00    -0.159 C  
HETATM   29  O   UNL     1     -11.562  11.139  67.316  1.00  0.00    -0.514 OA 
ENDBRANCH  26  27
ENDBRANCH  16  26
TORSDOF 2
ENDMDL
MODEL       44
REMARK 921   NORMALIZED FREE ENERGY PREDICTED BY IDOCK:   -4.61 KCAL/MOL
REMARK 922        TOTAL FREE ENERGY PREDICTED BY IDOCK:   -5.72 KCAL/MOL
REMARK 923 INTER-LIGAND FREE ENERGY PREDICTED BY IDOCK:   -5.30 KCAL/MOL
REMARK 924 INTRA-LIGAND FREE ENERGY PREDICTED BY IDOCK:   -0.42 KCAL/MOL
REMARK 927      BINDING AFFINITY PREDICTED BY RF-SCORE:    0.00 PKD
ROOT
HETATM    1  C   UNL     1     -10.031   8.152  72.704  1.00  0.00    -0.371 C  
HETATM    2  C   UNL     1     -11.438   8.196  72.632  1.00  0.00    -0.454 C  
HETATM    3  C   UNL     1     -10.900   6.963  71.953  1.00  0.00    -0.258 C  
HETATM    4  C   UNL     1      -8.942   6.451  72.350  1.00  0.00    -0.134 C  
HETATM    5  C   UNL     1     -10.059   6.299  73.129  1.00  0.00    -0.203 C  
HETATM    6  C   UNL     1      -8.109   5.297  73.168  1.00  0.00    -0.108 C  
HETATM    7  C   UNL     1     -10.199   5.001  71.717  1.00  0.00    -0.272 C  
HETATM    8  C   UNL     1     -10.428   5.919  74.542  1.00  0.00    -0.127 C  
HETATM    9  C   UNL     1      -6.645   5.535  72.864  1.00  0.00    -0.071 C  
HETATM   10  C   UNL     1      -6.689   6.947  72.431  1.00  0.00    -0.061 C  
HETATM   11  C   UNL     1      -9.469   5.647  70.220  1.00  0.00    -0.202 C  
HETATM   12  C   UNL     1      -9.516   7.321  69.804  1.00  0.00    -0.149 C  
HETATM   13  O   UNL     1      -7.937   7.446  72.681  1.00  0.00    -0.095 OA 
HETATM   14  O   UNL     1      -5.751   7.587  71.991  1.00  0.00    -0.036 OA 
HETATM   15  C   UNL     1      -9.411   8.517  71.001  1.00  0.00    -0.231 C  
HETATM   16  C   UNL     1      -9.839   9.908  70.426  1.00  0.00    -0.123 C  
HETATM   17  C   UNL     1      -7.167   7.468  68.737  1.00  0.00    -0.082 C  
HETATM   18  C   UNL     1      -8.806  10.253  69.329  1.00  0.00    -0.186 C  
HETATM   19  C   UNL     1      -8.779   9.247  68.189  1.00  0.00    -0.125 C  
HETATM   20  C   UNL     1      -8.672   7.728  68.517  1.00  0.00    -0.128 C  
HETATM   21  C   UNL     1      -9.154   6.824  67.319  1.00  0.00    -0.121 C  
HETATM   22  C   UNL     1      -8.763   9.725  66.930  1.00  0.00    -0.143 C  
HETATM   23  C   UNL     1      -9.626   7.551  66.068  1.00  0.00     0.042 C  
HETATM   24  C   UNL     1      -8.773   8.755  65.825  1.00  0.00    -0.179 C  
HETATM   25  O   UNL     1      -8.178   8.977  64.779  1.00  0.00    -0.141 OA 
ENDROOT
BRANCH  16  26
HETATM   26  S   UNL     1     -11.533   9.992  69.687  1.00  0.00    -0.101 SA 
BRANCH  26  27
HETATM   27  C   UNL     1     -12.149  11.450  70.452  1.00  0.00    -0.384 C  
HETATM   28  C   UNL     1     -13.057  11.200  71.621  1.00  0.00    -0.529 C  
HETATM   29  O   UNL     1     -11.825  12.568  70.076  1.00  0.00    -0.331 OA 
ENDBRANCH  26  27
ENDBRANCH  16  26
TORSDOF 2
ENDMDL
MODEL       45
REMARK 921   NORMALIZED FREE ENERGY PREDICTED BY IDOCK:   -4.60 KCAL/MOL
REMARK 922        TOTAL FREE ENERGY PREDICTED BY IDOCK:   -5.71 KCAL/MOL
REMARK 923 INTER-LIGAND FREE ENERGY PREDICTED BY IDOCK:   -5.21 KCAL/MOL
REMARK 924 INTRA-LIGAND FREE ENERGY PREDICTED BY IDOCK:   -0.50 KCAL/MOL
REMARK 927      BINDING AFFINITY PREDICTED BY RF-SCORE:    0.00 PKD
ROOT
HETATM    1  C   UNL     1      -9.800   9.200  69.737  1.00  0.00    -0.192 C  
HETATM    2  C   UNL     1     -10.652   9.523  68.661  1.00  0.00    -0.239 C  
HETATM    3  C   UNL     1     -11.134   8.291  69.381  1.00  0.00     0.088 C  
HETATM    4  C   UNL     1     -10.335   7.920  71.246  1.00  0.00    -0.191 C  
HETATM    5  C   UNL     1     -11.282   8.834  70.869  1.00  0.00    -0.320 C  
HETATM    6  C   UNL     1     -10.802   7.954  72.819  1.00  0.00    -0.451 C  
HETATM    7  C   UNL     1     -12.131   7.110  70.798  1.00  0.00    -0.331 C  
HETATM    8  C   UNL     1     -12.025  10.017  71.441  1.00  0.00    -0.470 C  
HETATM    9  C   UNL     1      -9.643   7.399  73.619  1.00  0.00    -0.337 C  
HETATM   10  C   UNL     1      -8.537   7.599  72.659  1.00  0.00    -0.127 C  
HETATM   11  C   UNL     1     -10.945   5.865  70.313  1.00  0.00    -0.390 C  
HETATM   12  C   UNL     1      -9.646   6.186  69.223  1.00  0.00    -0.153 C  
HETATM   13  O   UNL     1      -8.995   8.346  71.610  1.00  0.00    -0.160 OA 
HETATM   14  O   UNL     1      -7.388   7.225  72.808  1.00  0.00    -0.074 OA 
HETATM   15  C   UNL     1      -8.864   7.691  69.224  1.00  0.00    -0.136 C  
HETATM   16  C   UNL     1      -7.997   7.859  67.932  1.00  0.00    -0.128 C  
HETATM   17  C   UNL     1      -7.872   4.694  70.364  1.00  0.00    -0.054 C  
HETATM   18  C   UNL     1      -6.907   6.765  68.003  1.00  0.00    -0.078 C  
HETATM   19  C   UNL     1      -7.471   5.353  68.025  1.00  0.00    -0.077 C  
HETATM   20  C   UNL     1      -8.600   5.001  69.039  1.00  0.00    -0.091 C  
HETATM   21  C   UNL     1      -9.404   3.712  68.614  1.00  0.00    -0.228 C  
HETATM   22  C   UNL     1      -6.904   4.436  67.218  1.00  0.00    -0.052 C  
HETATM   23  C   UNL     1      -8.960   3.031  67.327  1.00  0.00    -0.184 C  
HETATM   24  C   UNL     1      -7.470   3.080  67.211  1.00  0.00    -0.066 C  
HETATM   25  O   UNL     1      -6.760   2.096  67.051  1.00  0.00    -0.037 OA 
ENDROOT
BRANCH  16  26
HETATM   26  S   UNL     1      -8.898   7.688  66.324  1.00  0.00    -0.158 SA 
BRANCH  26  27
HETATM   27  C   UNL     1      -8.801   9.337  65.722  1.00  0.00    -0.177 C  
HETATM   28  C   UNL     1      -7.624  10.116  66.235  1.00  0.00    -0.111 C  
HETATM   29  O   UNL     1      -9.609   9.785  64.921  1.00  0.00    -0.290 OA 
ENDBRANCH  26  27
ENDBRANCH  16  26
TORSDOF 2
ENDMDL
MODEL       46
REMARK 921   NORMALIZED FREE ENERGY PREDICTED BY IDOCK:   -4.50 KCAL/MOL
REMARK 922        TOTAL FREE ENERGY PREDICTED BY IDOCK:   -5.61 KCAL/MOL
REMARK 923 INTER-LIGAND FREE ENERGY PREDICTED BY IDOCK:   -5.19 KCAL/MOL
REMARK 924 INTRA-LIGAND FREE ENERGY PREDICTED BY IDOCK:   -0.41 KCAL/MOL
REMARK 927      BINDING AFFINITY PREDICTED BY RF-SCORE:    0.00 PKD
ROOT
HETATM    1  C   UNL     1      -6.907   7.175  71.576  1.00  0.00    -0.056 C  
HETATM    2  C   UNL     1      -6.137   8.191  72.178  1.00  0.00    -0.049 C  
HETATM    3  C   UNL     1      -7.549   8.199  72.704  1.00  0.00    -0.165 C  
HETATM    4  C   UNL     1      -8.698   6.527  72.332  1.00  0.00    -0.126 C  
HETATM    5  C   UNL     1      -7.692   6.709  73.243  1.00  0.00    -0.091 C  
HETATM    6  C   UNL     1      -9.331   5.255  73.155  1.00  0.00    -0.141 C  
HETATM    7  C   UNL     1      -9.202   7.704  73.896  1.00  0.00    -0.303 C  
HETATM    8  C   UNL     1      -6.852   5.899  74.200  1.00  0.00    -0.081 C  
HETATM    9  C   UNL     1     -10.197   4.500  72.171  1.00  0.00    -0.256 C  
HETATM   10  C   UNL     1      -9.628   4.980  70.893  1.00  0.00    -0.179 C  
HETATM   11  C   UNL     1     -10.144   8.354  72.523  1.00  0.00    -0.362 C  
HETATM   12  C   UNL     1      -9.414   8.848  71.040  1.00  0.00    -0.318 C  
HETATM   13  O   UNL     1      -8.495   5.697  71.158  1.00  0.00    -0.123 OA 
HETATM   14  O   UNL     1     -10.054   4.720  69.782  1.00  0.00    -0.233 OA 
HETATM   15  C   UNL     1      -8.070   8.023  70.416  1.00  0.00    -0.112 C  
HETATM   16  C   UNL     1      -7.383   8.865  69.290  1.00  0.00    -0.070 C  
HETATM   17  C   UNL     1     -11.286   8.035  69.456  1.00  0.00     0.140 C  
HETATM   18  C   UNL     1      -8.425   8.989  68.154  1.00  0.00    -0.129 C  
HETATM   19  C   UNL     1      -9.699   9.702  68.580  1.00  0.00    -0.161 C  
HETATM   20  C   UNL     1     -10.427   9.245  69.879  1.00  0.00    -0.247 C  
HETATM   21  C   UNL     1     -11.394  10.356  70.443  1.00  0.00    -0.417 C  
HETATM   22  C   UNL     1     -10.193  10.649  67.761  1.00  0.00    -0.212 C  
HETATM   23  C   UNL     1     -11.468  11.655  69.652  1.00  0.00    -0.359 C  
HETATM   24  C   UNL     1     -11.405  11.365  68.187  1.00  0.00    -0.304 C  
HETATM   25  O   UNL     1     -12.240  11.739  67.375  1.00  0.00    -0.501 OA 
ENDROOT
BRANCH  16  26
HETATM   26  S   UNL     1      -6.832  10.564  69.772  1.00  0.00    -0.149 SA 
BRANCH  26  27
HETATM   27  C   UNL     1      -6.093  11.104  68.270  1.00  0.00    -0.045 C  
HETATM   28  C   UNL     1      -6.371  12.538  67.924  1.00  0.00    -0.103 C  
HETATM   29  O   UNL     1      -5.382  10.372  67.595  1.00  0.00    -0.043 OA 
ENDBRANCH  26  27
ENDBRANCH  16  26
TORSDOF 2
ENDMDL
MODEL       47
REMARK 921   NORMALIZED FREE ENERGY PREDICTED BY IDOCK:   -4.50 KCAL/MOL
REMARK 922        TOTAL FREE ENERGY PREDICTED BY IDOCK:   -5.61 KCAL/MOL
REMARK 923 INTER-LIGAND FREE ENERGY PREDICTED BY IDOCK:   -5.20 KCAL/MOL
REMARK 924 INTRA-LIGAND FREE ENERGY PREDICTED BY IDOCK:   -0.40 KCAL/MOL
REMARK 927      BINDING AFFINITY PREDICTED BY RF-SCORE:    0.00 PKD
ROOT
HETATM    1  C   UNL     1      -9.479   8.870  66.072  1.00  0.00    -0.320 C  
HETATM    2  C   UNL     1      -9.105  10.229  66.027  1.00  0.00    -0.189 C  
HETATM    3  C   UNL     1      -7.970   9.371  66.525  1.00  0.00    -0.108 C  
HETATM    4  C   UNL     1      -8.126   7.338  66.218  1.00  0.00    -0.121 C  
HETATM    5  C   UNL     1      -7.814   8.332  65.330  1.00  0.00    -0.120 C  
HETATM    6  C   UNL     1      -7.439   6.172  65.288  1.00  0.00    -0.084 C  
HETATM    7  C   UNL     1      -6.283   8.126  66.475  1.00  0.00    -0.050 C  
HETATM    8  C   UNL     1      -7.625   8.526  63.845  1.00  0.00    -0.129 C  
HETATM    9  C   UNL     1      -8.022   4.857  65.755  1.00  0.00    -0.106 C  
HETATM   10  C   UNL     1      -9.251   5.332  66.423  1.00  0.00    -0.144 C  
HETATM   11  C   UNL     1      -6.809   7.670  68.120  1.00  0.00    -0.064 C  
HETATM   12  C   UNL     1      -8.287   8.226  68.817  1.00  0.00    -0.124 C  
HETATM   13  O   UNL     1      -9.411   6.663  66.156  1.00  0.00    -0.146 OA 
HETATM   14  O   UNL     1     -10.035   4.641  67.049  1.00  0.00    -0.197 OA 
HETATM   15  C   UNL     1      -9.670   8.442  67.861  1.00  0.00    -0.189 C  
HETATM   16  C   UNL     1     -10.743   9.283  68.630  1.00  0.00    -0.143 C  
HETATM   17  C   UNL     1      -8.891   6.063  70.095  1.00  0.00    -0.143 C  
HETATM   18  C   UNL     1     -11.150   8.436  69.857  1.00  0.00    -0.109 C  
HETATM   19  C   UNL     1      -9.994   8.148  70.802  1.00  0.00    -0.209 C  
HETATM   20  C   UNL     1      -8.662   7.583  70.224  1.00  0.00    -0.145 C  
HETATM   21  C   UNL     1      -7.444   7.814  71.198  1.00  0.00    -0.078 C  
HETATM   22  C   UNL     1     -10.204   8.315  72.122  1.00  0.00    -0.355 C  
HETATM   23  C   UNL     1      -7.750   8.521  72.511  1.00  0.00    -0.088 C  
HETATM   24  C   UNL     1      -9.077   8.073  73.034  1.00  0.00    -0.265 C  
HETATM   25  O   UNL     1      -9.254   7.605  74.152  1.00  0.00    -0.240 OA 
ENDROOT
BRANCH  16  26
HETATM   26  S   UNL     1     -10.195  10.949  69.221  1.00  0.00    -0.113 SA 
BRANCH  26  27
HETATM   27  C   UNL     1     -11.362  11.982  68.408  1.00  0.00    -0.279 C  
HETATM   28  C   UNL     1     -11.317  13.422  68.834  1.00  0.00    -0.331 C  
HETATM   29  O   UNL     1     -12.113  11.558  67.541  1.00  0.00    -0.614 OA 
ENDBRANCH  26  27
ENDBRANCH  16  26
TORSDOF 2
ENDMDL
MODEL       48
REMARK 921   NORMALIZED FREE ENERGY PREDICTED BY IDOCK:   -4.45 KCAL/MOL
REMARK 922        TOTAL FREE ENERGY PREDICTED BY IDOCK:   -5.55 KCAL/MOL
REMARK 923 INTER-LIGAND FREE ENERGY PREDICTED BY IDOCK:   -5.00 KCAL/MOL
REMARK 924 INTRA-LIGAND FREE ENERGY PREDICTED BY IDOCK:   -0.54 KCAL/MOL
REMARK 927      BINDING AFFINITY PREDICTED BY RF-SCORE:    0.00 PKD
ROOT
HETATM    1  C   UNL     1      -7.734   6.242  68.669  1.00  0.00    -0.101 C  
HETATM    2  C   UNL     1      -7.988   6.406  70.046  1.00  0.00    -0.112 C  
HETATM    3  C   UNL     1      -9.263   6.481  69.248  1.00  0.00    -0.139 C  
HETATM    4  C   UNL     1      -9.196   5.799  67.303  1.00  0.00    -0.110 C  
HETATM    5  C   UNL     1      -9.234   5.091  68.475  1.00  0.00    -0.153 C  
HETATM    6  C   UNL     1      -9.750   4.531  66.419  1.00  0.00    -0.218 C  
HETATM    7  C   UNL     1     -10.987   5.844  68.239  1.00  0.00    -0.262 C  
HETATM    8  C   UNL     1      -9.082   3.671  68.962  1.00  0.00    -0.202 C  
HETATM    9  C   UNL     1      -9.382   4.823  64.981  1.00  0.00    -0.113 C  
HETATM   10  C   UNL     1      -8.294   5.804  65.178  1.00  0.00    -0.146 C  
HETATM   11  C   UNL     1     -10.865   7.430  67.426  1.00  0.00    -0.299 C  
HETATM   12  C   UNL     1      -9.537   8.504  67.668  1.00  0.00    -0.187 C  
HETATM   13  O   UNL     1      -7.982   5.854  66.508  1.00  0.00    -0.100 OA 
HETATM   14  O   UNL     1      -7.719   6.416  64.297  1.00  0.00    -0.096 OA 
HETATM   15  C   UNL     1      -7.967   7.906  67.897  1.00  0.00    -0.128 C  
HETATM   16  C   UNL     1      -7.027   9.029  68.450  1.00  0.00    -0.068 C  
HETATM   17  C   UNL     1      -9.386   9.403  65.250  1.00  0.00    -0.303 C  
HETATM   18  C   UNL     1      -6.959  10.110  67.348  1.00  0.00    -0.082 C  
HETATM   19  C   UNL     1      -8.310  10.728  67.025  1.00  0.00    -0.129 C  
HETATM   20  C   UNL     1      -9.523   9.795  66.736  1.00  0.00    -0.209 C  
HETATM   21  C   UNL     1     -10.904  10.535  66.921  1.00  0.00    -0.252 C  
HETATM   22  C   UNL     1      -8.379  12.069  66.918  1.00  0.00    -0.159 C  
HETATM   23  C   UNL     1     -10.837  12.000  67.331  1.00  0.00    -0.285 C  
HETATM   24  C   UNL     1      -9.692  12.671  66.642  1.00  0.00    -0.249 C  
HETATM   25  O   UNL     1      -9.796  13.680  65.958  1.00  0.00    -0.295 OA 
ENDROOT
BRANCH  16  26
HETATM   26  S   UNL     1      -7.565   9.830  70.029  1.00  0.00    -0.175 SA 
BRANCH  26  27
HETATM   27  C   UNL     1      -6.040   9.880  70.903  1.00  0.00    -0.082 C  
HETATM   28  C   UNL     1      -5.142   8.703  70.649  1.00  0.00    -0.021 C  
HETATM   29  O   UNL     1      -5.734  10.819  71.624  1.00  0.00    -0.330 OA 
ENDBRANCH  26  27
ENDBRANCH  16  26
TORSDOF 2
ENDMDL
MODEL       49
REMARK 921   NORMALIZED FREE ENERGY PREDICTED BY IDOCK:   -4.39 KCAL/MOL
REMARK 922        TOTAL FREE ENERGY PREDICTED BY IDOCK:   -5.48 KCAL/MOL
REMARK 923 INTER-LIGAND FREE ENERGY PREDICTED BY IDOCK:   -5.01 KCAL/MOL
REMARK 924 INTRA-LIGAND FREE ENERGY PREDICTED BY IDOCK:   -0.48 KCAL/MOL
REMARK 927      BINDING AFFINITY PREDICTED BY RF-SCORE:    0.00 PKD
ROOT
HETATM    1  C   UNL     1      -9.419  13.846  66.003  1.00  0.00    -0.145 C  
HETATM    2  C   UNL     1     -10.526  13.631  65.157  1.00  0.00    -0.388 C  
HETATM    3  C   UNL     1     -10.900  13.417  66.600  1.00  0.00    -0.285 C  
HETATM    4  C   UNL     1      -9.593  14.135  68.025  1.00  0.00    -0.218 C  
HETATM    5  C   UNL     1     -10.488  14.814  67.242  1.00  0.00    -0.264 C  
HETATM    6  C   UNL     1      -9.516  15.342  69.135  1.00  0.00    -0.236 C  
HETATM    7  C   UNL     1     -11.524  13.862  68.552  1.00  0.00    -0.346 C  
HETATM    8  C   UNL     1     -10.849  16.234  66.881  1.00  0.00    -0.151 C  
HETATM    9  C   UNL     1      -8.240  15.120  69.917  1.00  0.00     0.160 C  
HETATM   10  C   UNL     1      -7.489  14.272  68.967  1.00  0.00    -0.102 C  
HETATM   11  C   UNL     1     -10.726  12.315  68.955  1.00  0.00    -0.210 C  
HETATM   12  C   UNL     1      -9.822  11.402  67.802  1.00  0.00    -0.186 C  
HETATM   13  O   UNL     1      -8.165  14.238  67.779  1.00  0.00    -0.148 OA 
HETATM   14  O   UNL     1      -6.411  13.747  69.179  1.00  0.00    -0.098 OA 
HETATM   15  C   UNL     1      -8.899  12.179  66.611  1.00  0.00    -0.182 C  
HETATM   16  C   UNL     1      -8.484  11.167  65.492  1.00  0.00    -0.003 C  
HETATM   17  C   UNL     1      -7.977  10.568  69.407  1.00  0.00    -0.146 C  
HETATM   18  C   UNL     1      -7.578  10.120  66.177  1.00  0.00    -0.114 C  
HETATM   19  C   UNL     1      -8.277   9.351  67.287  1.00  0.00    -0.117 C  
HETATM   20  C   UNL     1      -9.051  10.139  68.386  1.00  0.00    -0.133 C  
HETATM   21  C   UNL     1     -10.105   9.236  69.136  1.00  0.00    -0.204 C  
HETATM   22  C   UNL     1      -8.122   8.014  67.320  1.00  0.00    -0.121 C  
HETATM   23  C   UNL     1     -10.192   7.783  68.690  1.00  0.00    -0.217 C  
HETATM   24  C   UNL     1      -8.827   7.264  68.370  1.00  0.00    -0.128 C  
HETATM   25  O   UNL     1      -8.337   6.261  68.872  1.00  0.00    -0.118 OA 
ENDROOT
BRANCH  16  26
HETATM   26  S   UNL     1      -9.872  10.282  64.646  1.00  0.00    -0.289 SA 
BRANCH  26  27
HETATM   27  C   UNL     1      -9.186  10.059  63.043  1.00  0.00    -0.286 C  
HETATM   28  C   UNL     1      -8.652  11.316  62.418  1.00  0.00    -0.227 C  
HETATM   29  O   UNL     1      -9.120   8.960  62.510  1.00  0.00    -0.101 OA 
ENDBRANCH  26  27
ENDBRANCH  16  26
TORSDOF 2
ENDMDL
MODEL       50
REMARK 921   NORMALIZED FREE ENERGY PREDICTED BY IDOCK:   -4.39 KCAL/MOL
REMARK 922        TOTAL FREE ENERGY PREDICTED BY IDOCK:   -5.48 KCAL/MOL
REMARK 923 INTER-LIGAND FREE ENERGY PREDICTED BY IDOCK:   -5.08 KCAL/MOL
REMARK 924 INTRA-LIGAND FREE ENERGY PREDICTED BY IDOCK:   -0.40 KCAL/MOL
REMARK 927      BINDING AFFINITY PREDICTED BY RF-SCORE:    0.00 PKD
ROOT
HETATM    1  C   UNL     1      -8.021   8.540  66.424  1.00  0.00    -0.099 C  
HETATM    2  C   UNL     1      -8.772   7.738  65.540  1.00  0.00    -0.102 C  
HETATM    3  C   UNL     1      -9.653   8.736  66.246  1.00  0.00    -0.328 C  
HETATM    4  C   UNL     1      -8.716  10.304  67.203  1.00  0.00    -0.129 C  
HETATM    5  C   UNL     1      -8.942  10.107  65.867  1.00  0.00    -0.182 C  
HETATM    6  C   UNL     1      -8.522  11.924  67.020  1.00  0.00    -0.177 C  
HETATM    7  C   UNL     1     -10.645  10.539  66.647  1.00  0.00    -0.263 C  
HETATM    8  C   UNL     1      -8.548  10.704  64.537  1.00  0.00    -0.115 C  
HETATM    9  C   UNL     1      -7.786  12.405  68.251  1.00  0.00    -0.140 C  
HETATM   10  C   UNL     1      -7.182  11.138  68.713  1.00  0.00    -0.098 C  
HETATM   11  C   UNL     1     -10.733   9.898  68.313  1.00  0.00    -0.276 C  
HETATM   12  C   UNL     1      -9.958   8.433  68.792  1.00  0.00    -0.197 C  
HETATM   13  O   UNL     1      -7.379  10.182  67.756  1.00  0.00    -0.087 OA 
HETATM   14  O   UNL     1      -6.549  10.984  69.742  1.00  0.00    -0.117 OA 
HETATM   15  C   UNL     1      -8.461   7.985  68.131  1.00  0.00    -0.123 C  
HETATM   16  C   UNL     1      -8.155   6.481  68.437  1.00  0.00    -0.111 C  
HETATM   17  C   UNL     1      -9.258   9.181  71.164  1.00  0.00    -0.301 C  
HETATM   18  C   UNL     1      -8.038   6.373  69.974  1.00  0.00    -0.121 C  
HETATM   19  C   UNL     1      -9.314   6.763  70.704  1.00  0.00    -0.162 C  
HETATM   20  C   UNL     1     -10.012   8.109  70.349  1.00  0.00    -0.190 C  
HETATM   21  C   UNL     1     -11.525   8.132  70.793  1.00  0.00    -0.272 C  
HETATM   22  C   UNL     1      -9.741   5.959  71.697  1.00  0.00    -0.185 C  
HETATM   23  C   UNL     1     -12.047   6.880  71.484  1.00  0.00    -0.401 C  
HETATM   24  C   UNL     1     -10.993   6.314  72.380  1.00  0.00    -0.254 C  
HETATM   25  O   UNL     1     -11.153   6.087  73.572  1.00  0.00    -0.187 OA 
ENDROOT
BRANCH  16  26
HETATM   26  S   UNL     1      -9.419   5.262  67.855  1.00  0.00    -0.130 SA 
BRANCH  26  27
HETATM   27  C   UNL     1      -8.454   4.299  66.745  1.00  0.00    -0.104 C  
HETATM   28  C   UNL     1      -9.236   3.276  65.972  1.00  0.00    -0.151 C  
HETATM   29  O   UNL     1      -7.254   4.485  66.596  1.00  0.00    -0.076 OA 
ENDBRANCH  26  27
ENDBRANCH  16  26
TORSDOF 2
ENDMDL
MODEL       51
REMARK 921   NORMALIZED FREE ENERGY PREDICTED BY IDOCK:   -4.39 KCAL/MOL
REMARK 922        TOTAL FREE ENERGY PREDICTED BY IDOCK:   -5.48 KCAL/MOL
REMARK 923 INTER-LIGAND FREE ENERGY PREDICTED BY IDOCK:   -5.38 KCAL/MOL
REMARK 924 INTRA-LIGAND FREE ENERGY PREDICTED BY IDOCK:   -0.10 KCAL/MOL
REMARK 927      BINDING AFFINITY PREDICTED BY RF-SCORE:    0.00 PKD
ROOT
HETATM    1  C   UNL     1     -10.041   6.151  66.879  1.00  0.00    -0.232 C  
HETATM    2  C   UNL     1      -9.159   5.840  65.823  1.00  0.00    -0.122 C  
HETATM    3  C   UNL     1      -8.427   5.902  67.139  1.00  0.00    -0.107 C  
HETATM    4  C   UNL     1      -9.573   5.862  68.853  1.00  0.00    -0.132 C  
HETATM    5  C   UNL     1      -9.242   4.842  68.002  1.00  0.00    -0.151 C  
HETATM    6  C   UNL     1      -9.912   4.836  70.090  1.00  0.00    -0.321 C  
HETATM    7  C   UNL     1      -7.645   5.273  68.980  1.00  0.00    -0.078 C  
HETATM    8  C   UNL     1      -9.603   3.399  67.746  1.00  0.00    -0.166 C  
HETATM    9  C   UNL     1     -10.771   5.613  71.063  1.00  0.00    -0.304 C  
HETATM   10  C   UNL     1     -11.278   6.682  70.177  1.00  0.00    -0.360 C  
HETATM   11  C   UNL     1      -7.605   7.023  69.342  1.00  0.00    -0.099 C  
HETATM   12  C   UNL     1      -8.263   8.212  68.280  1.00  0.00    -0.129 C  
HETATM   13  O   UNL     1     -10.926   6.389  68.889  1.00  0.00    -0.295 OA 
HETATM   14  O   UNL     1     -11.959   7.630  70.522  1.00  0.00    -0.170 OA 
HETATM   15  C   UNL     1      -9.662   7.891  67.376  1.00  0.00    -0.210 C  
HETATM   16  C   UNL     1      -9.840   8.956  66.244  1.00  0.00    -0.285 C  
HETATM   17  C   UNL     1      -9.187   9.807  70.090  1.00  0.00    -0.253 C  
HETATM   18  C   UNL     1     -10.047  10.310  66.960  1.00  0.00    -0.268 C  
HETATM   19  C   UNL     1      -8.866  10.720  67.826  1.00  0.00    -0.130 C  
HETATM   20  C   UNL     1      -8.281   9.699  68.846  1.00  0.00    -0.110 C  
HETATM   21  C   UNL     1      -6.810  10.066  69.280  1.00  0.00    -0.059 C  
HETATM   22  C   UNL     1      -8.430  11.991  67.732  1.00  0.00    -0.157 C  
HETATM   23  C   UNL     1      -6.215  11.323  68.661  1.00  0.00    -0.044 C  
HETATM   24  C   UNL     1      -7.265  12.380  68.542  1.00  0.00    -0.103 C  
HETATM   25  O   UNL     1      -7.163  13.508  69.006  1.00  0.00    -0.099 OA 
ENDROOT
BRANCH  16  26
HETATM   26  S   UNL     1      -8.428   9.124  65.061  1.00  0.00    -0.180 SA 
BRANCH  26  27
HETATM   27  C   UNL     1      -9.206   9.997  63.748  1.00  0.00    -0.271 C  
HETATM   28  C   UNL     1      -8.930   9.436  62.382  1.00  0.00    -0.258 C  
HETATM   29  O   UNL     1      -9.939  10.955  63.949  1.00  0.00    -0.285 OA 
ENDBRANCH  26  27
ENDBRANCH  16  26
TORSDOF 2
ENDMDL
MODEL       52
REMARK 921   NORMALIZED FREE ENERGY PREDICTED BY IDOCK:   -4.38 KCAL/MOL
REMARK 922        TOTAL FREE ENERGY PREDICTED BY IDOCK:   -5.47 KCAL/MOL
REMARK 923 INTER-LIGAND FREE ENERGY PREDICTED BY IDOCK:   -5.26 KCAL/MOL
REMARK 924 INTRA-LIGAND FREE ENERGY PREDICTED BY IDOCK:   -0.20 KCAL/MOL
REMARK 927      BINDING AFFINITY PREDICTED BY RF-SCORE:    0.00 PKD
ROOT
HETATM    1  C   UNL     1     -11.605  15.953  68.852  1.00  0.00    -0.392 C  
HETATM    2  C   UNL     1     -11.489  16.181  70.238  1.00  0.00    -0.319 C  
HETATM    3  C   UNL     1     -10.148  15.867  69.628  1.00  0.00    -0.271 C  
HETATM    4  C   UNL     1     -10.002  15.975  67.574  1.00  0.00    -0.240 C  
HETATM    5  C   UNL     1     -10.046  16.984  68.500  1.00  0.00    -0.303 C  
HETATM    6  C   UNL     1      -9.315  16.935  66.433  1.00  0.00    -0.303 C  
HETATM    7  C   UNL     1      -8.311  16.172  68.663  1.00  0.00    -0.211 C  
HETATM    8  C   UNL     1     -10.185  18.485  68.553  1.00  0.00    -0.389 C  
HETATM    9  C   UNL     1      -9.557  16.255  65.103  1.00  0.00     0.736 C  
HETATM   10  C   UNL     1     -10.698  15.384  65.453  1.00  0.00    -0.400 C  
HETATM   11  C   UNL     1      -8.421  14.422  68.317  1.00  0.00    -0.165 C  
HETATM   12  C   UNL     1      -9.810  13.477  68.711  1.00  0.00    -0.050 C  
HETATM   13  O   UNL     1     -11.137  15.714  66.705  1.00  0.00    -0.284 OA 
HETATM   14  O   UNL     1     -11.213  14.556  64.723  1.00  0.00    -0.374 OA 
HETATM   15  C   UNL     1     -11.368  14.136  68.602  1.00  0.00    -0.306 C  
HETATM   16  C   UNL     1     -12.401  13.227  69.347  1.00  0.00    -0.037 C  
HETATM   17  C   UNL     1      -9.768  11.937  66.637  1.00  0.00    -0.220 C  
HETATM   18  C   UNL     1     -12.409  11.880  68.588  1.00  0.00     0.309 C  
HETATM   19  C   UNL     1     -11.060  11.179  68.591  1.00  0.00    -0.293 C  
HETATM   20  C   UNL     1      -9.788  11.977  68.179  1.00  0.00    -0.201 C  
HETATM   21  C   UNL     1      -8.463  11.300  68.703  1.00  0.00    -0.143 C  
HETATM   22  C   UNL     1     -11.037   9.862  68.869  1.00  0.00    -0.181 C  
HETATM   23  C   UNL     1      -8.629  10.011  69.496  1.00  0.00    -0.197 C  
HETATM   24  C   UNL     1      -9.730   9.189  68.908  1.00  0.00    -0.162 C  
HETATM   25  O   UNL     1      -9.603   8.026  68.547  1.00  0.00    -0.151 OA 
ENDROOT
BRANCH  16  26
HETATM   26  S   UNL     1     -12.049  12.896  71.132  1.00  0.00     0.426 SA 
BRANCH  26  27
HETATM   27  C   UNL     1     -13.509  13.535  71.876  1.00  0.00    -0.442 C  
HETATM   28  C   UNL     1     -14.129  14.684  71.133  1.00  0.00    -0.269 C  
HETATM   29  O   UNL     1     -13.988  13.050  72.890  1.00  0.00    -0.433 OA 
ENDBRANCH  26  27
ENDBRANCH  16  26
TORSDOF 2
ENDMDL
MODEL       53
REMARK 921   NORMALIZED FREE ENERGY PREDICTED BY IDOCK:   -4.35 KCAL/MOL
REMARK 922        TOTAL FREE ENERGY PREDICTED BY IDOCK:   -5.43 KCAL/MOL
REMARK 923 INTER-LIGAND FREE ENERGY PREDICTED BY IDOCK:   -5.08 KCAL/MOL
REMARK 924 INTRA-LIGAND FREE ENERGY PREDICTED BY IDOCK:   -0.35 KCAL/MOL
REMARK 927      BINDING AFFINITY PREDICTED BY RF-SCORE:    0.00 PKD
ROOT
HETATM    1  C   UNL     1      -6.245  10.303  65.638  1.00  0.00    -0.113 C  
HETATM    2  C   UNL     1      -5.548   9.772  66.743  1.00  0.00    -0.046 C  
HETATM    3  C   UNL     1      -6.886   9.100  66.573  1.00  0.00    -0.080 C  
HETATM    4  C   UNL     1      -7.851   9.370  64.771  1.00  0.00    -0.118 C  
HETATM    5  C   UNL     1      -6.783   8.568  65.077  1.00  0.00    -0.064 C  
HETATM    6  C   UNL     1      -8.228   8.502  63.430  1.00  0.00    -0.136 C  
HETATM    7  C   UNL     1      -8.327   7.746  65.875  1.00  0.00    -0.135 C  
HETATM    8  C   UNL     1      -5.751   7.717  64.379  1.00  0.00    -0.037 C  
HETATM    9  C   UNL     1      -9.094   9.399  62.572  1.00  0.00    -0.176 C  
HETATM   10  C   UNL     1      -8.729  10.723  63.119  1.00  0.00    -0.169 C  
HETATM   11  C   UNL     1      -9.484   9.002  66.402  1.00  0.00    -0.288 C  
HETATM   12  C   UNL     1      -8.983  10.548  66.984  1.00  0.00    -0.149 C  
HETATM   13  O   UNL     1      -7.673  10.570  63.973  1.00  0.00    -0.079 OA 
HETATM   14  O   UNL     1      -9.235  11.786  62.809  1.00  0.00    -0.331 OA 
HETATM   15  C   UNL     1      -7.622  11.322  66.334  1.00  0.00    -0.072 C  
HETATM   16  C   UNL     1      -7.170  12.503  67.255  1.00  0.00    -0.114 C  
HETATM   17  C   UNL     1     -10.898  11.935  65.943  1.00  0.00    -0.342 C  
HETATM   18  C   UNL     1      -8.334  13.520  67.248  1.00  0.00    -0.188 C  
HETATM   19  C   UNL     1      -9.634  12.952  67.795  1.00  0.00    -0.212 C  
HETATM   20  C   UNL     1     -10.157  11.589  67.251  1.00  0.00    -0.223 C  
HETATM   21  C   UNL     1     -11.188  10.911  68.233  1.00  0.00    -0.347 C  
HETATM   22  C   UNL     1     -10.327  13.701  68.674  1.00  0.00    -0.223 C  
HETATM   23  C   UNL     1     -11.507  11.672  69.512  1.00  0.00    -0.371 C  
HETATM   24  C   UNL     1     -11.566  13.139  69.232  1.00  0.00    -0.314 C  
HETATM   25  O   UNL     1     -12.523  13.853  69.499  1.00  0.00    -0.286 OA 
ENDROOT
BRANCH  16  26
HETATM   26  S   UNL     1      -6.786  12.059  69.010  1.00  0.00    -0.098 SA 
BRANCH  26  27
HETATM   27  C   UNL     1      -5.832  13.454  69.496  1.00  0.00    -0.102 C  
HETATM   28  C   UNL     1      -5.898  13.769  70.963  1.00  0.00    -0.182 C  
HETATM   29  O   UNL     1      -5.146  14.082  68.702  1.00  0.00    -0.081 OA 
ENDBRANCH  26  27
ENDBRANCH  16  26
TORSDOF 2
ENDMDL
MODEL       54
REMARK 921   NORMALIZED FREE ENERGY PREDICTED BY IDOCK:   -4.35 KCAL/MOL
REMARK 922        TOTAL FREE ENERGY PREDICTED BY IDOCK:   -5.43 KCAL/MOL
REMARK 923 INTER-LIGAND FREE ENERGY PREDICTED BY IDOCK:   -5.03 KCAL/MOL
REMARK 924 INTRA-LIGAND FREE ENERGY PREDICTED BY IDOCK:   -0.40 KCAL/MOL
REMARK 927      BINDING AFFINITY PREDICTED BY RF-SCORE:    0.00 PKD
ROOT
HETATM    1  C   UNL     1      -8.929   8.318  67.034  1.00  0.00    -0.159 C  
HETATM    2  C   UNL     1      -8.440   9.517  67.593  1.00  0.00    -0.122 C  
HETATM    3  C   UNL     1      -7.571   8.348  67.976  1.00  0.00    -0.098 C  
HETATM    4  C   UNL     1      -7.810   6.606  66.897  1.00  0.00    -0.108 C  
HETATM    5  C   UNL     1      -7.175   7.768  66.548  1.00  0.00    -0.086 C  
HETATM    6  C   UNL     1      -6.993   5.723  65.781  1.00  0.00    -0.068 C  
HETATM    7  C   UNL     1      -6.053   6.906  67.849  1.00  0.00    -0.033 C  
HETATM    8  C   UNL     1      -6.560   8.418  65.333  1.00  0.00    -0.056 C  
HETATM    9  C   UNL     1      -7.796   4.458  65.570  1.00  0.00    -0.094 C  
HETATM   10  C   UNL     1      -9.118   4.895  66.066  1.00  0.00    -0.139 C  
HETATM   11  C   UNL     1      -7.058   6.021  69.032  1.00  0.00    -0.073 C  
HETATM   12  C   UNL     1      -8.618   6.569  69.527  1.00  0.00    -0.134 C  
HETATM   13  O   UNL     1      -9.079   6.242  66.292  1.00  0.00    -0.152 OA 
HETATM   14  O   UNL     1     -10.103   4.189  66.186  1.00  0.00    -0.206 OA 
HETATM   15  C   UNL     1      -9.652   7.350  68.433  1.00  0.00    -0.149 C  
HETATM   16  C   UNL     1     -10.820   8.061  69.195  1.00  0.00    -0.021 C  
HETATM   17  C   UNL     1      -9.744   4.251  69.718  1.00  0.00    -0.290 C  
HETATM   18  C   UNL     1     -11.628   6.937  69.881  1.00  0.00    -0.255 C  
HETATM   19  C   UNL     1     -10.815   6.136  70.886  1.00  0.00    -0.342 C  
HETATM   20  C   UNL     1      -9.429   5.567  70.460  1.00  0.00    -0.209 C  
HETATM   21  C   UNL     1      -8.519   5.223  71.701  1.00  0.00    -0.126 C  
HETATM   22  C   UNL     1     -11.373   5.879  72.084  1.00  0.00    -0.344 C  
HETATM   23  C   UNL     1      -9.120   5.483  73.075  1.00  0.00    -0.125 C  
HETATM   24  C   UNL     1     -10.574   5.137  73.071  1.00  0.00    -0.230 C  
HETATM   25  O   UNL     1     -11.098   4.358  73.856  1.00  0.00    -0.260 OA 
ENDROOT
BRANCH  16  26
HETATM   26  S   UNL     1     -10.317   9.294  70.479  1.00  0.00    -0.277 SA 
BRANCH  26  27
HETATM   27  C   UNL     1     -11.892   9.809  71.068  1.00  0.00    -0.356 C  
HETATM   28  C   UNL     1     -12.245   9.285  72.430  1.00  0.00    -0.203 C  
HETATM   29  O   UNL     1     -12.611  10.564  70.428  1.00  0.00    -0.320 OA 
ENDBRANCH  26  27
ENDBRANCH  16  26
TORSDOF 2
ENDMDL
MODEL       55
REMARK 921   NORMALIZED FREE ENERGY PREDICTED BY IDOCK:   -4.32 KCAL/MOL
REMARK 922        TOTAL FREE ENERGY PREDICTED BY IDOCK:   -5.40 KCAL/MOL
REMARK 923 INTER-LIGAND FREE ENERGY PREDICTED BY IDOCK:   -5.01 KCAL/MOL
REMARK 924 INTRA-LIGAND FREE ENERGY PREDICTED BY IDOCK:   -0.38 KCAL/MOL
REMARK 927      BINDING AFFINITY PREDICTED BY RF-SCORE:    0.00 PKD
ROOT
HETATM    1  C   UNL     1     -10.940  17.002  69.078  1.00  0.00    -0.103 C  
HETATM    2  C   UNL     1     -10.729  16.564  70.402  1.00  0.00     0.017 C  
HETATM    3  C   UNL     1      -9.479  16.411  69.575  1.00  0.00    -0.006 C  
HETATM    4  C   UNL     1      -9.412  17.419  67.778  1.00  0.00    -0.261 C  
HETATM    5  C   UNL     1      -9.264  17.898  69.052  1.00  0.00    -0.047 C  
HETATM    6  C   UNL     1      -8.642  18.707  67.112  1.00  0.00    -0.277 C  
HETATM    7  C   UNL     1      -7.663  16.911  68.653  1.00  0.00    -0.235 C  
HETATM    8  C   UNL     1      -9.174  19.218  69.778  1.00  0.00     0.531 C  
HETATM    9  C   UNL     1      -9.043  18.734  65.653  1.00  0.00     0.706 C  
HETATM   10  C   UNL     1     -10.284  17.933  65.703  1.00  0.00     0.016 C  
HETATM   11  C   UNL     1      -8.048  15.532  67.584  1.00  0.00    -0.162 C  
HETATM   12  C   UNL     1      -9.542  14.674  67.667  1.00  0.00    -0.212 C  
HETATM   13  O   UNL     1     -10.611  17.709  67.011  1.00  0.00    -0.328 OA 
HETATM   14  O   UNL     1     -10.949  17.589  64.742  1.00  0.00    -0.950 OA 
HETATM   15  C   UNL     1     -10.989  15.481  68.028  1.00  0.00    -0.311 C  
HETATM   16  C   UNL     1     -12.111  14.456  68.401  1.00  0.00    -0.243 C  
HETATM   17  C   UNL     1      -9.824  14.243  65.134  1.00  0.00    -0.141 C  
HETATM   18  C   UNL     1     -12.353  13.608  67.132  1.00  0.00    -0.234 C  
HETATM   19  C   UNL     1     -11.125  12.835  66.680  1.00  0.00    -0.313 C  
HETATM   20  C   UNL     1      -9.768  13.584  66.528  1.00  0.00    -0.287 C  
HETATM   21  C   UNL     1      -8.536  12.599  66.554  1.00  0.00     0.051 C  
HETATM   22  C   UNL     1     -11.286  11.541  66.344  1.00  0.00    -0.307 C  
HETATM   23  C   UNL     1      -8.856  11.119  66.709  1.00  0.00    -0.162 C  
HETATM   24  C   UNL     1     -10.093  10.781  65.941  1.00  0.00    -0.256 C  
HETATM   25  O   UNL     1     -10.157   9.901  65.092  1.00  0.00    -0.309 OA 
ENDROOT
BRANCH  16  26
HETATM   26  S   UNL     1     -11.731  13.316  69.808  1.00  0.00    -0.251 SA 
BRANCH  26  27
HETATM   27  C   UNL     1     -12.996  13.767  70.943  1.00  0.00    -0.216 C  
HETATM   28  C   UNL     1     -13.128  12.846  72.121  1.00  0.00    -0.466 C  
HETATM   29  O   UNL     1     -13.677  14.772  70.792  1.00  0.00    -0.258 OA 
ENDBRANCH  26  27
ENDBRANCH  16  26
TORSDOF 2
ENDMDL
MODEL       56
REMARK 921   NORMALIZED FREE ENERGY PREDICTED BY IDOCK:   -4.31 KCAL/MOL
REMARK 922        TOTAL FREE ENERGY PREDICTED BY IDOCK:   -5.39 KCAL/MOL
REMARK 923 INTER-LIGAND FREE ENERGY PREDICTED BY IDOCK:   -5.00 KCAL/MOL
REMARK 924 INTRA-LIGAND FREE ENERGY PREDICTED BY IDOCK:   -0.39 KCAL/MOL
REMARK 927      BINDING AFFINITY PREDICTED BY RF-SCORE:    0.00 PKD
ROOT
HETATM    1  C   UNL     1      -9.234   8.346  67.154  1.00  0.00    -0.174 C  
HETATM    2  C   UNL     1      -8.795   9.519  67.803  1.00  0.00    -0.119 C  
HETATM    3  C   UNL     1      -7.733   8.450  67.838  1.00  0.00    -0.103 C  
HETATM    4  C   UNL     1      -7.964   6.854  66.554  1.00  0.00    -0.109 C  
HETATM    5  C   UNL     1      -7.555   8.133  66.289  1.00  0.00    -0.090 C  
HETATM    6  C   UNL     1      -7.278   6.259  65.186  1.00  0.00    -0.070 C  
HETATM    7  C   UNL     1      -6.106   7.281  67.221  1.00  0.00    -0.042 C  
HETATM    8  C   UNL     1      -7.269   9.024  65.105  1.00  0.00    -0.088 C  
HETATM    9  C   UNL     1      -7.948   4.928  64.919  1.00  0.00    -0.096 C  
HETATM   10  C   UNL     1      -9.192   5.094  65.700  1.00  0.00    -0.151 C  
HETATM   11  C   UNL     1      -6.748   6.106  68.404  1.00  0.00    -0.064 C  
HETATM   12  C   UNL     1      -8.237   6.344  69.243  1.00  0.00    -0.115 C  
HETATM   13  O   UNL     1      -9.273   6.390  66.127  1.00  0.00    -0.158 OA 
HETATM   14  O   UNL     1     -10.042   4.240  65.875  1.00  0.00    -0.224 OA 
HETATM   15  C   UNL     1      -9.550   7.103  68.485  1.00  0.00    -0.139 C  
HETATM   16  C   UNL     1     -10.626   7.524  69.540  1.00  0.00    -0.236 C  
HETATM   17  C   UNL     1      -9.015   3.881  69.256  1.00  0.00    -0.175 C  
HETATM   18  C   UNL     1     -11.144   6.210  70.169  1.00  0.00    -0.448 C  
HETATM   19  C   UNL     1     -10.060   5.412  70.877  1.00  0.00    -0.286 C  
HETATM   20  C   UNL     1      -8.724   5.117  70.131  1.00  0.00    -0.128 C  
HETATM   21  C   UNL     1      -7.556   4.748  71.125  1.00  0.00    -0.081 C  
HETATM   22  C   UNL     1     -10.340   4.916  72.097  1.00  0.00    -0.263 C  
HETATM   23  C   UNL     1      -7.907   4.730  72.606  1.00  0.00    -0.093 C  
HETATM   24  C   UNL     1      -9.281   4.175  72.799  1.00  0.00    -0.115 C  
HETATM   25  O   UNL     1      -9.546   3.229  73.529  1.00  0.00    -0.104 OA 
ENDROOT
BRANCH  16  26
HETATM   26  S   UNL     1     -10.037   8.634  70.898  1.00  0.00    -0.227 SA 
BRANCH  26  27
HETATM   27  C   UNL     1     -11.483   9.593  71.183  1.00  0.00    -0.384 C  
HETATM   28  C   UNL     1     -12.396   9.037  72.238  1.00  0.00    -0.402 C  
HETATM   29  O   UNL     1     -11.693  10.643  70.593  1.00  0.00    -0.320 OA 
ENDBRANCH  26  27
ENDBRANCH  16  26
TORSDOF 2
ENDMDL
MODEL       57
REMARK 921   NORMALIZED FREE ENERGY PREDICTED BY IDOCK:   -4.27 KCAL/MOL
REMARK 922        TOTAL FREE ENERGY PREDICTED BY IDOCK:   -5.35 KCAL/MOL
REMARK 923 INTER-LIGAND FREE ENERGY PREDICTED BY IDOCK:   -4.82 KCAL/MOL
REMARK 924 INTRA-LIGAND FREE ENERGY PREDICTED BY IDOCK:   -0.53 KCAL/MOL
REMARK 927      BINDING AFFINITY PREDICTED BY RF-SCORE:    0.00 PKD
ROOT
HETATM    1  C   UNL     1      -8.378   9.837  70.561  1.00  0.00    -0.014 C  
HETATM    2  C   UNL     1      -7.150   9.703  69.881  1.00  0.00    -0.095 C  
HETATM    3  C   UNL     1      -8.286   9.147  69.062  1.00  0.00    -0.127 C  
HETATM    4  C   UNL     1     -10.198   9.665  69.635  1.00  0.00    -0.222 C  
HETATM    5  C   UNL     1      -9.255  10.406  68.974  1.00  0.00    -0.194 C  
HETATM    6  C   UNL     1     -11.435  10.606  69.105  1.00  0.00    -0.349 C  
HETATM    7  C   UNL     1      -9.896   9.098  67.719  1.00  0.00    -0.214 C  
HETATM    8  C   UNL     1      -9.021  11.829  68.527  1.00  0.00    -0.132 C  
HETATM    9  C   UNL     1     -12.597  10.346  70.038  1.00  0.00    -0.125 C  
HETATM   10  C   UNL     1     -11.881   9.800  71.210  1.00  0.00    -0.399 C  
HETATM   11  C   UNL     1     -10.314   7.586  68.574  1.00  0.00    -0.224 C  
HETATM   12  C   UNL     1      -9.461   7.036  69.970  1.00  0.00    -0.161 C  
HETATM   13  O   UNL     1     -10.537   9.957  71.017  1.00  0.00    -0.290 OA 
HETATM   14  O   UNL     1     -12.399   9.350  72.216  1.00  0.00    -0.324 OA 
HETATM   15  C   UNL     1      -8.857   8.137  71.109  1.00  0.00    -0.171 C  
HETATM   16  C   UNL     1      -7.831   7.436  72.060  1.00  0.00    -0.090 C  
HETATM   17  C   UNL     1     -11.489   6.059  71.239  1.00  0.00    -0.251 C  
HETATM   18  C   UNL     1      -8.630   6.359  72.829  1.00  0.00    -0.125 C  
HETATM   19  C   UNL     1      -9.247   5.305  71.924  1.00  0.00    -0.156 C  
HETATM   20  C   UNL     1     -10.080   5.757  70.688  1.00  0.00    -0.263 C  
HETATM   21  C   UNL     1     -10.212   4.616  69.607  1.00  0.00    -0.118 C  
HETATM   22  C   UNL     1      -9.117   4.013  72.283  1.00  0.00    -0.149 C  
HETATM   23  C   UNL     1      -9.535   3.292  69.934  1.00  0.00    -0.216 C  
HETATM   24  C   UNL     1      -9.681   2.990  71.390  1.00  0.00    -0.148 C  
HETATM   25  O   UNL     1     -10.160   1.955  71.834  1.00  0.00    -0.152 OA 
ENDROOT
BRANCH  16  26
HETATM   26  S   UNL     1      -6.388   6.623  71.236  1.00  0.00    -0.042 SA 
BRANCH  26  27
HETATM   27  C   UNL     1      -5.570   5.926  72.628  1.00  0.00    -0.031 C  
HETATM   28  C   UNL     1      -5.380   4.438  72.553  1.00  0.00    -0.004 C  
HETATM   29  O   UNL     1      -5.160   6.613  73.553  1.00  0.00    -0.035 OA 
ENDBRANCH  26  27
ENDBRANCH  16  26
TORSDOF 2
ENDMDL
MODEL       58
REMARK 921   NORMALIZED FREE ENERGY PREDICTED BY IDOCK:   -4.27 KCAL/MOL
REMARK 922        TOTAL FREE ENERGY PREDICTED BY IDOCK:   -5.35 KCAL/MOL
REMARK 923 INTER-LIGAND FREE ENERGY PREDICTED BY IDOCK:   -4.96 KCAL/MOL
REMARK 924 INTRA-LIGAND FREE ENERGY PREDICTED BY IDOCK:   -0.39 KCAL/MOL
REMARK 927      BINDING AFFINITY PREDICTED BY RF-SCORE:    0.00 PKD
ROOT
HETATM    1  C   UNL     1      -8.907   9.982  66.882  1.00  0.00    -0.142 C  
HETATM    2  C   UNL     1      -9.225  10.212  65.528  1.00  0.00    -0.237 C  
HETATM    3  C   UNL     1      -7.765  10.471  65.792  1.00  0.00    -0.145 C  
HETATM    4  C   UNL     1      -6.987   9.745  67.558  1.00  0.00    -0.083 C  
HETATM    5  C   UNL     1      -7.304   9.078  66.406  1.00  0.00    -0.088 C  
HETATM    6  C   UNL     1      -5.968   8.562  68.066  1.00  0.00    -0.046 C  
HETATM    7  C   UNL     1      -5.716  10.092  66.026  1.00  0.00    -0.068 C  
HETATM    8  C   UNL     1      -7.434   7.662  65.899  1.00  0.00    -0.082 C  
HETATM    9  C   UNL     1      -5.793   8.762  69.555  1.00  0.00    -0.033 C  
HETATM   10  C   UNL     1      -6.997   9.563  69.860  1.00  0.00    -0.078 C  
HETATM   11  C   UNL     1      -5.734  11.622  66.949  1.00  0.00    -0.139 C  
HETATM   12  C   UNL     1      -7.188  12.478  67.311  1.00  0.00    -0.114 C  
HETATM   13  O   UNL     1      -7.798   9.591  68.753  1.00  0.00    -0.082 OA 
HETATM   14  O   UNL     1      -7.269  10.057  70.939  1.00  0.00    -0.326 OA 
HETATM   15  C   UNL     1      -8.627  11.644  67.641  1.00  0.00    -0.142 C  
HETATM   16  C   UNL     1      -9.852  12.616  67.572  1.00  0.00    -0.203 C  
HETATM   17  C   UNL     1      -6.523  13.289  69.672  1.00  0.00    -0.053 C  
HETATM   18  C   UNL     1      -9.641  13.649  68.702  1.00  0.00    -0.100 C  
HETATM   19  C   UNL     1      -8.368  14.466  68.542  1.00  0.00    -0.157 C  
HETATM   20  C   UNL     1      -7.021  13.729  68.280  1.00  0.00    -0.109 C  
HETATM   21  C   UNL     1      -5.933  14.683  67.650  1.00  0.00    -0.051 C  
HETATM   22  C   UNL     1      -8.449  15.798  68.723  1.00  0.00    -0.198 C  
HETATM   23  C   UNL     1      -6.352  16.127  67.414  1.00  0.00    -0.210 C  
HETATM   24  C   UNL     1      -7.227  16.594  68.533  1.00  0.00    -0.183 C  
HETATM   25  O   UNL     1      -7.008  17.592  69.207  1.00  0.00    -0.243 OA 
ENDROOT
BRANCH  16  26
HETATM   26  S   UNL     1     -10.076  13.526  65.977  1.00  0.00    -0.308 SA 
BRANCH  26  27
HETATM   27  C   UNL     1     -11.831  13.559  65.866  1.00  0.00    -0.372 C  
HETATM   28  C   UNL     1     -12.394  12.763  64.724  1.00  0.00    -0.540 C  
HETATM   29  O   UNL     1     -12.523  14.153  66.681  1.00  0.00    -0.426 OA 
ENDBRANCH  26  27
ENDBRANCH  16  26
TORSDOF 2
ENDMDL
MODEL       59
REMARK 921   NORMALIZED FREE ENERGY PREDICTED BY IDOCK:   -4.20 KCAL/MOL
REMARK 922        TOTAL FREE ENERGY PREDICTED BY IDOCK:   -5.27 KCAL/MOL
REMARK 923 INTER-LIGAND FREE ENERGY PREDICTED BY IDOCK:   -4.83 KCAL/MOL
REMARK 924 INTRA-LIGAND FREE ENERGY PREDICTED BY IDOCK:   -0.44 KCAL/MOL
REMARK 927      BINDING AFFINITY PREDICTED BY RF-SCORE:    0.00 PKD
ROOT
HETATM    1  C   UNL     1      -8.084   5.905  68.812  1.00  0.00    -0.103 C  
HETATM    2  C   UNL     1      -8.825   5.620  69.978  1.00  0.00    -0.136 C  
HETATM    3  C   UNL     1      -9.737   5.909  68.814  1.00  0.00    -0.161 C  
HETATM    4  C   UNL     1      -8.897   5.873  66.931  1.00  0.00    -0.115 C  
HETATM    5  C   UNL     1      -9.242   4.833  67.752  1.00  0.00    -0.145 C  
HETATM    6  C   UNL     1      -8.920   4.933  65.585  1.00  0.00    -0.146 C  
HETATM    7  C   UNL     1     -10.889   5.574  67.093  1.00  0.00    -0.166 C  
HETATM    8  C   UNL     1      -9.070   3.336  67.839  1.00  0.00    -0.213 C  
HETATM    9  C   UNL     1      -8.116   5.671  64.537  1.00  0.00    -0.131 C  
HETATM   10  C   UNL     1      -7.318   6.570  65.397  1.00  0.00    -0.076 C  
HETATM   11  C   UNL     1     -10.716   7.339  66.869  1.00  0.00    -0.346 C  
HETATM   12  C   UNL     1      -9.723   8.317  67.885  1.00  0.00    -0.192 C  
HETATM   13  O   UNL     1      -7.502   6.208  66.702  1.00  0.00    -0.087 OA 
HETATM   14  O   UNL     1      -6.563   7.442  65.009  1.00  0.00    -0.043 OA 
HETATM   15  C   UNL     1      -8.265   7.720  68.511  1.00  0.00    -0.128 C  
HETATM   16  C   UNL     1      -7.749   8.636  69.669  1.00  0.00    -0.089 C  
HETATM   17  C   UNL     1      -8.864   9.934  66.061  1.00  0.00    -0.166 C  
HETATM   18  C   UNL     1      -7.453  10.010  69.026  1.00  0.00    -0.087 C  
HETATM   19  C   UNL     1      -8.678  10.662  68.406  1.00  0.00    -0.141 C  
HETATM   20  C   UNL     1      -9.568   9.835  67.431  1.00  0.00    -0.187 C  
HETATM   21  C   UNL     1     -11.015  10.443  67.282  1.00  0.00    -0.306 C  
HETATM   22  C   UNL     1      -8.895  11.966  68.663  1.00  0.00    -0.041 C  
HETATM   23  C   UNL     1     -11.305  11.706  68.080  1.00  0.00    -0.358 C  
HETATM   24  C   UNL     1     -10.099  12.590  68.094  1.00  0.00    -0.225 C  
HETATM   25  O   UNL     1     -10.099  13.760  67.734  1.00  0.00    -0.236 OA 
ENDROOT
BRANCH  16  26
HETATM   26  S   UNL     1      -8.913   8.887  71.085  1.00  0.00    -0.241 SA 
BRANCH  26  27
HETATM   27  C   UNL     1      -7.910   8.356  72.428  1.00  0.00    -0.099 C  
HETATM   28  C   UNL     1      -8.496   7.230  73.231  1.00  0.00    -0.158 C  
HETATM   29  O   UNL     1      -6.813   8.847  72.654  1.00  0.00    -0.307 OA 
ENDBRANCH  26  27
ENDBRANCH  16  26
TORSDOF 2
ENDMDL
MODEL       60
REMARK 921   NORMALIZED FREE ENERGY PREDICTED BY IDOCK:   -4.20 KCAL/MOL
REMARK 922        TOTAL FREE ENERGY PREDICTED BY IDOCK:   -5.27 KCAL/MOL
REMARK 923 INTER-LIGAND FREE ENERGY PREDICTED BY IDOCK:   -4.95 KCAL/MOL
REMARK 924 INTRA-LIGAND FREE ENERGY PREDICTED BY IDOCK:   -0.32 KCAL/MOL
REMARK 927      BINDING AFFINITY PREDICTED BY RF-SCORE:    0.00 PKD
ROOT
HETATM    1  C   UNL     1      -6.732   8.197  69.633  1.00  0.00    -0.038 C  
HETATM    2  C   UNL     1      -6.223   9.179  70.508  1.00  0.00    -0.049 C  
HETATM    3  C   UNL     1      -7.646   8.829  70.857  1.00  0.00    -0.109 C  
HETATM    4  C   UNL     1      -8.417   7.101  70.035  1.00  0.00    -0.140 C  
HETATM    5  C   UNL     1      -7.539   7.256  71.074  1.00  0.00    -0.084 C  
HETATM    6  C   UNL     1      -8.853   5.593  70.514  1.00  0.00    -0.145 C  
HETATM    7  C   UNL     1      -9.259   7.811  71.729  1.00  0.00    -0.177 C  
HETATM    8  C   UNL     1      -6.635   6.419  71.946  1.00  0.00    -0.058 C  
HETATM    9  C   UNL     1      -9.477   4.927  69.307  1.00  0.00    -0.206 C  
HETATM   10  C   UNL     1      -8.914   5.760  68.223  1.00  0.00    -0.115 C  
HETATM   11  C   UNL     1     -10.199   8.566  70.409  1.00  0.00    -0.215 C  
HETATM   12  C   UNL     1      -9.466   9.484  69.147  1.00  0.00    -0.163 C  
HETATM   13  O   UNL     1      -7.966   6.589  68.752  1.00  0.00    -0.108 OA 
HETATM   14  O   UNL     1      -9.194   5.674  67.041  1.00  0.00    -0.115 OA 
HETATM   15  C   UNL     1      -7.943   9.058  68.534  1.00  0.00    -0.103 C  
HETATM   16  C   UNL     1      -7.348  10.227  67.682  1.00  0.00    -0.088 C  
HETATM   17  C   UNL     1     -11.016   8.716  67.227  1.00  0.00     0.117 C  
HETATM   18  C   UNL     1      -8.302  10.408  66.479  1.00  0.00    -0.130 C  
HETATM   19  C   UNL     1      -9.719  10.781  66.885  1.00  0.00    -0.209 C  
HETATM   20  C   UNL     1     -10.444   9.938  67.976  1.00  0.00    -0.266 C  
HETATM   21  C   UNL     1     -11.648  10.718  68.630  1.00  0.00    -0.342 C  
HETATM   22  C   UNL     1     -10.322  11.781  66.215  1.00  0.00    -0.259 C  
HETATM   23  C   UNL     1     -11.911  12.123  68.105  1.00  0.00    -0.362 C  
HETATM   24  C   UNL     1     -11.679  12.168  66.629  1.00  0.00    -0.313 C  
HETATM   25  O   UNL     1     -12.506  12.556  65.814  1.00  0.00    -0.626 OA 
ENDROOT
BRANCH  16  26
HETATM   26  S   UNL     1      -7.175  11.853  68.547  1.00  0.00    -0.105 SA 
BRANCH  26  27
HETATM   27  C   UNL     1      -6.065  12.682  67.463  1.00  0.00    -0.157 C  
HETATM   28  C   UNL     1      -6.073  14.178  67.594  1.00  0.00    -0.075 C  
HETATM   29  O   UNL     1      -5.326  12.075  66.701  1.00  0.00    -0.312 OA 
ENDBRANCH  26  27
ENDBRANCH  16  26
TORSDOF 2
ENDMDL
MODEL       61
REMARK 921   NORMALIZED FREE ENERGY PREDICTED BY IDOCK:   -4.18 KCAL/MOL
REMARK 922        TOTAL FREE ENERGY PREDICTED BY IDOCK:   -5.24 KCAL/MOL
REMARK 923 INTER-LIGAND FREE ENERGY PREDICTED BY IDOCK:   -4.82 KCAL/MOL
REMARK 924 INTRA-LIGAND FREE ENERGY PREDICTED BY IDOCK:   -0.43 KCAL/MOL
REMARK 927      BINDING AFFINITY PREDICTED BY RF-SCORE:    0.00 PKD
ROOT
HETATM    1  C   UNL     1      -6.359   5.995  68.906  1.00  0.00    -0.041 C  
HETATM    2  C   UNL     1      -6.073   5.019  69.882  1.00  0.00    -0.022 C  
HETATM    3  C   UNL     1      -7.352   4.697  69.154  1.00  0.00    -0.053 C  
HETATM    4  C   UNL     1      -7.706   5.703  67.389  1.00  0.00    -0.100 C  
HETATM    5  C   UNL     1      -6.853   4.663  67.643  1.00  0.00    -0.059 C  
HETATM    6  C   UNL     1      -7.739   5.396  65.777  1.00  0.00    -0.087 C  
HETATM    7  C   UNL     1      -8.630   3.930  67.679  1.00  0.00    -0.112 C  
HETATM    8  C   UNL     1      -5.737   3.904  66.968  1.00  0.00    -0.022 C  
HETATM    9  C   UNL     1      -8.228   6.665  65.112  1.00  0.00    -0.118 C  
HETATM   10  C   UNL     1      -7.930   7.652  66.171  1.00  0.00    -0.110 C  
HETATM   11  C   UNL     1      -9.778   5.142  68.315  1.00  0.00    -0.191 C  
HETATM   12  C   UNL     1      -9.343   6.299  69.519  1.00  0.00    -0.147 C  
HETATM   13  O   UNL     1      -7.195   7.041  67.148  1.00  0.00    -0.083 OA 
HETATM   14  O   UNL     1      -8.226   8.833  66.148  1.00  0.00    -0.110 OA 
HETATM   15  C   UNL     1      -7.788   6.974  69.553  1.00  0.00    -0.119 C  
HETATM   16  C   UNL     1      -7.531   7.693  70.920  1.00  0.00    -0.071 C  
HETATM   17  C   UNL     1     -10.731   8.277  68.603  1.00  0.00    -0.068 C  
HETATM   18  C   UNL     1      -8.547   8.855  70.988  1.00  0.00    -0.255 C  
HETATM   19  C   UNL     1      -9.996   8.393  70.950  1.00  0.00    -0.230 C  
HETATM   20  C   UNL     1     -10.448   7.399  69.840  1.00  0.00    -0.238 C  
HETATM   21  C   UNL     1     -11.780   6.645  70.220  1.00  0.00    -0.432 C  
HETATM   22  C   UNL     1     -10.852   8.937  71.836  1.00  0.00    -0.433 C  
HETATM   23  C   UNL     1     -12.400   7.002  71.564  1.00  0.00    -0.420 C  
HETATM   24  C   UNL     1     -12.245   8.465  71.826  1.00  0.00    -0.330 C  
HETATM   25  O   UNL     1     -13.173   9.221  72.083  1.00  0.00    -0.397 OA 
ENDROOT
BRANCH  16  26
HETATM   26  S   UNL     1      -7.729   6.648  72.434  1.00  0.00    -0.095 SA 
BRANCH  26  27
HETATM   27  C   UNL     1      -7.619   7.872  73.690  1.00  0.00    -0.154 C  
HETATM   28  C   UNL     1      -6.261   8.498  73.828  1.00  0.00    -0.134 C  
HETATM   29  O   UNL     1      -8.586   8.204  74.361  1.00  0.00    -0.187 OA 
ENDBRANCH  26  27
ENDBRANCH  16  26
TORSDOF 2
ENDMDL
MODEL       62
REMARK 921   NORMALIZED FREE ENERGY PREDICTED BY IDOCK:   -4.03 KCAL/MOL
REMARK 922        TOTAL FREE ENERGY PREDICTED BY IDOCK:   -5.08 KCAL/MOL
REMARK 923 INTER-LIGAND FREE ENERGY PREDICTED BY IDOCK:   -4.65 KCAL/MOL
REMARK 924 INTRA-LIGAND FREE ENERGY PREDICTED BY IDOCK:   -0.43 KCAL/MOL
REMARK 927      BINDING AFFINITY PREDICTED BY RF-SCORE:    0.00 PKD
ROOT
HETATM    1  C   UNL     1      -8.629   9.232  69.484  1.00  0.00    -0.147 C  
HETATM    2  C   UNL     1      -8.525   8.539  70.708  1.00  0.00    -0.166 C  
HETATM    3  C   UNL     1      -7.372   8.204  69.797  1.00  0.00    -0.065 C  
HETATM    4  C   UNL     1      -7.062   9.445  68.179  1.00  0.00    -0.076 C  
HETATM    5  C   UNL     1      -6.774   9.649  69.502  1.00  0.00    -0.051 C  
HETATM    6  C   UNL     1      -5.985  10.579  67.680  1.00  0.00    -0.044 C  
HETATM    7  C   UNL     1      -5.502   8.358  68.862  1.00  0.00    -0.035 C  
HETATM    8  C   UNL     1      -6.325  10.760  70.420  1.00  0.00    -0.108 C  
HETATM    9  C   UNL     1      -6.384  10.952  66.269  1.00  0.00    -0.132 C  
HETATM   10  C   UNL     1      -7.793  10.507  66.264  1.00  0.00    -0.141 C  
HETATM   11  C   UNL     1      -6.256   7.325  67.613  1.00  0.00    -0.046 C  
HETATM   12  C   UNL     1      -7.924   6.887  67.647  1.00  0.00    -0.113 C  
HETATM   13  O   UNL     1      -8.150  10.162  67.537  1.00  0.00    -0.112 OA 
HETATM   14  O   UNL     1      -8.539  10.513  65.301  1.00  0.00    -0.170 OA 
HETATM   15  C   UNL     1      -9.097   7.973  68.213  1.00  0.00    -0.135 C  
HETATM   16  C   UNL     1     -10.447   7.230  68.485  1.00  0.00    -0.188 C  
HETATM   17  C   UNL     1      -8.345   6.973  65.099  1.00  0.00    -0.078 C  
HETATM   18  C   UNL     1     -10.925   6.699  67.114  1.00  0.00    -0.478 C  
HETATM   19  C   UNL     1      -9.955   5.717  66.476  1.00  0.00    -0.202 C  
HETATM   20  C   UNL     1      -8.448   6.100  66.367  1.00  0.00    -0.123 C  
HETATM   21  C   UNL     1      -7.525   4.837  66.167  1.00  0.00    -0.086 C  
HETATM   22  C   UNL     1     -10.460   4.585  65.951  1.00  0.00    -0.262 C  
HETATM   23  C   UNL     1      -8.227   3.487  66.105  1.00  0.00    -0.101 C  
HETATM   24  C   UNL     1      -9.520   3.617  65.366  1.00  0.00    -0.160 C  
HETATM   25  O   UNL     1      -9.828   2.939  64.395  1.00  0.00    -0.152 OA 
ENDROOT
BRANCH  16  26
HETATM   26  S   UNL     1     -10.367   5.813  69.671  1.00  0.00    -0.289 SA 
BRANCH  26  27
HETATM   27  C   UNL     1     -11.484   6.364  70.911  1.00  0.00    -0.344 C  
HETATM   28  C   UNL     1     -11.042   6.073  72.317  1.00  0.00    -0.324 C  
HETATM   29  O   UNL     1     -12.513   6.967  70.639  1.00  0.00    -0.321 OA 
ENDBRANCH  26  27
ENDBRANCH  16  26
TORSDOF 2
ENDMDL
MODEL       63
REMARK 921   NORMALIZED FREE ENERGY PREDICTED BY IDOCK:   -4.00 KCAL/MOL
REMARK 922        TOTAL FREE ENERGY PREDICTED BY IDOCK:   -5.05 KCAL/MOL
REMARK 923 INTER-LIGAND FREE ENERGY PREDICTED BY IDOCK:   -4.57 KCAL/MOL
REMARK 924 INTRA-LIGAND FREE ENERGY PREDICTED BY IDOCK:   -0.48 KCAL/MOL
REMARK 927      BINDING AFFINITY PREDICTED BY RF-SCORE:    0.00 PKD
ROOT
HETATM    1  C   UNL     1      -8.994  10.593  65.725  1.00  0.00    -0.200 C  
HETATM    2  C   UNL     1      -9.547   9.490  65.043  1.00  0.00    -0.218 C  
HETATM    3  C   UNL     1     -10.610  10.501  65.386  1.00  0.00    -0.143 C  
HETATM    4  C   UNL     1      -9.972  12.381  65.942  1.00  0.00    -0.255 C  
HETATM    5  C   UNL     1     -10.030  11.813  64.698  1.00  0.00    -0.275 C  
HETATM    6  C   UNL     1      -9.952  13.908  65.339  1.00  0.00    -0.274 C  
HETATM    7  C   UNL     1     -11.845  12.186  65.209  1.00  0.00    -0.356 C  
HETATM    8  C   UNL     1      -9.570  12.092  63.287  1.00  0.00    -0.049 C  
HETATM    9  C   UNL     1      -9.413  14.794  66.441  1.00  0.00    -0.328 C  
HETATM   10  C   UNL     1      -8.716  13.790  67.272  1.00  0.00    -0.219 C  
HETATM   11  C   UNL     1     -12.033  11.996  66.976  1.00  0.00    -0.099 C  
HETATM   12  C   UNL     1     -11.145  10.832  67.889  1.00  0.00    -0.369 C  
HETATM   13  O   UNL     1      -8.696  12.600  66.600  1.00  0.00    -0.179 OA 
HETATM   14  O   UNL     1      -8.182  14.002  68.346  1.00  0.00    -0.141 OA 
HETATM   15  C   UNL     1      -9.545  10.446  67.484  1.00  0.00    -0.178 C  
HETATM   16  C   UNL     1      -9.097   9.133  68.208  1.00  0.00    -0.132 C  
HETATM   17  C   UNL     1     -10.795  12.266  70.011  1.00  0.00     0.767 C  
HETATM   18  C   UNL     1      -9.132   9.448  69.721  1.00  0.00    -0.204 C  
HETATM   19  C   UNL     1     -10.515   9.829  70.226  1.00  0.00    -0.345 C  
HETATM   20  C   UNL     1     -11.326  10.922  69.468  1.00  0.00    -0.351 C  
HETATM   21  C   UNL     1     -12.870  10.844  69.781  1.00  0.00     0.125 C  
HETATM   22  C   UNL     1     -10.947   9.259  71.367  1.00  0.00    -0.429 C  
HETATM   23  C   UNL     1     -13.311   9.755  70.748  1.00  0.00    -0.135 C  
HETATM   24  C   UNL     1     -12.299   9.598  71.837  1.00  0.00    -0.357 C  
HETATM   25  O   UNL     1     -12.556   9.670  73.032  1.00  0.00     0.450 OA 
ENDROOT
BRANCH  16  26
HETATM   26  S   UNL     1     -10.139   7.638  67.893  1.00  0.00    -0.196 SA 
BRANCH  26  27
HETATM   27  C   UNL     1      -9.149   6.389  68.637  1.00  0.00    -0.127 C  
HETATM   28  C   UNL     1      -9.794   5.703  69.807  1.00  0.00    -0.245 C  
HETATM   29  O   UNL     1      -8.046   6.089  68.203  1.00  0.00    -0.108 OA 
ENDBRANCH  26  27
ENDBRANCH  16  26
TORSDOF 2
ENDMDL
MODEL       64
REMARK 921   NORMALIZED FREE ENERGY PREDICTED BY IDOCK:   -3.98 KCAL/MOL
REMARK 922        TOTAL FREE ENERGY PREDICTED BY IDOCK:   -5.02 KCAL/MOL
REMARK 923 INTER-LIGAND FREE ENERGY PREDICTED BY IDOCK:   -4.62 KCAL/MOL
REMARK 924 INTRA-LIGAND FREE ENERGY PREDICTED BY IDOCK:   -0.40 KCAL/MOL
REMARK 927      BINDING AFFINITY PREDICTED BY RF-SCORE:    0.00 PKD
ROOT
HETATM    1  C   UNL     1      -7.883  11.148  69.201  1.00  0.00    -0.065 C  
HETATM    2  C   UNL     1      -6.502  11.014  69.452  1.00  0.00    -0.095 C  
HETATM    3  C   UNL     1      -6.837  10.605  68.041  1.00  0.00    -0.072 C  
HETATM    4  C   UNL     1      -8.683  11.168  67.314  1.00  0.00    -0.139 C  
HETATM    5  C   UNL     1      -7.551  11.917  67.494  1.00  0.00    -0.140 C  
HETATM    6  C   UNL     1      -9.312  12.223  66.224  1.00  0.00    -0.206 C  
HETATM    7  C   UNL     1      -7.212  10.776  65.985  1.00  0.00    -0.105 C  
HETATM    8  C   UNL     1      -7.115  13.362  67.461  1.00  0.00    -0.154 C  
HETATM    9  C   UNL     1     -10.796  11.936  66.164  1.00  0.00    -0.334 C  
HETATM   10  C   UNL     1     -10.986  11.239  67.453  1.00  0.00    -0.282 C  
HETATM   11  C   UNL     1      -8.048   9.212  66.203  1.00  0.00    -0.107 C  
HETATM   12  C   UNL     1      -8.277   8.482  67.749  1.00  0.00    -0.122 C  
HETATM   13  O   UNL     1      -9.834  11.341  68.182  1.00  0.00    -0.172 OA 
HETATM   14  O   UNL     1     -12.019  10.722  67.838  1.00  0.00    -0.518 OA 
HETATM   15  C   UNL     1      -8.566   9.432  69.124  1.00  0.00    -0.140 C  
HETATM   16  C   UNL     1      -8.374   8.585  70.426  1.00  0.00    -0.124 C  
HETATM   17  C   UNL     1     -10.626   7.498  67.313  1.00  0.00    -0.394 C  
HETATM   18  C   UNL     1      -9.457   7.484  70.383  1.00  0.00    -0.161 C  
HETATM   19  C   UNL     1      -9.329   6.558  69.183  1.00  0.00    -0.133 C  
HETATM   20  C   UNL     1      -9.185   7.175  67.760  1.00  0.00    -0.125 C  
HETATM   21  C   UNL     1      -8.571   6.154  66.727  1.00  0.00    -0.111 C  
HETATM   22  C   UNL     1      -9.432   5.233  69.397  1.00  0.00    -0.190 C  
HETATM   23  C   UNL     1      -8.233   4.769  67.262  1.00  0.00    -0.106 C  
HETATM   24  C   UNL     1      -9.272   4.334  68.245  1.00  0.00    -0.142 C  
HETATM   25  O   UNL     1      -9.902   3.288  68.162  1.00  0.00    -0.054 OA 
ENDROOT
BRANCH  16  26
HETATM   26  S   UNL     1      -6.721   7.779  70.631  1.00  0.00    -0.038 SA 
BRANCH  26  27
HETATM   27  C   UNL     1      -6.359   8.201  72.299  1.00  0.00    -0.062 C  
HETATM   28  C   UNL     1      -6.582   7.088  73.282  1.00  0.00    -0.066 C  
HETATM   29  O   UNL     1      -5.924   9.300  72.612  1.00  0.00    -0.262 OA 
ENDBRANCH  26  27
ENDBRANCH  16  26
TORSDOF 2
ENDMDL
MODEL       65
REMARK 921   NORMALIZED FREE ENERGY PREDICTED BY IDOCK:   -3.97 KCAL/MOL
REMARK 922        TOTAL FREE ENERGY PREDICTED BY IDOCK:   -5.01 KCAL/MOL
REMARK 923 INTER-LIGAND FREE ENERGY PREDICTED BY IDOCK:   -5.28 KCAL/MOL
REMARK 924 INTRA-LIGAND FREE ENERGY PREDICTED BY IDOCK:    0.26 KCAL/MOL
REMARK 927      BINDING AFFINITY PREDICTED BY RF-SCORE:    0.00 PKD
ROOT
HETATM    1  C   UNL     1      -8.211  10.209  69.357  1.00  0.00    -0.171 C  
HETATM    2  C   UNL     1      -7.198  10.381  68.391  1.00  0.00    -0.080 C  
HETATM    3  C   UNL     1      -8.520  10.071  67.738  1.00  0.00    -0.114 C  
HETATM    4  C   UNL     1     -10.210  10.258  68.906  1.00  0.00    -0.205 C  
HETATM    5  C   UNL     1      -9.439  11.230  68.325  1.00  0.00    -0.190 C  
HETATM    6  C   UNL     1     -11.508  11.252  69.050  1.00  0.00    -0.369 C  
HETATM    7  C   UNL     1     -10.416  10.387  66.900  1.00  0.00    -0.300 C  
HETATM    8  C   UNL     1      -9.279  12.730  68.346  1.00  0.00    -0.136 C  
HETATM    9  C   UNL     1     -12.407  10.628  70.094  1.00  0.00    -0.370 C  
HETATM   10  C   UNL     1     -11.438   9.760  70.796  1.00  0.00    -0.342 C  
HETATM   11  C   UNL     1     -10.654   8.654  67.265  1.00  0.00    -0.308 C  
HETATM   12  C   UNL     1      -9.497   7.715  68.135  1.00  0.00    -0.150 C  
HETATM   13  O   UNL     1     -10.181  10.048  70.343  1.00  0.00    -0.266 OA 
HETATM   14  O   UNL     1     -11.703   8.969  71.684  1.00  0.00    -0.311 OA 
HETATM   15  C   UNL     1      -8.592   8.400  69.394  1.00  0.00    -0.129 C  
HETATM   16  C   UNL     1      -7.384   7.478  69.766  1.00  0.00    -0.082 C  
HETATM   17  C   UNL     1     -11.172   6.256  69.455  1.00  0.00    -0.489 C  
HETATM   18  C   UNL     1      -7.998   6.162  70.295  1.00  0.00    -0.107 C  
HETATM   19  C   UNL     1      -8.856   5.442  69.267  1.00  0.00    -0.112 C  
HETATM   20  C   UNL     1      -9.957   6.237  68.504  1.00  0.00    -0.163 C  
HETATM   21  C   UNL     1     -10.393   5.520  67.168  1.00  0.00    -0.301 C  
HETATM   22  C   UNL     1      -8.682   4.114  69.122  1.00  0.00    -0.124 C  
HETATM   23  C   UNL     1      -9.699   4.204  66.848  1.00  0.00    -0.232 C  
HETATM   24  C   UNL     1      -9.484   3.421  68.103  1.00  0.00    -0.151 C  
HETATM   25  O   UNL     1      -9.870   2.272  68.272  1.00  0.00    -0.016 OA 
ENDROOT
BRANCH  16  26
HETATM   26  S   UNL     1      -6.220   7.072  68.386  1.00  0.00    -0.036 SA 
BRANCH  26  27
HETATM   27  C   UNL     1      -5.427   5.645  69.040  1.00  0.00    -0.007 C  
HETATM   28  C   UNL     1      -5.134   5.718  70.511  1.00  0.00    -0.009 C  
HETATM   29  O   UNL     1      -5.178   4.666  68.349  1.00  0.00    -0.006 OA 
ENDBRANCH  26  27
ENDBRANCH  16  26
TORSDOF 2
ENDMDL
MODEL       66
REMARK 921   NORMALIZED FREE ENERGY PREDICTED BY IDOCK:   -3.88 KCAL/MOL
REMARK 922        TOTAL FREE ENERGY PREDICTED BY IDOCK:   -4.90 KCAL/MOL
REMARK 923 INTER-LIGAND FREE ENERGY PREDICTED BY IDOCK:   -4.54 KCAL/MOL
REMARK 924 INTRA-LIGAND FREE ENERGY PREDICTED BY IDOCK:   -0.36 KCAL/MOL
REMARK 927      BINDING AFFINITY PREDICTED BY RF-SCORE:    0.00 PKD
ROOT
HETATM    1  C   UNL     1      -7.763   7.856  64.866  1.00  0.00    -0.112 C  
HETATM    2  C   UNL     1      -6.853   8.933  64.897  1.00  0.00    -0.073 C  
HETATM    3  C   UNL     1      -6.485   7.884  65.915  1.00  0.00    -0.042 C  
HETATM    4  C   UNL     1      -7.373   6.033  65.719  1.00  0.00    -0.076 C  
HETATM    5  C   UNL     1      -6.350   6.590  64.999  1.00  0.00    -0.041 C  
HETATM    6  C   UNL     1      -6.960   4.504  65.288  1.00  0.00    -0.062 C  
HETATM    7  C   UNL     1      -5.624   6.152  66.724  1.00  0.00    -0.009 C  
HETATM    8  C   UNL     1      -5.547   6.319  63.751  1.00  0.00    -0.022 C  
HETATM    9  C   UNL     1      -8.183   3.648  65.536  1.00  0.00    -0.097 C  
HETATM   10  C   UNL     1      -9.237   4.683  65.539  1.00  0.00    -0.153 C  
HETATM   11  C   UNL     1      -6.878   6.348  67.982  1.00  0.00    -0.070 C  
HETATM   12  C   UNL     1      -8.111   7.551  67.892  1.00  0.00    -0.119 C  
HETATM   13  O   UNL     1      -8.691   5.869  65.132  1.00  0.00    -0.129 OA 
HETATM   14  O   UNL     1     -10.414   4.500  65.790  1.00  0.00    -0.280 OA 
HETATM   15  C   UNL     1      -8.785   7.995  66.401  1.00  0.00    -0.169 C  
HETATM   16  C   UNL     1      -9.591   9.329  66.538  1.00  0.00    -0.224 C  
HETATM   17  C   UNL     1     -10.026   6.148  68.912  1.00  0.00    -0.185 C  
HETATM   18  C   UNL     1     -10.757   9.025  67.506  1.00  0.00    -0.239 C  
HETATM   19  C   UNL     1     -10.296   8.595  68.889  1.00  0.00    -0.228 C  
HETATM   20  C   UNL     1      -9.231   7.466  69.019  1.00  0.00    -0.146 C  
HETATM   21  C   UNL     1      -8.507   7.488  70.420  1.00  0.00    -0.141 C  
HETATM   22  C   UNL     1     -10.899   9.157  69.955  1.00  0.00    -0.256 C  
HETATM   23  C   UNL     1      -8.952   8.567  71.397  1.00  0.00    -0.262 C  
HETATM   24  C   UNL     1     -10.430   8.770  71.294  1.00  0.00    -0.256 C  
HETATM   25  O   UNL     1     -11.202   8.698  72.241  1.00  0.00    -0.353 OA 
ENDROOT
BRANCH  16  26
HETATM   26  S   UNL     1      -8.649  10.782  67.190  1.00  0.00    -0.130 SA 
BRANCH  26  27
HETATM   27  C   UNL     1      -9.835  12.062  66.975  1.00  0.00    -0.194 C  
HETATM   28  C   UNL     1      -9.760  13.155  68.002  1.00  0.00    -0.224 C  
HETATM   29  O   UNL     1     -10.623  12.067  66.039  1.00  0.00    -0.251 OA 
ENDBRANCH  26  27
ENDBRANCH  16  26
TORSDOF 2
ENDMDL
MODEL       67
REMARK 921   NORMALIZED FREE ENERGY PREDICTED BY IDOCK:   -3.87 KCAL/MOL
REMARK 922        TOTAL FREE ENERGY PREDICTED BY IDOCK:   -4.90 KCAL/MOL
REMARK 923 INTER-LIGAND FREE ENERGY PREDICTED BY IDOCK:   -4.76 KCAL/MOL
REMARK 924 INTRA-LIGAND FREE ENERGY PREDICTED BY IDOCK:   -0.13 KCAL/MOL
REMARK 927      BINDING AFFINITY PREDICTED BY RF-SCORE:    0.00 PKD
ROOT
HETATM    1  C   UNL     1     -10.788   5.729  67.837  1.00  0.00    -0.257 C  
HETATM    2  C   UNL     1     -10.989   6.907  67.089  1.00  0.00    -0.427 C  
HETATM    3  C   UNL     1      -9.533   6.522  67.110  1.00  0.00    -0.150 C  
HETATM    4  C   UNL     1      -9.076   4.607  67.723  1.00  0.00    -0.119 C  
HETATM    5  C   UNL     1      -9.590   5.042  66.530  1.00  0.00    -0.168 C  
HETATM    6  C   UNL     1      -8.536   3.199  67.076  1.00  0.00    -0.106 C  
HETATM    7  C   UNL     1      -7.744   5.579  66.555  1.00  0.00    -0.100 C  
HETATM    8  C   UNL     1     -10.195   4.477  65.268  1.00  0.00    -0.186 C  
HETATM    9  C   UNL     1      -8.322   2.252  68.237  1.00  0.00    -0.078 C  
HETATM   10  C   UNL     1      -9.178   2.887  69.260  1.00  0.00    -0.144 C  
HETATM   11  C   UNL     1      -7.244   5.969  68.225  1.00  0.00    -0.084 C  
HETATM   12  C   UNL     1      -8.317   6.665  69.383  1.00  0.00    -0.128 C  
HETATM   13  O   UNL     1      -9.906   3.881  68.669  1.00  0.00    -0.098 OA 
HETATM   14  O   UNL     1      -9.277   2.539  70.423  1.00  0.00    -0.105 OA 
HETATM   15  C   UNL     1      -9.960   6.246  69.407  1.00  0.00    -0.192 C  
HETATM   16  C   UNL     1     -10.772   7.261  70.279  1.00  0.00    -0.236 C  
HETATM   17  C   UNL     1      -7.443   5.398  71.458  1.00  0.00    -0.101 C  
HETATM   18  C   UNL     1     -10.231   7.115  71.719  1.00  0.00    -0.212 C  
HETATM   19  C   UNL     1      -8.753   7.447  71.845  1.00  0.00    -0.127 C  
HETATM   20  C   UNL     1      -7.740   6.789  70.861  1.00  0.00    -0.093 C  
HETATM   21  C   UNL     1      -6.382   7.587  70.782  1.00  0.00    -0.038 C  
HETATM   22  C   UNL     1      -8.370   8.237  72.866  1.00  0.00    -0.245 C  
HETATM   23  C   UNL     1      -6.273   8.829  71.656  1.00  0.00    -0.071 C  
HETATM   24  C   UNL     1      -6.946   8.589  72.969  1.00  0.00    -0.021 C  
HETATM   25  O   UNL     1      -6.405   8.735  74.057  1.00  0.00    -0.195 OA 
ENDROOT
BRANCH  16  26
HETATM   26  S   UNL     1     -10.648   9.038  69.781  1.00  0.00    -0.227 SA 
BRANCH  26  27
HETATM   27  C   UNL     1     -11.964   9.732  70.718  1.00  0.00    -0.299 C  
HETATM   28  C   UNL     1     -12.954   8.727  71.232  1.00  0.00    -0.229 C  
HETATM   29  O   UNL     1     -12.032  10.929  70.956  1.00  0.00    -0.326 OA 
ENDBRANCH  26  27
ENDBRANCH  16  26
TORSDOF 2
ENDMDL
MODEL       68
REMARK 921   NORMALIZED FREE ENERGY PREDICTED BY IDOCK:   -3.84 KCAL/MOL
REMARK 922        TOTAL FREE ENERGY PREDICTED BY IDOCK:   -4.86 KCAL/MOL
REMARK 923 INTER-LIGAND FREE ENERGY PREDICTED BY IDOCK:   -4.36 KCAL/MOL
REMARK 924 INTRA-LIGAND FREE ENERGY PREDICTED BY IDOCK:   -0.50 KCAL/MOL
REMARK 927      BINDING AFFINITY PREDICTED BY RF-SCORE:    0.00 PKD
ROOT
HETATM    1  C   UNL     1      -7.641   9.335  69.082  1.00  0.00    -0.073 C  
HETATM    2  C   UNL     1      -7.522   9.976  70.333  1.00  0.00    -0.069 C  
HETATM    3  C   UNL     1      -8.962   9.663  70.019  1.00  0.00    -0.266 C  
HETATM    4  C   UNL     1      -9.322   8.319  68.497  1.00  0.00    -0.138 C  
HETATM    5  C   UNL     1      -8.898   8.091  69.779  1.00  0.00    -0.144 C  
HETATM    6  C   UNL     1      -9.860   6.779  68.310  1.00  0.00    -0.144 C  
HETATM    7  C   UNL     1     -10.754   8.580  69.898  1.00  0.00    -0.224 C  
HETATM    8  C   UNL     1      -8.359   6.965  70.626  1.00  0.00    -0.128 C  
HETATM    9  C   UNL     1      -9.972   6.546  66.819  1.00  0.00    -0.224 C  
HETATM   10  C   UNL     1      -9.071   7.604  66.316  1.00  0.00    -0.162 C  
HETATM   11  C   UNL     1     -11.157   9.760  68.619  1.00  0.00    -0.140 C  
HETATM   12  C   UNL     1     -10.034  10.937  68.046  1.00  0.00    -0.188 C  
HETATM   13  O   UNL     1      -8.412   8.161  67.376  1.00  0.00    -0.123 OA 
HETATM   14  O   UNL     1      -8.888   7.887  65.146  1.00  0.00    -0.027 OA 
HETATM   15  C   UNL     1      -8.381  10.577  67.930  1.00  0.00    -0.115 C  
HETATM   16  C   UNL     1      -7.545  11.887  67.744  1.00  0.00    -0.130 C  
HETATM   17  C   UNL     1     -10.736  10.891  65.560  1.00  0.00    -0.182 C  
HETATM   18  C   UNL     1      -7.989  12.488  66.391  1.00  0.00     0.508 C  
HETATM   19  C   UNL     1      -9.465  12.848  66.346  1.00  0.00    -0.228 C  
HETATM   20  C   UNL     1     -10.519  11.791  66.793  1.00  0.00    -0.260 C  
HETATM   21  C   UNL     1     -11.903  12.450  67.167  1.00  0.00    -0.361 C  
HETATM   22  C   UNL     1      -9.805  14.046  65.835  1.00  0.00    -0.302 C  
HETATM   23  C   UNL     1     -11.992  13.963  67.029  1.00  0.00    -0.459 C  
HETATM   24  C   UNL     1     -11.229  14.412  65.824  1.00  0.00    -0.326 C  
HETATM   25  O   UNL     1     -11.704  15.088  64.921  1.00  0.00    -0.377 OA 
ENDROOT
BRANCH  16  26
HETATM   26  S   UNL     1      -7.754  13.173  69.057  1.00  0.00     0.283 SA 
BRANCH  26  27
HETATM   27  C   UNL     1      -6.144  13.181  69.764  1.00  0.00    -0.126 C  
HETATM   28  C   UNL     1      -5.148  12.319  69.043  1.00  0.00    -0.055 C  
HETATM   29  O   UNL     1      -5.864  13.868  70.736  1.00  0.00    -0.177 OA 
ENDBRANCH  26  27
ENDBRANCH  16  26
TORSDOF 2
ENDMDL
MODEL       69
REMARK 921   NORMALIZED FREE ENERGY PREDICTED BY IDOCK:   -3.79 KCAL/MOL
REMARK 922        TOTAL FREE ENERGY PREDICTED BY IDOCK:   -4.81 KCAL/MOL
REMARK 923 INTER-LIGAND FREE ENERGY PREDICTED BY IDOCK:   -4.39 KCAL/MOL
REMARK 924 INTRA-LIGAND FREE ENERGY PREDICTED BY IDOCK:   -0.42 KCAL/MOL
REMARK 927      BINDING AFFINITY PREDICTED BY RF-SCORE:    0.00 PKD
ROOT
HETATM    1  C   UNL     1     -10.517  14.744  66.594  1.00  0.00    -0.286 C  
HETATM    2  C   UNL     1     -11.925  14.698  66.519  1.00  0.00    -0.284 C  
HETATM    3  C   UNL     1     -11.434  14.152  67.835  1.00  0.00    -0.340 C  
HETATM    4  C   UNL     1      -9.480  14.562  68.352  1.00  0.00    -0.209 C  
HETATM    5  C   UNL     1     -10.581  15.377  68.385  1.00  0.00    -0.247 C  
HETATM    6  C   UNL     1      -8.655  15.487  69.428  1.00  0.00    -0.259 C  
HETATM    7  C   UNL     1     -10.787  14.125  69.830  1.00  0.00     0.010 C  
HETATM    8  C   UNL     1     -10.925  16.831  68.593  1.00  0.00    -0.298 C  
HETATM    9  C   UNL     1      -7.195  15.127  69.267  1.00  0.00    -0.182 C  
HETATM   10  C   UNL     1      -7.214  14.538  67.911  1.00  0.00    -0.158 C  
HETATM   11  C   UNL     1     -10.078  12.548  69.377  1.00  0.00     0.663 C  
HETATM   12  C   UNL     1     -10.094  11.946  67.760  1.00  0.00    -0.200 C  
HETATM   13  O   UNL     1      -8.443  14.756  67.354  1.00  0.00    -0.175 OA 
HETATM   14  O   UNL     1      -6.271  14.008  67.351  1.00  0.00    -0.336 OA 
HETATM   15  C   UNL     1      -9.931  12.998  66.440  1.00  0.00    -0.277 C  
HETATM   16  C   UNL     1     -10.339  12.278  65.112  1.00  0.00    -0.286 C  
HETATM   17  C   UNL     1      -7.769  10.819  67.797  1.00  0.00    -0.104 C  
HETATM   18  C   UNL     1      -9.325  11.128  64.921  1.00  0.00    -0.219 C  
HETATM   19  C   UNL     1      -9.350  10.108  66.048  1.00  0.00    -0.216 C  
HETATM   20  C   UNL     1      -9.272  10.604  67.523  1.00  0.00    -0.151 C  
HETATM   21  C   UNL     1      -9.806   9.527  68.544  1.00  0.00    -0.172 C  
HETATM   22  C   UNL     1      -9.352   8.803  65.717  1.00  0.00    -0.259 C  
HETATM   23  C   UNL     1     -10.289   8.211  67.949  1.00  0.00    -0.280 C  
HETATM   24  C   UNL     1      -9.414   7.816  66.804  1.00  0.00    -0.197 C  
HETATM   25  O   UNL     1      -8.839   6.739  66.717  1.00  0.00    -0.116 OA 
ENDROOT
BRANCH  16  26
HETATM   26  S   UNL     1     -12.048  11.571  65.065  1.00  0.00     0.828 SA 
BRANCH  26  27
HETATM   27  C   UNL     1     -12.640  12.250  63.556  1.00  0.00    -0.476 C  
HETATM   28  C   UNL     1     -12.203  13.664  63.299  1.00  0.00    -0.096 C  
HETATM   29  O   UNL     1     -13.317  11.600  62.771  1.00  0.00    -0.071 OA 
ENDBRANCH  26  27
ENDBRANCH  16  26
TORSDOF 2
ENDMDL
MODEL       70
REMARK 921   NORMALIZED FREE ENERGY PREDICTED BY IDOCK:   -3.74 KCAL/MOL
REMARK 922        TOTAL FREE ENERGY PREDICTED BY IDOCK:   -4.75 KCAL/MOL
REMARK 923 INTER-LIGAND FREE ENERGY PREDICTED BY IDOCK:   -4.30 KCAL/MOL
REMARK 924 INTRA-LIGAND FREE ENERGY PREDICTED BY IDOCK:   -0.45 KCAL/MOL
REMARK 927      BINDING AFFINITY PREDICTED BY RF-SCORE:    0.00 PKD
ROOT
HETATM    1  C   UNL     1      -7.832  10.020  66.910  1.00  0.00    -0.106 C  
HETATM    2  C   UNL     1      -8.233  10.608  65.693  1.00  0.00    -0.154 C  
HETATM    3  C   UNL     1      -9.407   9.990  66.408  1.00  0.00    -0.211 C  
HETATM    4  C   UNL     1      -9.148   9.510  68.396  1.00  0.00    -0.127 C  
HETATM    5  C   UNL     1      -9.346  10.733  67.813  1.00  0.00    -0.158 C  
HETATM    6  C   UNL     1      -9.649  10.035  69.869  1.00  0.00    -0.233 C  
HETATM    7  C   UNL     1     -11.030   9.811  67.723  1.00  0.00    -0.242 C  
HETATM    8  C   UNL     1      -9.306  12.197  68.178  1.00  0.00    -0.204 C  
HETATM    9  C   UNL     1      -9.110   9.045  70.879  1.00  0.00    -0.309 C  
HETATM   10  C   UNL     1      -8.014   8.436  70.096  1.00  0.00    -0.102 C  
HETATM   11  C   UNL     1     -10.755   8.057  67.518  1.00  0.00    -0.238 C  
HETATM   12  C   UNL     1      -9.421   7.418  66.630  1.00  0.00    -0.240 C  
HETATM   13  O   UNL     1      -7.851   9.147  68.940  1.00  0.00    -0.091 OA 
HETATM   14  O   UNL     1      -7.319   7.502  70.452  1.00  0.00    -0.070 OA 
HETATM   15  C   UNL     1      -7.911   8.191  66.655  1.00  0.00    -0.102 C  
HETATM   16  C   UNL     1      -6.996   7.644  65.509  1.00  0.00    -0.056 C  
HETATM   17  C   UNL     1      -8.964   5.369  68.137  1.00  0.00    -0.111 C  
HETATM   18  C   UNL     1      -6.762   6.149  65.827  1.00  0.00    -0.048 C  
HETATM   19  C   UNL     1      -8.043   5.330  65.853  1.00  0.00    -0.110 C  
HETATM   20  C   UNL     1      -9.252   5.837  66.695  1.00  0.00    -0.143 C  
HETATM   21  C   UNL     1     -10.614   5.189  66.234  1.00  0.00    -0.325 C  
HETATM   22  C   UNL     1      -8.047   4.147  65.210  1.00  0.00    -0.101 C  
HETATM   23  C   UNL     1     -10.536   4.196  65.082  1.00  0.00    -0.174 C  
HETATM   24  C   UNL     1      -9.295   3.371  65.203  1.00  0.00    -0.155 C  
HETATM   25  O   UNL     1      -9.282   2.147  65.225  1.00  0.00    -0.130 OA 
ENDROOT
BRANCH  16  26
HETATM   26  S   UNL     1      -7.676   7.782  63.794  1.00  0.00    -0.122 SA 
BRANCH  26  27
HETATM   27  C   UNL     1      -6.290   8.457  62.948  1.00  0.00    -0.087 C  
HETATM   28  C   UNL     1      -6.508   9.842  62.410  1.00  0.00    -0.109 C  
HETATM   29  O   UNL     1      -5.231   7.853  62.850  1.00  0.00    -0.048 OA 
ENDBRANCH  26  27
ENDBRANCH  16  26
TORSDOF 2
ENDMDL
MODEL       71
REMARK 921   NORMALIZED FREE ENERGY PREDICTED BY IDOCK:   -3.61 KCAL/MOL
REMARK 922        TOTAL FREE ENERGY PREDICTED BY IDOCK:   -4.61 KCAL/MOL
REMARK 923 INTER-LIGAND FREE ENERGY PREDICTED BY IDOCK:   -4.16 KCAL/MOL
REMARK 924 INTRA-LIGAND FREE ENERGY PREDICTED BY IDOCK:   -0.45 KCAL/MOL
REMARK 927      BINDING AFFINITY PREDICTED BY RF-SCORE:    0.00 PKD
ROOT
HETATM    1  C   UNL     1      -7.931   4.745  68.362  1.00  0.00    -0.084 C  
HETATM    2  C   UNL     1      -8.368   3.426  68.603  1.00  0.00    -0.090 C  
HETATM    3  C   UNL     1      -9.418   4.218  67.868  1.00  0.00    -0.216 C  
HETATM    4  C   UNL     1      -8.820   5.990  66.998  1.00  0.00    -0.113 C  
HETATM    5  C   UNL     1      -8.608   4.701  66.587  1.00  0.00    -0.108 C  
HETATM    6  C   UNL     1      -8.560   6.603  65.498  1.00  0.00    -0.101 C  
HETATM    7  C   UNL     1     -10.466   5.075  66.267  1.00  0.00    -0.352 C  
HETATM    8  C   UNL     1      -7.804   3.943  65.559  1.00  0.00    -0.093 C  
HETATM    9  C   UNL     1      -8.251   8.072  65.687  1.00  0.00    -0.135 C  
HETATM   10  C   UNL     1      -7.840   8.078  67.107  1.00  0.00    -0.105 C  
HETATM   11  C   UNL     1     -11.090   6.186  67.520  1.00  0.00    -0.318 C  
HETATM   12  C   UNL     1     -10.525   6.167  69.150  1.00  0.00    -0.310 C  
HETATM   13  O   UNL     1      -7.731   6.785  67.538  1.00  0.00    -0.106 OA 
HETATM   14  O   UNL     1      -7.572   9.065  67.767  1.00  0.00    -0.091 OA 
HETATM   15  C   UNL     1      -8.901   5.830  69.503  1.00  0.00    -0.118 C  
HETATM   16  C   UNL     1      -8.724   5.514  71.025  1.00  0.00    -0.129 C  
HETATM   17  C   UNL     1     -10.613   8.716  69.567  1.00  0.00    -0.218 C  
HETATM   18  C   UNL     1      -9.107   6.809  71.777  1.00  0.00    -0.140 C  
HETATM   19  C   UNL     1     -10.545   7.242  71.539  1.00  0.00    -0.223 C  
HETATM   20  C   UNL     1     -11.078   7.336  70.078  1.00  0.00    -0.262 C  
HETATM   21  C   UNL     1     -12.653   7.296  70.014  1.00  0.00     0.785 C  
HETATM   22  C   UNL     1     -11.276   7.612  72.607  1.00  0.00    -0.419 C  
HETATM   23  C   UNL     1     -13.383   7.185  71.345  1.00  0.00    -0.380 C  
HETATM   24  C   UNL     1     -12.677   7.997  72.383  1.00  0.00    -0.140 C  
HETATM   25  O   UNL     1     -13.212   8.867  73.058  1.00  0.00    -0.312 OA 
ENDROOT
BRANCH  16  26
HETATM   26  S   UNL     1      -9.749   4.123  71.688  1.00  0.00    -0.182 SA 
BRANCH  26  27
HETATM   27  C   UNL     1      -8.504   3.126  72.428  1.00  0.00    -0.079 C  
HETATM   28  C   UNL     1      -8.456   1.715  71.917  1.00  0.00    -0.060 C  
HETATM   29  O   UNL     1      -7.724   3.570  73.258  1.00  0.00    -0.063 OA 
ENDBRANCH  26  27
ENDBRANCH  16  26
TORSDOF 2
ENDMDL
MODEL       72
REMARK 921   NORMALIZED FREE ENERGY PREDICTED BY IDOCK:   -3.60 KCAL/MOL
REMARK 922        TOTAL FREE ENERGY PREDICTED BY IDOCK:   -4.59 KCAL/MOL
REMARK 923 INTER-LIGAND FREE ENERGY PREDICTED BY IDOCK:   -4.17 KCAL/MOL
REMARK 924 INTRA-LIGAND FREE ENERGY PREDICTED BY IDOCK:   -0.42 KCAL/MOL
REMARK 927      BINDING AFFINITY PREDICTED BY RF-SCORE:    0.00 PKD
ROOT
HETATM    1  C   UNL     1     -11.673  13.216  67.419  1.00  0.00    -0.419 C  
HETATM    2  C   UNL     1     -12.785  14.075  67.535  1.00  0.00     0.715 C  
HETATM    3  C   UNL     1     -11.872  14.519  66.422  1.00  0.00    -0.361 C  
HETATM    4  C   UNL     1     -10.464  13.162  65.765  1.00  0.00    -0.283 C  
HETATM    5  C   UNL     1     -11.812  13.207  65.523  1.00  0.00    -0.420 C  
HETATM    6  C   UNL     1     -10.172  12.225  64.450  1.00  0.00    -0.341 C  
HETATM    7  C   UNL     1     -11.030  14.638  64.505  1.00  0.00    -0.247 C  
HETATM    8  C   UNL     1     -12.896  12.353  64.914  1.00  0.00    -0.092 C  
HETATM    9  C   UNL     1      -8.819  11.586  64.675  1.00  0.00     0.365 C  
HETATM   10  C   UNL     1      -8.703  11.718  66.143  1.00  0.00    -0.057 C  
HETATM   11  C   UNL     1      -9.620  15.307  65.376  1.00  0.00    -0.150 C  
HETATM   12  C   UNL     1      -9.535  15.382  67.098  1.00  0.00    -0.221 C  
HETATM   13  O   UNL     1      -9.900  12.150  66.641  1.00  0.00    -0.203 OA 
HETATM   14  O   UNL     1      -7.729  11.422  66.810  1.00  0.00    -0.149 OA 
HETATM   15  C   UNL     1     -10.217  14.161  68.056  1.00  0.00    -0.232 C  
HETATM   16  C   UNL     1     -10.334  14.631  69.544  1.00  0.00    -0.063 C  
HETATM   17  C   UNL     1      -7.015  14.861  67.334  1.00  0.00    -0.162 C  
HETATM   18  C   UNL     1      -8.886  14.856  70.035  1.00  0.00     0.523 C  
HETATM   19  C   UNL     1      -8.142  15.924  69.249  1.00  0.00    -0.228 C  
HETATM   20  C   UNL     1      -8.137  15.858  67.692  1.00  0.00    -0.160 C  
HETATM   21  C   UNL     1      -7.784  17.248  67.037  1.00  0.00    -0.227 C  
HETATM   22  C   UNL     1      -7.440  16.841  69.942  1.00  0.00     0.832 C  
HETATM   23  C   UNL     1      -7.503  18.397  67.995  1.00  0.00    -0.263 C  
HETATM   24  C   UNL     1      -6.750  17.896  69.186  1.00  0.00    -0.239 C  
HETATM   25  O   UNL     1      -5.680  18.354  69.566  1.00  0.00    -0.224 OA 
ENDROOT
BRANCH  16  26
HETATM   26  S   UNL     1     -11.301  16.182  69.830  1.00  0.00    -0.285 SA 
BRANCH  26  27
HETATM   27  C   UNL     1     -12.369  15.664  71.127  1.00  0.00    -0.427 C  
HETATM   28  C   UNL     1     -11.671  15.371  72.423  1.00  0.00    -0.565 C  
HETATM   29  O   UNL     1     -13.581  15.592  70.981  1.00  0.00    -0.588 OA 
ENDBRANCH  26  27
ENDBRANCH  16  26
TORSDOF 2
ENDMDL
MODEL       73
REMARK 921   NORMALIZED FREE ENERGY PREDICTED BY IDOCK:   -3.56 KCAL/MOL
REMARK 922        TOTAL FREE ENERGY PREDICTED BY IDOCK:   -4.56 KCAL/MOL
REMARK 923 INTER-LIGAND FREE ENERGY PREDICTED BY IDOCK:   -4.30 KCAL/MOL
REMARK 924 INTRA-LIGAND FREE ENERGY PREDICTED BY IDOCK:   -0.25 KCAL/MOL
REMARK 927      BINDING AFFINITY PREDICTED BY RF-SCORE:    0.00 PKD
ROOT
HETATM    1  C   UNL     1      -6.068   8.032  67.149  1.00  0.00    -0.054 C  
HETATM    2  C   UNL     1      -6.000   7.746  68.528  1.00  0.00    -0.032 C  
HETATM    3  C   UNL     1      -7.315   7.295  67.946  1.00  0.00    -0.097 C  
HETATM    4  C   UNL     1      -7.440   7.172  65.892  1.00  0.00    -0.080 C  
HETATM    5  C   UNL     1      -6.827   6.329  66.780  1.00  0.00    -0.062 C  
HETATM    6  C   UNL     1      -7.529   6.020  64.726  1.00  0.00    -0.079 C  
HETATM    7  C   UNL     1      -8.719   6.063  66.994  1.00  0.00    -0.110 C  
HETATM    8  C   UNL     1      -5.894   5.143  66.778  1.00  0.00    -0.022 C  
HETATM    9  C   UNL     1      -7.735   6.753  63.418  1.00  0.00    -0.106 C  
HETATM   10  C   UNL     1      -7.240   8.097  63.785  1.00  0.00    -0.095 C  
HETATM   11  C   UNL     1      -9.587   7.599  66.710  1.00  0.00    -0.269 C  
HETATM   12  C   UNL     1      -8.923   9.137  67.120  1.00  0.00    -0.137 C  
HETATM   13  O   UNL     1      -6.655   8.028  65.019  1.00  0.00    -0.051 OA 
HETATM   14  O   UNL     1      -7.279   9.088  63.079  1.00  0.00    -0.093 OA 
HETATM   15  C   UNL     1      -7.260   9.434  66.968  1.00  0.00    -0.087 C  
HETATM   16  C   UNL     1      -6.864  10.741  67.732  1.00  0.00    -0.073 C  
HETATM   17  C   UNL     1      -9.857  10.456  65.103  1.00  0.00    -0.378 C  
HETATM   18  C   UNL     1      -7.612  11.893  67.022  1.00  0.00    -0.134 C  
HETATM   19  C   UNL     1      -9.124  11.748  67.067  1.00  0.00    -0.187 C  
HETATM   20  C   UNL     1      -9.771  10.396  66.643  1.00  0.00    -0.236 C  
HETATM   21  C   UNL     1     -11.235  10.232  67.208  1.00  0.00    -0.090 C  
HETATM   22  C   UNL     1      -9.851  12.834  67.393  1.00  0.00    -0.210 C  
HETATM   23  C   UNL     1     -11.772  11.385  68.044  1.00  0.00    -0.324 C  
HETATM   24  C   UNL     1     -11.312  12.688  67.473  1.00  0.00    -0.308 C  
HETATM   25  O   UNL     1     -12.060  13.602  67.155  1.00  0.00    -0.389 OA 
ENDROOT
BRANCH  16  26
HETATM   26  S   UNL     1      -7.286  10.786  69.533  1.00  0.00    -0.088 SA 
BRANCH  26  27
HETATM   27  C   UNL     1      -5.850  11.564  70.184  1.00  0.00    -0.150 C  
HETATM   28  C   UNL     1      -5.223  12.574  69.266  1.00  0.00    -0.069 C  
HETATM   29  O   UNL     1      -5.431  11.321  71.307  1.00  0.00    -0.297 OA 
ENDBRANCH  26  27
ENDBRANCH  16  26
TORSDOF 2
ENDMDL
MODEL       74
REMARK 921   NORMALIZED FREE ENERGY PREDICTED BY IDOCK:   -3.51 KCAL/MOL
REMARK 922        TOTAL FREE ENERGY PREDICTED BY IDOCK:   -4.50 KCAL/MOL
REMARK 923 INTER-LIGAND FREE ENERGY PREDICTED BY IDOCK:   -4.10 KCAL/MOL
REMARK 924 INTRA-LIGAND FREE ENERGY PREDICTED BY IDOCK:   -0.40 KCAL/MOL
REMARK 927      BINDING AFFINITY PREDICTED BY RF-SCORE:    0.00 PKD
ROOT
HETATM    1  C   UNL     1      -8.151   7.952  72.144  1.00  0.00    -0.154 C  
HETATM    2  C   UNL     1      -7.880   6.812  72.929  1.00  0.00    -0.098 C  
HETATM    3  C   UNL     1      -6.857   6.972  71.835  1.00  0.00    -0.060 C  
HETATM    4  C   UNL     1      -6.775   8.801  70.885  1.00  0.00    -0.058 C  
HETATM    5  C   UNL     1      -6.314   8.439  72.123  1.00  0.00    -0.068 C  
HETATM    6  C   UNL     1      -5.782  10.106  70.802  1.00  0.00    -0.089 C  
HETATM    7  C   UNL     1      -5.129   7.629  70.845  1.00  0.00    -0.023 C  
HETATM    8  C   UNL     1      -5.755   9.079  73.371  1.00  0.00    -0.067 C  
HETATM    9  C   UNL     1      -6.369  11.019  69.747  1.00  0.00    -0.124 C  
HETATM   10  C   UNL     1      -7.763  10.528  69.715  1.00  0.00    -0.067 C  
HETATM   11  C   UNL     1      -6.035   7.181  69.371  1.00  0.00    -0.026 C  
HETATM   12  C   UNL     1      -7.680   6.665  69.407  1.00  0.00    -0.101 C  
HETATM   13  O   UNL     1      -7.944   9.651  70.748  1.00  0.00    -0.288 OA 
HETATM   14  O   UNL     1      -8.630  10.897  68.944  1.00  0.00    -0.158 OA 
HETATM   15  C   UNL     1      -8.775   7.328  70.520  1.00  0.00    -0.148 C  
HETATM   16  C   UNL     1     -10.071   6.455  70.601  1.00  0.00    -0.187 C  
HETATM   17  C   UNL     1      -8.439   7.802  67.214  1.00  0.00    -0.118 C  
HETATM   18  C   UNL     1     -10.724   6.529  69.201  1.00  0.00    -0.323 C  
HETATM   19  C   UNL     1      -9.840   5.978  68.094  1.00  0.00    -0.148 C  
HETATM   20  C   UNL     1      -8.365   6.467  67.984  1.00  0.00    -0.115 C  
HETATM   21  C   UNL     1      -7.467   5.471  67.153  1.00  0.00    -0.084 C  
HETATM   22  C   UNL     1     -10.403   5.147  67.195  1.00  0.00    -0.246 C  
HETATM   23  C   UNL     1      -8.161   4.235  66.598  1.00  0.00    -0.102 C  
HETATM   24  C   UNL     1      -9.542   4.584  66.145  1.00  0.00    -0.189 C  
HETATM   25  O   UNL     1      -9.972   4.367  65.020  1.00  0.00    -0.184 OA 
ENDROOT
BRANCH  16  26
HETATM   26  S   UNL     1      -9.824   4.675  71.041  1.00  0.00    -0.198 SA 
BRANCH  26  27
HETATM   27  C   UNL     1     -10.634   4.611  72.600  1.00  0.00    -0.195 C  
HETATM   28  C   UNL     1     -10.008   3.665  73.585  1.00  0.00    -0.168 C  
HETATM   29  O   UNL     1     -11.601   5.313  72.860  1.00  0.00    -0.310 OA 
ENDBRANCH  26  27
ENDBRANCH  16  26
TORSDOF 2
ENDMDL
MODEL       75
REMARK 921   NORMALIZED FREE ENERGY PREDICTED BY IDOCK:   -3.41 KCAL/MOL
REMARK 922        TOTAL FREE ENERGY PREDICTED BY IDOCK:   -4.38 KCAL/MOL
REMARK 923 INTER-LIGAND FREE ENERGY PREDICTED BY IDOCK:   -4.59 KCAL/MOL
REMARK 924 INTRA-LIGAND FREE ENERGY PREDICTED BY IDOCK:    0.21 KCAL/MOL
REMARK 927      BINDING AFFINITY PREDICTED BY RF-SCORE:    0.00 PKD
ROOT
HETATM    1  C   UNL     1      -7.899   7.639  71.474  1.00  0.00    -0.086 C  
HETATM    2  C   UNL     1      -7.462   8.818  72.110  1.00  0.00     0.010 C  
HETATM    3  C   UNL     1      -8.955   8.834  71.909  1.00  0.00    -0.254 C  
HETATM    4  C   UNL     1      -9.859   7.039  71.447  1.00  0.00    -0.177 C  
HETATM    5  C   UNL     1      -9.386   7.493  72.649  1.00  0.00    -0.208 C  
HETATM    6  C   UNL     1     -10.848   5.935  72.154  1.00  0.00    -0.290 C  
HETATM    7  C   UNL     1     -10.989   8.490  72.284  1.00  0.00    -0.426 C  
HETATM    8  C   UNL     1      -9.118   6.981  74.043  1.00  0.00    -0.243 C  
HETATM    9  C   UNL     1     -11.183   4.918  71.086  1.00  0.00     0.751 C  
HETATM   10  C   UNL     1     -10.068   5.146  70.142  1.00  0.00    -0.272 C  
HETATM   11  C   UNL     1     -11.160   8.747  70.524  1.00  0.00    -0.278 C  
HETATM   12  C   UNL     1      -9.807   8.956  69.475  1.00  0.00    -0.180 C  
HETATM   13  O   UNL     1      -9.163   5.988  70.725  1.00  0.00    -0.151 OA 
HETATM   14  O   UNL     1      -9.937   4.616  69.054  1.00  0.00    -0.175 OA 
HETATM   15  C   UNL     1      -8.358   8.118  69.748  1.00  0.00    -0.124 C  
HETATM   16  C   UNL     1      -7.196   8.741  68.905  1.00  0.00    -0.074 C  
HETATM   17  C   UNL     1     -10.755   7.673  67.442  1.00  0.00    -0.318 C  
HETATM   18  C   UNL     1      -7.585   8.532  67.424  1.00  0.00    -0.097 C  
HETATM   19  C   UNL     1      -8.884   9.222  67.038  1.00  0.00    -0.135 C  
HETATM   20  C   UNL     1     -10.149   9.009  67.921  1.00  0.00    -0.246 C  
HETATM   21  C   UNL     1     -11.226  10.140  67.704  1.00  0.00    -0.169 C  
HETATM   22  C   UNL     1      -8.906   9.925  65.889  1.00  0.00    -0.171 C  
HETATM   23  C   UNL     1     -10.876  11.223  66.693  1.00  0.00    -0.325 C  
HETATM   24  C   UNL     1     -10.150  10.622  65.532  1.00  0.00    -0.280 C  
HETATM   25  O   UNL     1     -10.497  10.744  64.365  1.00  0.00    -0.365 OA 
ENDROOT
BRANCH  16  26
HETATM   26  S   UNL     1      -6.871  10.542  69.180  1.00  0.00    -0.084 SA 
BRANCH  26  27
HETATM   27  C   UNL     1      -5.848  10.902  67.797  1.00  0.00    -0.043 C  
HETATM   28  C   UNL     1      -5.680  12.368  67.516  1.00  0.00    -0.138 C  
HETATM   29  O   UNL     1      -5.294  10.024  67.151  1.00  0.00    -0.041 OA 
ENDBRANCH  26  27
ENDBRANCH  16  26
TORSDOF 2
ENDMDL
MODEL       76
REMARK 921   NORMALIZED FREE ENERGY PREDICTED BY IDOCK:   -3.37 KCAL/MOL
REMARK 922        TOTAL FREE ENERGY PREDICTED BY IDOCK:   -4.34 KCAL/MOL
REMARK 923 INTER-LIGAND FREE ENERGY PREDICTED BY IDOCK:   -4.01 KCAL/MOL
REMARK 924 INTRA-LIGAND FREE ENERGY PREDICTED BY IDOCK:   -0.33 KCAL/MOL
REMARK 927      BINDING AFFINITY PREDICTED BY RF-SCORE:    0.00 PKD
ROOT
HETATM    1  C   UNL     1      -7.965   9.409  67.373  1.00  0.00    -0.106 C  
HETATM    2  C   UNL     1      -7.976  10.742  67.831  1.00  0.00    -0.110 C  
HETATM    3  C   UNL     1      -6.966   9.919  68.587  1.00  0.00    -0.062 C  
HETATM    4  C   UNL     1      -6.441   8.098  67.774  1.00  0.00    -0.053 C  
HETATM    5  C   UNL     1      -6.064   9.360  67.401  1.00  0.00    -0.050 C  
HETATM    6  C   UNL     1      -5.153   7.401  67.034  1.00  0.00    -0.018 C  
HETATM    7  C   UNL     1      -5.146   8.984  69.048  1.00  0.00    -0.037 C  
HETATM    8  C   UNL     1      -5.339  10.054  66.275  1.00  0.00    -0.045 C  
HETATM    9  C   UNL     1      -5.508   5.942  66.846  1.00  0.00    -0.009 C  
HETATM   10  C   UNL     1      -6.981   6.011  66.946  1.00  0.00    -0.068 C  
HETATM   11  C   UNL     1      -6.163   7.948  70.090  1.00  0.00    -0.033 C  
HETATM   12  C   UNL     1      -7.885   8.052  70.116  1.00  0.00    -0.099 C  
HETATM   13  O   UNL     1      -7.359   7.325  66.956  1.00  0.00    -0.088 OA 
HETATM   14  O   UNL     1      -7.741   5.060  66.945  1.00  0.00    -0.091 OA 
HETATM   15  C   UNL     1      -8.756   8.395  68.702  1.00  0.00    -0.133 C  
HETATM   16  C   UNL     1     -10.229   8.793  69.047  1.00  0.00    -0.207 C  
HETATM   17  C   UNL     1      -8.371   5.531  70.408  1.00  0.00    -0.111 C  
HETATM   18  C   UNL     1     -10.867   7.545  69.698  1.00  0.00    -0.210 C  
HETATM   19  C   UNL     1     -10.172   7.110  70.978  1.00  0.00    -0.205 C  
HETATM   20  C   UNL     1      -8.624   6.940  70.983  1.00  0.00    -0.135 C  
HETATM   21  C   UNL     1      -8.022   6.989  72.440  1.00  0.00    -0.097 C  
HETATM   22  C   UNL     1     -10.943   6.805  72.040  1.00  0.00    -0.269 C  
HETATM   23  C   UNL     1      -9.016   7.179  73.577  1.00  0.00    -0.195 C  
HETATM   24  C   UNL     1     -10.272   6.420  73.290  1.00  0.00    -0.214 C  
HETATM   25  O   UNL     1     -10.764   5.592  74.046  1.00  0.00    -0.264 OA 
ENDROOT
BRANCH  16  26
HETATM   26  S   UNL     1     -10.432  10.226  70.200  1.00  0.00    -0.117 SA 
BRANCH  26  27
HETATM   27  C   UNL     1     -11.302  11.353  69.168  1.00  0.00    -0.288 C  
HETATM   28  C   UNL     1     -10.598  12.661  68.947  1.00  0.00    -0.157 C  
HETATM   29  O   UNL     1     -12.372  11.066  68.649  1.00  0.00    -0.539 OA 
ENDBRANCH  26  27
ENDBRANCH  16  26
TORSDOF 2
ENDMDL
MODEL       77
REMARK 921   NORMALIZED FREE ENERGY PREDICTED BY IDOCK:   -3.37 KCAL/MOL
REMARK 922        TOTAL FREE ENERGY PREDICTED BY IDOCK:   -4.34 KCAL/MOL
REMARK 923 INTER-LIGAND FREE ENERGY PREDICTED BY IDOCK:   -3.96 KCAL/MOL
REMARK 924 INTRA-LIGAND FREE ENERGY PREDICTED BY IDOCK:   -0.38 KCAL/MOL
REMARK 927      BINDING AFFINITY PREDICTED BY RF-SCORE:    0.00 PKD
ROOT
HETATM    1  C   UNL     1      -7.878  10.138  69.288  1.00  0.00    -0.134 C  
HETATM    2  C   UNL     1      -7.030  10.087  70.414  1.00  0.00    -0.137 C  
HETATM    3  C   UNL     1      -6.414   9.372  69.240  1.00  0.00    -0.044 C  
HETATM    4  C   UNL     1      -7.240   9.729  67.384  1.00  0.00    -0.086 C  
HETATM    5  C   UNL     1      -6.413  10.520  68.138  1.00  0.00    -0.062 C  
HETATM    6  C   UNL     1      -6.856  10.508  65.991  1.00  0.00    -0.134 C  
HETATM    7  C   UNL     1      -5.328   9.081  67.470  1.00  0.00    -0.034 C  
HETATM    8  C   UNL     1      -5.873  11.929  68.151  1.00  0.00    -0.051 C  
HETATM    9  C   UNL     1      -7.962  10.190  65.008  1.00  0.00    -0.146 C  
HETATM   10  C   UNL     1      -9.039   9.790  65.938  1.00  0.00    -0.168 C  
HETATM   11  C   UNL     1      -6.303   7.589  67.344  1.00  0.00    -0.053 C  
HETATM   12  C   UNL     1      -7.581   7.212  68.440  1.00  0.00    -0.118 C  
HETATM   13  O   UNL     1      -8.642  10.069  67.216  1.00  0.00    -0.125 OA 
HETATM   14  O   UNL     1     -10.129   9.352  65.620  1.00  0.00    -0.261 OA 
HETATM   15  C   UNL     1      -8.567   8.436  69.078  1.00  0.00    -0.131 C  
HETATM   16  C   UNL     1      -9.386   7.899  70.299  1.00  0.00    -0.159 C  
HETATM   17  C   UNL     1      -9.179   6.116  66.732  1.00  0.00    -0.143 C  
HETATM   18  C   UNL     1     -10.313   6.796  69.739  1.00  0.00    -0.226 C  
HETATM   19  C   UNL     1      -9.558   5.633  69.116  1.00  0.00    -0.176 C  
HETATM   20  C   UNL     1      -8.439   5.924  68.072  1.00  0.00    -0.110 C  
HETATM   21  C   UNL     1      -7.443   4.712  67.911  1.00  0.00    -0.077 C  
HETATM   22  C   UNL     1      -9.952   4.385  69.435  1.00  0.00    -0.165 C  
HETATM   23  C   UNL     1      -7.726   3.484  68.766  1.00  0.00    -0.052 C  
HETATM   24  C   UNL     1      -9.200   3.258  68.863  1.00  0.00    -0.163 C  
HETATM   25  O   UNL     1      -9.756   2.209  68.566  1.00  0.00    -0.138 OA 
ENDROOT
BRANCH  16  26
HETATM   26  S   UNL     1      -8.396   7.186  71.689  1.00  0.00    -0.109 SA 
BRANCH  26  27
HETATM   27  C   UNL     1      -9.668   6.436  72.643  1.00  0.00    -0.161 C  
HETATM   28  C   UNL     1     -10.630   7.408  73.265  1.00  0.00    -0.442 C  
HETATM   29  O   UNL     1      -9.771   5.222  72.749  1.00  0.00    -0.148 OA 
ENDBRANCH  26  27
ENDBRANCH  16  26
TORSDOF 2
ENDMDL
MODEL       78
REMARK 921   NORMALIZED FREE ENERGY PREDICTED BY IDOCK:   -3.28 KCAL/MOL
REMARK 922        TOTAL FREE ENERGY PREDICTED BY IDOCK:   -4.24 KCAL/MOL
REMARK 923 INTER-LIGAND FREE ENERGY PREDICTED BY IDOCK:   -3.97 KCAL/MOL
REMARK 924 INTRA-LIGAND FREE ENERGY PREDICTED BY IDOCK:   -0.27 KCAL/MOL
REMARK 927      BINDING AFFINITY PREDICTED BY RF-SCORE:    0.00 PKD
ROOT
HETATM    1  C   UNL     1      -9.088  11.807  69.184  1.00  0.00     0.390 C  
HETATM    2  C   UNL     1      -8.487  12.493  68.109  1.00  0.00    -0.180 C  
HETATM    3  C   UNL     1      -9.691  11.713  67.648  1.00  0.00    -0.186 C  
HETATM    4  C   UNL     1     -10.986  11.037  69.104  1.00  0.00    -0.237 C  
HETATM    5  C   UNL     1     -10.827  12.299  68.595  1.00  0.00    -0.268 C  
HETATM    6  C   UNL     1     -12.498  11.357  69.657  1.00  0.00    -0.133 C  
HETATM    7  C   UNL     1     -11.695  11.266  67.226  1.00  0.00    -0.047 C  
HETATM    8  C   UNL     1     -11.277  13.712  68.873  1.00  0.00    -0.309 C  
HETATM    9  C   UNL     1     -12.799  10.306  70.703  1.00  0.00    -0.362 C  
HETATM   10  C   UNL     1     -11.428   9.873  71.047  1.00  0.00    -0.388 C  
HETATM   11  C   UNL     1     -11.131   9.572  67.289  1.00  0.00     0.112 C  
HETATM   12  C   UNL     1      -9.526   9.139  67.750  1.00  0.00    -0.160 C  
HETATM   13  O   UNL     1     -10.536  10.717  70.447  1.00  0.00    -0.075 OA 
HETATM   14  O   UNL     1     -11.138   8.961  71.800  1.00  0.00    -0.316 OA 
HETATM   15  C   UNL     1      -8.697  10.017  68.941  1.00  0.00    -0.146 C  
HETATM   16  C   UNL     1      -7.171   9.671  68.916  1.00  0.00    -0.072 C  
HETATM   17  C   UNL     1     -10.117   6.977  69.037  1.00  0.00    -0.182 C  
HETATM   18  C   UNL     1      -7.067   8.173  69.282  1.00  0.00    -0.060 C  
HETATM   19  C   UNL     1      -7.784   7.260  68.300  1.00  0.00    -0.120 C  
HETATM   20  C   UNL     1      -9.258   7.577  67.905  1.00  0.00    -0.137 C  
HETATM   21  C   UNL     1      -9.675   6.882  66.552  1.00  0.00    -0.185 C  
HETATM   22  C   UNL     1      -7.136   6.159  67.876  1.00  0.00    -0.078 C  
HETATM   23  C   UNL     1      -8.613   6.030  65.872  1.00  0.00    -0.150 C  
HETATM   24  C   UNL     1      -7.813   5.294  66.898  1.00  0.00    -0.100 C  
HETATM   25  O   UNL     1      -7.658   4.080  66.909  1.00  0.00    -0.082 OA 
ENDROOT
BRANCH  16  26
HETATM   26  S   UNL     1      -6.305   9.945  67.304  1.00  0.00    -0.068 SA 
BRANCH  26  27
HETATM   27  C   UNL     1      -5.500  11.475  67.624  1.00  0.00    -0.054 C  
HETATM   28  C   UNL     1      -5.172  11.711  69.070  1.00  0.00    -0.046 C  
HETATM   29  O   UNL     1      -5.203  12.253  66.728  1.00  0.00    -0.332 OA 
ENDBRANCH  26  27
ENDBRANCH  16  26
TORSDOF 2
ENDMDL
MODEL       79
REMARK 921   NORMALIZED FREE ENERGY PREDICTED BY IDOCK:   -3.21 KCAL/MOL
REMARK 922        TOTAL FREE ENERGY PREDICTED BY IDOCK:   -4.16 KCAL/MOL
REMARK 923 INTER-LIGAND FREE ENERGY PREDICTED BY IDOCK:   -3.72 KCAL/MOL
REMARK 924 INTRA-LIGAND FREE ENERGY PREDICTED BY IDOCK:   -0.44 KCAL/MOL
REMARK 927      BINDING AFFINITY PREDICTED BY RF-SCORE:    0.00 PKD
ROOT
HETATM    1  C   UNL     1      -8.187   7.146  64.472  1.00  0.00    -0.002 C  
HETATM    2  C   UNL     1      -7.487   8.344  64.724  1.00  0.00    -0.096 C  
HETATM    3  C   UNL     1      -6.717   7.151  65.229  1.00  0.00    -0.047 C  
HETATM    4  C   UNL     1      -7.309   5.296  64.549  1.00  0.00    -0.060 C  
HETATM    5  C   UNL     1      -6.596   6.274  63.907  1.00  0.00    -0.033 C  
HETATM    6  C   UNL     1      -6.765   4.118  63.542  1.00  0.00    -0.042 C  
HETATM    7  C   UNL     1      -5.413   5.509  65.216  1.00  0.00    -0.013 C  
HETATM    8  C   UNL     1      -6.083   6.599  62.526  1.00  0.00    -0.035 C  
HETATM    9  C   UNL     1      -7.733   2.964  63.678  1.00  0.00    -0.068 C  
HETATM   10  C   UNL     1      -8.912   3.667  64.225  1.00  0.00    -0.120 C  
HETATM   11  C   UNL     1      -6.342   5.005  66.656  1.00  0.00    -0.040 C  
HETATM   12  C   UNL     1      -7.741   5.849  67.209  1.00  0.00    -0.101 C  
HETATM   13  O   UNL     1      -8.684   5.014  64.175  1.00  0.00    -0.143 OA 
HETATM   14  O   UNL     1      -9.947   3.142  64.594  1.00  0.00    -0.134 OA 
HETATM   15  C   UNL     1      -8.818   6.559  66.108  1.00  0.00    -0.160 C  
HETATM   16  C   UNL     1      -9.777   7.554  66.842  1.00  0.00    -0.209 C  
HETATM   17  C   UNL     1      -9.096   3.788  67.980  1.00  0.00    -0.187 C  
HETATM   18  C   UNL     1     -10.609   6.699  67.825  1.00  0.00    -0.311 C  
HETATM   19  C   UNL     1      -9.764   5.986  68.868  1.00  0.00    -0.159 C  
HETATM   20  C   UNL     1      -8.527   5.157  68.407  1.00  0.00    -0.095 C  
HETATM   21  C   UNL     1      -7.501   4.916  69.580  1.00  0.00    -0.056 C  
HETATM   22  C   UNL     1     -10.176   6.031  70.149  1.00  0.00    -0.267 C  
HETATM   23  C   UNL     1      -7.870   5.503  70.935  1.00  0.00    -0.104 C  
HETATM   24  C   UNL     1      -9.341   5.372  71.165  1.00  0.00    -0.150 C  
HETATM   25  O   UNL     1      -9.840   4.830  72.143  1.00  0.00    -0.159 OA 
ENDROOT
BRANCH  16  26
HETATM   26  S   UNL     1      -8.958   8.915  67.793  1.00  0.00    -0.134 SA 
BRANCH  26  27
HETATM   27  C   UNL     1     -10.356   9.673  68.543  1.00  0.00    -0.205 C  
HETATM   28  C   UNL     1     -10.404   9.540  70.039  1.00  0.00    -0.284 C  
HETATM   29  O   UNL     1     -11.190  10.287  67.893  1.00  0.00    -0.301 OA 
ENDBRANCH  26  27
ENDBRANCH  16  26
TORSDOF 2
ENDMDL
MODEL       80
REMARK 921   NORMALIZED FREE ENERGY PREDICTED BY IDOCK:   -3.17 KCAL/MOL
REMARK 922        TOTAL FREE ENERGY PREDICTED BY IDOCK:   -4.12 KCAL/MOL
REMARK 923 INTER-LIGAND FREE ENERGY PREDICTED BY IDOCK:   -3.72 KCAL/MOL
REMARK 924 INTRA-LIGAND FREE ENERGY PREDICTED BY IDOCK:   -0.40 KCAL/MOL
REMARK 927      BINDING AFFINITY PREDICTED BY RF-SCORE:    0.00 PKD
ROOT
HETATM    1  C   UNL     1      -8.852   4.278  67.544  1.00  0.00    -0.122 C  
HETATM    2  C   UNL     1      -7.766   3.748  66.818  1.00  0.00    -0.084 C  
HETATM    3  C   UNL     1      -7.301   4.374  68.108  1.00  0.00    -0.065 C  
HETATM    4  C   UNL     1      -8.740   4.770  69.531  1.00  0.00    -0.086 C  
HETATM    5  C   UNL     1      -8.171   3.577  69.175  1.00  0.00    -0.075 C  
HETATM    6  C   UNL     1      -9.217   4.206  70.997  1.00  0.00    -0.202 C  
HETATM    7  C   UNL     1      -6.826   4.552  70.142  1.00  0.00    -0.037 C  
HETATM    8  C   UNL     1      -8.357   2.099  69.422  1.00  0.00    -0.076 C  
HETATM    9  C   UNL     1     -10.305   5.140  71.479  1.00  0.00    -0.278 C  
HETATM   10  C   UNL     1     -10.724   5.744  70.197  1.00  0.00    -0.320 C  
HETATM   11  C   UNL     1      -7.001   6.303  69.832  1.00  0.00    -0.066 C  
HETATM   12  C   UNL     1      -7.546   6.934  68.322  1.00  0.00    -0.107 C  
HETATM   13  O   UNL     1     -10.115   5.074  69.174  1.00  0.00    -0.202 OA 
HETATM   14  O   UNL     1     -11.535   6.644  70.065  1.00  0.00    -0.358 OA 
HETATM   15  C   UNL     1      -8.720   6.117  67.411  1.00  0.00    -0.104 C  
HETATM   16  C   UNL     1      -8.772   6.679  65.952  1.00  0.00    -0.137 C  
HETATM   17  C   UNL     1      -8.922   8.910  69.260  1.00  0.00    -0.144 C  
HETATM   18  C   UNL     1      -9.221   8.153  66.078  1.00  0.00    -0.207 C  
HETATM   19  C   UNL     1      -8.261   9.008  66.890  1.00  0.00    -0.116 C  
HETATM   20  C   UNL     1      -7.794   8.506  68.289  1.00  0.00    -0.106 C  
HETATM   21  C   UNL     1      -6.465   9.212  68.762  1.00  0.00    -0.049 C  
HETATM   22  C   UNL     1      -7.922  10.214  66.397  1.00  0.00    -0.120 C  
HETATM   23  C   UNL     1      -5.872  10.246  67.814  1.00  0.00    -0.045 C  
HETATM   24  C   UNL     1      -6.966  11.028  67.162  1.00  0.00    -0.103 C  
HETATM   25  O   UNL     1      -7.048  12.249  67.186  1.00  0.00    -0.147 OA 
ENDROOT
BRANCH  16  26
HETATM   26  S   UNL     1      -7.182   6.627  65.007  1.00  0.00    -0.078 SA 
BRANCH  26  27
HETATM   27  C   UNL     1      -7.783   6.360  63.376  1.00  0.00    -0.102 C  
HETATM   28  C   UNL     1      -7.701   4.934  62.911  1.00  0.00    -0.065 C  
HETATM   29  O   UNL     1      -8.261   7.263  62.703  1.00  0.00    -0.116 OA 
ENDBRANCH  26  27
ENDBRANCH  16  26
TORSDOF 2
ENDMDL
MODEL       81
REMARK 921   NORMALIZED FREE ENERGY PREDICTED BY IDOCK:   -2.99 KCAL/MOL
REMARK 922        TOTAL FREE ENERGY PREDICTED BY IDOCK:   -3.91 KCAL/MOL
REMARK 923 INTER-LIGAND FREE ENERGY PREDICTED BY IDOCK:   -3.51 KCAL/MOL
REMARK 924 INTRA-LIGAND FREE ENERGY PREDICTED BY IDOCK:   -0.40 KCAL/MOL
REMARK 927      BINDING AFFINITY PREDICTED BY RF-SCORE:    0.00 PKD
ROOT
HETATM    1  C   UNL     1      -9.199  13.019  65.457  1.00  0.00     0.435 C  
HETATM    2  C   UNL     1      -8.848  11.710  65.848  1.00  0.00    -0.057 C  
HETATM    3  C   UNL     1     -10.334  11.932  65.972  1.00  0.00    -0.268 C  
HETATM    4  C   UNL     1     -11.120  13.580  65.014  1.00  0.00    -0.328 C  
HETATM    5  C   UNL     1     -10.708  12.382  64.493  1.00  0.00    -0.355 C  
HETATM    6  C   UNL     1     -12.063  13.920  63.714  1.00  0.00    -0.330 C  
HETATM    7  C   UNL     1     -12.355  12.033  65.422  1.00  0.00     0.198 C  
HETATM    8  C   UNL     1     -10.451  11.744  63.150  1.00  0.00    -0.359 C  
HETATM    9  C   UNL     1     -12.310  15.412  63.746  1.00  0.00     0.441 C  
HETATM   10  C   UNL     1     -11.183  15.850  64.597  1.00  0.00    -0.351 C  
HETATM   11  C   UNL     1     -12.490  13.104  66.847  1.00  0.00     0.052 C  
HETATM   12  C   UNL     1     -11.121  13.615  67.764  1.00  0.00    -0.293 C  
HETATM   13  O   UNL     1     -10.345  14.789  64.797  1.00  0.00    -0.382 OA 
HETATM   14  O   UNL     1     -10.991  16.984  64.996  1.00  0.00    -0.607 OA 
HETATM   15  C   UNL     1      -9.635  13.926  67.009  1.00  0.00    -0.254 C  
HETATM   16  C   UNL     1      -8.487  14.010  68.069  1.00  0.00    -0.171 C  
HETATM   17  C   UNL     1     -11.936  16.012  68.279  1.00  0.00     0.171 C  
HETATM   18  C   UNL     1      -8.821  15.227  68.962  1.00  0.00    -0.226 C  
HETATM   19  C   UNL     1     -10.145  15.091  69.696  1.00  0.00    -0.139 C  
HETATM   20  C   UNL     1     -11.421  14.695  68.894  1.00  0.00    -0.323 C  
HETATM   21  C   UNL     1     -12.554  14.114  69.825  1.00  0.00    -0.151 C  
HETATM   22  C   UNL     1     -10.175  15.406  71.005  1.00  0.00     0.646 C  
HETATM   23  C   UNL     1     -12.239  14.043  71.313  1.00  0.00    -0.392 C  
HETATM   24  C   UNL     1     -11.446  15.241  71.725  1.00  0.00    -0.421 C  
HETATM   25  O   UNL     1     -11.766  16.000  72.630  1.00  0.00    -0.460 OA 
ENDROOT
BRANCH  16  26
HETATM   26  S   UNL     1      -8.273  12.525  69.151  1.00  0.00     0.714 SA 
BRANCH  26  27
HETATM   27  C   UNL     1      -6.519  12.412  69.205  1.00  0.00    -0.100 C  
HETATM   28  C   UNL     1      -5.887  13.132  70.361  1.00  0.00    -0.156 C  
HETATM   29  O   UNL     1      -5.885  11.764  68.384  1.00  0.00    -0.049 OA 
ENDBRANCH  26  27
ENDBRANCH  16  26
TORSDOF 2
ENDMDL
MODEL       82
REMARK 921   NORMALIZED FREE ENERGY PREDICTED BY IDOCK:   -2.92 KCAL/MOL
REMARK 922        TOTAL FREE ENERGY PREDICTED BY IDOCK:   -3.84 KCAL/MOL
REMARK 923 INTER-LIGAND FREE ENERGY PREDICTED BY IDOCK:   -3.34 KCAL/MOL
REMARK 924 INTRA-LIGAND FREE ENERGY PREDICTED BY IDOCK:   -0.50 KCAL/MOL
REMARK 927      BINDING AFFINITY PREDICTED BY RF-SCORE:    0.00 PKD
ROOT
HETATM    1  C   UNL     1      -9.426  13.096  68.930  1.00  0.00     0.231 C  
HETATM    2  C   UNL     1      -9.013  14.074  68.002  1.00  0.00    -0.182 C  
HETATM    3  C   UNL     1      -9.840  13.008  67.332  1.00  0.00    -0.215 C  
HETATM    4  C   UNL     1     -10.937  11.763  68.556  1.00  0.00    -0.227 C  
HETATM    5  C   UNL     1     -11.178  13.061  68.192  1.00  0.00    -0.305 C  
HETATM    6  C   UNL     1     -12.506  11.493  68.957  1.00  0.00     0.226 C  
HETATM    7  C   UNL     1     -11.534  11.985  66.639  1.00  0.00    -0.411 C  
HETATM    8  C   UNL     1     -12.101  14.199  68.548  1.00  0.00    -0.312 C  
HETATM    9  C   UNL     1     -12.512  10.276  69.856  1.00  0.00    -0.042 C  
HETATM   10  C   UNL     1     -11.107  10.277  70.316  1.00  0.00    -0.319 C  
HETATM   11  C   UNL     1     -10.434  10.577  66.606  1.00  0.00    -0.290 C  
HETATM   12  C   UNL     1      -8.818  10.640  67.208  1.00  0.00    -0.137 C  
HETATM   13  O   UNL     1     -10.512  11.437  69.906  1.00  0.00     0.190 OA 
HETATM   14  O   UNL     1     -10.583   9.423  71.007  1.00  0.00    -0.282 OA 
HETATM   15  C   UNL     1      -8.433  11.580  68.565  1.00  0.00    -0.143 C  
HETATM   16  C   UNL     1      -6.883  11.761  68.685  1.00  0.00    -0.081 C  
HETATM   17  C   UNL     1      -8.738   8.258  68.205  1.00  0.00    -0.136 C  
HETATM   18  C   UNL     1      -6.305  10.347  68.917  1.00  0.00    -0.047 C  
HETATM   19  C   UNL     1      -6.591   9.384  67.775  1.00  0.00    -0.063 C  
HETATM   20  C   UNL     1      -8.048   9.247  67.243  1.00  0.00    -0.113 C  
HETATM   21  C   UNL     1      -8.098   8.633  65.791  1.00  0.00    -0.114 C  
HETATM   22  C   UNL     1      -5.576   8.621  67.327  1.00  0.00    -0.039 C  
HETATM   23  C   UNL     1      -6.760   8.273  65.161  1.00  0.00    -0.055 C  
HETATM   24  C   UNL     1      -5.841   7.715  66.199  1.00  0.00    -0.037 C  
HETATM   25  O   UNL     1      -5.283   6.629  66.113  1.00  0.00    -0.016 OA 
ENDROOT
BRANCH  16  26
HETATM   26  S   UNL     1      -6.039  12.510  67.218  1.00  0.00    -0.037 SA 
BRANCH  26  27
HETATM   27  C   UNL     1      -5.578  14.075  67.872  1.00  0.00    -0.094 C  
HETATM   28  C   UNL     1      -5.519  14.126  69.372  1.00  0.00    -0.083 C  
HETATM   29  O   UNL     1      -5.293  15.022  67.153  1.00  0.00    -0.207 OA 
ENDBRANCH  26  27
ENDBRANCH  16  26
TORSDOF 2
ENDMDL
MODEL       83
REMARK 921   NORMALIZED FREE ENERGY PREDICTED BY IDOCK:   -2.91 KCAL/MOL
REMARK 922        TOTAL FREE ENERGY PREDICTED BY IDOCK:   -3.83 KCAL/MOL
REMARK 923 INTER-LIGAND FREE ENERGY PREDICTED BY IDOCK:   -3.52 KCAL/MOL
REMARK 924 INTRA-LIGAND FREE ENERGY PREDICTED BY IDOCK:   -0.32 KCAL/MOL
REMARK 927      BINDING AFFINITY PREDICTED BY RF-SCORE:    0.00 PKD
ROOT
HETATM    1  C   UNL     1      -9.966   5.612  67.070  1.00  0.00    -0.195 C  
HETATM    2  C   UNL     1      -9.745   6.974  66.781  1.00  0.00    -0.241 C  
HETATM    3  C   UNL     1      -8.442   6.224  66.884  1.00  0.00    -0.109 C  
HETATM    4  C   UNL     1      -8.536   4.165  66.818  1.00  0.00    -0.104 C  
HETATM    5  C   UNL     1      -8.654   5.076  65.803  1.00  0.00    -0.131 C  
HETATM    6  C   UNL     1      -8.149   2.943  65.793  1.00  0.00    -0.087 C  
HETATM    7  C   UNL     1      -6.798   5.059  66.303  1.00  0.00    -0.062 C  
HETATM    8  C   UNL     1      -9.042   5.125  64.345  1.00  0.00     0.085 C  
HETATM    9  C   UNL     1      -8.410   1.657  66.547  1.00  0.00    -0.090 C  
HETATM   10  C   UNL     1      -9.341   2.143  67.587  1.00  0.00    -0.123 C  
HETATM   11  C   UNL     1      -6.642   4.751  68.056  1.00  0.00    -0.046 C  
HETATM   12  C   UNL     1      -7.798   5.308  69.209  1.00  0.00    -0.088 C  
HETATM   13  O   UNL     1      -9.694   3.430  67.295  1.00  0.00    -0.162 OA 
HETATM   14  O   UNL     1      -9.780   1.485  68.513  1.00  0.00    -0.176 OA 
HETATM   15  C   UNL     1      -9.449   5.362  68.828  1.00  0.00    -0.168 C  
HETATM   16  C   UNL     1     -10.226   6.229  69.874  1.00  0.00    -0.184 C  
HETATM   17  C   UNL     1      -7.712   3.263  70.787  1.00  0.00    -0.040 C  
HETATM   18  C   UNL     1     -10.083   5.494  71.226  1.00  0.00    -0.266 C  
HETATM   19  C   UNL     1      -8.641   5.358  71.689  1.00  0.00    -0.131 C  
HETATM   20  C   UNL     1      -7.575   4.798  70.701  1.00  0.00    -0.058 C  
HETATM   21  C   UNL     1      -6.106   5.183  71.126  1.00  0.00    -0.022 C  
HETATM   22  C   UNL     1      -8.363   5.650  72.974  1.00  0.00    -0.118 C  
HETATM   23  C   UNL     1      -5.963   6.006  72.399  1.00  0.00    -0.037 C  
HETATM   24  C   UNL     1      -6.963   5.555  73.414  1.00  0.00    -0.085 C  
HETATM   25  O   UNL     1      -6.678   5.197  74.550  1.00  0.00    -0.072 OA 
ENDROOT
BRANCH  16  26
HETATM   26  S   UNL     1      -9.635   7.969  70.083  1.00  0.00    -0.175 SA 
BRANCH  26  27
HETATM   27  C   UNL     1     -10.578   8.467  71.481  1.00  0.00    -0.241 C  
HETATM   28  C   UNL     1      -9.768   8.701  72.724  1.00  0.00    -0.114 C  
HETATM   29  O   UNL     1     -11.787   8.642  71.421  1.00  0.00    -0.275 OA 
ENDBRANCH  26  27
ENDBRANCH  16  26
TORSDOF 2
ENDMDL
MODEL       84
REMARK 921   NORMALIZED FREE ENERGY PREDICTED BY IDOCK:   -2.78 KCAL/MOL
REMARK 922        TOTAL FREE ENERGY PREDICTED BY IDOCK:   -3.68 KCAL/MOL
REMARK 923 INTER-LIGAND FREE ENERGY PREDICTED BY IDOCK:   -3.22 KCAL/MOL
REMARK 924 INTRA-LIGAND FREE ENERGY PREDICTED BY IDOCK:   -0.46 KCAL/MOL
REMARK 927      BINDING AFFINITY PREDICTED BY RF-SCORE:    0.00 PKD
ROOT
HETATM    1  C   UNL     1      -6.890  11.788  70.139  1.00  0.00     0.520 C  
HETATM    2  C   UNL     1      -5.705  11.119  70.510  1.00  0.00    -0.140 C  
HETATM    3  C   UNL     1      -5.825  11.216  69.011  1.00  0.00    -0.040 C  
HETATM    4  C   UNL     1      -7.206  12.553  68.263  1.00  0.00    -0.111 C  
HETATM    5  C   UNL     1      -5.971  12.787  68.808  1.00  0.00    -0.071 C  
HETATM    6  C   UNL     1      -7.230  13.995  67.480  1.00  0.00    -0.183 C  
HETATM    7  C   UNL     1      -5.663  12.009  67.077  1.00  0.00    -0.123 C  
HETATM    8  C   UNL     1      -5.125  13.946  69.275  1.00  0.00    -0.081 C  
HETATM    9  C   UNL     1      -8.679  14.274  67.146  1.00  0.00    -0.243 C  
HETATM   10  C   UNL     1      -9.352  13.393  68.124  1.00  0.00    -0.217 C  
HETATM   11  C   UNL     1      -6.957  10.837  66.695  1.00  0.00    -0.129 C  
HETATM   12  C   UNL     1      -7.733   9.877  67.901  1.00  0.00    -0.090 C  
HETATM   13  O   UNL     1      -8.415  12.900  68.989  1.00  0.00     0.218 OA 
HETATM   14  O   UNL     1     -10.551  13.194  68.197  1.00  0.00    -0.231 OA 
HETATM   15  C   UNL     1      -8.022  10.497  69.452  1.00  0.00    -0.146 C  
HETATM   16  C   UNL     1      -8.388   9.344  70.445  1.00  0.00    -0.205 C  
HETATM   17  C   UNL     1     -10.110   9.922  66.889  1.00  0.00    -0.285 C  
HETATM   18  C   UNL     1      -9.714   8.741  69.928  1.00  0.00    -0.183 C  
HETATM   19  C   UNL     1      -9.605   8.156  68.529  1.00  0.00    -0.153 C  
HETATM   20  C   UNL     1      -8.970   9.014  67.394  1.00  0.00    -0.135 C  
HETATM   21  C   UNL     1      -8.477   8.130  66.184  1.00  0.00    -0.143 C  
HETATM   22  C   UNL     1     -10.147   6.943  68.310  1.00  0.00    -0.182 C  
HETATM   23  C   UNL     1      -8.698   6.629  66.306  1.00  0.00    -0.150 C  
HETATM   24  C   UNL     1     -10.011   6.359  66.967  1.00  0.00    -0.163 C  
HETATM   25  O   UNL     1     -10.892   5.657  66.488  1.00  0.00    -0.284 OA 
ENDROOT
BRANCH  16  26
HETATM   26  S   UNL     1      -7.143   7.984  70.600  1.00  0.00    -0.045 SA 
BRANCH  26  27
HETATM   27  C   UNL     1      -7.417   7.481  72.263  1.00  0.00    -0.074 C  
HETATM   28  C   UNL     1      -7.183   8.559  73.282  1.00  0.00    -0.048 C  
HETATM   29  O   UNL     1      -7.804   6.356  72.547  1.00  0.00    -0.101 OA 
ENDBRANCH  26  27
ENDBRANCH  16  26
TORSDOF 2
ENDMDL
MODEL       85
REMARK 921   NORMALIZED FREE ENERGY PREDICTED BY IDOCK:   -2.63 KCAL/MOL
REMARK 922        TOTAL FREE ENERGY PREDICTED BY IDOCK:   -3.51 KCAL/MOL
REMARK 923 INTER-LIGAND FREE ENERGY PREDICTED BY IDOCK:   -3.57 KCAL/MOL
REMARK 924 INTRA-LIGAND FREE ENERGY PREDICTED BY IDOCK:    0.06 KCAL/MOL
REMARK 927      BINDING AFFINITY PREDICTED BY RF-SCORE:    0.00 PKD
ROOT
HETATM    1  C   UNL     1      -7.986   9.888  70.184  1.00  0.00    -0.181 C  
HETATM    2  C   UNL     1      -6.756   9.335  70.594  1.00  0.00    -0.085 C  
HETATM    3  C   UNL     1      -6.705   9.755  69.148  1.00  0.00    -0.053 C  
HETATM    4  C   UNL     1      -8.201  11.009  68.482  1.00  0.00    -0.146 C  
HETATM    5  C   UNL     1      -7.105  11.291  69.253  1.00  0.00    -0.112 C  
HETATM    6  C   UNL     1      -8.387  12.573  68.020  1.00  0.00    -0.171 C  
HETATM    7  C   UNL     1      -6.452  10.988  67.471  1.00  0.00    -0.063 C  
HETATM    8  C   UNL     1      -6.545  12.424  70.079  1.00  0.00     0.200 C  
HETATM    9  C   UNL     1      -9.811  12.703  67.524  1.00  0.00    -0.203 C  
HETATM   10  C   UNL     1     -10.429  11.532  68.178  1.00  0.00    -0.193 C  
HETATM   11  C   UNL     1      -7.457   9.757  66.653  1.00  0.00    -0.095 C  
HETATM   12  C   UNL     1      -8.190   8.441  67.495  1.00  0.00    -0.125 C  
HETATM   13  O   UNL     1      -9.533  10.997  69.061  1.00  0.00    -0.184 OA 
HETATM   14  O   UNL     1     -11.573  11.146  68.016  1.00  0.00    -0.431 OA 
HETATM   15  C   UNL     1      -8.775   8.637  69.074  1.00  0.00    -0.134 C  
HETATM   16  C   UNL     1      -9.047   7.245  69.735  1.00  0.00    -0.141 C  
HETATM   17  C   UNL     1     -10.394   8.366  66.147  1.00  0.00     0.370 C  
HETATM   18  C   UNL     1     -10.169   6.588  68.900  1.00  0.00    -0.206 C  
HETATM   19  C   UNL     1      -9.786   6.364  67.446  1.00  0.00    -0.141 C  
HETATM   20  C   UNL     1      -9.180   7.544  66.629  1.00  0.00    -0.201 C  
HETATM   21  C   UNL     1      -8.391   7.047  65.357  1.00  0.00    -0.121 C  
HETATM   22  C   UNL     1     -10.069   5.167  66.898  1.00  0.00    -0.258 C  
HETATM   23  C   UNL     1      -8.353   5.542  65.130  1.00  0.00    -0.146 C  
HETATM   24  C   UNL     1      -9.667   4.936  65.503  1.00  0.00    -0.112 C  
HETATM   25  O   UNL     1     -10.341   4.240  64.754  1.00  0.00    -0.203 OA 
ENDROOT
BRANCH  16  26
HETATM   26  S   UNL     1      -7.607   6.086  69.804  1.00  0.00    -0.082 SA 
BRANCH  26  27
HETATM   27  C   UNL     1      -8.435   4.553  70.039  1.00  0.00    -0.069 C  
HETATM   28  C   UNL     1      -9.475   4.571  71.123  1.00  0.00    -0.226 C  
HETATM   29  O   UNL     1      -8.201   3.574  69.345  1.00  0.00    -0.053 OA 
ENDBRANCH  26  27
ENDBRANCH  16  26
TORSDOF 2
ENDMDL
MODEL       86
REMARK 921   NORMALIZED FREE ENERGY PREDICTED BY IDOCK:   -2.56 KCAL/MOL
REMARK 922        TOTAL FREE ENERGY PREDICTED BY IDOCK:   -3.44 KCAL/MOL
REMARK 923 INTER-LIGAND FREE ENERGY PREDICTED BY IDOCK:   -3.10 KCAL/MOL
REMARK 924 INTRA-LIGAND FREE ENERGY PREDICTED BY IDOCK:   -0.33 KCAL/MOL
REMARK 927      BINDING AFFINITY PREDICTED BY RF-SCORE:    0.00 PKD
ROOT
HETATM    1  C   UNL     1      -8.402   9.780  66.903  1.00  0.00    -0.120 C  
HETATM    2  C   UNL     1      -8.590   9.616  65.515  1.00  0.00    -0.162 C  
HETATM    3  C   UNL     1      -9.518   8.721  66.296  1.00  0.00    -0.300 C  
HETATM    4  C   UNL     1      -9.755   9.137  68.302  1.00  0.00    -0.154 C  
HETATM    5  C   UNL     1     -10.278   9.778  67.211  1.00  0.00    -0.289 C  
HETATM    6  C   UNL     1     -10.902   9.737  69.312  1.00  0.00    -0.240 C  
HETATM    7  C   UNL     1     -11.216   8.107  67.361  1.00  0.00     0.628 C  
HETATM    8  C   UNL     1     -11.034  11.041  66.876  1.00  0.00    -0.311 C  
HETATM    9  C   UNL     1     -10.347   9.602  70.713  1.00  0.00    -0.356 C  
HETATM   10  C   UNL     1      -8.903   9.492  70.418  1.00  0.00    -0.234 C  
HETATM   11  C   UNL     1     -10.123   6.849  68.003  1.00  0.00    -0.193 C  
HETATM   12  C   UNL     1      -8.433   6.813  67.655  1.00  0.00    -0.122 C  
HETATM   13  O   UNL     1      -8.703   9.754  69.092  1.00  0.00    -0.136 OA 
HETATM   14  O   UNL     1      -8.024   9.275  71.233  1.00  0.00    -0.322 OA 
HETATM   15  C   UNL     1      -7.548   8.251  67.496  1.00  0.00    -0.098 C  
HETATM   16  C   UNL     1      -6.160   7.970  66.831  1.00  0.00    -0.053 C  
HETATM   17  C   UNL     1      -7.631   5.981  69.966  1.00  0.00    -0.087 C  
HETATM   18  C   UNL     1      -5.393   7.056  67.815  1.00  0.00    -0.016 C  
HETATM   19  C   UNL     1      -6.086   5.726  68.066  1.00  0.00    -0.021 C  
HETATM   20  C   UNL     1      -7.596   5.715  68.447  1.00  0.00    -0.081 C  
HETATM   21  C   UNL     1      -8.268   4.313  68.181  1.00  0.00    -0.093 C  
HETATM   22  C   UNL     1      -5.334   4.609  68.032  1.00  0.00    -0.011 C  
HETATM   23  C   UNL     1      -7.365   3.224  67.620  1.00  0.00    -0.058 C  
HETATM   24  C   UNL     1      -6.007   3.319  68.238  1.00  0.00    -0.024 C  
HETATM   25  O   UNL     1      -5.447   2.394  68.813  1.00  0.00    -0.012 OA 
ENDROOT
BRANCH  16  26
HETATM   26  S   UNL     1      -6.206   7.145  65.176  1.00  0.00    -0.037 SA 
BRANCH  26  27
HETATM   27  C   UNL     1      -5.722   8.478  64.136  1.00  0.00    -0.065 C  
HETATM   28  C   UNL     1      -6.110   8.311  62.694  1.00  0.00    -0.086 C  
HETATM   29  O   UNL     1      -5.153   9.469  64.571  1.00  0.00    -0.047 OA 
ENDBRANCH  26  27
ENDBRANCH  16  26
TORSDOF 2
ENDMDL
MODEL       87
REMARK 921   NORMALIZED FREE ENERGY PREDICTED BY IDOCK:   -2.53 KCAL/MOL
REMARK 922        TOTAL FREE ENERGY PREDICTED BY IDOCK:   -3.40 KCAL/MOL
REMARK 923 INTER-LIGAND FREE ENERGY PREDICTED BY IDOCK:   -3.29 KCAL/MOL
REMARK 924 INTRA-LIGAND FREE ENERGY PREDICTED BY IDOCK:   -0.11 KCAL/MOL
REMARK 927      BINDING AFFINITY PREDICTED BY RF-SCORE:    0.00 PKD
ROOT
HETATM    1  C   UNL     1      -9.065   8.660  65.223  1.00  0.00    -0.100 C  
HETATM    2  C   UNL     1      -9.450   9.357  64.059  1.00  0.00     0.305 C  
HETATM    3  C   UNL     1      -7.963   9.451  64.279  1.00  0.00    -0.133 C  
HETATM    4  C   UNL     1      -7.126   8.129  65.622  1.00  0.00    -0.067 C  
HETATM    5  C   UNL     1      -7.556   7.914  64.340  1.00  0.00    -0.116 C  
HETATM    6  C   UNL     1      -6.156   6.805  65.611  1.00  0.00    -0.035 C  
HETATM    7  C   UNL     1      -5.932   8.934  64.205  1.00  0.00    -0.071 C  
HETATM    8  C   UNL     1      -7.807   6.767  63.392  1.00  0.00    -0.107 C  
HETATM    9  C   UNL     1      -5.877   6.470  67.060  1.00  0.00    -0.017 C  
HETATM   10  C   UNL     1      -7.006   7.163  67.716  1.00  0.00    -0.076 C  
HETATM   11  C   UNL     1      -5.795  10.050  65.593  1.00  0.00    -0.074 C  
HETATM   12  C   UNL     1      -7.166  10.785  66.340  1.00  0.00    -0.138 C  
HETATM   13  O   UNL     1      -7.871   7.604  66.753  1.00  0.00    -0.103 OA 
HETATM   14  O   UNL     1      -7.180   7.264  68.917  1.00  0.00    -0.084 OA 
HETATM   15  C   UNL     1      -8.633   9.946  66.479  1.00  0.00    -0.131 C  
HETATM   16  C   UNL     1      -9.794  10.929  66.845  1.00  0.00    -0.189 C  
HETATM   17  C   UNL     1      -6.306  10.704  68.776  1.00  0.00    -0.047 C  
HETATM   18  C   UNL     1      -9.448  11.498  68.240  1.00  0.00    -0.189 C  
HETATM   19  C   UNL     1      -8.138  12.269  68.268  1.00  0.00    -0.166 C  
HETATM   20  C   UNL     1      -6.859  11.617  67.662  1.00  0.00    -0.094 C  
HETATM   21  C   UNL     1      -5.753  12.685  67.312  1.00  0.00    -0.051 C  
HETATM   22  C   UNL     1      -8.121  13.459  68.898  1.00  0.00     0.147 C  
HETATM   23  C   UNL     1      -6.093  14.137  67.618  1.00  0.00    -0.075 C  
HETATM   24  C   UNL     1      -6.865  14.223  68.895  1.00  0.00    -0.104 C  
HETATM   25  O   UNL     1      -6.541  14.917  69.850  1.00  0.00    -0.158 OA 
ENDROOT
BRANCH  16  26
HETATM   26  S   UNL     1     -10.057  12.342  65.680  1.00  0.00    -0.252 SA 
BRANCH  26  27
HETATM   27  C   UNL     1     -11.455  13.113  66.416  1.00  0.00    -0.334 C  
HETATM   28  C   UNL     1     -11.772  14.475  65.866  1.00  0.00    -0.345 C  
HETATM   29  O   UNL     1     -12.128  12.559  67.274  1.00  0.00    -0.490 OA 
ENDBRANCH  26  27
ENDBRANCH  16  26
TORSDOF 2
ENDMDL
MODEL       88
REMARK 921   NORMALIZED FREE ENERGY PREDICTED BY IDOCK:   -2.17 KCAL/MOL
REMARK 922        TOTAL FREE ENERGY PREDICTED BY IDOCK:   -3.00 KCAL/MOL
REMARK 923 INTER-LIGAND FREE ENERGY PREDICTED BY IDOCK:   -2.56 KCAL/MOL
REMARK 924 INTRA-LIGAND FREE ENERGY PREDICTED BY IDOCK:   -0.43 KCAL/MOL
REMARK 927      BINDING AFFINITY PREDICTED BY RF-SCORE:    0.00 PKD
ROOT
HETATM    1  C   UNL     1     -11.410  14.345  65.711  1.00  0.00    -0.330 C  
HETATM    2  C   UNL     1     -11.052  15.392  64.836  1.00  0.00    -0.435 C  
HETATM    3  C   UNL     1     -10.056  14.263  64.766  1.00  0.00    -0.168 C  
HETATM    4  C   UNL     1     -10.625  12.456  65.580  1.00  0.00    -0.265 C  
HETATM    5  C   UNL     1     -10.997  13.035  64.397  1.00  0.00    -0.400 C  
HETATM    6  C   UNL     1     -11.044  10.951  65.076  1.00  0.00     0.090 C  
HETATM    7  C   UNL     1      -9.179  12.455  64.169  1.00  0.00     0.699 C  
HETATM    8  C   UNL     1     -11.999  12.832  63.286  1.00  0.00    -0.522 C  
HETATM    9  C   UNL     1     -11.202  10.113  66.326  1.00  0.00     0.614 C  
HETATM   10  C   UNL     1     -11.405  11.175  67.335  1.00  0.00    -0.255 C  
HETATM   11  C   UNL     1      -8.296  12.594  65.716  1.00  0.00     1.315 C  
HETATM   12  C   UNL     1      -8.623  13.834  66.870  1.00  0.00    -0.128 C  
HETATM   13  O   UNL     1     -11.558  12.370  66.691  1.00  0.00    -0.354 OA 
HETATM   14  O   UNL     1     -11.496  11.006  68.537  1.00  0.00    -0.263 OA 
HETATM   15  C   UNL     1     -10.203  14.402  67.110  1.00  0.00    -0.257 C  
HETATM   16  C   UNL     1     -10.186  15.745  67.915  1.00  0.00    -0.242 C  
HETATM   17  C   UNL     1      -8.269  12.414  69.000  1.00  0.00     0.346 C  
HETATM   18  C   UNL     1      -9.596  15.404  69.302  1.00  0.00    -0.268 C  
HETATM   19  C   UNL     1      -8.176  14.864  69.237  1.00  0.00    -0.124 C  
HETATM   20  C   UNL     1      -7.850  13.699  68.255  1.00  0.00    -0.141 C  
HETATM   21  C   UNL     1      -6.309  13.600  67.938  1.00  0.00    -0.159 C  
HETATM   22  C   UNL     1      -7.273  15.363  70.102  1.00  0.00     0.158 C  
HETATM   23  C   UNL     1      -5.409  14.618  68.624  1.00  0.00    -0.095 C  
HETATM   24  C   UNL     1      -5.891  14.869  70.017  1.00  0.00    -0.134 C  
HETATM   25  O   UNL     1      -5.197  14.750  71.018  1.00  0.00    -0.123 OA 
ENDROOT
BRANCH  16  26
HETATM   26  S   UNL     1      -9.195  17.120  67.175  1.00  0.00    -0.242 SA 
BRANCH  26  27
HETATM   27  C   UNL     1     -10.330  18.455  67.324  1.00  0.00    -0.392 C  
HETATM   28  C   UNL     1     -10.703  19.099  66.019  1.00  0.00    -0.451 C  
HETATM   29  O   UNL     1     -10.798  18.793  68.402  1.00  0.00    -0.035 OA 
ENDBRANCH  26  27
ENDBRANCH  16  26
TORSDOF 2
ENDMDL
MODEL       89
REMARK 921   NORMALIZED FREE ENERGY PREDICTED BY IDOCK:   -2.10 KCAL/MOL
REMARK 922        TOTAL FREE ENERGY PREDICTED BY IDOCK:   -2.92 KCAL/MOL
REMARK 923 INTER-LIGAND FREE ENERGY PREDICTED BY IDOCK:   -2.45 KCAL/MOL
REMARK 924 INTRA-LIGAND FREE ENERGY PREDICTED BY IDOCK:   -0.47 KCAL/MOL
REMARK 927      BINDING AFFINITY PREDICTED BY RF-SCORE:    0.00 PKD
ROOT
HETATM    1  C   UNL     1      -8.862   8.048  64.776  1.00  0.00     0.260 C  
HETATM    2  C   UNL     1      -8.884   9.166  63.917  1.00  0.00    -0.104 C  
HETATM    3  C   UNL     1      -7.470   8.786  64.275  1.00  0.00    -0.108 C  
HETATM    4  C   UNL     1      -7.181   6.924  65.111  1.00  0.00    -0.074 C  
HETATM    5  C   UNL     1      -7.424   7.266  63.808  1.00  0.00    -0.097 C  
HETATM    6  C   UNL     1      -6.536   5.471  64.700  1.00  0.00    -0.038 C  
HETATM    7  C   UNL     1      -5.618   7.807  64.184  1.00  0.00    -0.041 C  
HETATM    8  C   UNL     1      -7.756   6.607  62.492  1.00  0.00    -0.099 C  
HETATM    9  C   UNL     1      -6.586   4.615  65.946  1.00  0.00    -0.045 C  
HETATM   10  C   UNL     1      -7.631   5.324  66.714  1.00  0.00    -0.088 C  
HETATM   11  C   UNL     1      -5.478   8.323  65.889  1.00  0.00    -0.032 C  
HETATM   12  C   UNL     1      -6.762   9.102  66.738  1.00  0.00    -0.076 C  
HETATM   13  O   UNL     1      -8.203   6.269  65.910  1.00  0.00    -0.116 OA 
HETATM   14  O   UNL     1      -7.978   5.064  67.852  1.00  0.00    -0.093 OA 
HETATM   15  C   UNL     1      -8.379   8.683  66.444  1.00  0.00    -0.114 C  
HETATM   16  C   UNL     1      -9.343   9.759  67.046  1.00  0.00    -0.147 C  
HETATM   17  C   UNL     1      -6.365   7.996  69.039  1.00  0.00    -0.040 C  
HETATM   18  C   UNL     1      -9.121   9.722  68.575  1.00  0.00    -0.128 C  
HETATM   19  C   UNL     1      -7.698  10.066  68.986  1.00  0.00    -0.094 C  
HETATM   20  C   UNL     1      -6.509   9.338  68.291  1.00  0.00    -0.055 C  
HETATM   21  C   UNL     1      -5.154  10.131  68.443  1.00  0.00    -0.035 C  
HETATM   22  C   UNL     1      -7.530  10.931  70.005  1.00  0.00     0.324 C  
HETATM   23  C   UNL     1      -5.216  11.434  69.226  1.00  0.00    -0.044 C  
HETATM   24  C   UNL     1      -6.155  11.293  70.380  1.00  0.00    -0.120 C  
HETATM   25  O   UNL     1      -5.854  11.521  71.545  1.00  0.00    -0.270 OA 
ENDROOT
BRANCH  16  26
HETATM   26  S   UNL     1      -9.090  11.494  66.455  1.00  0.00    -0.197 SA 
BRANCH  26  27
HETATM   27  C   UNL     1     -10.337  12.332  67.368  1.00  0.00    -0.206 C  
HETATM   28  C   UNL     1     -11.740  12.008  66.942  1.00  0.00    -0.342 C  
HETATM   29  O   UNL     1     -10.070  13.083  68.296  1.00  0.00    -0.230 OA 
ENDBRANCH  26  27
ENDBRANCH  16  26
TORSDOF 2
ENDMDL
MODEL       90
REMARK 921   NORMALIZED FREE ENERGY PREDICTED BY IDOCK:   -1.44 KCAL/MOL
REMARK 922        TOTAL FREE ENERGY PREDICTED BY IDOCK:   -2.18 KCAL/MOL
REMARK 923 INTER-LIGAND FREE ENERGY PREDICTED BY IDOCK:   -1.65 KCAL/MOL
REMARK 924 INTRA-LIGAND FREE ENERGY PREDICTED BY IDOCK:   -0.53 KCAL/MOL
REMARK 927      BINDING AFFINITY PREDICTED BY RF-SCORE:    0.00 PKD
ROOT
HETATM    1  C   UNL     1      -6.504  11.719  68.417  1.00  0.00    -0.053 C  
HETATM    2  C   UNL     1      -6.407  12.608  69.507  1.00  0.00    -0.111 C  
HETATM    3  C   UNL     1      -7.559  11.654  69.687  1.00  0.00     0.513 C  
HETATM    4  C   UNL     1      -7.594   9.984  68.477  1.00  0.00    -0.087 C  
HETATM    5  C   UNL     1      -6.823  10.248  69.578  1.00  0.00    -0.084 C  
HETATM    6  C   UNL     1      -7.374   8.363  68.603  1.00  0.00    -0.088 C  
HETATM    7  C   UNL     1      -8.602   9.917  70.228  1.00  0.00    -0.066 C  
HETATM    8  C   UNL     1      -5.634   9.674  70.309  1.00  0.00    -0.042 C  
HETATM    9  C   UNL     1      -7.712   7.781  67.248  1.00  0.00    -0.113 C  
HETATM   10  C   UNL     1      -7.563   8.981  66.398  1.00  0.00    -0.092 C  
HETATM   11  C   UNL     1      -9.803  10.499  69.041  1.00  0.00    -0.224 C  
HETATM   12  C   UNL     1      -9.538  11.883  68.045  1.00  0.00    -0.193 C  
HETATM   13  O   UNL     1      -7.013   9.984  67.146  1.00  0.00    -0.082 OA 
HETATM   14  O   UNL     1      -7.819   9.048  65.210  1.00  0.00    -0.097 OA 
HETATM   15  C   UNL     1      -7.991  12.241  67.450  1.00  0.00    -0.171 C  
HETATM   16  C   UNL     1      -7.940  13.705  66.899  1.00  0.00     0.223 C  
HETATM   17  C   UNL     1     -10.703  10.995  65.917  1.00  0.00    -0.226 C  
HETATM   18  C   UNL     1      -8.921  13.746  65.705  1.00  0.00     0.688 C  
HETATM   19  C   UNL     1     -10.356  13.426  66.093  1.00  0.00    -0.295 C  
HETATM   20  C   UNL     1     -10.649  12.150  66.937  1.00  0.00    -0.257 C  
HETATM   21  C   UNL     1     -12.046  12.225  67.666  1.00  0.00    -0.032 C  
HETATM   22  C   UNL     1     -11.329  14.222  65.611  1.00  0.00    -0.317 C  
HETATM   23  C   UNL     1     -12.866  13.486  67.431  1.00  0.00     1.204 C  
HETATM   24  C   UNL     1     -12.715  13.937  66.014  1.00  0.00    -0.362 C  
HETATM   25  O   UNL     1     -13.651  14.130  65.249  1.00  0.00    -0.446 OA 
ENDROOT
BRANCH  16  26
HETATM   26  S   UNL     1      -8.410  15.037  68.094  1.00  0.00    -0.148 SA 
BRANCH  26  27
HETATM   27  C   UNL     1      -8.257  16.459  67.071  1.00  0.00    -0.198 C  
HETATM   28  C   UNL     1      -9.523  17.253  66.922  1.00  0.00    -0.264 C  
HETATM   29  O   UNL     1      -7.193  16.783  66.563  1.00  0.00    -0.234 OA 
ENDBRANCH  26  27
ENDBRANCH  16  26
TORSDOF 2
ENDMDL
MODEL       91
REMARK 921   NORMALIZED FREE ENERGY PREDICTED BY IDOCK:   -1.39 KCAL/MOL
REMARK 922        TOTAL FREE ENERGY PREDICTED BY IDOCK:   -2.13 KCAL/MOL
REMARK 923 INTER-LIGAND FREE ENERGY PREDICTED BY IDOCK:   -1.80 KCAL/MOL
REMARK 924 INTRA-LIGAND FREE ENERGY PREDICTED BY IDOCK:   -0.33 KCAL/MOL
REMARK 927      BINDING AFFINITY PREDICTED BY RF-SCORE:    0.00 PKD
ROOT
HETATM    1  C   UNL     1      -7.047  17.529  68.253  1.00  0.00    -0.210 C  
HETATM    2  C   UNL     1      -5.990  16.885  67.577  1.00  0.00    -0.165 C  
HETATM    3  C   UNL     1      -7.206  17.004  66.694  1.00  0.00    -0.293 C  
HETATM    4  C   UNL     1      -8.678  18.317  67.294  1.00  0.00    -0.255 C  
HETATM    5  C   UNL     1      -7.461  18.574  66.720  1.00  0.00    -0.240 C  
HETATM    6  C   UNL     1      -9.294  19.772  66.847  1.00  0.00    -0.469 C  
HETATM    7  C   UNL     1      -8.570  17.834  65.335  1.00  0.00     1.433 C  
HETATM    8  C   UNL     1      -6.560  19.747  66.419  1.00  0.00    -0.202 C  
HETATM    9  C   UNL     1     -10.492  20.018  67.737  1.00  0.00    -0.459 C  
HETATM   10  C   UNL     1     -10.185  19.103  68.856  1.00  0.00    -0.236 C  
HETATM   11  C   UNL     1      -9.698  16.636  66.032  1.00  0.00    -0.306 C  
HETATM   12  C   UNL     1      -9.286  15.635  67.375  1.00  0.00    -0.205 C  
HETATM   13  O   UNL     1      -8.917  18.620  68.695  1.00  0.00    -0.324 OA 
HETATM   14  O   UNL     1     -10.911  18.872  69.807  1.00  0.00     1.171 OA 
HETATM   15  C   UNL     1      -8.300  16.221  68.624  1.00  0.00    -0.220 C  
HETATM   16  C   UNL     1      -7.781  15.042  69.513  1.00  0.00    -0.168 C  
HETATM   17  C   UNL     1     -11.603  15.636  68.519  1.00  0.00    -0.378 C  
HETATM   18  C   UNL     1      -9.034  14.413  70.162  1.00  0.00     1.444 C  
HETATM   19  C   UNL     1     -10.023  13.855  69.150  1.00  0.00     0.111 C  
HETATM   20  C   UNL     1     -10.473  14.749  67.956  1.00  0.00    -0.246 C  
HETATM   21  C   UNL     1     -11.065  13.899  66.766  1.00  0.00    -0.310 C  
HETATM   22  C   UNL     1     -10.536  12.632  69.381  1.00  0.00     0.235 C  
HETATM   23  C   UNL     1     -11.111  12.391  66.968  1.00  0.00    -0.327 C  
HETATM   24  C   UNL     1     -11.464  12.076  68.386  1.00  0.00    -0.301 C  
HETATM   25  O   UNL     1     -12.399  11.359  68.719  1.00  0.00    -0.480 OA 
ENDROOT
BRANCH  16  26
HETATM   26  S   UNL     1      -6.846  13.712  68.628  1.00  0.00    -0.104 SA 
BRANCH  26  27
HETATM   27  C   UNL     1      -5.694  13.244  69.871  1.00  0.00    -0.122 C  
HETATM   28  C   UNL     1      -5.234  11.817  69.783  1.00  0.00    -0.070 C  
HETATM   29  O   UNL     1      -5.281  14.036  70.707  1.00  0.00    -0.105 OA 
ENDBRANCH  26  27
ENDBRANCH  16  26
TORSDOF 2
ENDMDL
MODEL       92
REMARK 921   NORMALIZED FREE ENERGY PREDICTED BY IDOCK:   -1.31 KCAL/MOL
REMARK 922        TOTAL FREE ENERGY PREDICTED BY IDOCK:   -2.04 KCAL/MOL
REMARK 923 INTER-LIGAND FREE ENERGY PREDICTED BY IDOCK:   -1.66 KCAL/MOL
REMARK 924 INTRA-LIGAND FREE ENERGY PREDICTED BY IDOCK:   -0.39 KCAL/MOL
REMARK 927      BINDING AFFINITY PREDICTED BY RF-SCORE:    0.00 PKD
ROOT
HETATM    1  C   UNL     1      -6.229  14.214  68.693  1.00  0.00    -0.088 C  
HETATM    2  C   UNL     1      -6.696  14.935  69.812  1.00  0.00    -0.179 C  
HETATM    3  C   UNL     1      -7.444  13.637  69.655  1.00  0.00     0.530 C  
HETATM    4  C   UNL     1      -6.618  12.223  68.401  1.00  0.00    -0.060 C  
HETATM    5  C   UNL     1      -6.251  12.583  69.670  1.00  0.00    -0.126 C  
HETATM    6  C   UNL     1      -5.869  10.766  68.505  1.00  0.00    -0.043 C  
HETATM    7  C   UNL     1      -7.893  11.597  69.838  1.00  0.00     1.324 C  
HETATM    8  C   UNL     1      -5.127  12.349  70.649  1.00  0.00    -0.124 C  
HETATM    9  C   UNL     1      -5.674  10.285  67.083  1.00  0.00    -0.045 C  
HETATM   10  C   UNL     1      -5.778  11.566  66.353  1.00  0.00    -0.061 C  
HETATM   11  C   UNL     1      -8.932  11.894  68.415  1.00  0.00    -0.163 C  
HETATM   12  C   UNL     1      -8.963  13.404  67.581  1.00  0.00    -0.202 C  
HETATM   13  O   UNL     1      -5.798  12.589  67.259  1.00  0.00    -0.193 OA 
HETATM   14  O   UNL     1      -5.774  11.698  65.142  1.00  0.00     0.545 OA 
HETATM   15  C   UNL     1      -7.554  14.332  67.409  1.00  0.00    -0.185 C  
HETATM   16  C   UNL     1      -7.907  15.787  66.955  1.00  0.00    -0.236 C  
HETATM   17  C   UNL     1      -9.241  12.463  65.191  1.00  0.00     0.421 C  
HETATM   18  C   UNL     1      -8.551  15.653  65.557  1.00  0.00     1.324 C  
HETATM   19  C   UNL     1      -9.827  14.826  65.558  1.00  0.00    -0.336 C  
HETATM   20  C   UNL     1      -9.826  13.427  66.243  1.00  0.00    -0.295 C  
HETATM   21  C   UNL     1     -11.281  12.937  66.601  1.00  0.00    -0.342 C  
HETATM   22  C   UNL     1     -10.889  15.308  64.884  1.00  0.00    -0.444 C  
HETATM   23  C   UNL     1     -12.423  13.872  66.226  1.00  0.00    -0.454 C  
HETATM   24  C   UNL     1     -12.135  14.527  64.913  1.00  0.00    -0.416 C  
HETATM   25  O   UNL     1     -12.887  14.495  63.948  1.00  0.00    -0.685 OA 
ENDROOT
BRANCH  16  26
HETATM   26  S   UNL     1      -9.068  16.719  68.053  1.00  0.00    -0.233 SA 
BRANCH  26  27
HETATM   27  C   UNL     1      -8.397  18.340  67.935  1.00  0.00    -0.250 C  
HETATM   28  C   UNL     1      -8.906  19.137  66.769  1.00  0.00    -0.330 C  
HETATM   29  O   UNL     1      -7.612  18.780  68.763  1.00  0.00    -0.311 OA 
ENDBRANCH  26  27
ENDBRANCH  16  26
TORSDOF 2
ENDMDL
MODEL       93
REMARK 921   NORMALIZED FREE ENERGY PREDICTED BY IDOCK:   -1.24 KCAL/MOL
REMARK 922        TOTAL FREE ENERGY PREDICTED BY IDOCK:   -1.96 KCAL/MOL
REMARK 923 INTER-LIGAND FREE ENERGY PREDICTED BY IDOCK:   -2.84 KCAL/MOL
REMARK 924 INTRA-LIGAND FREE ENERGY PREDICTED BY IDOCK:    0.88 KCAL/MOL
REMARK 927      BINDING AFFINITY PREDICTED BY RF-SCORE:    0.00 PKD
ROOT
HETATM    1  C   UNL     1     -12.099  12.383  67.212  1.00  0.00    -0.069 C  
HETATM    2  C   UNL     1     -11.428  11.485  66.357  1.00  0.00    -0.150 C  
HETATM    3  C   UNL     1     -10.593  11.805  67.569  1.00  0.00    -0.247 C  
HETATM    4  C   UNL     1     -11.552  12.697  69.162  1.00  0.00    -0.320 C  
HETATM    5  C   UNL     1     -11.578  11.392  68.748  1.00  0.00    -0.378 C  
HETATM    6  C   UNL     1     -12.038  12.315  70.683  1.00  0.00    -0.330 C  
HETATM    7  C   UNL     1      -9.843  11.680  69.524  1.00  0.00     0.666 C  
HETATM    8  C   UNL     1     -12.329  10.114  69.033  1.00  0.00     0.839 C  
HETATM    9  C   UNL     1     -12.571  13.593  71.292  1.00  0.00    -0.435 C  
HETATM   10  C   UNL     1     -12.855  14.373  70.069  1.00  0.00    -0.009 C  
HETATM   11  C   UNL     1      -9.311  13.359  69.221  1.00  0.00     0.735 C  
HETATM   12  C   UNL     1      -9.724  14.226  67.787  1.00  0.00    -0.222 C  
HETATM   13  O   UNL     1     -12.709  13.557  68.983  1.00  0.00     0.257 OA 
HETATM   14  O   UNL     1     -13.228  15.532  70.034  1.00  0.00    -0.045 OA 
HETATM   15  C   UNL     1     -11.232  14.008  67.044  1.00  0.00    -0.325 C  
HETATM   16  C   UNL     1     -11.223  14.605  65.598  1.00  0.00    -0.342 C  
HETATM   17  C   UNL     1     -10.029  16.550  68.875  1.00  0.00    -0.262 C  
HETATM   18  C   UNL     1     -11.000  16.125  65.766  1.00  0.00    -0.104 C  
HETATM   19  C   UNL     1      -9.681  16.471  66.438  1.00  0.00    -0.305 C  
HETATM   20  C   UNL     1      -9.298  15.759  67.770  1.00  0.00    -0.206 C  
HETATM   21  C   UNL     1      -7.749  15.832  68.061  1.00  0.00    -0.136 C  
HETATM   22  C   UNL     1      -8.934  17.450  65.893  1.00  0.00     0.036 C  
HETATM   23  C   UNL     1      -6.901  16.568  67.034  1.00  0.00    -0.248 C  
HETATM   24  C   UNL     1      -7.641  17.761  66.520  1.00  0.00    -0.256 C  
HETATM   25  O   UNL     1      -7.205  18.904  66.541  1.00  0.00    -0.213 OA 
ENDROOT
BRANCH  16  26
HETATM   26  S   UNL     1      -9.927  13.942  64.456  1.00  0.00     0.625 SA 
BRANCH  26  27
HETATM   27  C   UNL     1     -10.746  12.519  63.826  1.00  0.00    -0.445 C  
HETATM   28  C   UNL     1     -12.225  12.691  63.632  1.00  0.00    -0.624 C  
HETATM   29  O   UNL     1     -10.141  11.496  63.539  1.00  0.00    -0.329 OA 
ENDBRANCH  26  27
ENDBRANCH  16  26
TORSDOF 2
ENDMDL
MODEL       94
REMARK 921   NORMALIZED FREE ENERGY PREDICTED BY IDOCK:   -1.12 KCAL/MOL
REMARK 922        TOTAL FREE ENERGY PREDICTED BY IDOCK:   -1.83 KCAL/MOL
REMARK 923 INTER-LIGAND FREE ENERGY PREDICTED BY IDOCK:   -2.12 KCAL/MOL
REMARK 924 INTRA-LIGAND FREE ENERGY PREDICTED BY IDOCK:    0.29 KCAL/MOL
REMARK 927      BINDING AFFINITY PREDICTED BY RF-SCORE:    0.00 PKD
ROOT
HETATM    1  C   UNL     1      -8.869  14.622  67.088  1.00  0.00    -0.238 C  
HETATM    2  C   UNL     1      -8.301  14.258  65.850  1.00  0.00     1.756 C  
HETATM    3  C   UNL     1      -9.738  13.813  65.938  1.00  0.00    -0.217 C  
HETATM    4  C   UNL     1     -10.889  14.646  67.432  1.00  0.00    -0.298 C  
HETATM    5  C   UNL     1     -10.475  15.189  66.244  1.00  0.00    -0.312 C  
HETATM    6  C   UNL     1     -12.127  15.714  67.587  1.00  0.00     0.537 C  
HETATM    7  C   UNL     1     -11.829  13.895  65.808  1.00  0.00    -0.393 C  
HETATM    8  C   UNL     1     -10.452  16.523  65.540  1.00  0.00    -0.320 C  
HETATM    9  C   UNL     1     -12.520  15.699  69.048  1.00  0.00     0.216 C  
HETATM   10  C   UNL     1     -11.288  15.146  69.650  1.00  0.00    -0.283 C  
HETATM   11  C   UNL     1     -11.763  12.531  66.959  1.00  0.00    -0.437 C  
HETATM   12  C   UNL     1     -10.289  11.972  67.662  1.00  0.00    -0.213 C  
HETATM   13  O   UNL     1     -10.317  15.090  68.691  1.00  0.00    -0.224 OA 
HETATM   14  O   UNL     1     -11.137  14.856  70.823  1.00  0.00    -0.222 OA 
HETATM   15  C   UNL     1      -9.048  13.058  68.057  1.00  0.00    -0.210 C  
HETATM   16  C   UNL     1      -7.712  12.290  68.326  1.00  0.00    -0.143 C  
HETATM   17  C   UNL     1     -11.226  11.402  70.001  1.00  0.00    -0.160 C  
HETATM   18  C   UNL     1      -7.970  11.403  69.565  1.00  0.00     0.413 C  
HETATM   19  C   UNL     1      -9.078  10.383  69.357  1.00  0.00    -0.170 C  
HETATM   20  C   UNL     1     -10.448  10.856  68.786  1.00  0.00    -0.224 C  
HETATM   21  C   UNL     1     -11.279   9.666  68.168  1.00  0.00     0.000 C  
HETATM   22  C   UNL     1      -8.853   9.119  69.760  1.00  0.00    -0.165 C  
HETATM   23  C   UNL     1     -10.639   8.287  68.232  1.00  0.00    -0.157 C  
HETATM   24  C   UNL     1      -9.909   8.123  69.527  1.00  0.00    -0.181 C  
HETATM   25  O   UNL     1     -10.103   7.206  70.314  1.00  0.00    -0.187 OA 
ENDROOT
BRANCH  16  26
HETATM   26  S   UNL     1      -7.105  11.214  66.948  1.00  0.00    -0.138 SA 
BRANCH  26  27
HETATM   27  C   UNL     1      -6.110  10.072  67.841  1.00  0.00    -0.053 C  
HETATM   28  C   UNL     1      -5.133  10.711  68.787  1.00  0.00    -0.041 C  
HETATM   29  O   UNL     1      -6.241   8.862  67.721  1.00  0.00    -0.054 OA 
ENDBRANCH  26  27
ENDBRANCH  16  26
TORSDOF 2
ENDMDL
MODEL       95
REMARK 921   NORMALIZED FREE ENERGY PREDICTED BY IDOCK:    0.28 KCAL/MOL
REMARK 922        TOTAL FREE ENERGY PREDICTED BY IDOCK:   -0.26 KCAL/MOL
REMARK 923 INTER-LIGAND FREE ENERGY PREDICTED BY IDOCK:   -0.28 KCAL/MOL
REMARK 924 INTRA-LIGAND FREE ENERGY PREDICTED BY IDOCK:    0.02 KCAL/MOL
REMARK 927      BINDING AFFINITY PREDICTED BY RF-SCORE:    0.00 PKD
ROOT
HETATM    1  C   UNL     1      -7.222  11.045  67.101  1.00  0.00    -0.112 C  
HETATM    2  C   UNL     1      -8.088  10.836  66.007  1.00  0.00    -0.158 C  
HETATM    3  C   UNL     1      -8.832  11.414  67.183  1.00  0.00    -0.156 C  
HETATM    4  C   UNL     1      -7.700  12.238  68.697  1.00  0.00    -0.076 C  
HETATM    5  C   UNL     1      -8.000  12.742  67.460  1.00  0.00    -0.177 C  
HETATM    6  C   UNL     1      -7.349  13.720  69.310  1.00  0.00     0.091 C  
HETATM    7  C   UNL     1      -9.616  12.849  68.496  1.00  0.00    -0.113 C  
HETATM    8  C   UNL     1      -7.604  13.887  66.561  1.00  0.00     1.438 C  
HETATM    9  C   UNL     1      -6.516  13.480  70.551  1.00  0.00     0.251 C  
HETATM   10  C   UNL     1      -6.026  12.112  70.283  1.00  0.00    -0.137 C  
HETATM   11  C   UNL     1      -9.699  11.477  69.639  1.00  0.00     0.883 C  
HETATM   12  C   UNL     1      -9.059   9.917  69.275  1.00  0.00    -0.196 C  
HETATM   13  O   UNL     1      -6.360  11.768  69.002  1.00  0.00    -0.065 OA 
HETATM   14  O   UNL     1      -5.370  11.428  71.047  1.00  0.00    -0.150 OA 
HETATM   15  C   UNL     1      -7.645   9.752  68.353  1.00  0.00    -0.080 C  
HETATM   16  C   UNL     1      -7.482   8.276  67.859  1.00  0.00    -0.098 C  
HETATM   17  C   UNL     1      -8.188   9.350  71.640  1.00  0.00     0.586 C  
HETATM   18  C   UNL     1      -7.313   7.416  69.133  1.00  0.00    -0.090 C  
HETATM   19  C   UNL     1      -8.510   7.482  70.068  1.00  0.00    -0.137 C  
HETATM   20  C   UNL     1      -9.080   8.873  70.476  1.00  0.00    -0.233 C  
HETATM   21  C   UNL     1     -10.564   8.778  71.004  1.00  0.00    -0.293 C  
HETATM   22  C   UNL     1      -8.975   6.325  70.576  1.00  0.00    -0.151 C  
HETATM   23  C   UNL     1     -11.182   7.387  71.040  1.00  0.00    -0.285 C  
HETATM   24  C   UNL     1     -10.155   6.382  71.451  1.00  0.00    -0.189 C  
HETATM   25  O   UNL     1     -10.287   5.609  72.391  1.00  0.00    -0.191 OA 
ENDROOT
BRANCH  16  26
HETATM   26  S   UNL     1      -8.887   7.592  66.870  1.00  0.00    -0.137 SA 
BRANCH  26  27
HETATM   27  C   UNL     1      -8.558   5.869  66.985  1.00  0.00    -0.110 C  
HETATM   28  C   UNL     1      -7.124   5.495  66.744  1.00  0.00    -0.070 C  
HETATM   29  O   UNL     1      -9.427   5.059  67.277  1.00  0.00    -0.124 OA 
ENDBRANCH  26  27
ENDBRANCH  16  26
TORSDOF 2
ENDMDL
MODEL       96
REMARK 921   NORMALIZED FREE ENERGY PREDICTED BY IDOCK:    0.65 KCAL/MOL
REMARK 922        TOTAL FREE ENERGY PREDICTED BY IDOCK:    0.15 KCAL/MOL
REMARK 923 INTER-LIGAND FREE ENERGY PREDICTED BY IDOCK:    0.27 KCAL/MOL
REMARK 924 INTRA-LIGAND FREE ENERGY PREDICTED BY IDOCK:   -0.12 KCAL/MOL
REMARK 927      BINDING AFFINITY PREDICTED BY RF-SCORE:    0.00 PKD
ROOT
HETATM    1  C   UNL     1      -9.066  14.000  69.769  1.00  0.00     1.259 C  
HETATM    2  C   UNL     1     -10.369  13.487  69.931  1.00  0.00     1.088 C  
HETATM    3  C   UNL     1      -9.948  13.446  68.485  1.00  0.00    -0.193 C  
HETATM    4  C   UNL     1      -7.940  13.689  68.084  1.00  0.00    -0.148 C  
HETATM    5  C   UNL     1      -8.606  12.596  68.572  1.00  0.00    -0.051 C  
HETATM    6  C   UNL     1      -6.665  12.790  67.571  1.00  0.00    -0.154 C  
HETATM    7  C   UNL     1      -9.079  12.736  66.714  1.00  0.00    -0.209 C  
HETATM    8  C   UNL     1      -8.307  11.245  69.175  1.00  0.00     0.067 C  
HETATM    9  C   UNL     1      -5.511  13.752  67.395  1.00  0.00     0.289 C  
HETATM   10  C   UNL     1      -5.964  14.871  68.249  1.00  0.00    -0.123 C  
HETATM   11  C   UNL     1      -9.132  14.454  66.225  1.00  0.00    -0.130 C  
HETATM   12  C   UNL     1      -9.626  15.714  67.295  1.00  0.00    -0.220 C  
HETATM   13  O   UNL     1      -7.071  14.473  68.944  1.00  0.00    -0.105 OA 
HETATM   14  O   UNL     1      -5.405  15.946  68.370  1.00  0.00    -0.094 OA 
HETATM   15  C   UNL     1      -9.254  15.646  68.948  1.00  0.00    -0.226 C  
HETATM   16  C   UNL     1     -10.107  16.688  69.745  1.00  0.00     0.042 C  
HETATM   17  C   UNL     1      -7.966  17.518  66.478  1.00  0.00    -0.309 C  
HETATM   18  C   UNL     1      -9.676  18.079  69.226  1.00  0.00     0.008 C  
HETATM   19  C   UNL     1      -9.939  18.276  67.742  1.00  0.00    -0.343 C  
HETATM   20  C   UNL     1      -9.452  17.193  66.733  1.00  0.00    -0.278 C  
HETATM   21  C   UNL     1     -10.214  17.277  65.355  1.00  0.00     0.099 C  
HETATM   22  C   UNL     1     -10.510  19.432  67.352  1.00  0.00    -0.581 C  
HETATM   23  C   UNL     1     -11.264  18.371  65.226  1.00  0.00     1.168 C  
HETATM   24  C   UNL     1     -10.799  19.610  65.921  1.00  0.00    -0.317 C  
HETATM   25  O   UNL     1     -10.721  20.710  65.390  1.00  0.00     0.189 OA 
ENDROOT
BRANCH  16  26
HETATM   26  S   UNL     1     -11.942  16.537  69.570  1.00  0.00     0.834 SA 
BRANCH  26  27
HETATM   27  C   UNL     1     -12.351  15.760  71.094  1.00  0.00    -0.427 C  
HETATM   28  C   UNL     1     -13.391  14.683  70.981  1.00  0.00    -0.410 C  
HETATM   29  O   UNL     1     -11.798  16.057  72.144  1.00  0.00    -0.453 OA 
ENDBRANCH  26  27
ENDBRANCH  16  26
TORSDOF 2
ENDMDL
MODEL       97
REMARK 921   NORMALIZED FREE ENERGY PREDICTED BY IDOCK:    2.20 KCAL/MOL
REMARK 922        TOTAL FREE ENERGY PREDICTED BY IDOCK:    1.89 KCAL/MOL
REMARK 923 INTER-LIGAND FREE ENERGY PREDICTED BY IDOCK:    2.06 KCAL/MOL
REMARK 924 INTRA-LIGAND FREE ENERGY PREDICTED BY IDOCK:   -0.18 KCAL/MOL
REMARK 927      BINDING AFFINITY PREDICTED BY RF-SCORE:    0.00 PKD
ROOT
HETATM    1  C   UNL     1      -9.858  15.547  68.815  1.00  0.00    -0.217 C  
HETATM    2  C   UNL     1      -9.257  16.439  67.904  1.00  0.00    -0.202 C  
HETATM    3  C   UNL     1      -9.914  15.291  67.183  1.00  0.00    -0.233 C  
HETATM    4  C   UNL     1     -11.246  14.144  68.262  1.00  0.00    -0.272 C  
HETATM    5  C   UNL     1     -11.407  15.393  67.724  1.00  0.00    -0.308 C  
HETATM    6  C   UNL     1     -12.864  13.876  68.341  1.00  0.00     1.369 C  
HETATM    7  C   UNL     1     -11.414  14.161  66.249  1.00  0.00    -0.358 C  
HETATM    8  C   UNL     1     -12.390  16.538  67.756  1.00  0.00     1.866 C  
HETATM    9  C   UNL     1     -13.060  12.753  69.336  1.00  0.00     1.748 C  
HETATM   10  C   UNL     1     -11.789  12.836  70.085  1.00  0.00    -0.251 C  
HETATM   11  C   UNL     1     -10.327  12.786  66.597  1.00  0.00    -0.252 C  
HETATM   12  C   UNL     1      -8.881  12.949  67.523  1.00  0.00    -0.192 C  
HETATM   13  O   UNL     1     -11.123  13.965  69.698  1.00  0.00    -0.188 OA 
HETATM   14  O   UNL     1     -11.424  12.067  70.956  1.00  0.00     0.778 OA 
HETATM   15  C   UNL     1      -8.803  14.028  68.829  1.00  0.00    -0.031 C  
HETATM   16  C   UNL     1      -7.317  14.260  69.261  1.00  0.00    -0.053 C  
HETATM   17  C   UNL     1      -9.010  10.680  68.752  1.00  0.00    -0.172 C  
HETATM   18  C   UNL     1      -6.797  12.891  69.755  1.00  0.00     0.265 C  
HETATM   19  C   UNL     1      -6.825  11.813  68.682  1.00  0.00    -0.081 C  
HETATM   20  C   UNL     1      -8.132  11.587  67.866  1.00  0.00    -0.132 C  
HETATM   21  C   UNL     1      -7.863  10.832  66.507  1.00  0.00    -0.145 C  
HETATM   22  C   UNL     1      -5.734  11.036  68.544  1.00  0.00    -0.043 C  
HETATM   23  C   UNL     1      -6.419  10.447  66.220  1.00  0.00    -0.102 C  
HETATM   24  C   UNL     1      -5.744  10.017  67.483  1.00  0.00    -0.045 C  
HETATM   25  O   UNL     1      -5.177   8.942  67.630  1.00  0.00    -0.034 OA 
ENDROOT
BRANCH  16  26
HETATM   26  S   UNL     1      -6.178  14.882  67.943  1.00  0.00    -0.152 SA 
BRANCH  26  27
HETATM   27  C   UNL     1      -6.003  16.562  68.430  1.00  0.00    -0.123 C  
HETATM   28  C   UNL     1      -5.319  17.433  67.416  1.00  0.00    -0.143 C  
HETATM   29  O   UNL     1      -6.443  16.981  69.492  1.00  0.00    -0.232 OA 
ENDBRANCH  26  27
ENDBRANCH  16  26
TORSDOF 2
ENDMDL
MODEL       98
REMARK 921   NORMALIZED FREE ENERGY PREDICTED BY IDOCK:    2.26 KCAL/MOL
REMARK 922        TOTAL FREE ENERGY PREDICTED BY IDOCK:    1.94 KCAL/MOL
REMARK 923 INTER-LIGAND FREE ENERGY PREDICTED BY IDOCK:    2.41 KCAL/MOL
REMARK 924 INTRA-LIGAND FREE ENERGY PREDICTED BY IDOCK:   -0.47 KCAL/MOL
REMARK 927      BINDING AFFINITY PREDICTED BY RF-SCORE:    0.00 PKD
ROOT
HETATM    1  C   UNL     1     -10.710  12.655  65.874  1.00  0.00    -0.293 C  
HETATM    2  C   UNL     1     -11.514  11.505  65.732  1.00  0.00    -0.076 C  
HETATM    3  C   UNL     1     -12.355  12.755  65.744  1.00  0.00    -0.388 C  
HETATM    4  C   UNL     1     -11.378  14.548  65.458  1.00  0.00    -0.335 C  
HETATM    5  C   UNL     1     -11.709  13.581  64.547  1.00  0.00    -0.431 C  
HETATM    6  C   UNL     1     -11.236  15.708  64.305  1.00  0.00    -0.118 C  
HETATM    7  C   UNL     1     -13.350  14.457  65.030  1.00  0.00     0.693 C  
HETATM    8  C   UNL     1     -11.440  13.224  63.106  1.00  0.00     0.342 C  
HETATM    9  C   UNL     1     -10.411  16.818  64.919  1.00  0.00     0.461 C  
HETATM   10  C   UNL     1      -9.742  16.081  66.012  1.00  0.00    -0.344 C  
HETATM   11  C   UNL     1     -13.286  14.975  66.739  1.00  0.00     2.960 C  
HETATM   12  C   UNL     1     -12.441  14.087  67.953  1.00  0.00     0.210 C  
HETATM   13  O   UNL     1      -9.997  14.747  65.862  1.00  0.00    -0.291 OA 
HETATM   14  O   UNL     1      -9.023  16.569  66.865  1.00  0.00    -0.200 OA 
HETATM   15  C   UNL     1     -10.995  13.279  67.591  1.00  0.00    -0.281 C  
HETATM   16  C   UNL     1     -10.631  12.269  68.730  1.00  0.00    -0.194 C  
HETATM   17  C   UNL     1     -11.565  16.109  69.302  1.00  0.00    -0.270 C  
HETATM   18  C   UNL     1     -10.385  13.123  69.994  1.00  0.00     1.668 C  
HETATM   19  C   UNL     1     -11.604  13.920  70.430  1.00  0.00    -0.177 C  
HETATM   20  C   UNL     1     -12.359  14.789  69.379  1.00  0.00    -0.184 C  
HETATM   21  C   UNL     1     -13.831  15.129  69.834  1.00  0.00     1.633 C  
HETATM   22  C   UNL     1     -11.930  13.909  71.736  1.00  0.00     0.276 C  
HETATM   23  C   UNL     1     -14.266  14.582  71.186  1.00  0.00    -0.172 C  
HETATM   24  C   UNL     1     -13.129  14.650  72.154  1.00  0.00    -0.347 C  
HETATM   25  O   UNL     1     -13.184  15.207  73.243  1.00  0.00    -0.478 OA 
ENDROOT
BRANCH  16  26
HETATM   26  S   UNL     1     -11.912  10.992  69.120  1.00  0.00    -0.253 SA 
BRANCH  26  27
HETATM   27  C   UNL     1     -11.038  10.000  70.279  1.00  0.00    -0.318 C  
HETATM   28  C   UNL     1     -11.793   9.717  71.546  1.00  0.00    -0.476 C  
HETATM   29  O   UNL     1      -9.925   9.551  70.042  1.00  0.00    -0.205 OA 
ENDBRANCH  26  27
ENDBRANCH  16  26
TORSDOF 2
ENDMDL
MODEL       99
REMARK 921   NORMALIZED FREE ENERGY PREDICTED BY IDOCK:    2.52 KCAL/MOL
REMARK 922        TOTAL FREE ENERGY PREDICTED BY IDOCK:    2.24 KCAL/MOL
REMARK 923 INTER-LIGAND FREE ENERGY PREDICTED BY IDOCK:   -5.65 KCAL/MOL
REMARK 924 INTRA-LIGAND FREE ENERGY PREDICTED BY IDOCK:    7.89 KCAL/MOL
REMARK 927      BINDING AFFINITY PREDICTED BY RF-SCORE:    0.00 PKD
ROOT
HETATM    1  C   UNL     1      -8.252  10.340  69.162  1.00  0.00    -0.152 C  
HETATM    2  C   UNL     1      -7.374  10.563  68.082  1.00  0.00    -0.088 C  
HETATM    3  C   UNL     1      -8.750  10.194  67.592  1.00  0.00    -0.121 C  
HETATM    4  C   UNL     1     -10.291  10.295  68.959  1.00  0.00    -0.211 C  
HETATM    5  C   UNL     1      -9.644  11.305  68.298  1.00  0.00    -0.193 C  
HETATM    6  C   UNL     1     -11.608  11.225  69.270  1.00  0.00    -0.390 C  
HETATM    7  C   UNL     1     -10.747  10.422  66.995  1.00  0.00    -0.298 C  
HETATM    8  C   UNL     1      -9.553  12.811  68.314  1.00  0.00    -0.211 C  
HETATM    9  C   UNL     1     -12.342  10.555  70.410  1.00  0.00    -0.409 C  
HETATM   10  C   UNL     1     -11.255   9.731  70.980  1.00  0.00    -0.381 C  
HETATM   11  C   UNL     1     -10.858   8.679  67.369  1.00  0.00    -0.083 C  
HETATM   12  C   UNL     1      -9.561   7.792  68.082  1.00  0.00    -0.161 C  
HETATM   13  O   UNL     1     -10.078  10.081  70.380  1.00  0.00    -0.247 OA 
HETATM   14  O   UNL     1     -11.372   8.926  71.885  1.00  0.00    -0.338 OA 
HETATM   15  C   UNL     1      -8.541   8.515  69.228  1.00  0.00    -0.129 C  
HETATM   16  C   UNL     1      -7.255   7.650  69.441  1.00  0.00    -0.081 C  
HETATM   17  C   UNL     1     -10.992   6.250  69.582  1.00  0.00    -0.440 C  
HETATM   18  C   UNL     1      -7.738   6.304  70.028  1.00  0.00    -0.101 C  
HETATM   19  C   UNL     1      -8.680   5.547  69.105  1.00  0.00    -0.103 C  
HETATM   20  C   UNL     1      -9.902   6.292  68.490  1.00  0.00    -0.152 C  
HETATM   21  C   UNL     1     -10.464   5.561  67.210  1.00  0.00    -0.300 C  
HETATM   22  C   UNL     1      -8.463   4.230  68.927  1.00  0.00    -0.097 C  
HETATM   23  C   UNL     1      -9.754   4.281  66.795  1.00  0.00    -0.241 C  
HETATM   24  C   UNL     1      -9.351   3.504  68.007  1.00  0.00    -0.184 C  
HETATM   25  O   UNL     1      -9.659   2.337  68.210  1.00  0.00    -0.211 OA 
ENDROOT
BRANCH  16  26
HETATM   26  S   UNL     1      -6.250   7.305  67.926  1.00  0.00    -0.048 SA 
BRANCH  26  27
HETATM   27  C   UNL     1      -7.384   7.781  66.669  1.00  0.00    -0.088 C  
HETATM   28  C   UNL     1      -6.841   8.785  65.693  1.00  0.00    -0.075 C  
HETATM   29  O   UNL     1      -8.504   7.297  66.587  1.00  0.00    -0.116 OA 
ENDBRANCH  26  27
ENDBRANCH  16  26
TORSDOF 2
ENDMDL
MODEL      100
REMARK 921   NORMALIZED FREE ENERGY PREDICTED BY IDOCK:    2.87 KCAL/MOL
REMARK 922        TOTAL FREE ENERGY PREDICTED BY IDOCK:    2.63 KCAL/MOL
REMARK 923 INTER-LIGAND FREE ENERGY PREDICTED BY IDOCK:    0.89 KCAL/MOL
REMARK 924 INTRA-LIGAND FREE ENERGY PREDICTED BY IDOCK:    1.74 KCAL/MOL
REMARK 927      BINDING AFFINITY PREDICTED BY RF-SCORE:    0.00 PKD
ROOT
HETATM    1  C   UNL     1      -8.002   6.549  71.123  1.00  0.00    -0.112 C  
HETATM    2  C   UNL     1      -7.579   7.340  72.211  1.00  0.00    -0.085 C  
HETATM    3  C   UNL     1      -9.049   7.531  71.943  1.00  0.00    -0.153 C  
HETATM    4  C   UNL     1      -9.972   6.137  70.735  1.00  0.00    -0.189 C  
HETATM    5  C   UNL     1      -9.584   6.035  72.044  1.00  0.00    -0.167 C  
HETATM    6  C   UNL     1     -11.051   4.907  70.869  1.00  0.00     0.658 C  
HETATM    7  C   UNL     1     -11.118   7.194  72.020  1.00  0.00    -0.278 C  
HETATM    8  C   UNL     1      -9.447   4.988  73.122  1.00  0.00    -0.146 C  
HETATM    9  C   UNL     1     -11.332   4.432  69.460  1.00  0.00     4.780 C  
HETATM   10  C   UNL     1     -10.137   4.950  68.761  1.00  0.00    -0.099 C  
HETATM   11  C   UNL     1     -11.136   8.151  70.512  1.00  0.00    -0.257 C  
HETATM   12  C   UNL     1      -9.695   8.680  69.723  1.00  0.00    -0.176 C  
HETATM   13  O   UNL     1      -9.255   5.426  69.691  1.00  0.00    -0.113 OA 
HETATM   14  O   UNL     1      -9.935   4.899  67.561  1.00  0.00    -0.170 OA 
HETATM   15  C   UNL     1      -8.302   7.713  69.719  1.00  0.00    -0.133 C  
HETATM   16  C   UNL     1      -7.056   8.549  69.275  1.00  0.00    -0.059 C  
HETATM   17  C   UNL     1     -10.517   8.391  67.291  1.00  0.00    -0.373 C  
HETATM   18  C   UNL     1      -7.329   8.982  67.817  1.00  0.00    -0.084 C  
HETATM   19  C   UNL     1      -8.569   9.849  67.668  1.00  0.00    -0.122 C  
HETATM   20  C   UNL     1      -9.908   9.378  68.309  1.00  0.00    -0.180 C  
HETATM   21  C   UNL     1     -10.925  10.567  68.507  1.00  0.00    -0.300 C  
HETATM   22  C   UNL     1      -8.473  10.956  66.907  1.00  0.00    -0.135 C  
HETATM   23  C   UNL     1     -10.459  11.941  68.048  1.00  0.00    -0.228 C  
HETATM   24  C   UNL     1      -9.661  11.816  66.791  1.00  0.00    -0.200 C  
HETATM   25  O   UNL     1      -9.908  12.421  65.755  1.00  0.00    -0.254 OA 
ENDROOT
BRANCH  16  26
HETATM   26  S   UNL     1      -6.694  10.060  70.280  1.00  0.00    -0.140 SA 
BRANCH  26  27
HETATM   27  C   UNL     1      -5.773   9.357  71.603  1.00  0.00    -0.069 C  
HETATM   28  C   UNL     1      -5.145   8.030  71.284  1.00  0.00    -0.026 C  
HETATM   29  O   UNL     1      -5.631   9.932  72.673  1.00  0.00    -0.298 OA 
ENDBRANCH  26  27
ENDBRANCH  16  26
TORSDOF 2
ENDMDL
MODEL      101
REMARK 921   NORMALIZED FREE ENERGY PREDICTED BY IDOCK:    3.68 KCAL/MOL
REMARK 922        TOTAL FREE ENERGY PREDICTED BY IDOCK:    3.54 KCAL/MOL
REMARK 923 INTER-LIGAND FREE ENERGY PREDICTED BY IDOCK:   -4.26 KCAL/MOL
REMARK 924 INTRA-LIGAND FREE ENERGY PREDICTED BY IDOCK:    7.79 KCAL/MOL
REMARK 927      BINDING AFFINITY PREDICTED BY RF-SCORE:    0.00 PKD
ROOT
HETATM    1  C   UNL     1     -10.228  11.561  68.403  1.00  0.00    -0.211 C  
HETATM    2  C   UNL     1     -11.516  11.522  67.830  1.00  0.00    -0.372 C  
HETATM    3  C   UNL     1     -10.477  11.885  66.801  1.00  0.00    -0.253 C  
HETATM    4  C   UNL     1      -8.505  11.533  67.292  1.00  0.00    -0.152 C  
HETATM    5  C   UNL     1      -9.480  10.650  66.911  1.00  0.00    -0.189 C  
HETATM    6  C   UNL     1      -7.293  10.508  66.876  1.00  0.00    -0.110 C  
HETATM    7  C   UNL     1      -8.998  11.639  65.335  1.00  0.00     0.085 C  
HETATM    8  C   UNL     1      -9.708   9.161  66.826  1.00  0.00    -0.271 C  
HETATM    9  C   UNL     1      -6.059  10.989  67.609  1.00  0.00    -0.048 C  
HETATM   10  C   UNL     1      -6.684  11.783  68.688  1.00  0.00    -0.073 C  
HETATM   11  C   UNL     1      -8.553  13.313  65.777  1.00  0.00     1.365 C  
HETATM   12  C   UNL     1      -9.293  14.161  67.085  1.00  0.00    -0.241 C  
HETATM   13  O   UNL     1      -8.034  11.572  68.665  1.00  0.00    -0.140 OA 
HETATM   14  O   UNL     1      -6.091  12.459  69.509  1.00  0.00    -0.098 OA 
HETATM   15  C   UNL     1      -9.756  13.346  68.498  1.00  0.00    -0.156 C  
HETATM   16  C   UNL     1     -10.713  14.238  69.357  1.00  0.00    -0.128 C  
HETATM   17  C   UNL     1      -7.191  15.426  67.897  1.00  0.00    -0.160 C  
HETATM   18  C   UNL     1      -9.883  15.471  69.779  1.00  0.00    -0.268 C  
HETATM   19  C   UNL     1      -9.385  16.295  68.602  1.00  0.00    -0.219 C  
HETATM   20  C   UNL     1      -8.653  15.577  67.429  1.00  0.00    -0.196 C  
HETATM   21  C   UNL     1      -8.656  16.440  66.108  1.00  0.00    -0.343 C  
HETATM   22  C   UNL     1      -9.523  17.632  68.667  1.00  0.00    -0.284 C  
HETATM   23  C   UNL     1      -9.343  17.796  66.186  1.00  0.00    -0.153 C  
HETATM   24  C   UNL     1      -9.075  18.428  67.514  1.00  0.00    -0.271 C  
HETATM   25  O   UNL     1      -8.591  19.542  67.662  1.00  0.00    -0.299 OA 
ENDROOT
BRANCH  16  26
HETATM   26  S   UNL     1     -12.250  14.824  68.511  1.00  0.00     0.022 SA 
BRANCH  26  27
HETATM   27  C   UNL     1     -11.765  14.692  66.827  1.00  0.00    -0.341 C  
HETATM   28  C   UNL     1     -12.564  13.702  66.028  1.00  0.00    -0.441 C  
HETATM   29  O   UNL     1     -10.875  15.383  66.350  1.00  0.00    -0.314 OA 
ENDBRANCH  26  27
ENDBRANCH  16  26
TORSDOF 2
ENDMDL
MODEL      102
REMARK 921   NORMALIZED FREE ENERGY PREDICTED BY IDOCK:    4.85 KCAL/MOL
REMARK 922        TOTAL FREE ENERGY PREDICTED BY IDOCK:    4.84 KCAL/MOL
REMARK 923 INTER-LIGAND FREE ENERGY PREDICTED BY IDOCK:    3.39 KCAL/MOL
REMARK 924 INTRA-LIGAND FREE ENERGY PREDICTED BY IDOCK:    1.44 KCAL/MOL
REMARK 927      BINDING AFFINITY PREDICTED BY RF-SCORE:    0.00 PKD
ROOT
HETATM    1  C   UNL     1     -10.959  11.572  66.403  1.00  0.00    -0.336 C  
HETATM    2  C   UNL     1     -11.013  11.871  65.026  1.00  0.00    -0.365 C  
HETATM    3  C   UNL     1      -9.640  11.392  65.423  1.00  0.00    -0.255 C  
HETATM    4  C   UNL     1      -9.465  10.453  67.251  1.00  0.00    -0.154 C  
HETATM    5  C   UNL     1      -9.976   9.979  66.072  1.00  0.00    -0.334 C  
HETATM    6  C   UNL     1      -9.204   8.945  67.845  1.00  0.00    -0.148 C  
HETATM    7  C   UNL     1      -8.069  10.068  65.842  1.00  0.00    -0.126 C  
HETATM    8  C   UNL     1     -10.743   8.788  65.552  1.00  0.00     2.752 C  
HETATM    9  C   UNL     1      -9.075   9.096  69.345  1.00  0.00    -0.148 C  
HETATM   10  C   UNL     1      -9.749  10.397  69.541  1.00  0.00    -0.170 C  
HETATM   11  C   UNL     1      -7.407  11.448  66.764  1.00  0.00    -0.135 C  
HETATM   12  C   UNL     1      -8.276  12.921  66.994  1.00  0.00    -0.086 C  
HETATM   13  O   UNL     1     -10.341  10.767  68.366  1.00  0.00    -0.166 OA 
HETATM   14  O   UNL     1      -9.830  11.006  70.593  1.00  0.00     1.675 OA 
HETATM   15  C   UNL     1      -9.960  12.914  67.189  1.00  0.00    -0.240 C  
HETATM   16  C   UNL     1     -10.539  14.358  67.012  1.00  0.00    -0.274 C  
HETATM   17  C   UNL     1      -7.491  13.401  69.408  1.00  0.00     0.367 C  
HETATM   18  C   UNL     1      -9.939  15.201  68.160  1.00  0.00    -0.221 C  
HETATM   19  C   UNL     1      -8.421  15.282  68.119  1.00  0.00    -0.151 C  
HETATM   20  C   UNL     1      -7.594  13.970  67.977  1.00  0.00    -0.143 C  
HETATM   21  C   UNL     1      -6.131  14.240  67.452  1.00  0.00     0.224 C  
HETATM   22  C   UNL     1      -7.850  16.489  68.295  1.00  0.00    -0.175 C  
HETATM   23  C   UNL     1      -5.766  15.693  67.183  1.00  0.00     0.288 C  
HETATM   24  C   UNL     1      -6.384  16.575  68.219  1.00  0.00    -0.127 C  
HETATM   25  O   UNL     1      -5.758  17.366  68.913  1.00  0.00    -0.156 OA 
ENDROOT
BRANCH  16  26
HETATM   26  S   UNL     1     -10.157  15.192  65.406  1.00  0.00    -0.332 SA 
BRANCH  26  27
HETATM   27  C   UNL     1     -10.201  16.880  65.898  1.00  0.00    -0.314 C  
HETATM   28  C   UNL     1      -9.730  17.843  64.847  1.00  0.00     2.955 C  
HETATM   29  O   UNL     1     -10.620  17.227  66.993  1.00  0.00    -0.310 OA 
ENDBRANCH  26  27
ENDBRANCH  16  26
TORSDOF 2
ENDMDL
MODEL      103
REMARK 921   NORMALIZED FREE ENERGY PREDICTED BY IDOCK:    5.74 KCAL/MOL
REMARK 922        TOTAL FREE ENERGY PREDICTED BY IDOCK:    5.84 KCAL/MOL
REMARK 923 INTER-LIGAND FREE ENERGY PREDICTED BY IDOCK:    5.87 KCAL/MOL
REMARK 924 INTRA-LIGAND FREE ENERGY PREDICTED BY IDOCK:   -0.04 KCAL/MOL
REMARK 927      BINDING AFFINITY PREDICTED BY RF-SCORE:    0.00 PKD
ROOT
HETATM    1  C   UNL     1     -10.811  16.241  66.283  1.00  0.00    -0.098 C  
HETATM    2  C   UNL     1      -9.985  15.822  65.220  1.00  0.00    -0.176 C  
HETATM    3  C   UNL     1      -9.699  15.032  66.470  1.00  0.00    -0.285 C  
HETATM    4  C   UNL     1     -11.094  15.136  67.985  1.00  0.00    -0.308 C  
HETATM    5  C   UNL     1     -11.139  14.443  66.805  1.00  0.00    -0.323 C  
HETATM    6  C   UNL     1     -12.226  14.179  68.691  1.00  0.00    -0.216 C  
HETATM    7  C   UNL     1      -9.869  13.531  67.924  1.00  0.00    -0.235 C  
HETATM    8  C   UNL     1     -12.121  13.651  65.977  1.00  0.00    -0.480 C  
HETATM    9  C   UNL     1     -12.770  14.959  69.868  1.00  0.00    -0.126 C  
HETATM   10  C   UNL     1     -12.392  16.333  69.474  1.00  0.00     0.609 C  
HETATM   11  C   UNL     1      -9.015  14.707  68.963  1.00  0.00    -0.093 C  
HETATM   12  C   UNL     1      -8.652  16.314  68.451  1.00  0.00    -0.200 C  
HETATM   13  O   UNL     1     -11.926  16.310  68.189  1.00  0.00     0.035 OA 
HETATM   14  O   UNL     1     -12.538  17.334  70.152  1.00  0.00     4.128 OA 
HETATM   15  C   UNL     1      -9.722  17.171  67.452  1.00  0.00    -0.253 C  
HETATM   16  C   UNL     1      -9.016  18.427  66.842  1.00  0.00    -0.280 C  
HETATM   17  C   UNL     1      -9.037  17.486  70.722  1.00  0.00     5.134 C  
HETATM   18  C   UNL     1      -8.661  19.340  68.037  1.00  0.00    -0.357 C  
HETATM   19  C   UNL     1      -7.712  18.689  69.031  1.00  0.00    -0.202 C  
HETATM   20  C   UNL     1      -8.035  17.264  69.570  1.00  0.00     0.507 C  
HETATM   21  C   UNL     1      -6.761  16.546  70.160  1.00  0.00     0.472 C  
HETATM   22  C   UNL     1      -6.668  19.417  69.473  1.00  0.00    -0.327 C  
HETATM   23  C   UNL     1      -5.460  17.335  70.121  1.00  0.00    -0.237 C  
HETATM   24  C   UNL     1      -5.729  18.778  70.406  1.00  0.00    -0.192 C  
HETATM   25  O   UNL     1      -5.176  19.420  71.290  1.00  0.00    -0.248 OA 
ENDROOT
BRANCH  16  26
HETATM   26  S   UNL     1      -7.475  18.098  65.872  1.00  0.00    -0.099 SA 
BRANCH  26  27
HETATM   27  C   UNL     1      -7.140  19.705  65.241  1.00  0.00    -0.103 C  
HETATM   28  C   UNL     1      -5.909  19.789  64.385  1.00  0.00    -0.302 C  
HETATM   29  O   UNL     1      -7.879  20.655  65.457  1.00  0.00     0.130 OA 
ENDBRANCH  26  27
ENDBRANCH  16  26
TORSDOF 2
ENDMDL
MODEL      104
REMARK 921   NORMALIZED FREE ENERGY PREDICTED BY IDOCK:    6.09 KCAL/MOL
REMARK 922        TOTAL FREE ENERGY PREDICTED BY IDOCK:    6.23 KCAL/MOL
REMARK 923 INTER-LIGAND FREE ENERGY PREDICTED BY IDOCK:    6.62 KCAL/MOL
REMARK 924 INTRA-LIGAND FREE ENERGY PREDICTED BY IDOCK:   -0.39 KCAL/MOL
REMARK 927      BINDING AFFINITY PREDICTED BY RF-SCORE:    0.00 PKD
ROOT
HETATM    1  C   UNL     1      -9.788  11.914  66.911  1.00  0.00    -0.217 C  
HETATM    2  C   UNL     1     -10.376  11.164  65.871  1.00  0.00    -0.314 C  
HETATM    3  C   UNL     1     -11.405  11.567  66.895  1.00  0.00    -0.324 C  
HETATM    4  C   UNL     1     -10.874  13.050  68.226  1.00  0.00    -0.246 C  
HETATM    5  C   UNL     1     -11.234  13.149  66.908  1.00  0.00    -0.328 C  
HETATM    6  C   UNL     1     -11.234  14.623  68.531  1.00  0.00    -0.288 C  
HETATM    7  C   UNL     1     -12.840  12.736  67.880  1.00  0.00     2.102 C  
HETATM    8  C   UNL     1     -11.264  14.174  65.802  1.00  0.00    -0.312 C  
HETATM    9  C   UNL     1     -10.504  14.986  69.806  1.00  0.00    -0.204 C  
HETATM   10  C   UNL     1      -9.465  13.935  69.826  1.00  0.00     1.334 C  
HETATM   11  C   UNL     1     -12.457  11.688  69.276  1.00  0.00     0.110 C  
HETATM   12  C   UNL     1     -11.193  10.514  69.243  1.00  0.00    -0.320 C  
HETATM   13  O   UNL     1      -9.497  13.261  68.638  1.00  0.00    -0.141 OA 
HETATM   14  O   UNL     1      -8.662  13.745  70.722  1.00  0.00     4.003 OA 
HETATM   15  C   UNL     1      -9.755  10.809  68.393  1.00  0.00    -0.179 C  
HETATM   16  C   UNL     1      -8.944   9.483  68.210  1.00  0.00    -0.124 C  
HETATM   17  C   UNL     1     -10.401  10.803  71.686  1.00  0.00     4.721 C  
HETATM   18  C   UNL     1      -8.559   9.019  69.633  1.00  0.00    -0.137 C  
HETATM   19  C   UNL     1      -9.760   8.731  70.520  1.00  0.00    -0.225 C  
HETATM   20  C   UNL     1     -10.895   9.792  70.630  1.00  0.00    -0.396 C  
HETATM   21  C   UNL     1     -12.248   9.167  71.147  1.00  0.00    -0.350 C  
HETATM   22  C   UNL     1      -9.749   7.596  71.245  1.00  0.00    -0.176 C  
HETATM   23  C   UNL     1     -12.231   7.676  71.455  1.00  0.00    -0.351 C  
HETATM   24  C   UNL     1     -10.925   7.298  72.075  1.00  0.00    -0.238 C  
HETATM   25  O   UNL     1     -10.815   6.722  73.150  1.00  0.00    -0.273 OA 
ENDROOT
BRANCH  16  26
HETATM   26  S   UNL     1      -9.832   8.100  67.361  1.00  0.00    -0.204 SA 
BRANCH  26  27
HETATM   27  C   UNL     1      -8.477   7.086  66.887  1.00  0.00    -0.119 C  
HETATM   28  C   UNL     1      -8.684   5.619  67.136  1.00  0.00    -0.108 C  
HETATM   29  O   UNL     1      -7.472   7.546  66.362  1.00  0.00    -0.081 OA 
ENDBRANCH  26  27
ENDBRANCH  16  26
TORSDOF 2
ENDMDL
MODEL      105
REMARK 921   NORMALIZED FREE ENERGY PREDICTED BY IDOCK:    6.25 KCAL/MOL
REMARK 922        TOTAL FREE ENERGY PREDICTED BY IDOCK:    6.41 KCAL/MOL
REMARK 923 INTER-LIGAND FREE ENERGY PREDICTED BY IDOCK:   -4.00 KCAL/MOL
REMARK 924 INTRA-LIGAND FREE ENERGY PREDICTED BY IDOCK:   10.41 KCAL/MOL
REMARK 927      BINDING AFFINITY PREDICTED BY RF-SCORE:    0.00 PKD
ROOT
HETATM    1  C   UNL     1      -8.184  10.788  69.176  1.00  0.00    -0.124 C  
HETATM    2  C   UNL     1      -8.736   9.505  68.984  1.00  0.00    -0.142 C  
HETATM    3  C   UNL     1      -8.146  10.037  67.704  1.00  0.00    -0.110 C  
HETATM    4  C   UNL     1      -6.878  11.656  67.856  1.00  0.00    -0.074 C  
HETATM    5  C   UNL     1      -6.649  10.338  68.149  1.00  0.00    -0.057 C  
HETATM    6  C   UNL     1      -5.278  11.991  67.705  1.00  0.00    -0.078 C  
HETATM    7  C   UNL     1      -6.715  10.465  66.232  1.00  0.00    -0.112 C  
HETATM    8  C   UNL     1      -5.602   9.477  68.812  1.00  0.00    -0.036 C  
HETATM    9  C   UNL     1      -5.143  13.492  67.843  1.00  0.00    -0.086 C  
HETATM   10  C   UNL     1      -6.406  13.810  68.542  1.00  0.00    -0.092 C  
HETATM   11  C   UNL     1      -7.876  11.732  65.744  1.00  0.00     0.700 C  
HETATM   12  C   UNL     1      -9.309  12.082  66.640  1.00  0.00    -0.221 C  
HETATM   13  O   UNL     1      -7.008  12.641  68.916  1.00  0.00    -0.096 OA 
HETATM   14  O   UNL     1      -6.811  14.927  68.807  1.00  0.00    -0.094 OA 
HETATM   15  C   UNL     1      -9.323  11.975  68.332  1.00  0.00    -0.175 C  
HETATM   16  C   UNL     1     -10.792  11.977  68.870  1.00  0.00    -0.211 C  
HETATM   17  C   UNL     1      -9.305  14.642  66.295  1.00  0.00    -0.293 C  
HETATM   18  C   UNL     1     -11.387  13.350  68.482  1.00  0.00    -0.324 C  
HETATM   19  C   UNL     1     -11.423  13.590  66.981  1.00  0.00    -0.369 C  
HETATM   20  C   UNL     1     -10.133  13.349  66.142  1.00  0.00    -0.304 C  
HETATM   21  C   UNL     1     -10.447  13.148  64.610  1.00  0.00    -0.411 C  
HETATM   22  C   UNL     1     -12.556  14.088  66.451  1.00  0.00    -0.287 C  
HETATM   23  C   UNL     1     -11.911  13.226  64.202  1.00  0.00    -0.505 C  
HETATM   24  C   UNL     1     -12.606  14.286  64.995  1.00  0.00    -0.347 C  
HETATM   25  O   UNL     1     -13.232  15.215  64.502  1.00  0.00     0.083 OA 
ENDROOT
BRANCH  16  26
HETATM   26  S   UNL     1     -11.898  10.649  68.209  1.00  0.00     0.311 SA 
BRANCH  26  27
HETATM   27  C   UNL     1     -10.717   9.590  67.451  1.00  0.00    -0.227 C  
HETATM   28  C   UNL     1      -9.957   8.722  68.412  1.00  0.00    -0.200 C  
HETATM   29  O   UNL     1     -10.566   9.547  66.238  1.00  0.00    -0.117 OA 
ENDBRANCH  26  27
ENDBRANCH  16  26
TORSDOF 2
ENDMDL
MODEL      106
REMARK 921   NORMALIZED FREE ENERGY PREDICTED BY IDOCK:    6.36 KCAL/MOL
REMARK 922        TOTAL FREE ENERGY PREDICTED BY IDOCK:    6.53 KCAL/MOL
REMARK 923 INTER-LIGAND FREE ENERGY PREDICTED BY IDOCK:    4.93 KCAL/MOL
REMARK 924 INTRA-LIGAND FREE ENERGY PREDICTED BY IDOCK:    1.60 KCAL/MOL
REMARK 927      BINDING AFFINITY PREDICTED BY RF-SCORE:    0.00 PKD
ROOT
HETATM    1  C   UNL     1      -8.944  15.263  70.195  1.00  0.00     0.512 C  
HETATM    2  C   UNL     1     -10.101  15.972  70.578  1.00  0.00     0.579 C  
HETATM    3  C   UNL     1     -10.106  15.689  69.099  1.00  0.00    -0.237 C  
HETATM    4  C   UNL     1      -8.777  14.270  68.410  1.00  0.00    -0.181 C  
HETATM    5  C   UNL     1      -9.960  14.105  69.081  1.00  0.00     0.015 C  
HETATM    6  C   UNL     1      -8.802  12.741  67.814  1.00  0.00    -0.187 C  
HETATM    7  C   UNL     1     -10.419  14.660  67.299  1.00  0.00    -0.266 C  
HETATM    8  C   UNL     1     -10.751  13.013  69.759  1.00  0.00     0.570 C  
HETATM    9  C   UNL     1      -7.383  12.424  67.397  1.00  0.00    -0.149 C  
HETATM   10  C   UNL     1      -6.641  13.420  68.198  1.00  0.00    -0.118 C  
HETATM   11  C   UNL     1      -9.174  15.775  66.667  1.00  0.00    -0.283 C  
HETATM   12  C   UNL     1      -8.312  16.880  67.674  1.00  0.00    -0.192 C  
HETATM   13  O   UNL     1      -7.508  14.017  69.070  1.00  0.00    -0.119 OA 
HETATM   14  O   UNL     1      -5.442  13.628  68.144  1.00  0.00    -0.097 OA 
HETATM   15  C   UNL     1      -7.888  16.459  69.261  1.00  0.00    -0.153 C  
HETATM   16  C   UNL     1      -7.454  17.727  70.068  1.00  0.00     1.405 C  
HETATM   17  C   UNL     1      -6.027  16.710  66.480  1.00  0.00     0.173 C  
HETATM   18  C   UNL     1      -6.182  18.262  69.370  1.00  0.00    -0.261 C  
HETATM   19  C   UNL     1      -6.413  18.667  67.923  1.00  0.00    -0.213 C  
HETATM   20  C   UNL     1      -7.131  17.674  66.961  1.00  0.00    -0.209 C  
HETATM   21  C   UNL     1      -7.733  18.398  65.696  1.00  0.00     0.158 C  
HETATM   22  C   UNL     1      -5.905  19.844  67.511  1.00  0.00    -0.198 C  
HETATM   23  C   UNL     1      -7.519  19.903  65.611  1.00  0.00    -0.285 C  
HETATM   24  C   UNL     1      -6.159  20.255  66.121  1.00  0.00    -0.181 C  
HETATM   25  O   UNL     1      -5.329  20.892  65.486  1.00  0.00    -0.192 OA 
ENDROOT
BRANCH  16  26
HETATM   26  S   UNL     1      -8.696  19.095  70.156  1.00  0.00     1.795 SA 
BRANCH  26  27
HETATM   27  C   UNL     1      -7.764  20.327  70.996  1.00  0.00     1.580 C  
HETATM   28  C   UNL     1      -6.288  20.278  70.726  1.00  0.00    -0.153 C  
HETATM   29  O   UNL     1      -8.293  21.171  71.706  1.00  0.00     1.819 OA 
ENDBRANCH  26  27
ENDBRANCH  16  26
TORSDOF 2
ENDMDL
MODEL      107
REMARK 921   NORMALIZED FREE ENERGY PREDICTED BY IDOCK:    6.53 KCAL/MOL
REMARK 922        TOTAL FREE ENERGY PREDICTED BY IDOCK:    6.72 KCAL/MOL
REMARK 923 INTER-LIGAND FREE ENERGY PREDICTED BY IDOCK:    7.18 KCAL/MOL
REMARK 924 INTRA-LIGAND FREE ENERGY PREDICTED BY IDOCK:   -0.46 KCAL/MOL
REMARK 927      BINDING AFFINITY PREDICTED BY RF-SCORE:    0.00 PKD
ROOT
HETATM    1  C   UNL     1     -11.563   7.406  69.451  1.00  0.00     0.373 C  
HETATM    2  C   UNL     1     -11.406   6.093  68.963  1.00  0.00    -0.257 C  
HETATM    3  C   UNL     1     -11.725   6.088  70.435  1.00  0.00     0.030 C  
HETATM    4  C   UNL     1     -12.462   7.837  71.242  1.00  0.00    -0.279 C  
HETATM    5  C   UNL     1     -13.091   6.902  70.464  1.00  0.00     0.546 C  
HETATM    6  C   UNL     1     -13.876   8.425  71.832  1.00  0.00    -0.459 C  
HETATM    7  C   UNL     1     -12.863   6.101  72.196  1.00  0.00     0.245 C  
HETATM    8  C   UNL     1     -14.388   6.721  69.713  1.00  0.00     7.429 C  
HETATM    9  C   UNL     1     -13.568   9.802  72.379  1.00  0.00    -0.328 C  
HETATM   10  C   UNL     1     -12.317  10.104  71.653  1.00  0.00    -0.377 C  
HETATM   11  C   UNL     1     -11.348   6.683  72.943  1.00  0.00    -0.172 C  
HETATM   12  C   UNL     1      -9.939   7.064  72.023  1.00  0.00    -0.172 C  
HETATM   13  O   UNL     1     -12.116   9.141  70.704  1.00  0.00    -0.206 OA 
HETATM   14  O   UNL     1     -11.617  11.086  71.818  1.00  0.00     0.836 OA 
HETATM   15  C   UNL     1     -10.070   7.760  70.482  1.00  0.00    -0.192 C  
HETATM   16  C   UNL     1      -8.705   7.668  69.722  1.00  0.00    -0.140 C  
HETATM   17  C   UNL     1      -9.159   9.089  73.426  1.00  0.00     1.477 C  
HETATM   18  C   UNL     1      -7.705   8.520  70.536  1.00  0.00    -0.084 C  
HETATM   19  C   UNL     1      -7.500   8.017  71.956  1.00  0.00    -0.102 C  
HETATM   20  C   UNL     1      -8.745   7.722  72.844  1.00  0.00    -0.220 C  
HETATM   21  C   UNL     1      -8.404   6.762  74.049  1.00  0.00    -0.149 C  
HETATM   22  C   UNL     1      -6.237   7.929  72.416  1.00  0.00    -0.048 C  
HETATM   23  C   UNL     1      -6.958   6.296  74.156  1.00  0.00    -0.082 C  
HETATM   24  C   UNL     1      -6.034   7.408  73.776  1.00  0.00    -0.060 C  
HETATM   25  O   UNL     1      -5.129   7.825  74.487  1.00  0.00    -0.060 OA 
ENDROOT
BRANCH  16  26
HETATM   26  S   UNL     1      -8.003   5.969  69.519  1.00  0.00    -0.108 SA 
BRANCH  26  27
HETATM   27  C   UNL     1      -7.591   5.989  67.810  1.00  0.00    -0.096 C  
HETATM   28  C   UNL     1      -8.632   6.617  66.929  1.00  0.00    -0.115 C  
HETATM   29  O   UNL     1      -6.524   5.560  67.394  1.00  0.00    -0.047 OA 
ENDBRANCH  26  27
ENDBRANCH  16  26
TORSDOF 2
ENDMDL
MODEL      108
REMARK 921   NORMALIZED FREE ENERGY PREDICTED BY IDOCK:    6.87 KCAL/MOL
REMARK 922        TOTAL FREE ENERGY PREDICTED BY IDOCK:    7.10 KCAL/MOL
REMARK 923 INTER-LIGAND FREE ENERGY PREDICTED BY IDOCK:   -1.70 KCAL/MOL
REMARK 924 INTRA-LIGAND FREE ENERGY PREDICTED BY IDOCK:    8.80 KCAL/MOL
REMARK 927      BINDING AFFINITY PREDICTED BY RF-SCORE:    0.00 PKD
ROOT
HETATM    1  C   UNL     1      -9.874  10.242  66.630  1.00  0.00    -0.256 C  
HETATM    2  C   UNL     1     -11.072  10.853  67.054  1.00  0.00    -0.271 C  
HETATM    3  C   UNL     1      -9.890  11.390  67.820  1.00  0.00    -0.186 C  
HETATM    4  C   UNL     1      -8.017  11.004  67.048  1.00  0.00    -0.137 C  
HETATM    5  C   UNL     1      -8.960  11.909  66.639  1.00  0.00    -0.198 C  
HETATM    6  C   UNL     1      -6.794  11.814  66.312  1.00  0.00     0.370 C  
HETATM    7  C   UNL     1      -8.233  12.588  68.284  1.00  0.00    -0.168 C  
HETATM    8  C   UNL     1      -9.223  12.848  65.487  1.00  0.00     0.395 C  
HETATM    9  C   UNL     1      -5.657  10.825  66.166  1.00  0.00    -0.120 C  
HETATM   10  C   UNL     1      -6.396   9.551  66.279  1.00  0.00    -0.069 C  
HETATM   11  C   UNL     1      -7.798  11.232  69.364  1.00  0.00     0.128 C  
HETATM   12  C   UNL     1      -8.681   9.750  69.405  1.00  0.00    -0.178 C  
HETATM   13  O   UNL     1      -7.737   9.816  66.260  1.00  0.00    -0.100 OA 
HETATM   14  O   UNL     1      -5.899   8.439  66.311  1.00  0.00    -0.042 OA 
HETATM   15  C   UNL     1      -9.360   9.104  67.993  1.00  0.00    -0.149 C  
HETATM   16  C   UNL     1     -10.395   7.984  68.344  1.00  0.00    -0.199 C  
HETATM   17  C   UNL     1      -6.669   8.170  69.767  1.00  0.00    -0.040 C  
HETATM   18  C   UNL     1      -9.590   6.859  69.033  1.00  0.00    -0.136 C  
HETATM   19  C   UNL     1      -8.908   7.305  70.317  1.00  0.00    -0.147 C  
HETATM   20  C   UNL     1      -8.047   8.603  70.309  1.00  0.00    -0.109 C  
HETATM   21  C   UNL     1      -7.840   9.191  71.758  1.00  0.00     0.235 C  
HETATM   22  C   UNL     1      -9.009   6.503  71.394  1.00  0.00    -0.140 C  
HETATM   23  C   UNL     1      -8.485   8.419  72.900  1.00  0.00    -0.221 C  
HETATM   24  C   UNL     1      -8.381   6.949  72.646  1.00  0.00    -0.109 C  
HETATM   25  O   UNL     1      -7.885   6.149  73.428  1.00  0.00    -0.100 OA 
ENDROOT
BRANCH  16  26
HETATM   26  S   UNL     1     -11.782   8.486  69.462  1.00  0.00     1.026 SA 
BRANCH  26  27
HETATM   27  C   UNL     1     -11.252  10.094  69.935  1.00  0.00    -0.287 C  
HETATM   28  C   UNL     1     -12.362  11.098  70.066  1.00  0.00    -0.351 C  
HETATM   29  O   UNL     1     -10.080  10.349  70.173  1.00  0.00    -0.144 OA 
ENDBRANCH  26  27
ENDBRANCH  16  26
TORSDOF 2
ENDMDL
MODEL      109
REMARK 921   NORMALIZED FREE ENERGY PREDICTED BY IDOCK:    7.08 KCAL/MOL
REMARK 922        TOTAL FREE ENERGY PREDICTED BY IDOCK:    7.33 KCAL/MOL
REMARK 923 INTER-LIGAND FREE ENERGY PREDICTED BY IDOCK:    1.09 KCAL/MOL
REMARK 924 INTRA-LIGAND FREE ENERGY PREDICTED BY IDOCK:    6.24 KCAL/MOL
REMARK 927      BINDING AFFINITY PREDICTED BY RF-SCORE:    0.00 PKD
ROOT
HETATM    1  C   UNL     1      -9.290  18.119  68.892  1.00  0.00    -0.188 C  
HETATM    2  C   UNL     1     -10.421  17.630  68.206  1.00  0.00    -0.376 C  
HETATM    3  C   UNL     1      -9.176  16.889  67.793  1.00  0.00    -0.230 C  
HETATM    4  C   UNL     1      -7.516  17.098  68.998  1.00  0.00    -0.203 C  
HETATM    5  C   UNL     1      -8.649  16.355  69.196  1.00  0.00    -0.182 C  
HETATM    6  C   UNL     1      -6.639  16.204  70.060  1.00  0.00     0.053 C  
HETATM    7  C   UNL     1      -7.643  15.459  67.824  1.00  0.00    -0.167 C  
HETATM    8  C   UNL     1      -9.319  15.554  70.285  1.00  0.00     0.580 C  
HETATM    9  C   UNL     1      -5.445  17.051  70.444  1.00  0.00    -0.217 C  
HETATM   10  C   UNL     1      -5.945  18.395  70.086  1.00  0.00    -0.130 C  
HETATM   11  C   UNL     1      -6.767  16.656  66.829  1.00  0.00    -0.241 C  
HETATM   12  C   UNL     1      -7.393  18.229  66.493  1.00  0.00    -0.264 C  
HETATM   13  O   UNL     1      -7.273  18.302  69.774  1.00  0.00     0.165 OA 
HETATM   14  O   UNL     1      -5.303  19.428  70.129  1.00  0.00    -0.196 OA 
HETATM   15  C   UNL     1      -8.300  19.069  67.653  1.00  0.00    -0.314 C  
HETATM   16  C   UNL     1      -9.047  20.277  66.997  1.00  0.00    -0.361 C  
HETATM   17  C   UNL     1      -5.151  19.510  66.582  1.00  0.00    -0.160 C  
HETATM   18  C   UNL     1      -7.946  21.232  66.484  1.00  0.00     0.895 C  
HETATM   19  C   UNL     1      -7.039  20.601  65.439  1.00  0.00    -0.063 C  
HETATM   20  C   UNL     1      -6.400  19.210  65.728  1.00  0.00    -0.260 C  
HETATM   21  C   UNL     1      -5.928  18.484  64.409  1.00  0.00     0.203 C  
HETATM   22  C   UNL     1      -6.757  21.318  64.335  1.00  0.00     0.186 C  
HETATM   23  C   UNL     1      -6.155  19.235  63.105  1.00  0.00     0.744 C  
HETATM   24  C   UNL     1      -5.910  20.696  63.307  1.00  0.00    -0.253 C  
HETATM   25  O   UNL     1      -5.128  21.361  62.640  1.00  0.00    -0.181 OA 
ENDROOT
BRANCH  16  26
HETATM   26  S   UNL     1     -10.173  19.864  65.587  1.00  0.00    -0.122 SA 
BRANCH  26  27
HETATM   27  C   UNL     1     -11.179  18.626  66.327  1.00  0.00     0.719 C  
HETATM   28  C   UNL     1     -10.922  17.235  65.821  1.00  0.00     0.133 C  
HETATM   29  O   UNL     1     -11.988  18.886  67.206  1.00  0.00     1.519 OA 
ENDBRANCH  26  27
ENDBRANCH  16  26
TORSDOF 2
ENDMDL
MODEL      110
REMARK 921   NORMALIZED FREE ENERGY PREDICTED BY IDOCK:    7.65 KCAL/MOL
REMARK 922        TOTAL FREE ENERGY PREDICTED BY IDOCK:    7.97 KCAL/MOL
REMARK 923 INTER-LIGAND FREE ENERGY PREDICTED BY IDOCK:    8.42 KCAL/MOL
REMARK 924 INTRA-LIGAND FREE ENERGY PREDICTED BY IDOCK:   -0.45 KCAL/MOL
REMARK 927      BINDING AFFINITY PREDICTED BY RF-SCORE:    0.00 PKD
ROOT
HETATM    1  C   UNL     1      -9.189  14.724  65.169  1.00  0.00     1.103 C  
HETATM    2  C   UNL     1      -8.002  14.249  65.764  1.00  0.00     3.501 C  
HETATM    3  C   UNL     1      -9.168  14.124  66.709  1.00  0.00    -0.282 C  
HETATM    4  C   UNL     1     -11.056  14.302  65.900  1.00  0.00    -0.310 C  
HETATM    5  C   UNL     1     -10.180  13.251  65.847  1.00  0.00    -0.295 C  
HETATM    6  C   UNL     1     -12.353  13.351  65.567  1.00  0.00    -0.528 C  
HETATM    7  C   UNL     1     -10.856  13.305  67.646  1.00  0.00    -0.273 C  
HETATM    8  C   UNL     1     -10.019  11.927  65.141  1.00  0.00    -0.276 C  
HETATM    9  C   UNL     1     -13.446  14.277  65.081  1.00  0.00     0.792 C  
HETATM   10  C   UNL     1     -12.642  15.448  64.673  1.00  0.00     0.259 C  
HETATM   11  C   UNL     1     -11.171  14.996  68.128  1.00  0.00    -0.316 C  
HETATM   12  C   UNL     1     -10.217  16.321  67.569  1.00  0.00    -0.270 C  
HETATM   13  O   UNL     1     -11.318  15.111  64.721  1.00  0.00    -0.400 OA 
HETATM   14  O   UNL     1     -13.082  16.515  64.285  1.00  0.00     1.526 OA 
HETATM   15  C   UNL     1      -9.579  16.330  65.999  1.00  0.00    -0.371 C  
HETATM   16  C   UNL     1      -8.474  17.430  65.861  1.00  0.00     0.050 C  
HETATM   17  C   UNL     1     -12.130  18.043  67.346  1.00  0.00     3.139 C  
HETATM   18  C   UNL     1      -9.189  18.782  66.083  1.00  0.00    -0.157 C  
HETATM   19  C   UNL     1      -9.827  18.909  67.457  1.00  0.00    -0.377 C  
HETATM   20  C   UNL     1     -10.749  17.765  67.975  1.00  0.00    -0.317 C  
HETATM   21  C   UNL     1     -10.912  17.794  69.544  1.00  0.00     1.006 C  
HETATM   22  C   UNL     1      -9.634  20.055  68.137  1.00  0.00    -0.423 C  
HETATM   23  C   UNL     1     -10.175  18.903  70.281  1.00  0.00     1.332 C  
HETATM   24  C   UNL     1     -10.220  20.165  69.482  1.00  0.00     0.130 C  
HETATM   25  O   UNL     1     -10.638  21.235  69.906  1.00  0.00     0.899 OA 
ENDROOT
BRANCH  16  26
HETATM   26  S   UNL     1      -7.060  17.310  67.048  1.00  0.00    -0.206 SA 
BRANCH  26  27
HETATM   27  C   UNL     1      -5.939  18.462  66.335  1.00  0.00    -0.161 C  
HETATM   28  C   UNL     1      -5.488  19.547  67.271  1.00  0.00    -0.168 C  
HETATM   29  O   UNL     1      -5.539  18.354  65.185  1.00  0.00    -0.187 OA 
ENDBRANCH  26  27
ENDBRANCH  16  26
TORSDOF 2
ENDMDL
MODEL      111
REMARK 921   NORMALIZED FREE ENERGY PREDICTED BY IDOCK:    7.73 KCAL/MOL
REMARK 922        TOTAL FREE ENERGY PREDICTED BY IDOCK:    8.06 KCAL/MOL
REMARK 923 INTER-LIGAND FREE ENERGY PREDICTED BY IDOCK:   -1.92 KCAL/MOL
REMARK 924 INTRA-LIGAND FREE ENERGY PREDICTED BY IDOCK:    9.98 KCAL/MOL
REMARK 927      BINDING AFFINITY PREDICTED BY RF-SCORE:    0.00 PKD
ROOT
HETATM    1  C   UNL     1      -7.143  10.383  66.032  1.00  0.00    -0.133 C  
HETATM    2  C   UNL     1      -6.673   9.485  67.012  1.00  0.00    -0.072 C  
HETATM    3  C   UNL     1      -8.103   9.184  66.644  1.00  0.00    -0.111 C  
HETATM    4  C   UNL     1      -8.828  10.043  64.916  1.00  0.00    -0.192 C  
HETATM    5  C   UNL     1      -7.985   8.976  65.071  1.00  0.00    -0.123 C  
HETATM    6  C   UNL     1      -9.263   9.590  63.399  1.00  0.00    -0.030 C  
HETATM    7  C   UNL     1      -9.731   8.371  65.602  1.00  0.00     0.244 C  
HETATM    8  C   UNL     1      -7.099   8.083  64.236  1.00  0.00    -0.078 C  
HETATM    9  C   UNL     1      -9.842  10.821  62.737  1.00  0.00    -0.239 C  
HETATM   10  C   UNL     1      -9.255  11.881  63.584  1.00  0.00     0.226 C  
HETATM   11  C   UNL     1     -10.637   9.713  66.358  1.00  0.00    -0.097 C  
HETATM   12  C   UNL     1      -9.875  10.945  67.295  1.00  0.00    -0.202 C  
HETATM   13  O   UNL     1      -8.332  11.315  64.419  1.00  0.00     0.302 OA 
HETATM   14  O   UNL     1      -9.496  13.072  63.505  1.00  0.00     0.589 OA 
HETATM   15  C   UNL     1      -8.329  11.513  66.889  1.00  0.00    -0.166 C  
HETATM   16  C   UNL     1      -7.720  12.337  68.072  1.00  0.00    -0.132 C  
HETATM   17  C   UNL     1     -11.356  12.918  66.526  1.00  0.00    -0.361 C  
HETATM   18  C   UNL     1      -8.638  13.567  68.253  1.00  0.00    -0.168 C  
HETATM   19  C   UNL     1     -10.071  13.203  68.608  1.00  0.00    -0.146 C  
HETATM   20  C   UNL     1     -10.821  12.142  67.748  1.00  0.00    -0.263 C  
HETATM   21  C   UNL     1     -12.053  11.519  68.510  1.00  0.00    -0.159 C  
HETATM   22  C   UNL     1     -10.664  13.884  69.607  1.00  0.00     0.123 C  
HETATM   23  C   UNL     1     -12.315  12.041  69.916  1.00  0.00    -0.143 C  
HETATM   24  C   UNL     1     -12.037  13.509  69.976  1.00  0.00    -0.341 C  
HETATM   25  O   UNL     1     -12.842  14.346  70.362  1.00  0.00    -0.350 OA 
ENDROOT
BRANCH  16  26
HETATM   26  S   UNL     1      -7.592  11.453  69.693  1.00  0.00     0.536 SA 
BRANCH  26  27
HETATM   27  C   UNL     1      -8.518  10.000  69.344  1.00  0.00    -0.170 C  
HETATM   28  C   UNL     1      -8.272   8.866  70.298  1.00  0.00    -0.134 C  
HETATM   29  O   UNL     1      -9.320   9.945  68.423  1.00  0.00    -0.132 OA 
ENDBRANCH  26  27
ENDBRANCH  16  26
TORSDOF 2
ENDMDL
MODEL      112
REMARK 921   NORMALIZED FREE ENERGY PREDICTED BY IDOCK:    9.40 KCAL/MOL
REMARK 922        TOTAL FREE ENERGY PREDICTED BY IDOCK:    9.92 KCAL/MOL
REMARK 923 INTER-LIGAND FREE ENERGY PREDICTED BY IDOCK:   10.41 KCAL/MOL
REMARK 924 INTRA-LIGAND FREE ENERGY PREDICTED BY IDOCK:   -0.49 KCAL/MOL
REMARK 927      BINDING AFFINITY PREDICTED BY RF-SCORE:    0.00 PKD
ROOT
HETATM    1  C   UNL     1     -10.469  17.715  68.136  1.00  0.00    -0.386 C  
HETATM    2  C   UNL     1     -10.204  18.098  66.805  1.00  0.00    -0.379 C  
HETATM    3  C   UNL     1     -10.805  16.718  66.861  1.00  0.00    -0.033 C  
HETATM    4  C   UNL     1     -11.705  16.156  68.629  1.00  0.00    -0.205 C  
HETATM    5  C   UNL     1     -12.160  16.996  67.648  1.00  0.00     1.881 C  
HETATM    6  C   UNL     1     -13.214  15.883  69.216  1.00  0.00     1.945 C  
HETATM    7  C   UNL     1     -12.266  15.215  66.932  1.00  0.00     0.433 C  
HETATM    8  C   UNL     1     -13.283  17.974  67.406  1.00  0.00     8.385 C  
HETATM    9  C   UNL     1     -13.034  15.355  70.622  1.00  0.00    -0.450 C  
HETATM   10  C   UNL     1     -11.668  15.838  70.916  1.00  0.00    -0.406 C  
HETATM   11  C   UNL     1     -10.932  14.217  67.579  1.00  0.00    -0.292 C  
HETATM   12  C   UNL     1      -9.375  14.862  67.946  1.00  0.00    -0.191 C  
HETATM   13  O   UNL     1     -11.275  16.680  69.914  1.00  0.00    -0.239 OA 
HETATM   14  O   UNL     1     -11.025  15.588  71.919  1.00  0.00    -0.247 OA 
HETATM   15  C   UNL     1      -9.209  16.432  68.567  1.00  0.00    -0.226 C  
HETATM   16  C   UNL     1      -7.722  16.907  68.468  1.00  0.00    -0.227 C  
HETATM   17  C   UNL     1      -8.906  13.436  70.049  1.00  0.00     2.992 C  
HETATM   18  C   UNL     1      -6.909  15.956  69.377  1.00  0.00    -0.200 C  
HETATM   19  C   UNL     1      -6.980  14.501  68.944  1.00  0.00    -0.110 C  
HETATM   20  C   UNL     1      -8.371  13.858  68.665  1.00  0.00    -0.088 C  
HETATM   21  C   UNL     1      -8.262  12.564  67.769  1.00  0.00    -0.166 C  
HETATM   22  C   UNL     1      -5.831  13.800  68.904  1.00  0.00    -0.083 C  
HETATM   23  C   UNL     1      -6.860  12.155  67.338  1.00  0.00    -0.147 C  
HETATM   24  C   UNL     1      -5.892  12.402  68.450  1.00  0.00    -0.056 C  
HETATM   25  O   UNL     1      -5.148  11.550  68.917  1.00  0.00    -0.044 OA 
ENDROOT
BRANCH  16  26
HETATM   26  S   UNL     1      -6.975  16.885  66.776  1.00  0.00    -0.251 SA 
BRANCH  26  27
HETATM   27  C   UNL     1      -6.681  18.600  66.528  1.00  0.00    -0.201 C  
HETATM   28  C   UNL     1      -6.187  19.326  67.747  1.00  0.00    -0.226 C  
HETATM   29  O   UNL     1      -6.832  19.135  65.439  1.00  0.00    -0.373 OA 
ENDBRANCH  26  27
ENDBRANCH  16  26
TORSDOF 2
ENDMDL
MODEL      113
REMARK 921   NORMALIZED FREE ENERGY PREDICTED BY IDOCK:    9.66 KCAL/MOL
REMARK 922        TOTAL FREE ENERGY PREDICTED BY IDOCK:   10.21 KCAL/MOL
REMARK 923 INTER-LIGAND FREE ENERGY PREDICTED BY IDOCK:    7.95 KCAL/MOL
REMARK 924 INTRA-LIGAND FREE ENERGY PREDICTED BY IDOCK:    2.26 KCAL/MOL
REMARK 927      BINDING AFFINITY PREDICTED BY RF-SCORE:    0.00 PKD
ROOT
HETATM    1  C   UNL     1      -8.487  18.092  68.599  1.00  0.00    -0.285 C  
HETATM    2  C   UNL     1      -8.961  17.703  69.869  1.00  0.00     1.619 C  
HETATM    3  C   UNL     1      -7.995  16.687  69.317  1.00  0.00    -0.064 C  
HETATM    4  C   UNL     1      -6.827  17.272  67.721  1.00  0.00    -0.160 C  
HETATM    5  C   UNL     1      -6.711  17.587  69.049  1.00  0.00    -0.247 C  
HETATM    6  C   UNL     1      -5.258  17.639  67.408  1.00  0.00    -0.145 C  
HETATM    7  C   UNL     1      -6.171  15.750  68.877  1.00  0.00    -0.114 C  
HETATM    8  C   UNL     1      -5.932  18.522  69.941  1.00  0.00    -0.231 C  
HETATM    9  C   UNL     1      -5.162  17.853  65.913  1.00  0.00    -0.235 C  
HETATM   10  C   UNL     1      -6.578  18.129  65.592  1.00  0.00    -0.242 C  
HETATM   11  C   UNL     1      -7.111  14.957  67.581  1.00  0.00    -0.208 C  
HETATM   12  C   UNL     1      -8.750  15.367  67.230  1.00  0.00    -0.215 C  
HETATM   13  O   UNL     1      -7.276  18.264  66.759  1.00  0.00    -0.198 OA 
HETATM   14  O   UNL     1      -7.038  18.284  64.475  1.00  0.00     1.234 OA 
HETATM   15  C   UNL     1      -9.295  16.966  67.375  1.00  0.00    -0.235 C  
HETATM   16  C   UNL     1     -10.859  17.016  67.364  1.00  0.00    -0.165 C  
HETATM   17  C   UNL     1      -8.619  15.110  64.663  1.00  0.00     6.315 C  
HETATM   18  C   UNL     1     -11.292  16.499  65.973  1.00  0.00     0.564 C  
HETATM   19  C   UNL     1     -10.853  15.069  65.698  1.00  0.00    -0.356 C  
HETATM   20  C   UNL     1      -9.367  14.671  65.939  1.00  0.00    -0.155 C  
HETATM   21  C   UNL     1      -9.186  13.112  66.100  1.00  0.00    -0.000 C  
HETATM   22  C   UNL     1     -11.759  14.224  65.171  1.00  0.00    -0.368 C  
HETATM   23  C   UNL     1     -10.448  12.268  65.990  1.00  0.00    -0.284 C  
HETATM   24  C   UNL     1     -11.348  12.831  64.938  1.00  0.00    -0.306 C  
HETATM   25  O   UNL     1     -11.781  12.192  63.988  1.00  0.00    -0.373 OA 
ENDROOT
BRANCH  16  26
HETATM   26  S   UNL     1     -11.711  16.007  68.659  1.00  0.00    -0.137 SA 
BRANCH  26  27
HETATM   27  C   UNL     1     -11.578  17.079  70.046  1.00  0.00     1.200 C  
HETATM   28  C   UNL     1     -11.887  16.428  71.364  1.00  0.00    -0.234 C  
HETATM   29  O   UNL     1     -11.223  18.244  69.935  1.00  0.00     1.977 OA 
ENDBRANCH  26  27
ENDBRANCH  16  26
TORSDOF 2
ENDMDL
MODEL      114
REMARK 921   NORMALIZED FREE ENERGY PREDICTED BY IDOCK:   10.76 KCAL/MOL
REMARK 922        TOTAL FREE ENERGY PREDICTED BY IDOCK:   11.44 KCAL/MOL
REMARK 923 INTER-LIGAND FREE ENERGY PREDICTED BY IDOCK:   -2.99 KCAL/MOL
REMARK 924 INTRA-LIGAND FREE ENERGY PREDICTED BY IDOCK:   14.43 KCAL/MOL
REMARK 927      BINDING AFFINITY PREDICTED BY RF-SCORE:    0.00 PKD
ROOT
HETATM    1  C   UNL     1      -6.375   9.497  66.398  1.00  0.00    -0.069 C  
HETATM    2  C   UNL     1      -5.393   8.803  67.134  1.00  0.00    -0.037 C  
HETATM    3  C   UNL     1      -6.410   7.852  66.560  1.00  0.00    -0.050 C  
HETATM    4  C   UNL     1      -7.639   8.578  65.072  1.00  0.00    -0.093 C  
HETATM    5  C   UNL     1      -6.325   8.199  65.009  1.00  0.00    -0.049 C  
HETATM    6  C   UNL     1      -7.856   8.404  63.454  1.00  0.00    -0.152 C  
HETATM    7  C   UNL     1      -7.350   6.581  65.181  1.00  0.00    -0.078 C  
HETATM    8  C   UNL     1      -5.159   8.255  64.052  1.00  0.00    -0.040 C  
HETATM    9  C   UNL     1      -9.092   9.203  63.102  1.00  0.00     0.148 C  
HETATM   10  C   UNL     1      -9.157  10.118  64.261  1.00  0.00    -0.250 C  
HETATM   11  C   UNL     1      -8.798   6.880  66.184  1.00  0.00    -0.163 C  
HETATM   12  C   UNL     1      -8.813   8.004  67.493  1.00  0.00    -0.129 C  
HETATM   13  O   UNL     1      -8.012   9.980  64.995  1.00  0.00    -0.132 OA 
HETATM   14  O   UNL     1     -10.047  10.917  64.489  1.00  0.00    -0.289 OA 
HETATM   15  C   UNL     1      -7.919   9.443  67.412  1.00  0.00    -0.106 C  
HETATM   16  C   UNL     1      -7.802  10.096  68.829  1.00  0.00    -0.098 C  
HETATM   17  C   UNL     1     -11.218   8.884  67.155  1.00  0.00     0.760 C  
HETATM   18  C   UNL     1      -9.243  10.464  69.251  1.00  0.00    -0.198 C  
HETATM   19  C   UNL     1     -10.167   9.260  69.350  1.00  0.00    -0.214 C  
HETATM   20  C   UNL     1     -10.235   8.254  68.162  1.00  0.00    -0.255 C  
HETATM   21  C   UNL     1     -10.813   6.853  68.600  1.00  0.00    -0.236 C  
HETATM   22  C   UNL     1     -10.959   9.163  70.435  1.00  0.00    -0.290 C  
HETATM   23  C   UNL     1     -11.210   6.711  70.062  1.00  0.00    -0.425 C  
HETATM   24  C   UNL     1     -11.828   7.982  70.550  1.00  0.00    -0.008 C  
HETATM   25  O   UNL     1     -12.933   8.055  71.071  1.00  0.00    -0.135 OA 
ENDROOT
BRANCH  16  26
HETATM   26  S   UNL     1      -7.054   9.038  70.149  1.00  0.00    -0.061 SA 
BRANCH  26  27
HETATM   27  C   UNL     1      -8.003   7.569  69.965  1.00  0.00    -0.112 C  
HETATM   28  C   UNL     1      -7.420   6.365  70.648  1.00  0.00    -0.087 C  
HETATM   29  O   UNL     1      -9.066   7.554  69.362  1.00  0.00    -0.143 OA 
ENDBRANCH  26  27
ENDBRANCH  16  26
TORSDOF 2
ENDMDL
MODEL      115
REMARK 921   NORMALIZED FREE ENERGY PREDICTED BY IDOCK:   12.19 KCAL/MOL
REMARK 922        TOTAL FREE ENERGY PREDICTED BY IDOCK:   13.04 KCAL/MOL
REMARK 923 INTER-LIGAND FREE ENERGY PREDICTED BY IDOCK:    3.61 KCAL/MOL
REMARK 924 INTRA-LIGAND FREE ENERGY PREDICTED BY IDOCK:    9.43 KCAL/MOL
REMARK 927      BINDING AFFINITY PREDICTED BY RF-SCORE:    0.00 PKD
ROOT
HETATM    1  C   UNL     1     -11.313  15.517  67.173  1.00  0.00    -0.135 C  
HETATM    2  C   UNL     1     -12.352  14.951  67.940  1.00  0.00     0.245 C  
HETATM    3  C   UNL     1     -11.220  15.413  68.821  1.00  0.00    -0.305 C  
HETATM    4  C   UNL     1      -9.835  16.687  67.978  1.00  0.00    -0.245 C  
HETATM    5  C   UNL     1     -11.108  16.946  68.411  1.00  0.00    -0.216 C  
HETATM    6  C   UNL     1      -9.388  18.264  68.073  1.00  0.00    -0.293 C  
HETATM    7  C   UNL     1     -10.039  16.693  69.988  1.00  0.00     0.337 C  
HETATM    8  C   UNL     1     -12.132  18.054  68.363  1.00  0.00     3.652 C  
HETATM    9  C   UNL     1      -8.156  18.409  67.207  1.00  0.00    -0.243 C  
HETATM   10  C   UNL     1      -8.296  17.220  66.341  1.00  0.00    -0.280 C  
HETATM   11  C   UNL     1      -8.759  15.487  69.671  1.00  0.00    -0.126 C  
HETATM   12  C   UNL     1      -8.980  14.148  68.606  1.00  0.00    -0.132 C  
HETATM   13  O   UNL     1      -9.524  16.659  66.560  1.00  0.00    -0.239 OA 
HETATM   14  O   UNL     1      -7.486  16.840  65.515  1.00  0.00     0.439 OA 
HETATM   15  C   UNL     1      -9.922  14.300  67.204  1.00  0.00    -0.255 C  
HETATM   16  C   UNL     1     -10.266  12.890  66.619  1.00  0.00    -0.247 C  
HETATM   17  C   UNL     1      -6.596  14.114  67.609  1.00  0.00    -0.173 C  
HETATM   18  C   UNL     1      -8.916  12.257  66.209  1.00  0.00    -0.068 C  
HETATM   19  C   UNL     1      -7.957  12.075  67.374  1.00  0.00    -0.165 C  
HETATM   20  C   UNL     1      -7.678  13.277  68.324  1.00  0.00    -0.141 C  
HETATM   21  C   UNL     1      -7.098  12.816  69.716  1.00  0.00     0.529 C  
HETATM   22  C   UNL     1      -7.318  10.894  67.484  1.00  0.00    -0.096 C  
HETATM   23  C   UNL     1      -6.900  11.318  69.905  1.00  0.00    -0.017 C  
HETATM   24  C   UNL     1      -6.418  10.702  68.631  1.00  0.00    -0.051 C  
HETATM   25  O   UNL     1      -5.400  10.029  68.533  1.00  0.00    -0.039 OA 
ENDROOT
BRANCH  16  26
HETATM   26  S   UNL     1     -11.137  11.727  67.765  1.00  0.00    -0.264 SA 
BRANCH  26  27
HETATM   27  C   UNL     1     -11.822  12.862  68.919  1.00  0.00    -0.309 C  
HETATM   28  C   UNL     1     -13.118  13.483  68.482  1.00  0.00     2.526 C  
HETATM   29  O   UNL     1     -11.297  13.086  70.001  1.00  0.00    -0.081 OA 
ENDBRANCH  26  27
ENDBRANCH  16  26
TORSDOF 2
ENDMDL
MODEL      116
REMARK 921   NORMALIZED FREE ENERGY PREDICTED BY IDOCK:   12.37 KCAL/MOL
REMARK 922        TOTAL FREE ENERGY PREDICTED BY IDOCK:   13.24 KCAL/MOL
REMARK 923 INTER-LIGAND FREE ENERGY PREDICTED BY IDOCK:   13.69 KCAL/MOL
REMARK 924 INTRA-LIGAND FREE ENERGY PREDICTED BY IDOCK:   -0.45 KCAL/MOL
REMARK 927      BINDING AFFINITY PREDICTED BY RF-SCORE:    0.00 PKD
ROOT
HETATM    1  C   UNL     1     -12.464  15.847  70.016  1.00  0.00    -0.056 C  
HETATM    2  C   UNL     1     -13.713  15.884  69.364  1.00  0.00     3.298 C  
HETATM    3  C   UNL     1     -13.581  14.645  70.211  1.00  0.00     0.544 C  
HETATM    4  C   UNL     1     -12.066  14.620  71.609  1.00  0.00    -0.335 C  
HETATM    5  C   UNL     1     -13.270  15.272  71.639  1.00  0.00    -0.532 C  
HETATM    6  C   UNL     1     -11.889  14.691  73.240  1.00  0.00    -0.037 C  
HETATM    7  C   UNL     1     -13.656  13.407  71.902  1.00  0.00    -0.494 C  
HETATM    8  C   UNL     1     -13.989  16.314  72.460  1.00  0.00     0.361 C  
HETATM    9  C   UNL     1     -10.417  14.471  73.517  1.00  0.00     4.608 C  
HETATM   10  C   UNL     1      -9.843  14.819  72.200  1.00  0.00     4.440 C  
HETATM   11  C   UNL     1     -12.492  12.408  70.985  1.00  0.00    -0.353 C  
HETATM   12  C   UNL     1     -11.824  12.903  69.473  1.00  0.00    -0.383 C  
HETATM   13  O   UNL     1     -10.828  15.355  71.418  1.00  0.00    -0.264 OA 
HETATM   14  O   UNL     1      -8.672  14.714  71.884  1.00  0.00     4.060 OA 
HETATM   15  C   UNL     1     -11.474  14.534  69.171  1.00  0.00    -0.324 C  
HETATM   16  C   UNL     1     -11.233  14.770  67.642  1.00  0.00    -0.323 C  
HETATM   17  C   UNL     1      -9.454  11.933  69.819  1.00  0.00     1.816 C  
HETATM   18  C   UNL     1      -9.978  13.946  67.276  1.00  0.00    -0.242 C  
HETATM   19  C   UNL     1     -10.146  12.454  67.513  1.00  0.00    -0.205 C  
HETATM   20  C   UNL     1     -10.685  11.959  68.888  1.00  0.00    -0.236 C  
HETATM   21  C   UNL     1     -11.267  10.495  68.808  1.00  0.00    -0.317 C  
HETATM   22  C   UNL     1      -9.735  11.613  66.544  1.00  0.00    -0.227 C  
HETATM   23  C   UNL     1     -11.206   9.814  67.448  1.00  0.00     0.146 C  
HETATM   24  C   UNL     1      -9.930  10.171  66.756  1.00  0.00    -0.211 C  
HETATM   25  O   UNL     1      -9.128   9.352  66.326  1.00  0.00    -0.147 OA 
ENDROOT
BRANCH  16  26
HETATM   26  S   UNL     1     -12.615  14.269  66.519  1.00  0.00     0.184 SA 
BRANCH  26  27
HETATM   27  C   UNL     1     -11.866  14.526  64.949  1.00  0.00    -0.416 C  
HETATM   28  C   UNL     1     -11.426  15.939  64.696  1.00  0.00    -0.265 C  
HETATM   29  O   UNL     1     -11.690  13.612  64.155  1.00  0.00    -0.397 OA 
ENDBRANCH  26  27
ENDBRANCH  16  26
TORSDOF 2
ENDMDL
MODEL      117
REMARK 921   NORMALIZED FREE ENERGY PREDICTED BY IDOCK:   12.61 KCAL/MOL
REMARK 922        TOTAL FREE ENERGY PREDICTED BY IDOCK:   13.51 KCAL/MOL
REMARK 923 INTER-LIGAND FREE ENERGY PREDICTED BY IDOCK:    4.10 KCAL/MOL
REMARK 924 INTRA-LIGAND FREE ENERGY PREDICTED BY IDOCK:    9.41 KCAL/MOL
REMARK 927      BINDING AFFINITY PREDICTED BY RF-SCORE:    0.00 PKD
ROOT
HETATM    1  C   UNL     1     -10.842  12.365  65.356  1.00  0.00    -0.320 C  
HETATM    2  C   UNL     1     -10.446  13.513  64.640  1.00  0.00    -0.439 C  
HETATM    3  C   UNL     1      -9.433  13.159  65.698  1.00  0.00     0.090 C  
HETATM    4  C   UNL     1      -9.560  11.275  66.526  1.00  0.00    -0.191 C  
HETATM    5  C   UNL     1      -9.077  11.659  65.304  1.00  0.00     0.041 C  
HETATM    6  C   UNL     1      -8.732   9.857  66.504  1.00  0.00    -0.139 C  
HETATM    7  C   UNL     1      -7.784  12.235  66.605  1.00  0.00     0.178 C  
HETATM    8  C   UNL     1      -8.618  11.041  64.006  1.00  0.00     0.153 C  
HETATM    9  C   UNL     1      -9.409   8.954  67.511  1.00  0.00    -0.160 C  
HETATM   10  C   UNL     1     -10.733   9.604  67.605  1.00  0.00    -0.262 C  
HETATM   11  C   UNL     1      -8.607  12.689  68.124  1.00  0.00    -0.188 C  
HETATM   12  C   UNL     1     -10.178  13.401  68.158  1.00  0.00    -0.246 C  
HETATM   13  O   UNL     1     -10.822  10.563  66.636  1.00  0.00    -0.194 OA 
HETATM   14  O   UNL     1     -11.627   9.292  68.371  1.00  0.00     0.480 OA 
HETATM   15  C   UNL     1     -11.362  12.950  67.031  1.00  0.00    -0.355 C  
HETATM   16  C   UNL     1     -12.544  13.975  67.035  1.00  0.00     0.110 C  
HETATM   17  C   UNL     1     -11.037  12.221  70.290  1.00  0.00     0.786 C  
HETATM   18  C   UNL     1     -13.180  13.887  68.441  1.00  0.00     3.235 C  
HETATM   19  C   UNL     1     -12.220  14.254  69.561  1.00  0.00    -0.341 C  
HETATM   20  C   UNL     1     -10.813  13.585  69.606  1.00  0.00     0.155 C  
HETATM   21  C   UNL     1      -9.789  14.408  70.479  1.00  0.00     1.695 C  
HETATM   22  C   UNL     1     -12.664  15.084  70.524  1.00  0.00    -0.406 C  
HETATM   23  C   UNL     1     -10.320  15.679  71.127  1.00  0.00     0.691 C  
HETATM   24  C   UNL     1     -11.726  15.469  71.589  1.00  0.00    -0.426 C  
HETATM   25  O   UNL     1     -12.110  15.661  72.735  1.00  0.00    -0.383 OA 
ENDROOT
BRANCH  16  26
HETATM   26  S   UNL     1     -12.088  15.737  66.704  1.00  0.00     1.355 SA 
BRANCH  26  27
HETATM   27  C   UNL     1     -10.519  15.821  67.492  1.00  0.00    -0.288 C  
HETATM   28  C   UNL     1     -10.157  17.185  68.007  1.00  0.00    -0.311 C  
HETATM   29  O   UNL     1      -9.811  14.835  67.638  1.00  0.00    -0.216 OA 
ENDBRANCH  26  27
ENDBRANCH  16  26
TORSDOF 2
ENDMDL
MODEL      118
REMARK 921   NORMALIZED FREE ENERGY PREDICTED BY IDOCK:   12.71 KCAL/MOL
REMARK 922        TOTAL FREE ENERGY PREDICTED BY IDOCK:   13.62 KCAL/MOL
REMARK 923 INTER-LIGAND FREE ENERGY PREDICTED BY IDOCK:   10.88 KCAL/MOL
REMARK 924 INTRA-LIGAND FREE ENERGY PREDICTED BY IDOCK:    2.75 KCAL/MOL
REMARK 927      BINDING AFFINITY PREDICTED BY RF-SCORE:    0.00 PKD
ROOT
HETATM    1  C   UNL     1      -8.981  14.856  70.323  1.00  0.00     0.929 C  
HETATM    2  C   UNL     1      -9.706  13.777  69.778  1.00  0.00     1.281 C  
HETATM    3  C   UNL     1      -8.685  14.291  68.798  1.00  0.00    -0.096 C  
HETATM    4  C   UNL     1      -7.208  15.524  69.541  1.00  0.00    -0.201 C  
HETATM    5  C   UNL     1      -7.344  14.165  69.645  1.00  0.00     0.176 C  
HETATM    6  C   UNL     1      -5.597  15.473  69.851  1.00  0.00    -0.130 C  
HETATM    7  C   UNL     1      -6.842  14.522  67.825  1.00  0.00    -0.193 C  
HETATM    8  C   UNL     1      -6.725  13.004  70.385  1.00  0.00     0.799 C  
HETATM    9  C   UNL     1      -5.202  16.869  70.280  1.00  0.00    -0.210 C  
HETATM   10  C   UNL     1      -6.518  17.404  70.690  1.00  0.00     1.315 C  
HETATM   11  C   UNL     1      -7.535  16.082  67.295  1.00  0.00    -0.236 C  
HETATM   12  C   UNL     1      -9.059  16.665  67.856  1.00  0.00    -0.218 C  
HETATM   13  O   UNL     1      -7.426  16.383  70.692  1.00  0.00     1.883 OA 
HETATM   14  O   UNL     1      -6.745  18.548  71.038  1.00  0.00     1.396 OA 
HETATM   15  C   UNL     1      -9.569  16.373  69.446  1.00  0.00    -0.137 C  
HETATM   16  C   UNL     1     -11.098  16.672  69.595  1.00  0.00    -0.144 C  
HETATM   17  C   UNL     1      -8.435  19.170  67.978  1.00  0.00    -0.345 C  
HETATM   18  C   UNL     1     -11.266  18.183  69.321  1.00  0.00     1.912 C  
HETATM   19  C   UNL     1     -10.829  18.595  67.924  1.00  0.00    -0.253 C  
HETATM   20  C   UNL     1      -9.433  18.144  67.401  1.00  0.00    -0.255 C  
HETATM   21  C   UNL     1      -9.338  18.202  65.828  1.00  0.00     0.359 C  
HETATM   22  C   UNL     1     -11.641  19.411  67.226  1.00  0.00     0.889 C  
HETATM   23  C   UNL     1     -10.581  18.681  65.091  1.00  0.00     0.875 C  
HETATM   24  C   UNL     1     -11.238  19.781  65.861  1.00  0.00     0.276 C  
HETATM   25  O   UNL     1     -11.497  20.885  65.399  1.00  0.00     1.754 OA 
ENDROOT
BRANCH  16  26
HETATM   26  S   UNL     1     -12.220  15.738  68.459  1.00  0.00     0.521 SA 
BRANCH  26  27
HETATM   27  C   UNL     1     -12.105  14.123  69.144  1.00  0.00    -0.325 C  
HETATM   28  C   UNL     1     -12.514  14.031  70.587  1.00  0.00    -0.435 C  
HETATM   29  O   UNL     1     -11.758  13.157  68.479  1.00  0.00    -0.310 OA 
ENDBRANCH  26  27
ENDBRANCH  16  26
TORSDOF 2
ENDMDL
MODEL      119
REMARK 921   NORMALIZED FREE ENERGY PREDICTED BY IDOCK:   15.00 KCAL/MOL
REMARK 922        TOTAL FREE ENERGY PREDICTED BY IDOCK:   16.17 KCAL/MOL
REMARK 923 INTER-LIGAND FREE ENERGY PREDICTED BY IDOCK:   14.51 KCAL/MOL
REMARK 924 INTRA-LIGAND FREE ENERGY PREDICTED BY IDOCK:    1.66 KCAL/MOL
REMARK 927      BINDING AFFINITY PREDICTED BY RF-SCORE:    0.00 PKD
ROOT
HETATM    1  C   UNL     1      -9.203  14.712  69.823  1.00  0.00     0.435 C  
HETATM    2  C   UNL     1     -10.332  14.888  70.650  1.00  0.00     0.360 C  
HETATM    3  C   UNL     1     -10.740  14.507  69.251  1.00  0.00    -0.241 C  
HETATM    4  C   UNL     1      -9.274  13.739  68.021  1.00  0.00    -0.195 C  
HETATM    5  C   UNL     1      -9.948  13.142  69.053  1.00  0.00     0.204 C  
HETATM    6  C   UNL     1      -8.853  12.301  67.349  1.00  0.00    -0.185 C  
HETATM    7  C   UNL     1     -11.201  13.294  67.603  1.00  0.00    -0.307 C  
HETATM    8  C   UNL     1      -9.897  11.878  69.876  1.00  0.00     1.826 C  
HETATM    9  C   UNL     1      -7.686  12.587  66.430  1.00  0.00     0.695 C  
HETATM   10  C   UNL     1      -7.211  13.868  66.992  1.00  0.00     0.503 C  
HETATM   11  C   UNL     1     -10.868  14.777  66.663  1.00  0.00    -0.319 C  
HETATM   12  C   UNL     1     -10.266  16.224  67.383  1.00  0.00    -0.275 C  
HETATM   13  O   UNL     1      -7.877  14.109  68.162  1.00  0.00    -0.120 OA 
HETATM   14  O   UNL     1      -6.323  14.562  66.532  1.00  0.00     1.486 OA 
HETATM   15  C   UNL     1      -9.169  16.161  68.675  1.00  0.00    -0.220 C  
HETATM   16  C   UNL     1      -9.064  17.556  69.375  1.00  0.00     0.384 C  
HETATM   17  C   UNL     1      -8.719  16.947  65.443  1.00  0.00     1.265 C  
HETATM   18  C   UNL     1      -8.484  18.522  68.316  1.00  0.00    -0.341 C  
HETATM   19  C   UNL     1      -9.364  18.665  67.085  1.00  0.00    -0.300 C  
HETATM   20  C   UNL     1      -9.877  17.383  66.364  1.00  0.00    -0.311 C  
HETATM   21  C   UNL     1     -11.137  17.672  65.460  1.00  0.00     0.436 C  
HETATM   22  C   UNL     1      -9.592  19.907  66.616  1.00  0.00    -0.527 C  
HETATM   23  C   UNL     1     -11.633  19.110  65.428  1.00  0.00     2.169 C  
HETATM   24  C   UNL     1     -10.472  20.051  65.447  1.00  0.00    -0.060 C  
HETATM   25  O   UNL     1     -10.281  20.926  64.612  1.00  0.00     1.141 OA 
ENDROOT
BRANCH  16  26
HETATM   26  S   UNL     1     -10.650  18.264  70.012  1.00  0.00     1.874 SA 
BRANCH  26  27
HETATM   27  C   UNL     1     -10.106  19.848  70.549  1.00  0.00     1.182 C  
HETATM   28  C   UNL     1      -8.964  20.413  69.754  1.00  0.00     1.223 C  
HETATM   29  O   UNL     1     -10.649  20.444  71.469  1.00  0.00     2.730 OA 
ENDBRANCH  26  27
ENDBRANCH  16  26
TORSDOF 2
ENDMDL
MODEL      120
REMARK 921   NORMALIZED FREE ENERGY PREDICTED BY IDOCK:   15.71 KCAL/MOL
REMARK 922        TOTAL FREE ENERGY PREDICTED BY IDOCK:   16.97 KCAL/MOL
REMARK 923 INTER-LIGAND FREE ENERGY PREDICTED BY IDOCK:   11.18 KCAL/MOL
REMARK 924 INTRA-LIGAND FREE ENERGY PREDICTED BY IDOCK:    5.79 KCAL/MOL
REMARK 927      BINDING AFFINITY PREDICTED BY RF-SCORE:    0.00 PKD
ROOT
HETATM    1  C   UNL     1      -8.754  19.487  67.306  1.00  0.00    -0.348 C  
HETATM    2  C   UNL     1      -8.012  19.475  66.107  1.00  0.00    -0.340 C  
HETATM    3  C   UNL     1      -8.871  18.243  66.225  1.00  0.00    -0.197 C  
HETATM    4  C   UNL     1     -10.376  18.278  67.635  1.00  0.00    -0.396 C  
HETATM    5  C   UNL     1     -10.316  18.883  66.407  1.00  0.00    -0.503 C  
HETATM    6  C   UNL     1     -12.015  18.358  67.691  1.00  0.00     2.636 C  
HETATM    7  C   UNL     1     -10.557  17.005  66.076  1.00  0.00    -0.208 C  
HETATM    8  C   UNL     1     -11.079  19.897  65.591  1.00  0.00    -0.006 C  
HETATM    9  C   UNL     1     -12.399  18.196  69.145  1.00  0.00     7.607 C  
HETATM   10  C   UNL     1     -11.125  18.564  69.799  1.00  0.00     2.666 C  
HETATM   11  C   UNL     1      -9.731  16.051  67.340  1.00  0.00    -0.232 C  
HETATM   12  C   UNL     1      -8.269  16.570  68.097  1.00  0.00    -0.181 C  
HETATM   13  O   UNL     1     -10.272  19.060  68.854  1.00  0.00    -0.370 OA 
HETATM   14  O   UNL     1     -10.895  18.505  70.994  1.00  0.00     1.886 OA 
HETATM   15  C   UNL     1      -7.987  18.213  68.405  1.00  0.00    -0.312 C  
HETATM   16  C   UNL     1      -6.479  18.456  68.746  1.00  0.00    -0.231 C  
HETATM   17  C   UNL     1      -8.789  15.693  70.471  1.00  0.00     1.560 C  
HETATM   18  C   UNL     1      -6.208  17.681  70.056  1.00  0.00    -0.024 C  
HETATM   19  C   UNL     1      -6.438  16.184  69.929  1.00  0.00    -0.103 C  
HETATM   20  C   UNL     1      -7.772  15.670  69.311  1.00  0.00    -0.223 C  
HETATM   21  C   UNL     1      -7.656  14.184  68.793  1.00  0.00    -0.125 C  
HETATM   22  C   UNL     1      -5.505  15.359  70.441  1.00  0.00    -0.137 C  
HETATM   23  C   UNL     1      -6.307  13.505  68.980  1.00  0.00    -0.099 C  
HETATM   24  C   UNL     1      -5.707  13.910  70.288  1.00  0.00    -0.139 C  
HETATM   25  O   UNL     1      -5.340  13.123  71.150  1.00  0.00    -0.168 OA 
ENDROOT
BRANCH  16  26
HETATM   26  S   UNL     1      -5.260  17.901  67.470  1.00  0.00    -0.133 SA 
BRANCH  26  27
HETATM   27  C   UNL     1      -5.879  18.729  66.048  1.00  0.00    -0.162 C  
HETATM   28  C   UNL     1      -5.648  20.213  66.046  1.00  0.00    -0.188 C  
HETATM   29  O   UNL     1      -6.415  18.129  65.127  1.00  0.00    -0.349 OA 
ENDBRANCH  26  27
ENDBRANCH  16  26
TORSDOF 2
ENDMDL
MODEL      121
REMARK 921   NORMALIZED FREE ENERGY PREDICTED BY IDOCK:   17.42 KCAL/MOL
REMARK 922        TOTAL FREE ENERGY PREDICTED BY IDOCK:   18.88 KCAL/MOL
REMARK 923 INTER-LIGAND FREE ENERGY PREDICTED BY IDOCK:   17.59 KCAL/MOL
REMARK 924 INTRA-LIGAND FREE ENERGY PREDICTED BY IDOCK:    1.30 KCAL/MOL
REMARK 927      BINDING AFFINITY PREDICTED BY RF-SCORE:    0.00 PKD
ROOT
HETATM    1  C   UNL     1      -6.624  11.466  69.797  1.00  0.00    -0.111 C  
HETATM    2  C   UNL     1      -6.174  11.357  71.129  1.00  0.00     0.879 C  
HETATM    3  C   UNL     1      -7.523  10.708  70.958  1.00  0.00     2.218 C  
HETATM    4  C   UNL     1      -8.144  10.326  69.029  1.00  0.00    -0.132 C  
HETATM    5  C   UNL     1      -7.225   9.663  69.797  1.00  0.00    -0.094 C  
HETATM    6  C   UNL     1      -8.375   9.038  68.038  1.00  0.00    -0.117 C  
HETATM    7  C   UNL     1      -8.951   9.235  70.527  1.00  0.00    -0.296 C  
HETATM    8  C   UNL     1      -6.177   8.585  69.657  1.00  0.00    -0.039 C  
HETATM    9  C   UNL     1      -8.996   9.582  66.771  1.00  0.00    -0.157 C  
HETATM   10  C   UNL     1      -8.602  11.004  66.870  1.00  0.00    -0.143 C  
HETATM   11  C   UNL     1     -10.053  10.629  70.343  1.00  0.00     0.679 C  
HETATM   12  C   UNL     1      -9.511  12.265  70.422  1.00  0.00     5.191 C  
HETATM   13  O   UNL     1      -7.722  11.145  67.906  1.00  0.00    -0.100 OA 
HETATM   14  O   UNL     1      -8.945  11.893  66.112  1.00  0.00    -0.195 OA 
HETATM   15  C   UNL     1      -7.993  12.708  69.810  1.00  0.00     1.736 C  
HETATM   16  C   UNL     1      -7.590  14.131  70.320  1.00  0.00     1.081 C  
HETATM   17  C   UNL     1     -11.085  13.228  68.612  1.00  0.00    -0.301 C  
HETATM   18  C   UNL     1      -8.633  15.107  69.732  1.00  0.00     0.052 C  
HETATM   19  C   UNL     1     -10.055  14.817  70.187  1.00  0.00     0.287 C  
HETATM   20  C   UNL     1     -10.608  13.365  70.073  1.00  0.00     1.045 C  
HETATM   21  C   UNL     1     -11.848  13.124  71.017  1.00  0.00     0.325 C  
HETATM   22  C   UNL     1     -10.809  15.856  70.593  1.00  0.00    -0.234 C  
HETATM   23  C   UNL     1     -12.302  14.309  71.857  1.00  0.00    -0.329 C  
HETATM   24  C   UNL     1     -12.172  15.573  71.069  1.00  0.00    -0.396 C  
HETATM   25  O   UNL     1     -13.088  16.362  70.878  1.00  0.00     0.597 OA 
ENDROOT
BRANCH  16  26
HETATM   26  S   UNL     1      -7.547  14.351  72.157  1.00  0.00     5.839 SA 
BRANCH  26  27
HETATM   27  C   UNL     1      -5.812  14.367  72.442  1.00  0.00     0.175 C  
HETATM   28  C   UNL     1      -5.202  13.007  72.624  1.00  0.00     0.167 C  
HETATM   29  O   UNL     1      -5.164  15.404  72.450  1.00  0.00    -0.041 OA 
ENDBRANCH  26  27
ENDBRANCH  16  26
TORSDOF 2
ENDMDL
MODEL      122
REMARK 921   NORMALIZED FREE ENERGY PREDICTED BY IDOCK:   22.38 KCAL/MOL
REMARK 922        TOTAL FREE ENERGY PREDICTED BY IDOCK:   24.42 KCAL/MOL
REMARK 923 INTER-LIGAND FREE ENERGY PREDICTED BY IDOCK:   24.18 KCAL/MOL
REMARK 924 INTRA-LIGAND FREE ENERGY PREDICTED BY IDOCK:    0.24 KCAL/MOL
REMARK 927      BINDING AFFINITY PREDICTED BY RF-SCORE:    0.00 PKD
ROOT
HETATM    1  C   UNL     1      -8.665   6.817  70.000  1.00  0.00    -0.141 C  
HETATM    2  C   UNL     1      -8.912   6.949  68.618  1.00  0.00    -0.129 C  
HETATM    3  C   UNL     1      -8.375   8.232  69.196  1.00  0.00    -0.123 C  
HETATM    4  C   UNL     1      -7.500   8.129  71.060  1.00  0.00    -0.067 C  
HETATM    5  C   UNL     1      -7.009   7.738  69.844  1.00  0.00    -0.050 C  
HETATM    6  C   UNL     1      -6.005   8.226  71.731  1.00  0.00    -0.042 C  
HETATM    7  C   UNL     1      -6.984   9.660  69.847  1.00  0.00    -0.081 C  
HETATM    8  C   UNL     1      -5.842   6.970  69.272  1.00  0.00    -0.019 C  
HETATM    9  C   UNL     1      -6.208   8.182  73.230  1.00  0.00    -0.092 C  
HETATM   10  C   UNL     1      -7.550   7.567  73.299  1.00  0.00    -0.097 C  
HETATM   11  C   UNL     1      -8.361  10.286  70.798  1.00  0.00     1.403 C  
HETATM   12  C   UNL     1      -9.887   9.484  70.872  1.00  0.00    -0.279 C  
HETATM   13  O   UNL     1      -7.905   7.145  72.049  1.00  0.00    -0.091 OA 
HETATM   14  O   UNL     1      -8.203   7.396  74.312  1.00  0.00    -0.153 OA 
HETATM   15  C   UNL     1      -9.981   7.791  70.858  1.00  0.00    -0.190 C  
HETATM   16  C   UNL     1     -11.445   7.325  70.565  1.00  0.00    -0.279 C  
HETATM   17  C   UNL     1     -10.419   9.999  73.348  1.00  0.00     9.088 C  
HETATM   18  C   UNL     1     -12.299   7.831  71.750  1.00  0.00    -0.346 C  
HETATM   19  C   UNL     1     -12.295   9.344  71.893  1.00  0.00    -0.450 C  
HETATM   20  C   UNL     1     -10.935  10.104  71.898  1.00  0.00     1.473 C  
HETATM   21  C   UNL     1     -11.104  11.632  71.548  1.00  0.00     3.968 C  
HETATM   22  C   UNL     1     -13.475   9.960  72.099  1.00  0.00    -0.454 C  
HETATM   23  C   UNL     1     -12.523  12.113  71.279  1.00  0.00    -0.290 C  
HETATM   24  C   UNL     1     -13.478  11.427  72.202  1.00  0.00    -0.098 C  
HETATM   25  O   UNL     1     -14.260  12.010  72.941  1.00  0.00     0.643 OA 
ENDROOT
BRANCH  16  26
HETATM   26  S   UNL     1     -12.194   7.947  68.992  1.00  0.00     3.213 SA 
BRANCH  26  27
HETATM   27  C   UNL     1     -11.999   6.537  67.960  1.00  0.00     2.131 C  
HETATM   28  C   UNL     1     -11.270   6.806  66.674  1.00  0.00     0.253 C  
HETATM   29  O   UNL     1     -12.394   5.428  68.292  1.00  0.00     5.476 OA 
ENDBRANCH  26  27
ENDBRANCH  16  26
TORSDOF 2
ENDMDL
MODEL      123
REMARK 921   NORMALIZED FREE ENERGY PREDICTED BY IDOCK:   30.33 KCAL/MOL
REMARK 922        TOTAL FREE ENERGY PREDICTED BY IDOCK:   33.29 KCAL/MOL
REMARK 923 INTER-LIGAND FREE ENERGY PREDICTED BY IDOCK:   22.99 KCAL/MOL
REMARK 924 INTRA-LIGAND FREE ENERGY PREDICTED BY IDOCK:   10.30 KCAL/MOL
REMARK 927      BINDING AFFINITY PREDICTED BY RF-SCORE:    0.00 PKD
ROOT
HETATM    1  C   UNL     1      -5.946  14.869  70.075  1.00  0.00    -0.143 C  
HETATM    2  C   UNL     1      -6.170  16.081  70.759  1.00  0.00     0.554 C  
HETATM    3  C   UNL     1      -7.270  15.090  71.040  1.00  0.00     1.334 C  
HETATM    4  C   UNL     1      -6.908  13.121  70.545  1.00  0.00     1.251 C  
HETATM    5  C   UNL     1      -6.442  13.854  71.604  1.00  0.00     1.148 C  
HETATM    6  C   UNL     1      -6.622  11.690  71.298  1.00  0.00     2.476 C  
HETATM    7  C   UNL     1      -8.300  13.510  71.957  1.00  0.00    12.111 C  
HETATM    8  C   UNL     1      -5.430  13.743  72.718  1.00  0.00    -0.074 C  
HETATM    9  C   UNL     1      -6.588  10.638  70.212  1.00  0.00    -0.127 C  
HETATM   10  C   UNL     1      -6.315  11.483  69.030  1.00  0.00    -0.069 C  
HETATM   11  C   UNL     1      -9.215  13.471  70.423  1.00  0.00     4.318 C  
HETATM   12  C   UNL     1      -8.805  14.454  69.065  1.00  0.00     0.009 C  
HETATM   13  O   UNL     1      -6.025  12.749  69.453  1.00  0.00    -0.088 OA 
HETATM   14  O   UNL     1      -6.280  11.101  67.875  1.00  0.00    -0.053 OA 
HETATM   15  C   UNL     1      -7.186  14.807  68.706  1.00  0.00    -0.125 C  
HETATM   16  C   UNL     1      -7.097  15.985  67.679  1.00  0.00    -0.154 C  
HETATM   17  C   UNL     1      -9.367  12.732  67.222  1.00  0.00    -0.200 C  
HETATM   18  C   UNL     1      -7.762  15.472  66.382  1.00  0.00     0.441 C  
HETATM   19  C   UNL     1      -9.225  15.100  66.562  1.00  0.00    -0.318 C  
HETATM   20  C   UNL     1      -9.632  14.162  67.737  1.00  0.00    -0.219 C  
HETATM   21  C   UNL     1     -11.165  14.278  68.089  1.00  0.00    -0.295 C  
HETATM   22  C   UNL     1     -10.103  15.533  65.636  1.00  0.00    -0.406 C  
HETATM   23  C   UNL     1     -11.982  15.249  67.249  1.00  0.00     0.169 C  
HETATM   24  C   UNL     1     -11.523  15.205  65.827  1.00  0.00    -0.172 C  
HETATM   25  O   UNL     1     -12.259  14.987  64.873  1.00  0.00    -0.274 OA 
ENDROOT
BRANCH  16  26
HETATM   26  S   UNL     1      -7.923  17.562  68.182  1.00  0.00    -0.259 SA 
BRANCH  26  27
HETATM   27  C   UNL     1      -9.329  16.935  69.031  1.00  0.00    -0.188 C  
HETATM   28  C   UNL     1      -9.587  17.581  70.362  1.00  0.00     2.567 C  
HETATM   29  O   UNL     1     -10.050  16.073  68.548  1.00  0.00    -0.223 OA 
ENDBRANCH  26  27
ENDBRANCH  16  26
TORSDOF 2
ENDMDL
MODEL      124
REMARK 921   NORMALIZED FREE ENERGY PREDICTED BY IDOCK:   31.65 KCAL/MOL
REMARK 922        TOTAL FREE ENERGY PREDICTED BY IDOCK:   34.77 KCAL/MOL
REMARK 923 INTER-LIGAND FREE ENERGY PREDICTED BY IDOCK:   26.36 KCAL/MOL
REMARK 924 INTRA-LIGAND FREE ENERGY PREDICTED BY IDOCK:    8.41 KCAL/MOL
REMARK 927      BINDING AFFINITY PREDICTED BY RF-SCORE:    0.00 PKD
ROOT
HETATM    1  C   UNL     1      -7.497  17.336  65.039  1.00  0.00     3.257 C  
HETATM    2  C   UNL     1      -8.475  16.884  64.130  1.00  0.00    10.710 C  
HETATM    3  C   UNL     1      -9.061  17.865  65.111  1.00  0.00     2.484 C  
HETATM    4  C   UNL     1      -7.735  19.004  66.205  1.00  0.00    -0.278 C  
HETATM    5  C   UNL     1      -8.117  19.127  64.896  1.00  0.00     2.393 C  
HETATM    6  C   UNL     1      -7.224  20.562  66.293  1.00  0.00    -0.219 C  
HETATM    7  C   UNL     1      -9.614  19.704  65.955  1.00  0.00    -0.272 C  
HETATM    8  C   UNL     1      -7.729  19.896  63.656  1.00  0.00     4.543 C  
HETATM    9  C   UNL     1      -6.295  20.638  67.485  1.00  0.00    -0.322 C  
HETATM   10  C   UNL     1      -5.930  19.214  67.630  1.00  0.00    -0.199 C  
HETATM   11  C   UNL     1      -9.683  18.767  67.475  1.00  0.00    -0.343 C  
HETATM   12  C   UNL     1      -9.191  17.117  67.579  1.00  0.00    -0.233 C  
HETATM   13  O   UNL     1      -6.408  18.525  66.550  1.00  0.00    -0.174 OA 
HETATM   14  O   UNL     1      -5.253  18.739  68.523  1.00  0.00    -0.185 OA 
HETATM   15  C   UNL     1      -7.887  16.540  66.661  1.00  0.00    -0.321 C  
HETATM   16  C   UNL     1      -7.874  14.975  66.649  1.00  0.00     0.298 C  
HETATM   17  C   UNL     1      -8.138  17.226  69.936  1.00  0.00     1.518 C  
HETATM   18  C   UNL     1      -7.644  14.539  68.114  1.00  0.00    -0.125 C  
HETATM   19  C   UNL     1      -8.739  15.004  69.060  1.00  0.00    -0.203 C  
HETATM   20  C   UNL     1      -9.169  16.502  69.046  1.00  0.00    -0.237 C  
HETATM   21  C   UNL     1     -10.598  16.717  69.679  1.00  0.00    -0.274 C  
HETATM   22  C   UNL     1      -9.233  14.111  69.939  1.00  0.00     1.319 C  
HETATM   23  C   UNL     1     -11.306  15.472  70.195  1.00  0.00    -0.339 C  
HETATM   24  C   UNL     1     -10.316  14.549  70.831  1.00  0.00     1.365 C  
HETATM   25  O   UNL     1     -10.411  14.120  71.973  1.00  0.00     3.236 OA 
ENDROOT
BRANCH  16  26
HETATM   26  S   UNL     1      -9.412  14.157  66.025  1.00  0.00    -0.085 SA 
BRANCH  26  27
HETATM   27  C   UNL     1     -10.627  15.327  66.524  1.00  0.00    -0.304 C  
HETATM   28  C   UNL     1     -11.510  14.862  67.646  1.00  0.00    -0.366 C  
HETATM   29  O   UNL     1     -10.708  16.437  66.017  1.00  0.00    -0.284 OA 
ENDBRANCH  26  27
ENDBRANCH  16  26
TORSDOF 2
ENDMDL
MODEL      125
REMARK 921   NORMALIZED FREE ENERGY PREDICTED BY IDOCK:   31.76 KCAL/MOL
REMARK 922        TOTAL FREE ENERGY PREDICTED BY IDOCK:   34.89 KCAL/MOL
REMARK 923 INTER-LIGAND FREE ENERGY PREDICTED BY IDOCK:   34.66 KCAL/MOL
REMARK 924 INTRA-LIGAND FREE ENERGY PREDICTED BY IDOCK:    0.23 KCAL/MOL
REMARK 927      BINDING AFFINITY PREDICTED BY RF-SCORE:    0.00 PKD
ROOT
HETATM    1  C   UNL     1     -10.487  17.425  66.149  1.00  0.00    -0.284 C  
HETATM    2  C   UNL     1      -9.700  16.325  65.749  1.00  0.00    -0.299 C  
HETATM    3  C   UNL     1      -9.993  16.271  67.226  1.00  0.00    -0.250 C  
HETATM    4  C   UNL     1     -11.502  17.489  67.929  1.00  0.00     0.650 C  
HETATM    5  C   UNL     1     -11.583  16.312  67.232  1.00  0.00     0.461 C  
HETATM    6  C   UNL     1     -13.031  17.351  68.511  1.00  0.00     6.106 C  
HETATM    7  C   UNL     1     -11.013  15.853  69.010  1.00  0.00    -0.277 C  
HETATM    8  C   UNL     1     -12.616  15.465  66.530  1.00  0.00     1.472 C  
HETATM    9  C   UNL     1     -13.444  18.737  68.954  1.00  0.00    15.796 C  
HETATM   10  C   UNL     1     -12.493  19.559  68.177  1.00  0.00     5.319 C  
HETATM   11  C   UNL     1      -9.986  17.156  69.676  1.00  0.00     0.176 C  
HETATM   12  C   UNL     1      -8.934  18.110  68.697  1.00  0.00    -0.289 C  
HETATM   13  O   UNL     1     -11.833  18.752  67.293  1.00  0.00     1.226 OA 
HETATM   14  O   UNL     1     -12.366  20.768  68.256  1.00  0.00     3.973 OA 
HETATM   15  C   UNL     1      -9.371  18.538  67.115  1.00  0.00    -0.280 C  
HETATM   16  C   UNL     1      -8.128  19.072  66.329  1.00  0.00    -0.285 C  
HETATM   17  C   UNL     1      -9.264  20.354  69.936  1.00  0.00     1.167 C  
HETATM   18  C   UNL     1      -7.683  20.361  67.056  1.00  0.00    -0.362 C  
HETATM   19  C   UNL     1      -7.275  20.127  68.502  1.00  0.00    -0.236 C  
HETATM   20  C   UNL     1      -8.225  19.326  69.440  1.00  0.00     0.060 C  
HETATM   21  C   UNL     1      -7.472  18.746  70.699  1.00  0.00     2.426 C  
HETATM   22  C   UNL     1      -6.137  20.703  68.935  1.00  0.00    -0.357 C  
HETATM   23  C   UNL     1      -5.985  19.058  70.801  1.00  0.00     0.027 C  
HETATM   24  C   UNL     1      -5.721  20.449  70.322  1.00  0.00    -0.329 C  
HETATM   25  O   UNL     1      -5.144  21.305  70.979  1.00  0.00    -0.548 OA 
ENDROOT
BRANCH  16  26
HETATM   26  S   UNL     1      -6.680  17.924  66.227  1.00  0.00    -0.287 SA 
BRANCH  26  27
HETATM   27  C   UNL     1      -5.796  18.635  64.883  1.00  0.00    -0.236 C  
HETATM   28  C   UNL     1      -5.797  20.136  64.867  1.00  0.00    -0.260 C  
HETATM   29  O   UNL     1      -5.202  17.951  64.061  1.00  0.00     0.381 OA 
ENDBRANCH  26  27
ENDBRANCH  16  26
TORSDOF 2
ENDMDL
MODEL      126
REMARK 921   NORMALIZED FREE ENERGY PREDICTED BY IDOCK:   33.90 KCAL/MOL
REMARK 922        TOTAL FREE ENERGY PREDICTED BY IDOCK:   37.28 KCAL/MOL
REMARK 923 INTER-LIGAND FREE ENERGY PREDICTED BY IDOCK:   34.11 KCAL/MOL
REMARK 924 INTRA-LIGAND FREE ENERGY PREDICTED BY IDOCK:    3.18 KCAL/MOL
REMARK 927      BINDING AFFINITY PREDICTED BY RF-SCORE:    0.00 PKD
ROOT
HETATM    1  C   UNL     1      -8.860  17.245  68.968  1.00  0.00    -0.081 C  
HETATM    2  C   UNL     1      -7.715  16.442  69.152  1.00  0.00    -0.220 C  
HETATM    3  C   UNL     1      -8.774  15.703  68.377  1.00  0.00    -0.178 C  
HETATM    4  C   UNL     1     -10.312  16.825  67.584  1.00  0.00    -0.309 C  
HETATM    5  C   UNL     1      -9.018  16.693  67.155  1.00  0.00    -0.225 C  
HETATM    6  C   UNL     1     -10.837  17.337  66.115  1.00  0.00     0.030 C  
HETATM    7  C   UNL     1      -9.900  15.036  66.738  1.00  0.00    -0.252 C  
HETATM    8  C   UNL     1      -8.071  17.315  66.158  1.00  0.00    -0.272 C  
HETATM    9  C   UNL     1     -12.160  18.032  66.356  1.00  0.00     4.265 C  
HETATM   10  C   UNL     1     -12.041  18.340  67.796  1.00  0.00     3.245 C  
HETATM   11  C   UNL     1     -11.134  14.673  67.979  1.00  0.00    -0.291 C  
HETATM   12  C   UNL     1     -10.947  15.108  69.638  1.00  0.00    -0.291 C  
HETATM   13  O   UNL     1     -10.767  18.057  68.203  1.00  0.00    -0.355 OA 
HETATM   14  O   UNL     1     -12.909  18.832  68.493  1.00  0.00     6.360 OA 
HETATM   15  C   UNL     1     -10.166  16.549  70.075  1.00  0.00     0.148 C  
HETATM   16  C   UNL     1      -9.804  16.536  71.597  1.00  0.00     5.024 C  
HETATM   17  C   UNL     1     -13.416  15.710  70.107  1.00  0.00     0.713 C  
HETATM   18  C   UNL     1     -11.150  16.485  72.356  1.00  0.00     1.109 C  
HETATM   19  C   UNL     1     -11.970  15.243  72.045  1.00  0.00    -0.488 C  
HETATM   20  C   UNL     1     -12.218  14.848  70.559  1.00  0.00    -0.388 C  
HETATM   21  C   UNL     1     -12.622  13.331  70.404  1.00  0.00    -0.211 C  
HETATM   22  C   UNL     1     -12.524  14.580  73.079  1.00  0.00    -0.351 C  
HETATM   23  C   UNL     1     -12.712  12.519  71.689  1.00  0.00    -0.297 C  
HETATM   24  C   UNL     1     -13.287  13.358  72.784  1.00  0.00    -0.209 C  
HETATM   25  O   UNL     1     -14.268  13.047  73.446  1.00  0.00     1.452 OA 
ENDROOT
BRANCH  16  26
HETATM   26  S   UNL     1      -8.752  15.125  72.168  1.00  0.00     7.703 SA 
BRANCH  26  27
HETATM   27  C   UNL     1      -7.151  15.727  71.759  1.00  0.00     4.171 C  
HETATM   28  C   UNL     1      -6.595  15.184  70.474  1.00  0.00     0.139 C  
HETATM   29  O   UNL     1      -6.569  16.549  72.453  1.00  0.00     4.168 OA 
ENDBRANCH  26  27
ENDBRANCH  16  26
TORSDOF 2
ENDMDL
MODEL      127
REMARK 921   NORMALIZED FREE ENERGY PREDICTED BY IDOCK:   34.34 KCAL/MOL
REMARK 922        TOTAL FREE ENERGY PREDICTED BY IDOCK:   37.78 KCAL/MOL
REMARK 923 INTER-LIGAND FREE ENERGY PREDICTED BY IDOCK:   38.20 KCAL/MOL
REMARK 924 INTRA-LIGAND FREE ENERGY PREDICTED BY IDOCK:   -0.43 KCAL/MOL
REMARK 927      BINDING AFFINITY PREDICTED BY RF-SCORE:    0.00 PKD
ROOT
HETATM    1  C   UNL     1      -7.574  13.080  66.844  1.00  0.00     0.248 C  
HETATM    2  C   UNL     1      -6.900  13.902  67.770  1.00  0.00    -0.184 C  
HETATM    3  C   UNL     1      -8.221  13.434  68.324  1.00  0.00    -0.160 C  
HETATM    4  C   UNL     1      -9.138  11.859  67.359  1.00  0.00    -0.178 C  
HETATM    5  C   UNL     1      -8.066  11.855  68.212  1.00  0.00    -0.154 C  
HETATM    6  C   UNL     1      -9.462  10.271  67.619  1.00  0.00    -0.169 C  
HETATM    7  C   UNL     1      -9.618  12.206  69.291  1.00  0.00     0.649 C  
HETATM    8  C   UNL     1      -7.001  10.909  68.709  1.00  0.00    -0.078 C  
HETATM    9  C   UNL     1     -10.318   9.816  66.458  1.00  0.00    -0.262 C  
HETATM   10  C   UNL     1      -9.991  10.858  65.462  1.00  0.00    -0.260 C  
HETATM   11  C   UNL     1     -10.810  13.153  68.355  1.00  0.00    -0.283 C  
HETATM   12  C   UNL     1     -10.353  14.320  67.169  1.00  0.00    -0.262 C  
HETATM   13  O   UNL     1      -8.957  11.614  65.939  1.00  0.00    -0.192 OA 
HETATM   14  O   UNL     1     -10.506  10.982  64.365  1.00  0.00    -0.336 OA 
HETATM   15  C   UNL     1      -8.987  14.079  66.194  1.00  0.00     0.179 C  
HETATM   16  C   UNL     1      -8.581  15.410  65.479  1.00  0.00     1.573 C  
HETATM   17  C   UNL     1     -12.261  13.858  65.488  1.00  0.00    -0.467 C  
HETATM   18  C   UNL     1      -9.762  15.771  64.549  1.00  0.00     2.178 C  
HETATM   19  C   UNL     1     -11.067  16.003  65.293  1.00  0.00    -0.219 C  
HETATM   20  C   UNL     1     -11.551  14.942  66.326  1.00  0.00    -0.233 C  
HETATM   21  C   UNL     1     -12.599  15.536  67.345  1.00  0.00     1.674 C  
HETATM   22  C   UNL     1     -11.798  17.084  64.960  1.00  0.00     1.843 C  
HETATM   23  C   UNL     1     -12.967  17.001  67.160  1.00  0.00     6.182 C  
HETATM   24  C   UNL     1     -13.042  17.329  65.704  1.00  0.00     9.825 C  
HETATM   25  O   UNL     1     -14.019  17.828  65.160  1.00  0.00    12.498 OA 
ENDROOT
BRANCH  16  26
HETATM   26  S   UNL     1      -8.240  16.853  66.586  1.00  0.00    -0.285 SA 
BRANCH  26  27
HETATM   27  C   UNL     1      -7.475  17.958  65.452  1.00  0.00     0.714 C  
HETATM   28  C   UNL     1      -6.442  17.321  64.568  1.00  0.00     4.674 C  
HETATM   29  O   UNL     1      -7.797  19.135  65.375  1.00  0.00    -0.310 OA 
ENDBRANCH  26  27
ENDBRANCH  16  26
TORSDOF 2
ENDMDL
MODEL      128
REMARK 921   NORMALIZED FREE ENERGY PREDICTED BY IDOCK:   43.28 KCAL/MOL
REMARK 922        TOTAL FREE ENERGY PREDICTED BY IDOCK:   47.77 KCAL/MOL
REMARK 923 INTER-LIGAND FREE ENERGY PREDICTED BY IDOCK:   47.92 KCAL/MOL
REMARK 924 INTRA-LIGAND FREE ENERGY PREDICTED BY IDOCK:   -0.15 KCAL/MOL
REMARK 927      BINDING AFFINITY PREDICTED BY RF-SCORE:    0.00 PKD
ROOT
HETATM    1  C   UNL     1     -11.385   9.009  67.720  1.00  0.00     0.765 C  
HETATM    2  C   UNL     1     -11.197   7.694  67.248  1.00  0.00     0.363 C  
HETATM    3  C   UNL     1     -11.657   7.693  68.683  1.00  0.00     1.079 C  
HETATM    4  C   UNL     1     -12.448   9.451  69.417  1.00  0.00     1.776 C  
HETATM    5  C   UNL     1     -13.010   8.524  68.580  1.00  0.00     9.236 C  
HETATM    6  C   UNL     1     -13.905  10.057  69.867  1.00  0.00     1.871 C  
HETATM    7  C   UNL     1     -12.960   7.721  70.326  1.00  0.00     1.103 C  
HETATM    8  C   UNL     1     -14.230   8.358  67.708  1.00  0.00    24.950 C  
HETATM    9  C   UNL     1     -13.635  11.431  70.442  1.00  0.00     1.547 C  
HETATM   10  C   UNL     1     -12.316  11.717  69.840  1.00  0.00    -0.132 C  
HETATM   11  C   UNL     1     -11.518   8.286  71.216  1.00  0.00    -0.314 C  
HETATM   12  C   UNL     1     -10.022   8.649  70.437  1.00  0.00    -0.212 C  
HETATM   13  O   UNL     1     -12.035  10.751  68.915  1.00  0.00    -0.373 OA 
HETATM   14  O   UNL     1     -11.623  12.691  70.073  1.00  0.00    -0.239 OA 
HETATM   15  C   UNL     1      -9.994   9.345  68.891  1.00  0.00    -0.188 C  
HETATM   16  C   UNL     1      -8.564   9.237  68.266  1.00  0.00    -0.125 C  
HETATM   17  C   UNL     1      -9.357  10.666  71.910  1.00  0.00     7.890 C  
HETATM   18  C   UNL     1      -7.637  10.077  69.173  1.00  0.00    -0.096 C  
HETATM   19  C   UNL     1      -7.576   9.572  70.606  1.00  0.00    -0.145 C  
HETATM   20  C   UNL     1      -8.905   9.293  71.370  1.00  0.00     0.030 C  
HETATM   21  C   UNL     1      -8.693   8.329  72.601  1.00  0.00    -0.291 C  
HETATM   22  C   UNL     1      -6.365   9.470  71.186  1.00  0.00    -0.054 C  
HETATM   23  C   UNL     1      -7.271   7.847  72.848  1.00  0.00    -0.109 C  
HETATM   24  C   UNL     1      -6.301   8.947  72.559  1.00  0.00     0.026 C  
HETATM   25  O   UNL     1      -5.464   9.353  73.354  1.00  0.00    -0.202 OA 
ENDROOT
BRANCH  16  26
HETATM   26  S   UNL     1      -7.866   7.529  68.131  1.00  0.00    -0.123 SA 
BRANCH  26  27
HETATM   27  C   UNL     1      -6.190   7.892  67.744  1.00  0.00    -0.051 C  
HETATM   28  C   UNL     1      -5.946   8.220  66.299  1.00  0.00    -0.041 C  
HETATM   29  O   UNL     1      -5.315   7.911  68.598  1.00  0.00    -0.026 OA 
ENDBRANCH  26  27
ENDBRANCH  16  26
TORSDOF 2
ENDMDL
MODEL      129
REMARK 921   NORMALIZED FREE ENERGY PREDICTED BY IDOCK:   45.29 KCAL/MOL
REMARK 922        TOTAL FREE ENERGY PREDICTED BY IDOCK:   50.01 KCAL/MOL
REMARK 923 INTER-LIGAND FREE ENERGY PREDICTED BY IDOCK:   50.45 KCAL/MOL
REMARK 924 INTRA-LIGAND FREE ENERGY PREDICTED BY IDOCK:   -0.44 KCAL/MOL
REMARK 927      BINDING AFFINITY PREDICTED BY RF-SCORE:    0.00 PKD
ROOT
HETATM    1  C   UNL     1     -11.303  13.082  66.287  1.00  0.00    -0.354 C  
HETATM    2  C   UNL     1     -12.589  12.749  65.814  1.00  0.00    -0.075 C  
HETATM    3  C   UNL     1     -12.624  14.014  66.632  1.00  0.00    -0.146 C  
HETATM    4  C   UNL     1     -10.819  14.938  67.010  1.00  0.00    -0.315 C  
HETATM    5  C   UNL     1     -11.564  14.916  65.861  1.00  0.00    -0.228 C  
HETATM    6  C   UNL     1     -10.006  16.291  66.561  1.00  0.00    -0.290 C  
HETATM    7  C   UNL     1     -12.500  16.055  67.095  1.00  0.00     2.148 C  
HETATM    8  C   UNL     1     -11.445  15.313  64.410  1.00  0.00    -0.244 C  
HETATM    9  C   UNL     1      -8.751  16.333  67.406  1.00  0.00    -0.196 C  
HETATM   10  C   UNL     1      -8.652  14.914  67.806  1.00  0.00    -0.167 C  
HETATM   11  C   UNL     1     -12.269  15.466  68.766  1.00  0.00    -0.061 C  
HETATM   12  C   UNL     1     -12.110  13.792  69.153  1.00  0.00    -0.374 C  
HETATM   13  O   UNL     1      -9.575  14.193  67.103  1.00  0.00    -0.229 OA 
HETATM   14  O   UNL     1      -7.836  14.448  68.580  1.00  0.00    -0.131 OA 
HETATM   15  C   UNL     1     -11.309  12.730  68.102  1.00  0.00    -0.329 C  
HETATM   16  C   UNL     1     -11.614  11.244  68.486  1.00  0.00    -0.315 C  
HETATM   17  C   UNL     1     -10.365  14.047  71.041  1.00  0.00     3.036 C  
HETATM   18  C   UNL     1     -11.023  11.038  69.899  1.00  0.00    -0.218 C  
HETATM   19  C   UNL     1     -11.644  11.944  70.950  1.00  0.00     0.707 C  
HETATM   20  C   UNL     1     -11.748  13.473  70.669  1.00  0.00    -0.054 C  
HETATM   21  C   UNL     1     -12.828  14.175  71.579  1.00  0.00    -0.430 C  
HETATM   22  C   UNL     1     -12.002  11.392  72.125  1.00  0.00     2.137 C  
HETATM   23  C   UNL     1     -13.570  13.280  72.563  1.00  0.00    -0.637 C  
HETATM   24  C   UNL     1     -12.636  12.259  73.129  1.00  0.00     4.508 C  
HETATM   25  O   UNL     1     -12.447  12.088  74.326  1.00  0.00    11.166 OA 
ENDROOT
BRANCH  16  26
HETATM   26  S   UNL     1     -13.402  10.767  68.519  1.00  0.00     6.744 SA 
BRANCH  26  27
HETATM   27  C   UNL     1     -13.272   9.015  68.453  1.00  0.00    10.881 C  
HETATM   28  C   UNL     1     -13.625   8.319  69.737  1.00  0.00     4.095 C  
HETATM   29  O   UNL     1     -12.957   8.424  67.430  1.00  0.00     9.817 OA 
ENDBRANCH  26  27
ENDBRANCH  16  26
TORSDOF 2
ENDMDL
MODEL      130
REMARK 921   NORMALIZED FREE ENERGY PREDICTED BY IDOCK:   50.83 KCAL/MOL
REMARK 922        TOTAL FREE ENERGY PREDICTED BY IDOCK:   56.19 KCAL/MOL
REMARK 923 INTER-LIGAND FREE ENERGY PREDICTED BY IDOCK:   35.35 KCAL/MOL
REMARK 924 INTRA-LIGAND FREE ENERGY PREDICTED BY IDOCK:   20.85 KCAL/MOL
REMARK 927      BINDING AFFINITY PREDICTED BY RF-SCORE:    0.00 PKD
ROOT
HETATM    1  C   UNL     1      -7.893  15.529  66.394  1.00  0.00     0.288 C  
HETATM    2  C   UNL     1      -7.369  15.603  65.086  1.00  0.00     7.762 C  
HETATM    3  C   UNL     1      -8.728  16.249  65.162  1.00  0.00     2.378 C  
HETATM    4  C   UNL     1      -9.458  16.683  67.042  1.00  0.00    -0.230 C  
HETATM    5  C   UNL     1      -8.499  17.329  66.308  1.00  0.00    -0.278 C  
HETATM    6  C   UNL     1      -9.749  17.997  67.981  1.00  0.00    -0.309 C  
HETATM    7  C   UNL     1     -10.184  17.727  65.471  1.00  0.00     0.138 C  
HETATM    8  C   UNL     1      -7.465  18.415  66.476  1.00  0.00    -0.265 C  
HETATM    9  C   UNL     1     -10.438  17.485  69.227  1.00  0.00    -0.100 C  
HETATM   10  C   UNL     1     -10.034  16.064  69.190  1.00  0.00    -0.246 C  
HETATM   11  C   UNL     1     -11.290  16.332  65.632  1.00  0.00     0.318 C  
HETATM   12  C   UNL     1     -10.738  14.698  65.631  1.00  0.00    -0.340 C  
HETATM   13  O   UNL     1      -9.096  15.898  68.209  1.00  0.00    -0.181 OA 
HETATM   14  O   UNL     1     -10.416  15.195  69.953  1.00  0.00    -0.255 OA 
HETATM   15  C   UNL     1      -9.255  14.280  66.339  1.00  0.00    -0.226 C  
HETATM   16  C   UNL     1      -8.818  12.846  65.893  1.00  0.00     0.564 C  
HETATM   17  C   UNL     1     -12.406  13.777  67.376  1.00  0.00    -0.156 C  
HETATM   18  C   UNL     1      -9.889  11.881  66.450  1.00  0.00    -0.234 C  
HETATM   19  C   UNL     1     -11.284  12.151  65.907  1.00  0.00    -0.384 C  
HETATM   20  C   UNL     1     -11.848  13.602  65.949  1.00  0.00    -0.406 C  
HETATM   21  C   UNL     1     -13.034  13.810  64.930  1.00  0.00    -0.118 C  
HETATM   22  C   UNL     1     -12.011  11.097  65.489  1.00  0.00     1.291 C  
HETATM   23  C   UNL     1     -13.436  12.599  64.101  1.00  0.00     0.841 C  
HETATM   24  C   UNL     1     -13.345  11.359  64.931  1.00  0.00     3.944 C  
HETATM   25  O   UNL     1     -14.268  10.570  65.092  1.00  0.00    10.316 OA 
ENDROOT
BRANCH  16  26
HETATM   26  S   UNL     1      -8.672  12.574  64.069  1.00  0.00     2.940 SA 
BRANCH  26  27
HETATM   27  C   UNL     1     -10.138  13.363  63.504  1.00  0.00     1.895 C  
HETATM   28  C   UNL     1     -11.327  13.174  64.401  1.00  0.00    -0.400 C  
HETATM   29  O   UNL     1     -10.162  14.038  62.485  1.00  0.00     6.797 OA 
ENDBRANCH  26  27
ENDBRANCH  16  26
TORSDOF 2
ENDMDL
MODEL      131
REMARK 921   NORMALIZED FREE ENERGY PREDICTED BY IDOCK:   51.18 KCAL/MOL
REMARK 922        TOTAL FREE ENERGY PREDICTED BY IDOCK:   56.59 KCAL/MOL
REMARK 923 INTER-LIGAND FREE ENERGY PREDICTED BY IDOCK:   46.94 KCAL/MOL
REMARK 924 INTRA-LIGAND FREE ENERGY PREDICTED BY IDOCK:    9.65 KCAL/MOL
REMARK 927      BINDING AFFINITY PREDICTED BY RF-SCORE:    0.00 PKD
ROOT
HETATM    1  C   UNL     1     -12.179  17.006  70.017  1.00  0.00     3.120 C  
HETATM    2  C   UNL     1     -12.623  16.672  71.313  1.00  0.00     1.894 C  
HETATM    3  C   UNL     1     -11.288  16.038  71.018  1.00  0.00    -0.423 C  
HETATM    4  C   UNL     1     -10.239  16.768  69.400  1.00  0.00    -0.225 C  
HETATM    5  C   UNL     1     -10.411  17.312  70.645  1.00  0.00     1.582 C  
HETATM    6  C   UNL     1      -8.895  17.662  69.100  1.00  0.00     0.118 C  
HETATM    7  C   UNL     1      -9.207  15.829  70.861  1.00  0.00     2.416 C  
HETATM    8  C   UNL     1     -10.152  18.607  71.376  1.00  0.00     3.759 C  
HETATM    9  C   UNL     1      -8.705  17.654  67.599  1.00  0.00    -0.232 C  
HETATM   10  C   UNL     1     -10.071  17.300  67.159  1.00  0.00    -0.297 C  
HETATM   11  C   UNL     1      -9.618  14.535  69.700  1.00  0.00     0.350 C  
HETATM   12  C   UNL     1     -11.236  14.213  69.194  1.00  0.00    -0.307 C  
HETATM   13  O   UNL     1     -10.905  17.338  68.242  1.00  0.00    -0.365 OA 
HETATM   14  O   UNL     1     -10.417  17.082  66.012  1.00  0.00    -0.333 OA 
HETATM   15  C   UNL     1     -12.352  15.474  68.997  1.00  0.00    -0.016 C  
HETATM   16  C   UNL     1     -13.808  14.908  68.897  1.00  0.00     5.570 C  
HETATM   17  C   UNL     1     -10.708  13.618  66.735  1.00  0.00    -0.272 C  
HETATM   18  C   UNL     1     -13.844  14.047  67.614  1.00  0.00     8.341 C  
HETATM   19  C   UNL     1     -12.873  12.877  67.645  1.00  0.00     1.984 C  
HETATM   20  C   UNL     1     -11.386  13.133  68.034  1.00  0.00    -0.327 C  
HETATM   21  C   UNL     1     -10.657  11.816  68.504  1.00  0.00    -0.242 C  
HETATM   22  C   UNL     1     -13.326  11.673  67.248  1.00  0.00     7.826 C  
HETATM   23  C   UNL     1     -11.489  10.542  68.497  1.00  0.00    -0.284 C  
HETATM   24  C   UNL     1     -12.400  10.533  67.312  1.00  0.00     3.714 C  
HETATM   25  O   UNL     1     -12.444   9.632  66.485  1.00  0.00     6.304 OA 
ENDROOT
BRANCH  16  26
HETATM   26  S   UNL     1     -14.372  13.868  70.320  1.00  0.00     4.059 SA 
BRANCH  26  27
HETATM   27  C   UNL     1     -13.453  14.590  71.634  1.00  0.00    -0.373 C  
HETATM   28  C   UNL     1     -13.924  15.956  72.042  1.00  0.00    -0.151 C  
HETATM   29  O   UNL     1     -12.534  14.000  72.186  1.00  0.00    -0.244 OA 
ENDBRANCH  26  27
ENDBRANCH  16  26
TORSDOF 2
ENDMDL
MODEL      132
REMARK 921   NORMALIZED FREE ENERGY PREDICTED BY IDOCK:   52.88 KCAL/MOL
REMARK 922        TOTAL FREE ENERGY PREDICTED BY IDOCK:   58.48 KCAL/MOL
REMARK 923 INTER-LIGAND FREE ENERGY PREDICTED BY IDOCK:   49.97 KCAL/MOL
REMARK 924 INTRA-LIGAND FREE ENERGY PREDICTED BY IDOCK:    8.51 KCAL/MOL
REMARK 927      BINDING AFFINITY PREDICTED BY RF-SCORE:    0.00 PKD
ROOT
HETATM    1  C   UNL     1      -9.690  16.691  66.080  1.00  0.00    -0.329 C  
HETATM    2  C   UNL     1     -10.912  16.008  66.255  1.00  0.00    -0.071 C  
HETATM    3  C   UNL     1     -10.898  17.299  67.030  1.00  0.00    -0.045 C  
HETATM    4  C   UNL     1      -9.435  18.670  66.547  1.00  0.00    -0.322 C  
HETATM    5  C   UNL     1     -10.589  18.354  65.880  1.00  0.00    -0.313 C  
HETATM    6  C   UNL     1      -9.306  20.131  65.809  1.00  0.00    -0.069 C  
HETATM    7  C   UNL     1     -11.117  19.344  67.441  1.00  0.00    -0.278 C  
HETATM    8  C   UNL     1     -11.257  18.623  64.554  1.00  0.00     3.752 C  
HETATM    9  C   UNL     1      -7.864  20.562  65.969  1.00  0.00     0.028 C  
HETATM   10  C   UNL     1      -7.224  19.257  66.235  1.00  0.00    -0.250 C  
HETATM   11  C   UNL     1     -10.000  18.996  68.791  1.00  0.00    -0.475 C  
HETATM   12  C   UNL     1      -9.249  17.459  69.010  1.00  0.00    -0.093 C  
HETATM   13  O   UNL     1      -8.141  18.265  66.025  1.00  0.00    -0.470 OA 
HETATM   14  O   UNL     1      -6.054  19.083  66.524  1.00  0.00    -0.165 OA 
HETATM   15  C   UNL     1      -8.771  16.527  67.676  1.00  0.00    -0.195 C  
HETATM   16  C   UNL     1      -8.465  15.057  68.115  1.00  0.00    -0.151 C  
HETATM   17  C   UNL     1      -6.968  18.317  69.869  1.00  0.00     0.415 C  
HETATM   18  C   UNL     1      -7.261  15.142  69.081  1.00  0.00    -0.163 C  
HETATM   19  C   UNL     1      -7.544  15.967  70.326  1.00  0.00     1.168 C  
HETATM   20  C   UNL     1      -8.162  17.389  70.171  1.00  0.00     2.512 C  
HETATM   21  C   UNL     1      -8.847  17.890  71.501  1.00  0.00    10.434 C  
HETATM   22  C   UNL     1      -7.165  15.462  71.515  1.00  0.00     2.838 C  
HETATM   23  C   UNL     1      -8.791  16.941  72.690  1.00  0.00    15.748 C  
HETATM   24  C   UNL     1      -7.470  16.242  72.724  1.00  0.00    11.934 C  
HETATM   25  O   UNL     1      -6.716  16.240  73.688  1.00  0.00     5.356 OA 
ENDROOT
BRANCH  16  26
HETATM   26  S   UNL     1      -9.842  14.162  68.966  1.00  0.00     0.062 SA 
BRANCH  26  27
HETATM   27  C   UNL     1     -11.099  15.391  68.930  1.00  0.00    -0.275 C  
HETATM   28  C   UNL     1     -11.206  16.204  70.188  1.00  0.00    -0.374 C  
HETATM   29  O   UNL     1     -11.794  15.581  67.942  1.00  0.00    -0.240 OA 
ENDBRANCH  26  27
ENDBRANCH  16  26
TORSDOF 2
ENDMDL
MODEL      133
REMARK 921   NORMALIZED FREE ENERGY PREDICTED BY IDOCK:   60.12 KCAL/MOL
REMARK 922        TOTAL FREE ENERGY PREDICTED BY IDOCK:   66.57 KCAL/MOL
REMARK 923 INTER-LIGAND FREE ENERGY PREDICTED BY IDOCK:   66.49 KCAL/MOL
REMARK 924 INTRA-LIGAND FREE ENERGY PREDICTED BY IDOCK:    0.08 KCAL/MOL
REMARK 927      BINDING AFFINITY PREDICTED BY RF-SCORE:    0.00 PKD
ROOT
HETATM    1  C   UNL     1     -11.045  15.971  71.147  1.00  0.00    -0.188 C  
HETATM    2  C   UNL     1     -10.250  16.786  71.978  1.00  0.00     4.844 C  
HETATM    3  C   UNL     1     -10.063  17.148  70.528  1.00  0.00     1.693 C  
HETATM    4  C   UNL     1     -11.462  16.430  69.193  1.00  0.00    -0.188 C  
HETATM    5  C   UNL     1     -11.559  17.463  70.087  1.00  0.00     2.328 C  
HETATM    6  C   UNL     1     -12.694  16.999  68.269  1.00  0.00     3.748 C  
HETATM    7  C   UNL     1     -10.404  18.072  68.677  1.00  0.00    -0.328 C  
HETATM    8  C   UNL     1     -12.604  18.389  70.659  1.00  0.00    15.978 C  
HETATM    9  C   UNL     1     -13.173  15.832  67.434  1.00  0.00     4.350 C  
HETATM   10  C   UNL     1     -12.654  14.702  68.232  1.00  0.00     0.544 C  
HETATM   11  C   UNL     1      -9.450  16.703  68.035  1.00  0.00    -0.224 C  
HETATM   12  C   UNL     1      -8.921  15.390  69.021  1.00  0.00    -0.230 C  
HETATM   13  O   UNL     1     -12.174  15.184  69.418  1.00  0.00    -0.275 OA 
HETATM   14  O   UNL     1     -12.708  13.526  67.922  1.00  0.00     0.381 OA 
HETATM   15  C   UNL     1      -9.885  14.813  70.291  1.00  0.00     0.584 C  
HETATM   16  C   UNL     1      -9.048  13.894  71.241  1.00  0.00     7.477 C  
HETATM   17  C   UNL     1      -9.217  13.513  67.270  1.00  0.00    -0.233 C  
HETATM   18  C   UNL     1      -8.620  12.677  70.390  1.00  0.00     5.618 C  
HETATM   19  C   UNL     1      -7.755  13.051  69.197  1.00  0.00     0.315 C  
HETATM   20  C   UNL     1      -8.227  14.188  68.242  1.00  0.00    -0.148 C  
HETATM   21  C   UNL     1      -7.040  14.786  67.393  1.00  0.00    -0.173 C  
HETATM   22  C   UNL     1      -6.650  12.317  68.966  1.00  0.00    -0.100 C  
HETATM   23  C   UNL     1      -5.666  14.174  67.625  1.00  0.00     0.012 C  
HETATM   24  C   UNL     1      -5.792  12.699  67.834  1.00  0.00    -0.111 C  
HETATM   25  O   UNL     1      -5.191  11.857  67.181  1.00  0.00    -0.092 OA 
ENDROOT
BRANCH  16  26
HETATM   26  S   UNL     1      -7.534  14.658  71.981  1.00  0.00     4.715 SA 
BRANCH  26  27
HETATM   27  C   UNL     1      -7.055  13.401  73.113  1.00  0.00     6.183 C  
HETATM   28  C   UNL     1      -6.420  13.912  74.374  1.00  0.00     1.041 C  
HETATM   29  O   UNL     1      -7.264  12.216  72.895  1.00  0.00     8.967 OA 
ENDBRANCH  26  27
ENDBRANCH  16  26
TORSDOF 2
ENDMDL
MODEL      134
REMARK 921   NORMALIZED FREE ENERGY PREDICTED BY IDOCK:   83.10 KCAL/MOL
REMARK 922        TOTAL FREE ENERGY PREDICTED BY IDOCK:   92.24 KCAL/MOL
REMARK 923 INTER-LIGAND FREE ENERGY PREDICTED BY IDOCK:   92.30 KCAL/MOL
REMARK 924 INTRA-LIGAND FREE ENERGY PREDICTED BY IDOCK:   -0.06 KCAL/MOL
REMARK 927      BINDING AFFINITY PREDICTED BY RF-SCORE:    0.00 PKD
ROOT
HETATM    1  C   UNL     1     -10.922  19.139  70.090  1.00  0.00     2.747 C  
HETATM    2  C   UNL     1     -12.145  18.874  69.439  1.00  0.00     8.449 C  
HETATM    3  C   UNL     1     -11.943  17.947  70.610  1.00  0.00     6.672 C  
HETATM    4  C   UNL     1     -10.484  18.461  71.974  1.00  0.00     3.926 C  
HETATM    5  C   UNL     1     -11.738  18.983  71.800  1.00  0.00     8.712 C  
HETATM    6  C   UNL     1     -10.375  19.013  73.516  1.00  0.00     3.640 C  
HETATM    7  C   UNL     1     -11.977  17.245  72.585  1.00  0.00     1.169 C  
HETATM    8  C   UNL     1     -12.572  20.147  72.276  1.00  0.00    21.604 C  
HETATM    9  C   UNL     1      -8.902  19.016  73.863  1.00  0.00     6.563 C  
HETATM   10  C   UNL     1      -8.309  19.021  72.509  1.00  0.00     8.008 C  
HETATM   11  C   UNL     1     -10.701  16.134  72.010  1.00  0.00     1.522 C  
HETATM   12  C   UNL     1     -10.020  16.233  70.428  1.00  0.00     0.803 C  
HETATM   13  O   UNL     1      -9.305  19.219  71.594  1.00  0.00     3.620 OA 
HETATM   14  O   UNL     1      -7.122  18.937  72.251  1.00  0.00     3.341 OA 
HETATM   15  C   UNL     1      -9.795  17.734  69.672  1.00  0.00     0.398 C  
HETATM   16  C   UNL     1      -9.518  17.542  68.144  1.00  0.00    -0.291 C  
HETATM   17  C   UNL     1      -7.592  15.622  71.068  1.00  0.00     2.660 C  
HETATM   18  C   UNL     1      -8.185  16.765  68.046  1.00  0.00    -0.192 C  
HETATM   19  C   UNL     1      -8.237  15.395  68.702  1.00  0.00    -0.158 C  
HETATM   20  C   UNL     1      -8.785  15.268  70.155  1.00  0.00     0.567 C  
HETATM   21  C   UNL     1      -9.240  13.796  70.494  1.00  0.00     4.142 C  
HETATM   22  C   UNL     1      -7.722  14.352  68.023  1.00  0.00    -0.140 C  
HETATM   23  C   UNL     1      -9.071  12.763  69.390  1.00  0.00     1.269 C  
HETATM   24  C   UNL     1      -7.804  13.020  68.639  1.00  0.00    -0.050 C  
HETATM   25  O   UNL     1      -6.921  12.188  68.474  1.00  0.00    -0.078 OA 
ENDROOT
BRANCH  16  26
HETATM   26  S   UNL     1     -10.810  16.618  67.196  1.00  0.00    -0.041 SA 
BRANCH  26  27
HETATM   27  C   UNL     1     -11.183  17.783  65.933  1.00  0.00     0.816 C  
HETATM   28  C   UNL     1     -12.032  18.936  66.386  1.00  0.00     3.161 C  
HETATM   29  O   UNL     1     -10.747  17.671  64.796  1.00  0.00    -0.540 OA 
ENDBRANCH  26  27
ENDBRANCH  16  26
TORSDOF 2
ENDMDL
MODEL      135
REMARK 921   NORMALIZED FREE ENERGY PREDICTED BY IDOCK:   83.72 KCAL/MOL
REMARK 922        TOTAL FREE ENERGY PREDICTED BY IDOCK:   92.93 KCAL/MOL
REMARK 923 INTER-LIGAND FREE ENERGY PREDICTED BY IDOCK:   93.25 KCAL/MOL
REMARK 924 INTRA-LIGAND FREE ENERGY PREDICTED BY IDOCK:   -0.32 KCAL/MOL
REMARK 927      BINDING AFFINITY PREDICTED BY RF-SCORE:    0.00 PKD
ROOT
HETATM    1  C   UNL     1     -11.109  17.135  71.037  1.00  0.00     1.044 C  
HETATM    2  C   UNL     1     -10.362  17.936  71.925  1.00  0.00     4.528 C  
HETATM    3  C   UNL     1     -10.432  18.565  70.557  1.00  0.00     1.972 C  
HETATM    4  C   UNL     1     -11.851  17.826  69.256  1.00  0.00     3.688 C  
HETATM    5  C   UNL     1     -12.004  18.657  70.334  1.00  0.00     9.868 C  
HETATM    6  C   UNL     1     -13.272  18.296  68.582  1.00  0.00    11.265 C  
HETATM    7  C   UNL     1     -11.165  19.703  68.956  1.00  0.00     2.010 C  
HETATM    8  C   UNL     1     -13.107  19.258  71.170  1.00  0.00    26.046 C  
HETATM    9  C   UNL     1     -13.651  17.215  67.592  1.00  0.00     8.262 C  
HETATM   10  C   UNL     1     -12.847  16.088  68.108  1.00  0.00     2.454 C  
HETATM   11  C   UNL     1     -10.085  18.669  67.977  1.00  0.00    -0.413 C  
HETATM   12  C   UNL     1      -9.215  17.336  68.641  1.00  0.00    -0.266 C  
HETATM   13  O   UNL     1     -12.305  16.448  69.311  1.00  0.00     0.104 OA 
HETATM   14  O   UNL     1     -12.740  14.992  67.588  1.00  0.00     0.684 OA 
HETATM   15  C   UNL     1      -9.891  16.381  69.868  1.00  0.00     0.227 C  
HETATM   16  C   UNL     1      -8.792  15.492  70.541  1.00  0.00     1.486 C  
HETATM   17  C   UNL     1      -9.415  15.757  66.605  1.00  0.00    -0.279 C  
HETATM   18  C   UNL     1      -8.279  14.540  69.437  1.00  0.00     0.135 C  
HETATM   19  C   UNL     1      -7.655  15.267  68.256  1.00  0.00    -0.112 C  
HETATM   20  C   UNL     1      -8.435  16.436  67.584  1.00  0.00    -0.178 C  
HETATM   21  C   UNL     1      -7.489  17.383  66.751  1.00  0.00    -0.257 C  
HETATM   22  C   UNL     1      -6.480  14.807  67.784  1.00  0.00    -0.183 C  
HETATM   23  C   UNL     1      -6.012  17.015  66.726  1.00  0.00    -0.227 C  
HETATM   24  C   UNL     1      -5.857  15.530  66.665  1.00  0.00     1.560 C  
HETATM   25  O   UNL     1      -5.212  14.940  65.808  1.00  0.00     5.376 OA 
ENDROOT
BRANCH  16  26
HETATM   26  S   UNL     1      -7.347  16.397  71.258  1.00  0.00     5.361 SA 
BRANCH  26  27
HETATM   27  C   UNL     1      -6.931  15.336  72.597  1.00  0.00     4.174 C  
HETATM   28  C   UNL     1      -5.507  15.452  73.060  1.00  0.00     0.718 C  
HETATM   29  O   UNL     1      -7.754  14.600  73.123  1.00  0.00     4.203 OA 
ENDBRANCH  26  27
ENDBRANCH  16  26
TORSDOF 2
ENDMDL
