MODEL        1
REMARK 921   NORMALIZED FREE ENERGY PREDICTED BY IDOCK:   -6.27 KCAL/MOL
REMARK 922        TOTAL FREE ENERGY PREDICTED BY IDOCK:   -7.35 KCAL/MOL
REMARK 923 INTER-LIGAND FREE ENERGY PREDICTED BY IDOCK:   -7.01 KCAL/MOL
REMARK 924 INTRA-LIGAND FREE ENERGY PREDICTED BY IDOCK:   -0.34 KCAL/MOL
REMARK 927      BINDING AFFINITY PREDICTED BY RF-SCORE:    0.00 PKD
ROOT
HETATM    1  C   UNL     1      -9.352  16.370  65.964  1.00  0.00    -0.335 C  
HETATM    2  C   UNL     1     -10.313  15.275  65.634  1.00  0.00    -0.389 C  
HETATM    3  C   UNL     1     -10.300  14.064  66.203  1.00  0.00    -0.297 C  
HETATM    4  N   UNL     1     -11.187  13.054  65.868  1.00  0.00    -0.284 N  
HETATM    5  O   UNL     1     -11.455  16.641  64.072  1.00  0.00    -1.192 OA 
HETATM    6  C   UNL     1     -12.211  13.287  64.956  1.00  0.00    -0.432 C  
HETATM    7  O   UNL     1     -13.084  12.471  64.664  1.00  0.00    -0.845 OA 
HETATM    8  H   UNL     1     -12.945  14.702  63.677  1.00  0.00     0.000 HD 
HETATM    9  N   UNL     1     -12.220  14.528  64.373  1.00  0.00    -0.488 N  
HETATM   10  C   UNL     1     -11.358  15.552  64.630  1.00  0.00    -0.357 C  
ENDROOT
BRANCH   4  11
HETATM   11  C   UNL     1     -11.215  11.790  66.602  1.00  0.00    -0.323 C  
HETATM   12  O   UNL     1     -12.229  11.804  67.634  1.00  0.00    -0.534 OA 
HETATM   13  C   UNL     1     -10.168  11.521  68.662  1.00  0.00    -0.217 C  
HETATM   14  C   UNL     1     -11.576  11.917  68.920  1.00  0.00    -0.311 C  
HETATM   15  C   UNL     1      -9.955  11.503  67.347  1.00  0.00    -0.209 C  
BRANCH  14  16
HETATM   16  C   UNL     1     -11.664  13.358  69.457  1.00  0.00    -0.324 C  
HETATM   17  O   UNL     1     -12.652  14.134  68.779  1.00  0.00    -0.471 OA 
HETATM   18  H   UNL     1     -12.707  15.023  69.110  1.00  0.00     0.000 HD 
ENDBRANCH  14  16
ENDBRANCH   4  11
TORSDOF 2
ENDMDL
MODEL        2
REMARK 921   NORMALIZED FREE ENERGY PREDICTED BY IDOCK:   -5.85 KCAL/MOL
REMARK 922        TOTAL FREE ENERGY PREDICTED BY IDOCK:   -6.88 KCAL/MOL
REMARK 923 INTER-LIGAND FREE ENERGY PREDICTED BY IDOCK:   -6.95 KCAL/MOL
REMARK 924 INTRA-LIGAND FREE ENERGY PREDICTED BY IDOCK:    0.08 KCAL/MOL
REMARK 927      BINDING AFFINITY PREDICTED BY RF-SCORE:    0.00 PKD
ROOT
HETATM    1  C   UNL     1     -11.659  12.032  67.013  1.00  0.00    -0.387 C  
HETATM    2  C   UNL     1     -11.583  13.307  66.237  1.00  0.00    -0.384 C  
HETATM    3  C   UNL     1     -10.820  14.352  66.578  1.00  0.00    -0.310 C  
HETATM    4  N   UNL     1     -10.778  15.534  65.855  1.00  0.00    -0.331 N  
HETATM    5  O   UNL     1     -13.096  12.495  64.606  1.00  0.00    -0.845 OA 
HETATM    6  C   UNL     1     -11.487  15.659  64.665  1.00  0.00    -0.303 C  
HETATM    7  O   UNL     1     -11.442  16.642  63.927  1.00  0.00    -1.186 OA 
HETATM    8  H   UNL     1     -12.821  14.678  63.467  1.00  0.00     0.000 HD 
HETATM    9  N   UNL     1     -12.269  14.587  64.320  1.00  0.00    -0.474 N  
HETATM   10  C   UNL     1     -12.384  13.412  65.002  1.00  0.00    -0.436 C  
ENDROOT
BRANCH   4  11
HETATM   11  C   UNL     1      -9.839  16.601  66.195  1.00  0.00    -0.318 C  
HETATM   12  O   UNL     1      -9.135  16.310  67.425  1.00  0.00    -0.194 OA 
HETATM   13  C   UNL     1     -10.347  18.263  67.742  1.00  0.00    -0.419 C  
HETATM   14  C   UNL     1      -9.654  17.169  68.467  1.00  0.00    -0.288 C  
HETATM   15  C   UNL     1     -10.497  17.912  66.466  1.00  0.00    -0.315 C  
BRANCH  14  16
HETATM   16  C   UNL     1     -10.626  16.397  69.381  1.00  0.00    -0.317 C  
HETATM   17  O   UNL     1     -10.026  15.240  69.963  1.00  0.00    -0.446 OA 
HETATM   18  H   UNL     1     -10.625  14.764  70.527  1.00  0.00     0.000 HD 
ENDBRANCH  14  16
ENDBRANCH   4  11
TORSDOF 2
ENDMDL
MODEL        3
REMARK 921   NORMALIZED FREE ENERGY PREDICTED BY IDOCK:   -5.77 KCAL/MOL
REMARK 922        TOTAL FREE ENERGY PREDICTED BY IDOCK:   -6.79 KCAL/MOL
REMARK 923 INTER-LIGAND FREE ENERGY PREDICTED BY IDOCK:   -6.90 KCAL/MOL
REMARK 924 INTRA-LIGAND FREE ENERGY PREDICTED BY IDOCK:    0.11 KCAL/MOL
REMARK 927      BINDING AFFINITY PREDICTED BY RF-SCORE:    0.00 PKD
ROOT
HETATM    1  C   UNL     1     -10.990  16.379  69.762  1.00  0.00    -0.341 C  
HETATM    2  C   UNL     1     -11.296  14.982  69.328  1.00  0.00    -0.311 C  
HETATM    3  C   UNL     1     -11.029  14.495  68.111  1.00  0.00    -0.251 C  
HETATM    4  N   UNL     1     -11.339  13.202  67.722  1.00  0.00    -0.273 N  
HETATM    5  O   UNL     1     -12.176  14.431  71.457  1.00  0.00    -0.341 OA 
HETATM    6  C   UNL     1     -11.884  12.302  68.631  1.00  0.00    -0.305 C  
HETATM    7  O   UNL     1     -12.115  11.119  68.388  1.00  0.00    -0.605 OA 
HETATM    8  H   UNL     1     -12.592  12.166  70.543  1.00  0.00     0.000 HD 
HETATM    9  N   UNL     1     -12.160  12.805  69.877  1.00  0.00    -0.292 N  
HETATM   10  C   UNL     1     -11.914  14.073  70.313  1.00  0.00    -0.339 C  
ENDROOT
BRANCH   4  11
HETATM   11  C   UNL     1     -10.917  12.675  66.425  1.00  0.00    -0.272 C  
HETATM   12  O   UNL     1      -9.973  13.562  65.779  1.00  0.00    -0.284 OA 
HETATM   13  C   UNL     1     -11.848  13.404  64.421  1.00  0.00    -0.452 C  
HETATM   14  C   UNL     1     -10.644  14.231  64.685  1.00  0.00    -0.340 C  
HETATM   15  C   UNL     1     -12.028  12.560  65.436  1.00  0.00    -0.492 C  
BRANCH  14  16
HETATM   16  C   UNL     1     -11.028  15.672  65.075  1.00  0.00    -0.431 C  
HETATM   17  O   UNL     1     -11.440  16.450  63.951  1.00  0.00    -1.569 OA 
HETATM   18  H   UNL     1     -11.676  17.339  64.191  1.00  0.00     0.000 HD 
ENDBRANCH  14  16
ENDBRANCH   4  11
TORSDOF 2
ENDMDL
MODEL        4
REMARK 921   NORMALIZED FREE ENERGY PREDICTED BY IDOCK:   -5.65 KCAL/MOL
REMARK 922        TOTAL FREE ENERGY PREDICTED BY IDOCK:   -6.65 KCAL/MOL
REMARK 923 INTER-LIGAND FREE ENERGY PREDICTED BY IDOCK:   -6.47 KCAL/MOL
REMARK 924 INTRA-LIGAND FREE ENERGY PREDICTED BY IDOCK:   -0.19 KCAL/MOL
REMARK 927      BINDING AFFINITY PREDICTED BY RF-SCORE:    0.00 PKD
ROOT
HETATM    1  C   UNL     1     -11.842  12.487  67.511  1.00  0.00    -0.389 C  
HETATM    2  C   UNL     1     -11.776  13.654  66.580  1.00  0.00    -0.420 C  
HETATM    3  C   UNL     1     -11.174  14.814  66.868  1.00  0.00    -0.347 C  
HETATM    4  N   UNL     1     -11.141  15.892  65.998  1.00  0.00    -0.123 N  
HETATM    5  O   UNL     1     -12.951  12.476  64.895  1.00  0.00    -0.821 OA 
HETATM    6  C   UNL     1     -11.677  15.785  64.719  1.00  0.00    -0.081 C  
HETATM    7  O   UNL     1     -11.619  16.666  63.863  1.00  0.00    -1.204 OA 
HETATM    8  H   UNL     1     -12.723  14.515  63.506  1.00  0.00     0.000 HD 
HETATM    9  N   UNL     1     -12.295  14.596  64.429  1.00  0.00    -0.467 N  
HETATM   10  C   UNL     1     -12.395  13.511  65.248  1.00  0.00    -0.467 C  
ENDROOT
BRANCH   4  11
HETATM   11  C   UNL     1     -10.367  17.094  66.304  1.00  0.00    -0.313 C  
HETATM   12  O   UNL     1      -9.005  16.979  65.827  1.00  0.00    -0.526 OA 
HETATM   13  C   UNL     1      -8.935  17.223  68.134  1.00  0.00    -0.254 C  
HETATM   14  C   UNL     1      -8.134  16.780  66.965  1.00  0.00    -0.194 C  
HETATM   15  C   UNL     1     -10.210  17.348  67.766  1.00  0.00    -0.345 C  
BRANCH  14  16
HETATM   16  C   UNL     1      -7.727  15.299  67.093  1.00  0.00    -0.203 C  
HETATM   17  O   UNL     1      -6.318  15.131  67.243  1.00  0.00    -0.312 OA 
HETATM   18  H   UNL     1      -6.066  14.218  67.322  1.00  0.00     0.000 HD 
ENDBRANCH  14  16
ENDBRANCH   4  11
TORSDOF 2
ENDMDL
MODEL        5
REMARK 921   NORMALIZED FREE ENERGY PREDICTED BY IDOCK:   -5.48 KCAL/MOL
REMARK 922        TOTAL FREE ENERGY PREDICTED BY IDOCK:   -6.46 KCAL/MOL
REMARK 923 INTER-LIGAND FREE ENERGY PREDICTED BY IDOCK:   -6.73 KCAL/MOL
REMARK 924 INTRA-LIGAND FREE ENERGY PREDICTED BY IDOCK:    0.26 KCAL/MOL
REMARK 927      BINDING AFFINITY PREDICTED BY RF-SCORE:    0.00 PKD
ROOT
HETATM    1  C   UNL     1     -10.469  19.632  66.044  1.00  0.00    -0.622 C  
HETATM    2  C   UNL     1     -10.334  18.406  66.887  1.00  0.00    -0.417 C  
HETATM    3  C   UNL     1     -10.242  17.164  66.400  1.00  0.00    -0.328 C  
HETATM    4  N   UNL     1     -10.137  16.037  67.200  1.00  0.00    -0.264 N  
HETATM    5  O   UNL     1     -10.333  19.684  68.882  1.00  0.00    -0.378 OA 
HETATM    6  C   UNL     1     -10.038  16.158  68.582  1.00  0.00    -0.231 C  
HETATM    7  O   UNL     1      -9.865  15.217  69.354  1.00  0.00    -0.225 OA 
HETATM    8  H   UNL     1     -10.099  17.534  70.092  1.00  0.00     0.000 HD 
HETATM    9  N   UNL     1     -10.135  17.433  69.078  1.00  0.00    -0.317 N  
HETATM   10  C   UNL     1     -10.275  18.578  68.351  1.00  0.00    -0.372 C  
ENDROOT
BRANCH   4  11
HETATM   11  C   UNL     1      -9.915  14.711  66.624  1.00  0.00    -0.274 C  
HETATM   12  O   UNL     1      -9.967  14.751  65.178  1.00  0.00    -0.355 OA 
HETATM   13  C   UNL     1     -11.665  13.352  65.915  1.00  0.00    -0.389 C  
HETATM   14  C   UNL     1     -11.206  14.141  64.745  1.00  0.00    -0.378 C  
HETATM   15  C   UNL     1     -10.966  13.718  66.989  1.00  0.00    -0.297 C  
BRANCH  14  16
HETATM   16  C   UNL     1     -12.239  15.215  64.353  1.00  0.00    -0.275 C  
HETATM   17  O   UNL     1     -11.633  16.374  63.782  1.00  0.00    -1.605 OA 
HETATM   18  H   UNL     1     -12.270  17.037  63.540  1.00  0.00     0.000 HD 
ENDBRANCH  14  16
ENDBRANCH   4  11
TORSDOF 2
ENDMDL
MODEL        6
REMARK 921   NORMALIZED FREE ENERGY PREDICTED BY IDOCK:   -5.42 KCAL/MOL
REMARK 922        TOTAL FREE ENERGY PREDICTED BY IDOCK:   -6.40 KCAL/MOL
REMARK 923 INTER-LIGAND FREE ENERGY PREDICTED BY IDOCK:   -6.48 KCAL/MOL
REMARK 924 INTRA-LIGAND FREE ENERGY PREDICTED BY IDOCK:    0.08 KCAL/MOL
REMARK 927      BINDING AFFINITY PREDICTED BY RF-SCORE:    0.00 PKD
ROOT
HETATM    1  C   UNL     1     -13.337  15.519  71.158  1.00  0.00    -0.553 C  
HETATM    2  C   UNL     1     -12.901  14.113  70.904  1.00  0.00    -0.404 C  
HETATM    3  C   UNL     1     -12.107  13.741  69.894  1.00  0.00    -0.348 C  
HETATM    4  N   UNL     1     -11.730  12.427  69.664  1.00  0.00    -0.313 N  
HETATM    5  O   UNL     1     -14.076  13.324  72.804  1.00  0.00    -0.691 OA 
HETATM    6  C   UNL     1     -12.108  11.419  70.545  1.00  0.00    -0.394 C  
HETATM    7  O   UNL     1     -11.753  10.245  70.456  1.00  0.00    -0.281 OA 
HETATM    8  H   UNL     1     -13.238  11.069  72.212  1.00  0.00     0.000 HD 
HETATM    9  N   UNL     1     -12.925  11.804  71.577  1.00  0.00    -0.402 N  
HETATM   10  C   UNL     1     -13.360  13.069  71.840  1.00  0.00    -0.446 C  
ENDROOT
BRANCH   4  11
HETATM   11  C   UNL     1     -10.762  12.083  68.624  1.00  0.00    -0.236 C  
HETATM   12  O   UNL     1     -10.348  13.255  67.882  1.00  0.00    -0.228 OA 
HETATM   13  C   UNL     1     -11.374  11.797  66.397  1.00  0.00    -0.361 C  
HETATM   14  C   UNL     1     -10.962  13.212  66.573  1.00  0.00    -0.286 C  
HETATM   15  C   UNL     1     -11.310  11.175  67.574  1.00  0.00    -0.351 C  
BRANCH  14  16
HETATM   16  C   UNL     1     -12.173  14.162  66.502  1.00  0.00    -0.433 C  
HETATM   17  O   UNL     1     -13.052  13.847  65.422  1.00  0.00    -0.752 OA 
HETATM   18  H   UNL     1     -13.799  14.432  65.378  1.00  0.00     0.000 HD 
ENDBRANCH  14  16
ENDBRANCH   4  11
TORSDOF 2
ENDMDL
MODEL        7
REMARK 921   NORMALIZED FREE ENERGY PREDICTED BY IDOCK:   -5.33 KCAL/MOL
REMARK 922        TOTAL FREE ENERGY PREDICTED BY IDOCK:   -6.30 KCAL/MOL
REMARK 923 INTER-LIGAND FREE ENERGY PREDICTED BY IDOCK:   -5.94 KCAL/MOL
REMARK 924 INTRA-LIGAND FREE ENERGY PREDICTED BY IDOCK:   -0.35 KCAL/MOL
REMARK 927      BINDING AFFINITY PREDICTED BY RF-SCORE:    0.00 PKD
ROOT
HETATM    1  C   UNL     1      -9.595   9.866  65.379  1.00  0.00    -0.350 C  
HETATM    2  C   UNL     1     -10.404  11.083  65.065  1.00  0.00    -0.360 C  
HETATM    3  C   UNL     1     -10.929  11.897  65.987  1.00  0.00    -0.309 C  
HETATM    4  N   UNL     1     -11.693  13.010  65.676  1.00  0.00    -0.354 N  
HETATM    5  O   UNL     1     -10.158  10.740  62.734  1.00  0.00    -0.222 OA 
HETATM    6  C   UNL     1     -11.886  13.386  64.351  1.00  0.00    -0.408 C  
HETATM    7  O   UNL     1     -12.484  14.400  63.994  1.00  0.00    -0.748 OA 
HETATM    8  H   UNL     1     -11.512  12.793  62.432  1.00  0.00     0.000 HD 
HETATM    9  N   UNL     1     -11.349  12.548  63.408  1.00  0.00    -0.467 N  
HETATM   10  C   UNL     1     -10.619  11.421  63.645  1.00  0.00    -0.412 C  
ENDROOT
BRANCH   4  11
HETATM   11  C   UNL     1     -12.142  13.940  66.711  1.00  0.00    -0.439 C  
HETATM   12  O   UNL     1     -11.338  15.143  66.722  1.00  0.00    -0.326 OA 
HETATM   13  C   UNL     1     -11.093  14.102  68.781  1.00  0.00    -0.283 C  
HETATM   14  C   UNL     1     -10.475  15.110  67.883  1.00  0.00    -0.245 C  
HETATM   15  C   UNL     1     -11.999  13.406  68.097  1.00  0.00    -0.356 C  
BRANCH  14  16
HETATM   16  C   UNL     1      -9.041  14.706  67.490  1.00  0.00    -0.190 C  
HETATM   17  O   UNL     1      -8.814  14.797  66.083  1.00  0.00    -0.472 OA 
HETATM   18  H   UNL     1      -7.930  14.548  65.840  1.00  0.00     0.000 HD 
ENDBRANCH  14  16
ENDBRANCH   4  11
TORSDOF 2
ENDMDL
MODEL        8
REMARK 921   NORMALIZED FREE ENERGY PREDICTED BY IDOCK:   -5.31 KCAL/MOL
REMARK 922        TOTAL FREE ENERGY PREDICTED BY IDOCK:   -6.28 KCAL/MOL
REMARK 923 INTER-LIGAND FREE ENERGY PREDICTED BY IDOCK:   -5.91 KCAL/MOL
REMARK 924 INTRA-LIGAND FREE ENERGY PREDICTED BY IDOCK:   -0.36 KCAL/MOL
REMARK 927      BINDING AFFINITY PREDICTED BY RF-SCORE:    0.00 PKD
ROOT
HETATM    1  C   UNL     1      -9.306  14.352  68.683  1.00  0.00    -0.188 C  
HETATM    2  C   UNL     1      -9.871  15.094  67.516  1.00  0.00    -0.220 C  
HETATM    3  C   UNL     1     -10.073  16.416  67.490  1.00  0.00    -0.261 C  
HETATM    4  N   UNL     1     -10.617  17.084  66.404  1.00  0.00    -0.230 N  
HETATM    5  O   UNL     1     -10.038  13.109  66.235  1.00  0.00    -0.272 OA 
HETATM    6  C   UNL     1     -10.911  16.400  65.229  1.00  0.00    -0.258 C  
HETATM    7  O   UNL     1     -11.321  16.930  64.198  1.00  0.00    -1.208 OA 
HETATM    8  H   UNL     1     -10.948  14.525  64.417  1.00  0.00     0.000 HD 
HETATM    9  N   UNL     1     -10.705  15.045  65.260  1.00  0.00    -0.359 N  
HETATM   10  C   UNL     1     -10.208  14.322  66.304  1.00  0.00    -0.301 C  
ENDROOT
BRANCH   4  11
HETATM   11  C   UNL     1     -10.705  18.543  66.373  1.00  0.00    -0.201 C  
HETATM   12  O   UNL     1      -9.623  19.119  65.603  1.00  0.00    -0.325 OA 
HETATM   13  C   UNL     1      -9.443  19.899  67.781  1.00  0.00    -0.474 C  
HETATM   14  C   UNL     1      -8.683  19.732  66.517  1.00  0.00    -0.360 C  
HETATM   15  C   UNL     1     -10.563  19.179  67.714  1.00  0.00    -0.498 C  
BRANCH  14  16
HETATM   16  C   UNL     1      -7.448  18.833  66.720  1.00  0.00    -0.224 C  
HETATM   17  O   UNL     1      -7.295  17.870  65.677  1.00  0.00    -0.533 OA 
HETATM   18  H   UNL     1      -6.534  17.316  65.801  1.00  0.00     0.000 HD 
ENDBRANCH  14  16
ENDBRANCH   4  11
TORSDOF 2
ENDMDL
MODEL        9
REMARK 921   NORMALIZED FREE ENERGY PREDICTED BY IDOCK:   -5.29 KCAL/MOL
REMARK 922        TOTAL FREE ENERGY PREDICTED BY IDOCK:   -6.25 KCAL/MOL
REMARK 923 INTER-LIGAND FREE ENERGY PREDICTED BY IDOCK:   -6.42 KCAL/MOL
REMARK 924 INTRA-LIGAND FREE ENERGY PREDICTED BY IDOCK:    0.17 KCAL/MOL
REMARK 927      BINDING AFFINITY PREDICTED BY RF-SCORE:    0.00 PKD
ROOT
HETATM    1  C   UNL     1     -11.616  11.786  66.834  1.00  0.00    -0.310 C  
HETATM    2  C   UNL     1     -11.601  13.086  66.098  1.00  0.00    -0.412 C  
HETATM    3  C   UNL     1     -10.884  14.153  66.468  1.00  0.00    -0.298 C  
HETATM    4  N   UNL     1     -10.899  15.358  65.783  1.00  0.00    -0.339 N  
HETATM    5  O   UNL     1     -13.085  12.258  64.448  1.00  0.00    -0.780 OA 
HETATM    6  C   UNL     1     -11.619  15.488  64.600  1.00  0.00    -0.281 C  
HETATM    7  O   UNL     1     -11.622  16.494  63.892  1.00  0.00    -1.175 OA 
HETATM    8  H   UNL     1     -12.914  14.486  63.377  1.00  0.00     0.000 HD 
HETATM    9  N   UNL     1     -12.354  14.393  64.224  1.00  0.00    -0.439 N  
HETATM   10  C   UNL     1     -12.412  13.194  64.870  1.00  0.00    -0.433 C  
ENDROOT
BRANCH   4  11
HETATM   11  C   UNL     1     -10.007  16.456  66.151  1.00  0.00    -0.339 C  
HETATM   12  O   UNL     1      -8.687  15.969  66.492  1.00  0.00    -0.242 OA 
HETATM   13  C   UNL     1      -9.568  17.014  68.367  1.00  0.00    -0.277 C  
HETATM   14  C   UNL     1      -8.518  16.063  67.926  1.00  0.00    -0.162 C  
HETATM   15  C   UNL     1     -10.439  17.192  67.374  1.00  0.00    -0.334 C  
BRANCH  14  16
HETATM   16  C   UNL     1      -8.695  14.684  68.591  1.00  0.00    -0.174 C  
HETATM   17  O   UNL     1      -9.474  14.750  69.786  1.00  0.00    -0.424 OA 
HETATM   18  H   UNL     1      -9.584  13.901  70.196  1.00  0.00     0.000 HD 
ENDBRANCH  14  16
ENDBRANCH   4  11
TORSDOF 2
ENDMDL
MODEL       10
REMARK 921   NORMALIZED FREE ENERGY PREDICTED BY IDOCK:   -5.26 KCAL/MOL
REMARK 922        TOTAL FREE ENERGY PREDICTED BY IDOCK:   -6.22 KCAL/MOL
REMARK 923 INTER-LIGAND FREE ENERGY PREDICTED BY IDOCK:   -6.32 KCAL/MOL
REMARK 924 INTRA-LIGAND FREE ENERGY PREDICTED BY IDOCK:    0.10 KCAL/MOL
REMARK 927      BINDING AFFINITY PREDICTED BY RF-SCORE:    0.00 PKD
ROOT
HETATM    1  C   UNL     1      -9.878  16.777  66.081  1.00  0.00    -0.330 C  
HETATM    2  C   UNL     1     -10.688  15.561  65.766  1.00  0.00    -0.362 C  
HETATM    3  C   UNL     1     -10.685  14.443  66.501  1.00  0.00    -0.306 C  
HETATM    4  N   UNL     1     -11.428  13.318  66.182  1.00  0.00    -0.317 N  
HETATM    5  O   UNL     1     -11.642  16.594  63.860  1.00  0.00    -1.204 OA 
HETATM    6  C   UNL     1     -12.297  13.330  65.096  1.00  0.00    -0.466 C  
HETATM    7  O   UNL     1     -13.047  12.404  64.792  1.00  0.00    -0.806 OA 
HETATM    8  H   UNL     1     -12.902  14.487  63.523  1.00  0.00     0.000 HD 
HETATM    9  N   UNL     1     -12.295  14.476  64.343  1.00  0.00    -0.462 N  
HETATM   10  C   UNL     1     -11.564  15.603  64.580  1.00  0.00    -0.262 C  
ENDROOT
BRANCH   4  11
HETATM   11  C   UNL     1     -11.490  12.166  67.079  1.00  0.00    -0.350 C  
HETATM   12  O   UNL     1     -10.844  12.448  68.343  1.00  0.00    -0.219 OA 
HETATM   13  C   UNL     1      -9.710  10.691  67.339  1.00  0.00    -0.192 C  
HETATM   14  C   UNL     1      -9.586  11.735  68.387  1.00  0.00    -0.191 C  
HETATM   15  C   UNL     1     -10.760  10.970  66.568  1.00  0.00    -0.298 C  
BRANCH  14  16
HETATM   16  C   UNL     1      -8.406  12.683  68.097  1.00  0.00    -0.175 C  
HETATM   17  O   UNL     1      -7.856  12.488  66.794  1.00  0.00    -0.383 OA 
HETATM   18  H   UNL     1      -7.129  13.073  66.615  1.00  0.00     0.000 HD 
ENDBRANCH  14  16
ENDBRANCH   4  11
TORSDOF 2
ENDMDL
MODEL       11
REMARK 921   NORMALIZED FREE ENERGY PREDICTED BY IDOCK:   -5.26 KCAL/MOL
REMARK 922        TOTAL FREE ENERGY PREDICTED BY IDOCK:   -6.22 KCAL/MOL
REMARK 923 INTER-LIGAND FREE ENERGY PREDICTED BY IDOCK:   -6.00 KCAL/MOL
REMARK 924 INTRA-LIGAND FREE ENERGY PREDICTED BY IDOCK:   -0.22 KCAL/MOL
REMARK 927      BINDING AFFINITY PREDICTED BY RF-SCORE:    0.00 PKD
ROOT
HETATM    1  C   UNL     1     -12.437  13.131  70.622  1.00  0.00    -0.363 C  
HETATM    2  C   UNL     1     -11.872  11.947  69.909  1.00  0.00    -0.418 C  
HETATM    3  C   UNL     1     -11.517  10.805  70.508  1.00  0.00    -0.275 C  
HETATM    4  N   UNL     1     -10.976   9.723  69.831  1.00  0.00    -0.251 N  
HETATM    5  O   UNL     1     -12.031  13.036  67.811  1.00  0.00    -0.348 OA 
HETATM    6  C   UNL     1     -10.848   9.750  68.446  1.00  0.00    -0.201 C  
HETATM    7  O   UNL     1     -10.451   8.806  67.764  1.00  0.00    -0.235 OA 
HETATM    8  H   UNL     1     -11.089  10.969  66.823  1.00  0.00     0.000 HD 
HETATM    9  N   UNL     1     -11.210  10.923  67.835  1.00  0.00    -0.306 N  
HETATM   10  C   UNL     1     -11.714  12.034  68.444  1.00  0.00    -0.332 C  
ENDROOT
BRANCH   4  11
HETATM   11  C   UNL     1     -10.718   8.452  70.506  1.00  0.00    -0.227 C  
HETATM   12  O   UNL     1     -11.890   7.603  70.491  1.00  0.00    -0.210 OA 
HETATM   13  C   UNL     1     -11.366   8.056  72.705  1.00  0.00    -0.469 C  
HETATM   14  C   UNL     1     -12.458   7.578  71.821  1.00  0.00    -0.330 C  
HETATM   15  C   UNL     1     -10.406   8.599  71.957  1.00  0.00    -0.416 C  
BRANCH  14  16
HETATM   16  C   UNL     1     -13.692   8.497  71.908  1.00  0.00    -0.415 C  
HETATM   17  O   UNL     1     -13.931   8.967  73.235  1.00  0.00    -1.203 OA 
HETATM   18  H   UNL     1     -14.692   9.533  73.289  1.00  0.00     0.000 HD 
ENDBRANCH  14  16
ENDBRANCH   4  11
TORSDOF 2
ENDMDL
MODEL       12
REMARK 921   NORMALIZED FREE ENERGY PREDICTED BY IDOCK:   -5.19 KCAL/MOL
REMARK 922        TOTAL FREE ENERGY PREDICTED BY IDOCK:   -6.14 KCAL/MOL
REMARK 923 INTER-LIGAND FREE ENERGY PREDICTED BY IDOCK:   -6.29 KCAL/MOL
REMARK 924 INTRA-LIGAND FREE ENERGY PREDICTED BY IDOCK:    0.15 KCAL/MOL
REMARK 927      BINDING AFFINITY PREDICTED BY RF-SCORE:    0.00 PKD
ROOT
HETATM    1  C   UNL     1     -10.558   9.328  66.837  1.00  0.00    -0.239 C  
HETATM    2  C   UNL     1     -11.003  10.628  67.423  1.00  0.00    -0.361 C  
HETATM    3  C   UNL     1     -11.387  11.688  66.703  1.00  0.00    -0.270 C  
HETATM    4  N   UNL     1     -11.778  12.893  67.265  1.00  0.00    -0.362 N  
HETATM    5  O   UNL     1     -10.725   9.817  69.632  1.00  0.00    -0.216 OA 
HETATM    6  C   UNL     1     -11.867  13.031  68.646  1.00  0.00    -0.318 C  
HETATM    7  O   UNL     1     -12.278  14.038  69.221  1.00  0.00    -0.344 OA 
HETATM    8  H   UNL     1     -11.497  12.044  70.397  1.00  0.00     0.000 HD 
HETATM    9  N   UNL     1     -11.470  11.945  69.382  1.00  0.00    -0.290 N  
HETATM   10  C   UNL     1     -11.042  10.745  68.894  1.00  0.00    -0.253 C  
ENDROOT
BRANCH   4  11
HETATM   11  C   UNL     1     -12.307  13.981  66.445  1.00  0.00    -0.431 C  
HETATM   12  O   UNL     1     -12.925  13.476  65.237  1.00  0.00    -0.701 OA 
HETATM   13  C   UNL     1     -11.153  14.837  64.615  1.00  0.00    -0.337 C  
HETATM   14  C   UNL     1     -12.059  13.772  64.117  1.00  0.00    -0.433 C  
HETATM   15  C   UNL     1     -11.258  14.914  65.941  1.00  0.00    -0.328 C  
BRANCH  14  16
HETATM   16  C   UNL     1     -11.270  12.520  63.687  1.00  0.00    -0.483 C  
HETATM   17  O   UNL     1     -12.111  11.507  63.137  1.00  0.00    -0.925 OA 
HETATM   18  H   UNL     1     -11.626  10.735  62.871  1.00  0.00     0.000 HD 
ENDBRANCH  14  16
ENDBRANCH   4  11
TORSDOF 2
ENDMDL
MODEL       13
REMARK 921   NORMALIZED FREE ENERGY PREDICTED BY IDOCK:   -5.19 KCAL/MOL
REMARK 922        TOTAL FREE ENERGY PREDICTED BY IDOCK:   -6.14 KCAL/MOL
REMARK 923 INTER-LIGAND FREE ENERGY PREDICTED BY IDOCK:   -5.82 KCAL/MOL
REMARK 924 INTRA-LIGAND FREE ENERGY PREDICTED BY IDOCK:   -0.32 KCAL/MOL
REMARK 927      BINDING AFFINITY PREDICTED BY RF-SCORE:    0.00 PKD
ROOT
HETATM    1  C   UNL     1     -12.283  12.962  70.486  1.00  0.00    -0.395 C  
HETATM    2  C   UNL     1     -11.707  13.926  69.500  1.00  0.00    -0.369 C  
HETATM    3  C   UNL     1     -10.969  13.572  68.442  1.00  0.00    -0.266 C  
HETATM    4  N   UNL     1     -10.427  14.484  67.550  1.00  0.00    -0.252 N  
HETATM    5  O   UNL     1     -12.670  15.774  70.628  1.00  0.00    -0.439 OA 
HETATM    6  C   UNL     1     -10.700  15.841  67.675  1.00  0.00    -0.310 C  
HETATM    7  O   UNL     1     -10.323  16.705  66.884  1.00  0.00    -0.297 OA 
HETATM    8  H   UNL     1     -11.634  17.198  68.885  1.00  0.00     0.000 HD 
HETATM    9  N   UNL     1     -11.454  16.202  68.762  1.00  0.00    -0.364 N  
HETATM   10  C   UNL     1     -11.987  15.362  69.695  1.00  0.00    -0.343 C  
ENDROOT
BRANCH   4  11
HETATM   11  C   UNL     1      -9.732  14.046  66.341  1.00  0.00    -0.296 C  
HETATM   12  O   UNL     1     -10.533  14.284  65.159  1.00  0.00    -0.360 OA 
HETATM   13  C   UNL     1     -10.170  11.999  65.324  1.00  0.00    -0.304 C  
HETATM   14  C   UNL     1     -11.039  13.016  64.681  1.00  0.00    -0.332 C  
HETATM   15  C   UNL     1      -9.471  12.578  66.300  1.00  0.00    -0.210 C  
BRANCH  14  16
HETATM   16  C   UNL     1     -12.515  12.826  65.082  1.00  0.00    -0.501 C  
HETATM   17  O   UNL     1     -13.186  14.067  65.298  1.00  0.00    -0.782 OA 
HETATM   18  H   UNL     1     -14.096  13.951  65.545  1.00  0.00     0.000 HD 
ENDBRANCH  14  16
ENDBRANCH   4  11
TORSDOF 2
ENDMDL
MODEL       14
REMARK 921   NORMALIZED FREE ENERGY PREDICTED BY IDOCK:   -5.18 KCAL/MOL
REMARK 922        TOTAL FREE ENERGY PREDICTED BY IDOCK:   -6.13 KCAL/MOL
REMARK 923 INTER-LIGAND FREE ENERGY PREDICTED BY IDOCK:   -5.84 KCAL/MOL
REMARK 924 INTRA-LIGAND FREE ENERGY PREDICTED BY IDOCK:   -0.28 KCAL/MOL
REMARK 927      BINDING AFFINITY PREDICTED BY RF-SCORE:    0.00 PKD
ROOT
HETATM    1  C   UNL     1      -8.202  16.477  66.248  1.00  0.00    -0.360 C  
HETATM    2  C   UNL     1      -9.366  15.723  66.805  1.00  0.00    -0.264 C  
HETATM    3  C   UNL     1     -10.372  15.240  66.069  1.00  0.00    -0.312 C  
HETATM    4  N   UNL     1     -11.454  14.561  66.608  1.00  0.00    -0.357 N  
HETATM    5  O   UNL     1      -8.505  15.869  69.008  1.00  0.00    -0.211 OA 
HETATM    6  C   UNL     1     -11.501  14.273  67.968  1.00  0.00    -0.314 C  
HETATM    7  O   UNL     1     -12.384  13.610  68.510  1.00  0.00    -0.248 OA 
HETATM    8  H   UNL     1     -10.508  14.599  69.724  1.00  0.00     0.000 HD 
HETATM    9  N   UNL     1     -10.469  14.773  68.720  1.00  0.00    -0.243 N  
HETATM   10  C   UNL     1      -9.396  15.478  68.260  1.00  0.00    -0.192 C  
ENDROOT
BRANCH   4  11
HETATM   11  C   UNL     1     -12.468  13.943  65.754  1.00  0.00    -0.495 C  
HETATM   12  O   UNL     1     -12.314  12.504  65.713  1.00  0.00    -0.627 OA 
HETATM   13  C   UNL     1     -12.032  13.314  63.557  1.00  0.00    -0.537 C  
HETATM   14  C   UNL     1     -11.775  12.135  64.422  1.00  0.00    -0.355 C  
HETATM   15  C   UNL     1     -12.372  14.350  64.323  1.00  0.00    -0.402 C  
BRANCH  14  16
HETATM   16  C   UNL     1     -10.268  11.832  64.523  1.00  0.00    -0.284 C  
HETATM   17  O   UNL     1      -9.498  12.559  63.565  1.00  0.00    -0.639 OA 
HETATM   18  H   UNL     1      -8.569  12.372  63.627  1.00  0.00     0.000 HD 
ENDBRANCH  14  16
ENDBRANCH   4  11
TORSDOF 2
ENDMDL
MODEL       15
REMARK 921   NORMALIZED FREE ENERGY PREDICTED BY IDOCK:   -5.17 KCAL/MOL
REMARK 922        TOTAL FREE ENERGY PREDICTED BY IDOCK:   -6.12 KCAL/MOL
REMARK 923 INTER-LIGAND FREE ENERGY PREDICTED BY IDOCK:   -5.86 KCAL/MOL
REMARK 924 INTRA-LIGAND FREE ENERGY PREDICTED BY IDOCK:   -0.26 KCAL/MOL
REMARK 927      BINDING AFFINITY PREDICTED BY RF-SCORE:    0.00 PKD
ROOT
HETATM    1  C   UNL     1      -8.819   9.632  64.296  1.00  0.00    -0.260 C  
HETATM    2  C   UNL     1      -9.659  10.209  65.388  1.00  0.00    -0.325 C  
HETATM    3  C   UNL     1      -9.990  11.501  65.482  1.00  0.00    -0.242 C  
HETATM    4  N   UNL     1     -10.754  12.021  66.515  1.00  0.00    -0.248 N  
HETATM    5  O   UNL     1      -9.940   8.085  66.399  1.00  0.00    -0.229 OA 
HETATM    6  C   UNL     1     -11.295  11.182  67.484  1.00  0.00    -0.278 C  
HETATM    7  O   UNL     1     -12.046  11.551  68.385  1.00  0.00    -0.556 OA 
HETATM    8  H   UNL     1     -11.314   9.237  68.109  1.00  0.00     0.000 HD 
HETATM    9  N   UNL     1     -10.953   9.858  67.386  1.00  0.00    -0.226 N  
HETATM   10  C   UNL     1     -10.178   9.289  66.419  1.00  0.00    -0.228 C  
ENDROOT
BRANCH   4  11
HETATM   11  C   UNL     1     -11.194  13.415  66.511  1.00  0.00    -0.307 C  
HETATM   12  O   UNL     1     -12.430  13.575  65.776  1.00  0.00    -0.457 OA 
HETATM   13  C   UNL     1     -10.800  14.841  64.716  1.00  0.00    -0.395 C  
HETATM   14  C   UNL     1     -12.136  14.226  64.517  1.00  0.00    -0.480 C  
HETATM   15  C   UNL     1     -10.248  14.338  65.819  1.00  0.00    -0.351 C  
BRANCH  14  16
HETATM   16  C   UNL     1     -12.118  13.206  63.362  1.00  0.00    -0.486 C  
HETATM   17  O   UNL     1     -13.018  12.119  63.579  1.00  0.00    -0.794 OA 
HETATM   18  H   UNL     1     -13.007  11.490  62.867  1.00  0.00     0.000 HD 
ENDBRANCH  14  16
ENDBRANCH   4  11
TORSDOF 2
ENDMDL
MODEL       16
REMARK 921   NORMALIZED FREE ENERGY PREDICTED BY IDOCK:   -5.16 KCAL/MOL
REMARK 922        TOTAL FREE ENERGY PREDICTED BY IDOCK:   -6.11 KCAL/MOL
REMARK 923 INTER-LIGAND FREE ENERGY PREDICTED BY IDOCK:   -6.11 KCAL/MOL
REMARK 924 INTRA-LIGAND FREE ENERGY PREDICTED BY IDOCK:    0.00 KCAL/MOL
REMARK 927      BINDING AFFINITY PREDICTED BY RF-SCORE:    0.00 PKD
ROOT
HETATM    1  C   UNL     1      -8.497  15.963  66.946  1.00  0.00    -0.275 C  
HETATM    2  C   UNL     1      -9.616  15.429  66.113  1.00  0.00    -0.362 C  
HETATM    3  C   UNL     1      -9.920  14.131  66.003  1.00  0.00    -0.322 C  
HETATM    4  N   UNL     1     -10.950  13.653  65.209  1.00  0.00    -0.300 N  
HETATM    5  O   UNL     1     -10.259  17.607  65.440  1.00  0.00    -0.576 OA 
HETATM    6  C   UNL     1     -11.789  14.533  64.535  1.00  0.00    -0.446 C  
HETATM    7  O   UNL     1     -12.770  14.195  63.874  1.00  0.00    -0.715 OA 
HETATM    8  H   UNL     1     -12.060  16.519  64.131  1.00  0.00     0.000 HD 
HETATM    9  N   UNL     1     -11.474  15.863  64.648  1.00  0.00    -0.340 N  
HETATM   10  C   UNL     1     -10.455  16.397  65.381  1.00  0.00    -0.311 C  
ENDROOT
BRANCH   4  11
HETATM   11  C   UNL     1     -11.324  12.239  65.215  1.00  0.00    -0.338 C  
HETATM   12  O   UNL     1     -12.025  11.886  66.431  1.00  0.00    -0.572 OA 
HETATM   13  C   UNL     1     -10.080  10.625  66.338  1.00  0.00    -0.279 C  
HETATM   14  C   UNL     1     -11.139  11.101  67.262  1.00  0.00    -0.302 C  
HETATM   15  C   UNL     1     -10.156  11.312  65.198  1.00  0.00    -0.326 C  
BRANCH  14  16
HETATM   16  C   UNL     1     -10.548  11.959  68.398  1.00  0.00    -0.218 C  
HETATM   17  O   UNL     1     -10.813  11.413  69.690  1.00  0.00    -0.426 OA 
HETATM   18  H   UNL     1     -10.449  11.941  70.391  1.00  0.00     0.000 HD 
ENDBRANCH  14  16
ENDBRANCH   4  11
TORSDOF 2
ENDMDL
MODEL       17
REMARK 921   NORMALIZED FREE ENERGY PREDICTED BY IDOCK:   -5.12 KCAL/MOL
REMARK 922        TOTAL FREE ENERGY PREDICTED BY IDOCK:   -6.07 KCAL/MOL
REMARK 923 INTER-LIGAND FREE ENERGY PREDICTED BY IDOCK:   -5.73 KCAL/MOL
REMARK 924 INTRA-LIGAND FREE ENERGY PREDICTED BY IDOCK:   -0.33 KCAL/MOL
REMARK 927      BINDING AFFINITY PREDICTED BY RF-SCORE:    0.00 PKD
ROOT
HETATM    1  C   UNL     1      -7.896  16.602  68.643  1.00  0.00    -0.234 C  
HETATM    2  C   UNL     1      -8.800  16.669  67.456  1.00  0.00    -0.202 C  
HETATM    3  C   UNL     1      -9.273  15.599  66.807  1.00  0.00    -0.251 C  
HETATM    4  N   UNL     1     -10.095  15.683  65.694  1.00  0.00    -0.347 N  
HETATM    5  O   UNL     1      -8.847  19.037  67.527  1.00  0.00    -0.285 OA 
HETATM    6  C   UNL     1     -10.543  16.918  65.238  1.00  0.00    -0.120 C  
HETATM    7  O   UNL     1     -11.333  17.074  64.309  1.00  0.00    -1.191 OA 
HETATM    8  H   UNL     1     -10.348  18.927  65.559  1.00  0.00     0.000 HD 
HETATM    9  N   UNL     1     -10.055  18.013  65.904  1.00  0.00    -0.233 N  
HETATM   10  C   UNL     1      -9.217  18.003  66.980  1.00  0.00    -0.265 C  
ENDROOT
BRANCH   4  11
HETATM   11  C   UNL     1     -10.686  14.489  65.092  1.00  0.00    -0.406 C  
HETATM   12  O   UNL     1     -11.998  14.219  65.641  1.00  0.00    -0.367 OA 
HETATM   13  C   UNL     1     -10.633  12.410  66.136  1.00  0.00    -0.283 C  
HETATM   14  C   UNL     1     -11.904  13.073  66.519  1.00  0.00    -0.403 C  
HETATM   15  C   UNL     1      -9.923  13.238  65.370  1.00  0.00    -0.205 C  
BRANCH  14  16
HETATM   16  C   UNL     1     -11.883  13.514  67.996  1.00  0.00    -0.365 C  
HETATM   17  O   UNL     1     -12.466  14.802  68.190  1.00  0.00    -0.574 OA 
HETATM   18  H   UNL     1     -12.454  15.074  69.100  1.00  0.00     0.000 HD 
ENDBRANCH  14  16
ENDBRANCH   4  11
TORSDOF 2
ENDMDL
MODEL       18
REMARK 921   NORMALIZED FREE ENERGY PREDICTED BY IDOCK:   -5.12 KCAL/MOL
REMARK 922        TOTAL FREE ENERGY PREDICTED BY IDOCK:   -6.06 KCAL/MOL
REMARK 923 INTER-LIGAND FREE ENERGY PREDICTED BY IDOCK:   -6.13 KCAL/MOL
REMARK 924 INTRA-LIGAND FREE ENERGY PREDICTED BY IDOCK:    0.07 KCAL/MOL
REMARK 927      BINDING AFFINITY PREDICTED BY RF-SCORE:    0.00 PKD
ROOT
HETATM    1  C   UNL     1     -12.829  13.518  71.569  1.00  0.00    -0.440 C  
HETATM    2  C   UNL     1     -12.250  14.302  70.437  1.00  0.00    -0.411 C  
HETATM    3  C   UNL     1     -12.184  13.865  69.174  1.00  0.00    -0.267 C  
HETATM    4  N   UNL     1     -11.624  14.600  68.141  1.00  0.00    -0.321 N  
HETATM    5  O   UNL     1     -11.774  16.141  71.852  1.00  0.00    -0.475 OA 
HETATM    6  C   UNL     1     -11.166  15.894  68.362  1.00  0.00    -0.368 C  
HETATM    7  O   UNL     1     -10.728  16.639  67.487  1.00  0.00    -0.325 OA 
HETATM    8  H   UNL     1     -10.868  17.272  69.842  1.00  0.00     0.000 HD 
HETATM    9  N   UNL     1     -11.232  16.338  69.658  1.00  0.00    -0.329 N  
HETATM   10  C   UNL     1     -11.736  15.655  70.726  1.00  0.00    -0.375 C  
ENDROOT
BRANCH   4  11
HETATM   11  C   UNL     1     -11.685  14.136  66.756  1.00  0.00    -0.410 C  
HETATM   12  O   UNL     1     -12.293  12.825  66.667  1.00  0.00    -0.456 OA 
HETATM   13  C   UNL     1     -10.121  12.660  65.866  1.00  0.00    -0.276 C  
HETATM   14  C   UNL     1     -11.258  11.856  66.381  1.00  0.00    -0.331 C  
HETATM   15  C   UNL     1     -10.345  13.948  66.130  1.00  0.00    -0.303 C  
BRANCH  14  16
HETATM   16  C   UNL     1     -10.864  11.080  67.653  1.00  0.00    -0.256 C  
HETATM   17  O   UNL     1     -11.991  10.493  68.305  1.00  0.00    -0.790 OA 
HETATM   18  H   UNL     1     -11.749  10.015  69.090  1.00  0.00     0.000 HD 
ENDBRANCH  14  16
ENDBRANCH   4  11
TORSDOF 2
ENDMDL
MODEL       19
REMARK 921   NORMALIZED FREE ENERGY PREDICTED BY IDOCK:   -5.10 KCAL/MOL
REMARK 922        TOTAL FREE ENERGY PREDICTED BY IDOCK:   -6.04 KCAL/MOL
REMARK 923 INTER-LIGAND FREE ENERGY PREDICTED BY IDOCK:   -6.31 KCAL/MOL
REMARK 924 INTRA-LIGAND FREE ENERGY PREDICTED BY IDOCK:    0.27 KCAL/MOL
REMARK 927      BINDING AFFINITY PREDICTED BY RF-SCORE:    0.00 PKD
ROOT
HETATM    1  C   UNL     1      -8.092  10.063  65.238  1.00  0.00    -0.145 C  
HETATM    2  C   UNL     1      -9.372  10.772  64.938  1.00  0.00    -0.261 C  
HETATM    3  C   UNL     1     -10.066  11.484  65.833  1.00  0.00    -0.231 C  
HETATM    4  N   UNL     1     -11.263  12.119  65.541  1.00  0.00    -0.324 N  
HETATM    5  O   UNL     1      -9.312  10.086  62.672  1.00  0.00    -0.289 OA 
HETATM    6  C   UNL     1     -11.769  12.110  64.245  1.00  0.00    -0.373 C  
HETATM    7  O   UNL     1     -12.780  12.712  63.887  1.00  0.00    -0.677 OA 
HETATM    8  H   UNL     1     -11.434  11.333  62.385  1.00  0.00     0.000 HD 
HETATM    9  N   UNL     1     -11.056  11.377  63.331  1.00  0.00    -0.317 N  
HETATM   10  C   UNL     1      -9.894  10.701  63.560  1.00  0.00    -0.326 C  
ENDROOT
BRANCH   4  11
HETATM   11  C   UNL     1     -11.922  12.987  66.514  1.00  0.00    -0.391 C  
HETATM   12  O   UNL     1     -12.520  14.139  65.872  1.00  0.00    -0.471 OA 
HETATM   13  C   UNL     1     -10.913  14.906  67.359  1.00  0.00    -0.314 C  
HETATM   14  C   UNL     1     -11.719  15.304  66.179  1.00  0.00     0.109 C  
HETATM   15  C   UNL     1     -10.989  13.584  67.512  1.00  0.00    -0.283 C  
BRANCH  14  16
HETATM   16  C   UNL     1     -10.820  15.682  64.987  1.00  0.00    -0.450 C  
HETATM   17  O   UNL     1     -11.538  16.351  63.950  1.00  0.00    -1.564 OA 
HETATM   18  H   UNL     1     -10.984  16.584  63.215  1.00  0.00     0.000 HD 
ENDBRANCH  14  16
ENDBRANCH   4  11
TORSDOF 2
ENDMDL
MODEL       20
REMARK 921   NORMALIZED FREE ENERGY PREDICTED BY IDOCK:   -5.09 KCAL/MOL
REMARK 922        TOTAL FREE ENERGY PREDICTED BY IDOCK:   -6.02 KCAL/MOL
REMARK 923 INTER-LIGAND FREE ENERGY PREDICTED BY IDOCK:   -6.13 KCAL/MOL
REMARK 924 INTRA-LIGAND FREE ENERGY PREDICTED BY IDOCK:    0.11 KCAL/MOL
REMARK 927      BINDING AFFINITY PREDICTED BY RF-SCORE:    0.00 PKD
ROOT
HETATM    1  C   UNL     1     -11.100  15.666  69.866  1.00  0.00    -0.323 C  
HETATM    2  C   UNL     1     -11.047  15.921  68.395  1.00  0.00    -0.345 C  
HETATM    3  C   UNL     1     -11.364  15.017  67.461  1.00  0.00    -0.333 C  
HETATM    4  N   UNL     1     -11.289  15.267  66.100  1.00  0.00    -0.231 N  
HETATM    5  O   UNL     1     -10.351  18.161  68.729  1.00  0.00    -0.362 OA 
HETATM    6  C   UNL     1     -10.949  16.531  65.632  1.00  0.00    -0.051 C  
HETATM    7  O   UNL     1     -10.936  16.855  64.445  1.00  0.00    -1.016 OA 
HETATM    8  H   UNL     1     -10.338  18.377  66.261  1.00  0.00     0.000 HD 
HETATM    9  N   UNL     1     -10.623  17.455  66.591  1.00  0.00    -0.239 N  
HETATM   10  C   UNL     1     -10.640  17.265  67.941  1.00  0.00    -0.384 C  
ENDROOT
BRANCH   4  11
HETATM   11  C   UNL     1     -11.762  14.291  65.119  1.00  0.00    -0.368 C  
HETATM   12  O   UNL     1     -12.546  13.250  65.749  1.00  0.00    -0.438 OA 
HETATM   13  C   UNL     1     -10.693  12.254  64.772  1.00  0.00    -0.338 C  
HETATM   14  C   UNL     1     -11.761  12.036  65.780  1.00  0.00    -0.245 C  
HETATM   15  C   UNL     1     -10.663  13.544  64.442  1.00  0.00    -0.402 C  
BRANCH  14  16
HETATM   16  C   UNL     1     -11.168  11.800  67.183  1.00  0.00    -0.316 C  
HETATM   17  O   UNL     1     -12.039  11.043  68.024  1.00  0.00    -0.744 OA 
HETATM   18  H   UNL     1     -11.674  10.898  68.889  1.00  0.00     0.000 HD 
ENDBRANCH  14  16
ENDBRANCH   4  11
TORSDOF 2
ENDMDL
MODEL       21
REMARK 921   NORMALIZED FREE ENERGY PREDICTED BY IDOCK:   -5.08 KCAL/MOL
REMARK 922        TOTAL FREE ENERGY PREDICTED BY IDOCK:   -6.02 KCAL/MOL
REMARK 923 INTER-LIGAND FREE ENERGY PREDICTED BY IDOCK:   -5.67 KCAL/MOL
REMARK 924 INTRA-LIGAND FREE ENERGY PREDICTED BY IDOCK:   -0.35 KCAL/MOL
REMARK 927      BINDING AFFINITY PREDICTED BY RF-SCORE:    0.00 PKD
ROOT
HETATM    1  C   UNL     1     -12.599  11.971  63.679  1.00  0.00    -0.605 C  
HETATM    2  C   UNL     1     -12.295  12.782  64.896  1.00  0.00    -0.551 C  
HETATM    3  C   UNL     1     -11.972  12.264  66.086  1.00  0.00    -0.249 C  
HETATM    4  N   UNL     1     -11.713  13.034  67.209  1.00  0.00    -0.361 N  
HETATM    5  O   UNL     1     -12.601  14.812  63.714  1.00  0.00    -0.806 OA 
HETATM    6  C   UNL     1     -11.698  14.422  67.125  1.00  0.00    -0.400 C  
HETATM    7  O   UNL     1     -11.402  15.174  68.053  1.00  0.00    -0.313 OA 
HETATM    8  H   UNL     1     -12.059  15.968  65.838  1.00  0.00     0.000 HD 
HETATM    9  N   UNL     1     -12.032  14.950  65.905  1.00  0.00    -0.140 N  
HETATM   10  C   UNL     1     -12.333  14.252  64.773  1.00  0.00    -0.426 C  
ENDROOT
BRANCH   4  11
HETATM   11  C   UNL     1     -11.243  12.430  68.455  1.00  0.00    -0.279 C  
HETATM   12  O   UNL     1      -9.799  12.469  68.546  1.00  0.00    -0.214 OA 
HETATM   13  C   UNL     1     -10.456  10.244  68.562  1.00  0.00    -0.217 C  
HETATM   14  C   UNL     1      -9.288  11.132  68.335  1.00  0.00    -0.185 C  
HETATM   15  C   UNL     1     -11.567  10.980  68.575  1.00  0.00    -0.380 C  
BRANCH  14  16
HETATM   16  C   UNL     1      -8.734  10.975  66.905  1.00  0.00    -0.148 C  
HETATM   17  O   UNL     1      -8.420  12.230  66.301  1.00  0.00    -0.397 OA 
HETATM   18  H   UNL     1      -8.078  12.134  65.420  1.00  0.00     0.000 HD 
ENDBRANCH  14  16
ENDBRANCH   4  11
TORSDOF 2
ENDMDL
MODEL       22
REMARK 921   NORMALIZED FREE ENERGY PREDICTED BY IDOCK:   -5.00 KCAL/MOL
REMARK 922        TOTAL FREE ENERGY PREDICTED BY IDOCK:   -5.93 KCAL/MOL
REMARK 923 INTER-LIGAND FREE ENERGY PREDICTED BY IDOCK:   -5.76 KCAL/MOL
REMARK 924 INTRA-LIGAND FREE ENERGY PREDICTED BY IDOCK:   -0.17 KCAL/MOL
REMARK 927      BINDING AFFINITY PREDICTED BY RF-SCORE:    0.00 PKD
ROOT
HETATM    1  C   UNL     1     -11.542  10.004  70.067  1.00  0.00    -0.279 C  
HETATM    2  C   UNL     1     -11.810  11.472  70.129  1.00  0.00    -0.440 C  
HETATM    3  C   UNL     1     -11.328  12.364  69.257  1.00  0.00    -0.254 C  
HETATM    4  N   UNL     1     -11.571  13.725  69.344  1.00  0.00    -0.292 N  
HETATM    5  O   UNL     1     -13.182  11.219  72.044  1.00  0.00    -0.506 OA 
HETATM    6  C   UNL     1     -12.419  14.230  70.324  1.00  0.00    -0.361 C  
HETATM    7  O   UNL     1     -12.748  15.411  70.421  1.00  0.00    -0.404 OA 
HETATM    8  H   UNL     1     -13.505  13.674  71.963  1.00  0.00     0.000 HD 
HETATM    9  N   UNL     1     -12.910  13.314  71.218  1.00  0.00    -0.345 N  
HETATM   10  C   UNL     1     -12.681  11.969  71.211  1.00  0.00    -0.279 C  
ENDROOT
BRANCH   4  11
HETATM   11  C   UNL     1     -11.127  14.647  68.300  1.00  0.00    -0.271 C  
HETATM   12  O   UNL     1     -12.104  14.750  67.238  1.00  0.00    -0.307 OA 
HETATM   13  C   UNL     1     -10.143  13.912  66.323  1.00  0.00    -0.306 C  
HETATM   14  C   UNL     1     -11.601  14.044  66.079  1.00  0.00    -0.357 C  
HETATM   15  C   UNL     1      -9.887  14.203  67.598  1.00  0.00    -0.229 C  
BRANCH  14  16
HETATM   16  C   UNL     1     -12.274  12.665  65.940  1.00  0.00    -0.307 C  
HETATM   17  O   UNL     1     -13.186  12.609  64.844  1.00  0.00    -0.819 OA 
HETATM   18  H   UNL     1     -13.602  11.759  64.758  1.00  0.00     0.000 HD 
ENDBRANCH  14  16
ENDBRANCH   4  11
TORSDOF 2
ENDMDL
MODEL       23
REMARK 921   NORMALIZED FREE ENERGY PREDICTED BY IDOCK:   -4.99 KCAL/MOL
REMARK 922        TOTAL FREE ENERGY PREDICTED BY IDOCK:   -5.92 KCAL/MOL
REMARK 923 INTER-LIGAND FREE ENERGY PREDICTED BY IDOCK:   -5.72 KCAL/MOL
REMARK 924 INTRA-LIGAND FREE ENERGY PREDICTED BY IDOCK:   -0.20 KCAL/MOL
REMARK 927      BINDING AFFINITY PREDICTED BY RF-SCORE:    0.00 PKD
ROOT
HETATM    1  C   UNL     1      -9.430  11.092  67.484  1.00  0.00    -0.178 C  
HETATM    2  C   UNL     1     -10.086  12.311  68.047  1.00  0.00    -0.206 C  
HETATM    3  C   UNL     1      -9.639  13.558  67.866  1.00  0.00    -0.218 C  
HETATM    4  N   UNL     1     -10.251  14.675  68.414  1.00  0.00    -0.229 N  
HETATM    5  O   UNL     1     -11.810  11.021  69.035  1.00  0.00    -0.310 OA 
HETATM    6  C   UNL     1     -11.437  14.551  69.129  1.00  0.00    -0.294 C  
HETATM    7  O   UNL     1     -12.082  15.496  69.580  1.00  0.00    -0.344 OA 
HETATM    8  H   UNL     1     -12.741  13.161  69.867  1.00  0.00     0.000 HD 
HETATM    9  N   UNL     1     -11.891  13.270  69.315  1.00  0.00    -0.322 N  
HETATM   10  C   UNL     1     -11.320  12.129  68.836  1.00  0.00    -0.283 C  
ENDROOT
BRANCH   4  11
HETATM   11  C   UNL     1      -9.800  16.027  68.088  1.00  0.00    -0.222 C  
HETATM   12  O   UNL     1     -10.745  16.703  67.225  1.00  0.00    -0.306 OA 
HETATM   13  C   UNL     1      -8.730  16.537  66.086  1.00  0.00    -0.335 C  
HETATM   14  C   UNL     1     -10.182  16.774  65.894  1.00  0.00    -0.328 C  
HETATM   15  C   UNL     1      -8.525  16.062  67.315  1.00  0.00    -0.206 C  
BRANCH  14  16
HETATM   16  C   UNL     1     -10.808  15.707  64.975  1.00  0.00    -0.450 C  
HETATM   17  O   UNL     1     -11.587  16.279  63.924  1.00  0.00    -1.489 OA 
HETATM   18  H   UNL     1     -11.973  15.622  63.358  1.00  0.00     0.000 HD 
ENDBRANCH  14  16
ENDBRANCH   4  11
TORSDOF 2
ENDMDL
MODEL       24
REMARK 921   NORMALIZED FREE ENERGY PREDICTED BY IDOCK:   -4.98 KCAL/MOL
REMARK 922        TOTAL FREE ENERGY PREDICTED BY IDOCK:   -5.91 KCAL/MOL
REMARK 923 INTER-LIGAND FREE ENERGY PREDICTED BY IDOCK:   -5.97 KCAL/MOL
REMARK 924 INTRA-LIGAND FREE ENERGY PREDICTED BY IDOCK:    0.07 KCAL/MOL
REMARK 927      BINDING AFFINITY PREDICTED BY RF-SCORE:    0.00 PKD
ROOT
HETATM    1  C   UNL     1     -11.153  10.391  69.170  1.00  0.00    -0.296 C  
HETATM    2  C   UNL     1     -11.871  11.278  70.135  1.00  0.00    -0.449 C  
HETATM    3  C   UNL     1     -11.934  12.610  70.031  1.00  0.00    -0.306 C  
HETATM    4  N   UNL     1     -12.589  13.417  70.948  1.00  0.00    -0.349 N  
HETATM    5  O   UNL     1     -12.584   9.425  71.427  1.00  0.00    -0.317 OA 
HETATM    6  C   UNL     1     -13.297  12.855  72.004  1.00  0.00    -0.482 C  
HETATM    7  O   UNL     1     -13.967  13.494  72.814  1.00  0.00    -0.733 OA 
HETATM    8  H   UNL     1     -13.715  11.066  72.900  1.00  0.00     0.000 HD 
HETATM    9  N   UNL     1     -13.228  11.489  72.110  1.00  0.00    -0.404 N  
HETATM   10  C   UNL     1     -12.574  10.641  71.265  1.00  0.00    -0.427 C  
ENDROOT
BRANCH   4  11
HETATM   11  C   UNL     1     -12.738  14.855  70.728  1.00  0.00    -0.363 C  
HETATM   12  O   UNL     1     -12.472  15.206  69.349  1.00  0.00    -0.165 OA 
HETATM   13  C   UNL     1     -10.917  16.303  70.677  1.00  0.00    -0.179 C  
HETATM   14  C   UNL     1     -11.190  15.873  69.283  1.00  0.00    -0.335 C  
HETATM   15  C   UNL     1     -11.763  15.681  71.497  1.00  0.00    -0.504 C  
BRANCH  14  16
HETATM   16  C   UNL     1     -10.098  14.915  68.767  1.00  0.00    -0.241 C  
HETATM   17  O   UNL     1      -8.993  14.813  69.665  1.00  0.00    -0.425 OA 
HETATM   18  H   UNL     1      -8.320  14.222  69.348  1.00  0.00     0.000 HD 
ENDBRANCH  14  16
ENDBRANCH   4  11
TORSDOF 2
ENDMDL
MODEL       25
REMARK 921   NORMALIZED FREE ENERGY PREDICTED BY IDOCK:   -4.89 KCAL/MOL
REMARK 922        TOTAL FREE ENERGY PREDICTED BY IDOCK:   -5.81 KCAL/MOL
REMARK 923 INTER-LIGAND FREE ENERGY PREDICTED BY IDOCK:   -5.61 KCAL/MOL
REMARK 924 INTRA-LIGAND FREE ENERGY PREDICTED BY IDOCK:   -0.19 KCAL/MOL
REMARK 927      BINDING AFFINITY PREDICTED BY RF-SCORE:    0.00 PKD
ROOT
HETATM    1  C   UNL     1      -7.471  14.077  67.413  1.00  0.00    -0.147 C  
HETATM    2  C   UNL     1      -8.744  13.304  67.540  1.00  0.00    -0.202 C  
HETATM    3  C   UNL     1      -9.892  13.639  66.941  1.00  0.00    -0.261 C  
HETATM    4  N   UNL     1     -11.067  12.920  67.087  1.00  0.00    -0.266 N  
HETATM    5  O   UNL     1      -7.714  11.688  68.933  1.00  0.00    -0.125 OA 
HETATM    6  C   UNL     1     -11.085  11.738  67.820  1.00  0.00    -0.243 C  
HETATM    7  O   UNL     1     -12.064  11.003  67.934  1.00  0.00    -0.600 OA 
HETATM    8  H   UNL     1      -9.915  10.553  69.005  1.00  0.00     0.000 HD 
HETATM    9  N   UNL     1      -9.908  11.399  68.436  1.00  0.00    -0.200 N  
HETATM   10  C   UNL     1      -8.728  12.079  68.363  1.00  0.00    -0.147 C  
ENDROOT
BRANCH   4  11
HETATM   11  C   UNL     1     -12.265  13.252  66.317  1.00  0.00    -0.377 C  
HETATM   12  O   UNL     1     -12.526  12.257  65.298  1.00  0.00    -0.585 OA 
HETATM   13  C   UNL     1     -12.161  14.287  64.236  1.00  0.00    -0.467 C  
HETATM   14  C   UNL     1     -12.194  12.821  64.008  1.00  0.00    -0.441 C  
HETATM   15  C   UNL     1     -12.147  14.524  65.547  1.00  0.00    -0.299 C  
BRANCH  14  16
HETATM   16  C   UNL     1     -10.830  12.299  63.515  1.00  0.00    -0.454 C  
HETATM   17  O   UNL     1     -10.916  10.987  62.959  1.00  0.00    -0.798 OA 
HETATM   18  H   UNL     1     -10.075  10.665  62.655  1.00  0.00     0.000 HD 
ENDBRANCH  14  16
ENDBRANCH   4  11
TORSDOF 2
ENDMDL
MODEL       26
REMARK 921   NORMALIZED FREE ENERGY PREDICTED BY IDOCK:   -4.81 KCAL/MOL
REMARK 922        TOTAL FREE ENERGY PREDICTED BY IDOCK:   -5.72 KCAL/MOL
REMARK 923 INTER-LIGAND FREE ENERGY PREDICTED BY IDOCK:   -5.40 KCAL/MOL
REMARK 924 INTRA-LIGAND FREE ENERGY PREDICTED BY IDOCK:   -0.32 KCAL/MOL
REMARK 927      BINDING AFFINITY PREDICTED BY RF-SCORE:    0.00 PKD
ROOT
HETATM    1  C   UNL     1     -11.922  15.691  72.668  1.00  0.00    -0.578 C  
HETATM    2  C   UNL     1     -11.903  15.342  71.215  1.00  0.00    -0.437 C  
HETATM    3  C   UNL     1     -11.419  16.138  70.255  1.00  0.00    -0.308 C  
HETATM    4  N   UNL     1     -11.429  15.804  68.910  1.00  0.00    -0.357 N  
HETATM    5  O   UNL     1     -12.880  13.224  71.632  1.00  0.00    -0.345 OA 
HETATM    6  C   UNL     1     -11.883  14.556  68.495  1.00  0.00    -0.320 C  
HETATM    7  O   UNL     1     -11.853  14.154  67.334  1.00  0.00    -0.374 OA 
HETATM    8  H   UNL     1     -12.749  12.839  69.188  1.00  0.00     0.000 HD 
HETATM    9  N   UNL     1     -12.381  13.744  69.482  1.00  0.00    -0.280 N  
HETATM   10  C   UNL     1     -12.433  14.024  70.815  1.00  0.00    -0.372 C  
ENDROOT
BRANCH   4  11
HETATM   11  C   UNL     1     -10.779  16.649  67.910  1.00  0.00    -0.344 C  
HETATM   12  O   UNL     1      -9.537  16.062  67.453  1.00  0.00    -0.223 OA 
HETATM   13  C   UNL     1      -9.040  18.100  68.445  1.00  0.00    -0.318 C  
HETATM   14  C   UNL     1      -8.437  16.812  68.020  1.00  0.00    -0.205 C  
HETATM   15  C   UNL     1     -10.367  17.984  68.432  1.00  0.00    -0.377 C  
BRANCH  14  16
HETATM   16  C   UNL     1      -7.818  16.061  69.214  1.00  0.00    -0.222 C  
HETATM   17  O   UNL     1      -8.306  14.724  69.332  1.00  0.00    -0.342 OA 
HETATM   18  H   UNL     1      -7.925  14.261  70.068  1.00  0.00     0.000 HD 
ENDBRANCH  14  16
ENDBRANCH   4  11
TORSDOF 2
ENDMDL
MODEL       27
REMARK 921   NORMALIZED FREE ENERGY PREDICTED BY IDOCK:   -4.81 KCAL/MOL
REMARK 922        TOTAL FREE ENERGY PREDICTED BY IDOCK:   -5.72 KCAL/MOL
REMARK 923 INTER-LIGAND FREE ENERGY PREDICTED BY IDOCK:   -5.42 KCAL/MOL
REMARK 924 INTRA-LIGAND FREE ENERGY PREDICTED BY IDOCK:   -0.29 KCAL/MOL
REMARK 927      BINDING AFFINITY PREDICTED BY RF-SCORE:    0.00 PKD
ROOT
HETATM    1  C   UNL     1     -12.101  13.572  69.902  1.00  0.00    -0.408 C  
HETATM    2  C   UNL     1     -11.725  13.833  68.480  1.00  0.00    -0.391 C  
HETATM    3  C   UNL     1     -11.325  15.021  68.012  1.00  0.00    -0.327 C  
HETATM    4  N   UNL     1     -11.000  15.248  66.684  1.00  0.00    -0.313 N  
HETATM    5  O   UNL     1     -12.115  11.575  67.881  1.00  0.00    -0.630 OA 
HETATM    6  C   UNL     1     -10.998  14.202  65.769  1.00  0.00    -0.301 C  
HETATM    7  O   UNL     1     -10.648  14.303  64.594  1.00  0.00    -0.421 OA 
HETATM    8  H   UNL     1     -11.447  12.216  65.582  1.00  0.00     0.000 HD 
HETATM    9  N   UNL     1     -11.411  12.986  66.251  1.00  0.00    -0.305 N  
HETATM   10  C   UNL     1     -11.778  12.703  67.533  1.00  0.00    -0.368 C  
ENDROOT
BRANCH   4  11
HETATM   11  C   UNL     1     -10.450  16.529  66.243  1.00  0.00    -0.281 C  
HETATM   12  O   UNL     1      -9.070  16.393  65.828  1.00  0.00    -0.465 OA 
HETATM   13  C   UNL     1      -9.134  17.862  67.622  1.00  0.00    -0.250 C  
HETATM   14  C   UNL     1      -8.224  16.990  66.838  1.00  0.00    -0.213 C  
HETATM   15  C   UNL     1     -10.396  17.559  67.320  1.00  0.00    -0.337 C  
BRANCH  14  16
HETATM   16  C   UNL     1      -7.582  15.907  67.727  1.00  0.00    -0.140 C  
HETATM   17  O   UNL     1      -7.625  14.612  67.127  1.00  0.00    -0.272 OA 
HETATM   18  H   UNL     1      -7.229  13.944  67.675  1.00  0.00     0.000 HD 
ENDBRANCH  14  16
ENDBRANCH   4  11
TORSDOF 2
ENDMDL
MODEL       28
REMARK 921   NORMALIZED FREE ENERGY PREDICTED BY IDOCK:   -4.80 KCAL/MOL
REMARK 922        TOTAL FREE ENERGY PREDICTED BY IDOCK:   -5.71 KCAL/MOL
REMARK 923 INTER-LIGAND FREE ENERGY PREDICTED BY IDOCK:   -5.44 KCAL/MOL
REMARK 924 INTRA-LIGAND FREE ENERGY PREDICTED BY IDOCK:   -0.27 KCAL/MOL
REMARK 927      BINDING AFFINITY PREDICTED BY RF-SCORE:    0.00 PKD
ROOT
HETATM    1  C   UNL     1      -8.816  18.091  68.446  1.00  0.00    -0.300 C  
HETATM    2  C   UNL     1      -9.580  17.597  67.260  1.00  0.00    -0.271 C  
HETATM    3  C   UNL     1      -9.768  16.305  66.970  1.00  0.00    -0.239 C  
HETATM    4  N   UNL     1     -10.463  15.866  65.854  1.00  0.00    -0.341 N  
HETATM    5  O   UNL     1     -10.079  19.806  66.564  1.00  0.00    -0.400 OA 
HETATM    6  C   UNL     1     -11.082  16.777  65.005  1.00  0.00    -0.057 C  
HETATM    7  O   UNL     1     -11.780  16.469  64.041  1.00  0.00    -1.111 OA 
HETATM    8  H   UNL     1     -11.305  18.781  64.671  1.00  0.00     0.000 HD 
HETATM    9  N   UNL     1     -10.886  18.101  65.304  1.00  0.00     0.091 N  
HETATM   10  C   UNL     1     -10.185  18.600  66.363  1.00  0.00    -0.425 C  
ENDROOT
BRANCH   4  11
HETATM   11  C   UNL     1     -10.749  14.448  65.643  1.00  0.00    -0.320 C  
HETATM   12  O   UNL     1     -12.025  14.079  66.217  1.00  0.00    -0.390 OA 
HETATM   13  C   UNL     1     -10.377  12.844  67.286  1.00  0.00    -0.234 C  
HETATM   14  C   UNL     1     -11.784  13.300  67.412  1.00  0.00    -0.373 C  
HETATM   15  C   UNL     1      -9.780  13.537  66.317  1.00  0.00    -0.287 C  
BRANCH  14  16
HETATM   16  C   UNL     1     -11.984  14.158  68.676  1.00  0.00    -0.338 C  
HETATM   17  O   UNL     1     -11.094  13.793  69.731  1.00  0.00    -0.444 OA 
HETATM   18  H   UNL     1     -11.217  14.322  70.511  1.00  0.00     0.000 HD 
ENDBRANCH  14  16
ENDBRANCH   4  11
TORSDOF 2
ENDMDL
MODEL       29
REMARK 921   NORMALIZED FREE ENERGY PREDICTED BY IDOCK:   -4.79 KCAL/MOL
REMARK 922        TOTAL FREE ENERGY PREDICTED BY IDOCK:   -5.70 KCAL/MOL
REMARK 923 INTER-LIGAND FREE ENERGY PREDICTED BY IDOCK:   -5.80 KCAL/MOL
REMARK 924 INTRA-LIGAND FREE ENERGY PREDICTED BY IDOCK:    0.10 KCAL/MOL
REMARK 927      BINDING AFFINITY PREDICTED BY RF-SCORE:    0.00 PKD
ROOT
HETATM    1  C   UNL     1     -11.040  11.535  63.604  1.00  0.00    -0.469 C  
HETATM    2  C   UNL     1     -11.348  12.329  64.831  1.00  0.00    -0.373 C  
HETATM    3  C   UNL     1     -10.933  12.007  66.061  1.00  0.00    -0.304 C  
HETATM    4  N   UNL     1     -11.247  12.747  67.191  1.00  0.00    -0.278 N  
HETATM    5  O   UNL     1     -12.551  13.941  63.579  1.00  0.00    -0.842 OA 
HETATM    6  C   UNL     1     -11.960  13.936  67.081  1.00  0.00    -0.420 C  
HETATM    7  O   UNL     1     -12.212  14.688  68.020  1.00  0.00    -0.225 OA 
HETATM    8  H   UNL     1     -12.941  15.113  65.728  1.00  0.00     0.000 HD 
HETATM    9  N   UNL     1     -12.387  14.262  65.819  1.00  0.00    -0.424 N  
HETATM   10  C   UNL     1     -12.145  13.562  64.674  1.00  0.00    -0.409 C  
ENDROOT
BRANCH   4  11
HETATM   11  C   UNL     1     -10.669  12.428  68.495  1.00  0.00    -0.238 C  
HETATM   12  O   UNL     1      -9.626  11.432  68.379  1.00  0.00    -0.185 OA 
HETATM   13  C   UNL     1     -11.306  10.551  69.714  1.00  0.00    -0.367 C  
HETATM   14  C   UNL     1     -10.128  10.176  68.894  1.00  0.00    -0.200 C  
HETATM   15  C   UNL     1     -11.641  11.812  69.444  1.00  0.00    -0.386 C  
BRANCH  14  16
HETATM   16  C   UNL     1     -10.523   9.230  67.744  1.00  0.00    -0.255 C  
HETATM   17  O   UNL     1     -10.798   7.904  68.197  1.00  0.00    -0.426 OA 
HETATM   18  H   UNL     1     -11.042   7.320  67.489  1.00  0.00     0.000 HD 
ENDBRANCH  14  16
ENDBRANCH   4  11
TORSDOF 2
ENDMDL
MODEL       30
REMARK 921   NORMALIZED FREE ENERGY PREDICTED BY IDOCK:   -4.78 KCAL/MOL
REMARK 922        TOTAL FREE ENERGY PREDICTED BY IDOCK:   -5.69 KCAL/MOL
REMARK 923 INTER-LIGAND FREE ENERGY PREDICTED BY IDOCK:   -5.40 KCAL/MOL
REMARK 924 INTRA-LIGAND FREE ENERGY PREDICTED BY IDOCK:   -0.29 KCAL/MOL
REMARK 927      BINDING AFFINITY PREDICTED BY RF-SCORE:    0.00 PKD
ROOT
HETATM    1  C   UNL     1     -10.852   6.319  67.696  1.00  0.00    -0.433 C  
HETATM    2  C   UNL     1     -10.701   6.471  69.174  1.00  0.00    -0.323 C  
HETATM    3  C   UNL     1     -10.962   7.597  69.847  1.00  0.00    -0.200 C  
HETATM    4  N   UNL     1     -10.797   7.724  71.217  1.00  0.00    -0.229 N  
HETATM    5  O   UNL     1     -10.014   4.216  69.414  1.00  0.00    -0.158 OA 
HETATM    6  C   UNL     1     -10.419   6.629  71.987  1.00  0.00    -0.204 C  
HETATM    7  O   UNL     1     -10.326   6.637  73.213  1.00  0.00    -0.210 OA 
HETATM    8  H   UNL     1      -9.839   4.675  71.842  1.00  0.00     0.000 HD 
HETATM    9  N   UNL     1     -10.150   5.477  71.294  1.00  0.00    -0.198 N  
HETATM   10  C   UNL     1     -10.257   5.295  69.947  1.00  0.00    -0.294 C  
ENDROOT
BRANCH   4  11
HETATM   11  C   UNL     1     -11.211   8.934  71.926  1.00  0.00    -0.377 C  
HETATM   12  O   UNL     1     -12.336   8.673  72.798  1.00  0.00    -0.321 OA 
HETATM   13  C   UNL     1     -13.003  10.239  71.222  1.00  0.00    -0.517 C  
HETATM   14  C   UNL     1     -13.520   9.260  72.210  1.00  0.00    -0.482 C  
HETATM   15  C   UNL     1     -11.705  10.015  71.025  1.00  0.00    -0.479 C  
BRANCH  14  16
HETATM   16  C   UNL     1     -14.388   8.182  71.530  1.00  0.00    -0.430 C  
HETATM   17  O   UNL     1     -14.104   6.869  72.012  1.00  0.00    -0.546 OA 
HETATM   18  H   UNL     1     -14.638   6.204  71.593  1.00  0.00     0.000 HD 
ENDBRANCH  14  16
ENDBRANCH   4  11
TORSDOF 2
ENDMDL
MODEL       31
REMARK 921   NORMALIZED FREE ENERGY PREDICTED BY IDOCK:   -4.76 KCAL/MOL
REMARK 922        TOTAL FREE ENERGY PREDICTED BY IDOCK:   -5.67 KCAL/MOL
REMARK 923 INTER-LIGAND FREE ENERGY PREDICTED BY IDOCK:   -5.30 KCAL/MOL
REMARK 924 INTRA-LIGAND FREE ENERGY PREDICTED BY IDOCK:   -0.36 KCAL/MOL
REMARK 927      BINDING AFFINITY PREDICTED BY RF-SCORE:    0.00 PKD
ROOT
HETATM    1  C   UNL     1     -11.921  12.536  70.081  1.00  0.00    -0.377 C  
HETATM    2  C   UNL     1     -11.445  11.872  68.830  1.00  0.00    -0.358 C  
HETATM    3  C   UNL     1     -11.698  12.321  67.596  1.00  0.00    -0.334 C  
HETATM    4  N   UNL     1     -11.264  11.679  66.447  1.00  0.00    -0.311 N  
HETATM    5  O   UNL     1     -10.326  10.185  70.060  1.00  0.00    -0.260 OA 
HETATM    6  C   UNL     1     -10.453  10.552  66.531  1.00  0.00    -0.212 C  
HETATM    7  O   UNL     1      -9.963   9.972  65.563  1.00  0.00    -0.289 OA 
HETATM    8  H   UNL     1      -9.632   9.248  67.873  1.00  0.00     0.000 HD 
HETATM    9  N   UNL     1     -10.197  10.094  67.797  1.00  0.00    -0.180 N  
HETATM   10  C   UNL     1     -10.622  10.655  68.965  1.00  0.00    -0.219 C  
ENDROOT
BRANCH   4  11
HETATM   11  C   UNL     1     -11.458  12.270  65.124  1.00  0.00    -0.341 C  
HETATM   12  O   UNL     1     -10.252  12.919  64.656  1.00  0.00    -0.327 OA 
HETATM   13  C   UNL     1     -11.910  14.533  64.824  1.00  0.00    -0.446 C  
HETATM   14  C   UNL     1     -10.440  14.352  64.732  1.00  0.00    -0.367 C  
HETATM   15  C   UNL     1     -12.477  13.359  65.100  1.00  0.00    -0.509 C  
BRANCH  14  16
HETATM   16  C   UNL     1      -9.724  14.935  65.966  1.00  0.00    -0.328 C  
HETATM   17  O   UNL     1      -8.702  14.072  66.463  1.00  0.00    -0.444 OA 
HETATM   18  H   UNL     1      -8.261  14.431  67.224  1.00  0.00     0.000 HD 
ENDBRANCH  14  16
ENDBRANCH   4  11
TORSDOF 2
ENDMDL
MODEL       32
REMARK 921   NORMALIZED FREE ENERGY PREDICTED BY IDOCK:   -4.76 KCAL/MOL
REMARK 922        TOTAL FREE ENERGY PREDICTED BY IDOCK:   -5.66 KCAL/MOL
REMARK 923 INTER-LIGAND FREE ENERGY PREDICTED BY IDOCK:   -5.79 KCAL/MOL
REMARK 924 INTRA-LIGAND FREE ENERGY PREDICTED BY IDOCK:    0.13 KCAL/MOL
REMARK 927      BINDING AFFINITY PREDICTED BY RF-SCORE:    0.00 PKD
ROOT
HETATM    1  C   UNL     1     -12.263  14.065  69.746  1.00  0.00    -0.396 C  
HETATM    2  C   UNL     1     -11.825  12.811  69.063  1.00  0.00    -0.344 C  
HETATM    3  C   UNL     1     -11.205  12.776  67.878  1.00  0.00    -0.274 C  
HETATM    4  N   UNL     1     -10.824  11.600  67.250  1.00  0.00    -0.241 N  
HETATM    5  O   UNL     1     -12.617  11.469  70.847  1.00  0.00    -0.369 OA 
HETATM    6  C   UNL     1     -11.002  10.374  67.881  1.00  0.00    -0.297 C  
HETATM    7  O   UNL     1     -10.622   9.295  67.428  1.00  0.00    -0.272 OA 
HETATM    8  H   UNL     1     -11.808   9.517  69.552  1.00  0.00     0.000 HD 
HETATM    9  N   UNL     1     -11.640  10.412  69.094  1.00  0.00    -0.205 N  
HETATM   10  C   UNL     1     -12.072  11.528  69.749  1.00  0.00    -0.306 C  
ENDROOT
BRANCH   4  11
HETATM   11  C   UNL     1     -10.040  11.615  66.016  1.00  0.00    -0.224 C  
HETATM   12  O   UNL     1      -9.911  12.957  65.491  1.00  0.00    -0.271 OA 
HETATM   13  C   UNL     1     -11.031  11.679  63.912  1.00  0.00    -0.478 C  
HETATM   14  C   UNL     1     -10.755  13.079  64.322  1.00  0.00    -0.407 C  
HETATM   15  C   UNL     1     -10.673  10.857  64.898  1.00  0.00    -0.240 C  
BRANCH  14  16
HETATM   16  C   UNL     1     -12.057  13.831  64.660  1.00  0.00    -0.421 C  
HETATM   17  O   UNL     1     -12.377  14.830  63.693  1.00  0.00    -1.046 OA 
HETATM   18  H   UNL     1     -13.180  15.294  63.901  1.00  0.00     0.000 HD 
ENDBRANCH  14  16
ENDBRANCH   4  11
TORSDOF 2
ENDMDL
MODEL       33
REMARK 921   NORMALIZED FREE ENERGY PREDICTED BY IDOCK:   -4.74 KCAL/MOL
REMARK 922        TOTAL FREE ENERGY PREDICTED BY IDOCK:   -5.64 KCAL/MOL
REMARK 923 INTER-LIGAND FREE ENERGY PREDICTED BY IDOCK:   -5.80 KCAL/MOL
REMARK 924 INTRA-LIGAND FREE ENERGY PREDICTED BY IDOCK:    0.17 KCAL/MOL
REMARK 927      BINDING AFFINITY PREDICTED BY RF-SCORE:    0.00 PKD
ROOT
HETATM    1  C   UNL     1     -10.894  10.835  67.675  1.00  0.00    -0.332 C  
HETATM    2  C   UNL     1     -11.582  11.245  68.937  1.00  0.00    -0.386 C  
HETATM    3  C   UNL     1     -12.033  10.391  69.861  1.00  0.00    -0.215 C  
HETATM    4  N   UNL     1     -12.687  10.790  71.016  1.00  0.00    -0.390 N  
HETATM    5  O   UNL     1     -11.356  13.543  68.404  1.00  0.00    -0.257 OA 
HETATM    6  C   UNL     1     -12.836  12.141  71.311  1.00  0.00    -0.250 C  
HETATM    7  O   UNL     1     -13.333  12.578  72.348  1.00  0.00    -0.498 OA 
HETATM    8  H   UNL     1     -12.508  14.008  70.548  1.00  0.00     0.000 HD 
HETATM    9  N   UNL     1     -12.375  13.015  70.361  1.00  0.00    -0.315 N  
HETATM   10  C   UNL     1     -11.756  12.689  69.190  1.00  0.00    -0.321 C  
ENDROOT
BRANCH   4  11
HETATM   11  C   UNL     1     -13.053   9.830  72.056  1.00  0.00    -0.452 C  
HETATM   12  O   UNL     1     -11.923   9.008  72.432  1.00  0.00    -0.316 OA 
HETATM   13  C   UNL     1     -13.569   7.612  71.579  1.00  0.00    -0.422 C  
HETATM   14  C   UNL     1     -12.119   7.680  71.891  1.00  0.00    -0.298 C  
HETATM   15  C   UNL     1     -14.081   8.841  71.621  1.00  0.00    -0.437 C  
BRANCH  14  16
HETATM   16  C   UNL     1     -11.263   7.470  70.627  1.00  0.00    -0.268 C  
HETATM   17  O   UNL     1     -11.873   6.576  69.696  1.00  0.00    -0.645 OA 
HETATM   18  H   UNL     1     -11.345   6.447  68.917  1.00  0.00     0.000 HD 
ENDBRANCH  14  16
ENDBRANCH   4  11
TORSDOF 2
ENDMDL
MODEL       34
REMARK 921   NORMALIZED FREE ENERGY PREDICTED BY IDOCK:   -4.73 KCAL/MOL
REMARK 922        TOTAL FREE ENERGY PREDICTED BY IDOCK:   -5.63 KCAL/MOL
REMARK 923 INTER-LIGAND FREE ENERGY PREDICTED BY IDOCK:   -5.80 KCAL/MOL
REMARK 924 INTRA-LIGAND FREE ENERGY PREDICTED BY IDOCK:    0.17 KCAL/MOL
REMARK 927      BINDING AFFINITY PREDICTED BY RF-SCORE:    0.00 PKD
ROOT
HETATM    1  C   UNL     1     -13.091  10.513  71.836  1.00  0.00    -0.567 C  
HETATM    2  C   UNL     1     -12.732  11.757  71.092  1.00  0.00    -0.405 C  
HETATM    3  C   UNL     1     -12.153  11.774  69.886  1.00  0.00    -0.287 C  
HETATM    4  N   UNL     1     -11.809  12.939  69.220  1.00  0.00    -0.314 N  
HETATM    5  O   UNL     1     -13.604  13.132  72.813  1.00  0.00    -0.598 OA 
HETATM    6  C   UNL     1     -12.133  14.181  69.757  1.00  0.00    -0.354 C  
HETATM    7  O   UNL     1     -11.934  15.257  69.195  1.00  0.00    -0.315 OA 
HETATM    8  H   UNL     1     -12.937  15.065  71.415  1.00  0.00     0.000 HD 
HETATM    9  N   UNL     1     -12.724  14.161  70.994  1.00  0.00    -0.343 N  
HETATM   10  C   UNL     1     -13.056  13.054  71.718  1.00  0.00    -0.373 C  
ENDROOT
BRANCH   4  11
HETATM   11  C   UNL     1     -11.292  12.912  67.853  1.00  0.00    -0.294 C  
HETATM   12  O   UNL     1     -11.709  11.713  67.158  1.00  0.00    -0.566 OA 
HETATM   13  C   UNL     1      -9.391  11.707  67.264  1.00  0.00    -0.170 C  
HETATM   14  C   UNL     1     -10.568  10.832  67.034  1.00  0.00    -0.260 C  
HETATM   15  C   UNL     1      -9.803  12.865  67.778  1.00  0.00    -0.221 C  
BRANCH  14  16
HETATM   16  C   UNL     1     -10.635   9.697  68.075  1.00  0.00    -0.243 C  
HETATM   17  O   UNL     1     -10.925   8.430  67.485  1.00  0.00    -0.493 OA 
HETATM   18  H   UNL     1     -10.967   7.731  68.126  1.00  0.00     0.000 HD 
ENDBRANCH  14  16
ENDBRANCH   4  11
TORSDOF 2
ENDMDL
MODEL       35
REMARK 921   NORMALIZED FREE ENERGY PREDICTED BY IDOCK:   -4.69 KCAL/MOL
REMARK 922        TOTAL FREE ENERGY PREDICTED BY IDOCK:   -5.58 KCAL/MOL
REMARK 923 INTER-LIGAND FREE ENERGY PREDICTED BY IDOCK:   -5.74 KCAL/MOL
REMARK 924 INTRA-LIGAND FREE ENERGY PREDICTED BY IDOCK:    0.16 KCAL/MOL
REMARK 927      BINDING AFFINITY PREDICTED BY RF-SCORE:    0.00 PKD
ROOT
HETATM    1  C   UNL     1     -10.632  12.655  63.516  1.00  0.00    -0.301 C  
HETATM    2  C   UNL     1     -10.922  13.346  64.809  1.00  0.00    -0.371 C  
HETATM    3  C   UNL     1     -10.015  14.022  65.521  1.00  0.00    -0.276 C  
HETATM    4  N   UNL     1     -10.299  14.640  66.729  1.00  0.00    -0.265 N  
HETATM    5  O   UNL     1     -13.204  12.715  64.724  1.00  0.00    -0.846 OA 
HETATM    6  C   UNL     1     -11.597  14.652  67.228  1.00  0.00    -0.387 C  
HETATM    7  O   UNL     1     -11.946  15.242  68.249  1.00  0.00    -0.297 OA 
HETATM    8  H   UNL     1     -13.473  13.927  66.868  1.00  0.00     0.000 HD 
HETATM    9  N   UNL     1     -12.524  13.956  66.496  1.00  0.00    -0.391 N  
HETATM   10  C   UNL     1     -12.305  13.297  65.322  1.00  0.00    -0.476 C  
ENDROOT
BRANCH   4  11
HETATM   11  C   UNL     1      -9.308  15.472  67.411  1.00  0.00    -0.207 C  
HETATM   12  O   UNL     1      -9.894  16.710  67.877  1.00  0.00    -0.240 OA 
HETATM   13  C   UNL     1      -8.225  17.239  66.355  1.00  0.00    -0.317 C  
HETATM   14  C   UNL     1      -9.426  17.788  67.032  1.00  0.00    -0.271 C  
HETATM   15  C   UNL     1      -8.193  15.918  66.528  1.00  0.00    -0.307 C  
BRANCH  14  16
HETATM   16  C   UNL     1     -10.507  18.196  66.013  1.00  0.00    -0.335 C  
HETATM   17  O   UNL     1     -10.438  19.580  65.667  1.00  0.00    -0.456 OA 
HETATM   18  H   UNL     1     -11.104  19.832  65.039  1.00  0.00     0.000 HD 
ENDBRANCH  14  16
ENDBRANCH   4  11
TORSDOF 2
ENDMDL
MODEL       36
REMARK 921   NORMALIZED FREE ENERGY PREDICTED BY IDOCK:   -4.65 KCAL/MOL
REMARK 922        TOTAL FREE ENERGY PREDICTED BY IDOCK:   -5.54 KCAL/MOL
REMARK 923 INTER-LIGAND FREE ENERGY PREDICTED BY IDOCK:   -5.29 KCAL/MOL
REMARK 924 INTRA-LIGAND FREE ENERGY PREDICTED BY IDOCK:   -0.25 KCAL/MOL
REMARK 927      BINDING AFFINITY PREDICTED BY RF-SCORE:    0.00 PKD
ROOT
HETATM    1  C   UNL     1     -13.320  15.523  71.612  1.00  0.00    -0.585 C  
HETATM    2  C   UNL     1     -12.842  14.288  70.920  1.00  0.00    -0.416 C  
HETATM    3  C   UNL     1     -12.317  14.269  69.690  1.00  0.00    -0.266 C  
HETATM    4  N   UNL     1     -11.898  13.109  69.057  1.00  0.00    -0.311 N  
HETATM    5  O   UNL     1     -13.386  12.938  72.789  1.00  0.00    -0.397 OA 
HETATM    6  C   UNL     1     -11.931  11.889  69.724  1.00  0.00    -0.307 C  
HETATM    7  O   UNL     1     -11.507  10.830  69.264  1.00  0.00    -0.254 OA 
HETATM    8  H   UNL     1     -12.535  11.019  71.472  1.00  0.00     0.000 HD 
HETATM    9  N   UNL     1     -12.472  11.912  70.984  1.00  0.00    -0.348 N  
HETATM   10  C   UNL     1     -12.935  13.009  71.649  1.00  0.00    -0.321 C  
ENDROOT
BRANCH   4  11
HETATM   11  C   UNL     1     -11.218  13.150  67.764  1.00  0.00    -0.277 C  
HETATM   12  O   UNL     1      -9.798  13.380  67.924  1.00  0.00    -0.222 OA 
HETATM   13  C   UNL     1     -10.675  15.148  66.703  1.00  0.00    -0.310 C  
HETATM   14  C   UNL     1      -9.503  14.737  67.516  1.00  0.00    -0.197 C  
HETATM   15  C   UNL     1     -11.663  14.273  66.890  1.00  0.00    -0.430 C  
BRANCH  14  16
HETATM   16  C   UNL     1      -9.322  15.652  68.743  1.00  0.00    -0.213 C  
HETATM   17  O   UNL     1      -8.833  14.947  69.883  1.00  0.00    -0.435 OA 
HETATM   18  H   UNL     1      -8.722  15.510  70.640  1.00  0.00     0.000 HD 
ENDBRANCH  14  16
ENDBRANCH   4  11
TORSDOF 2
ENDMDL
MODEL       37
REMARK 921   NORMALIZED FREE ENERGY PREDICTED BY IDOCK:   -4.61 KCAL/MOL
REMARK 922        TOTAL FREE ENERGY PREDICTED BY IDOCK:   -5.49 KCAL/MOL
REMARK 923 INTER-LIGAND FREE ENERGY PREDICTED BY IDOCK:   -5.26 KCAL/MOL
REMARK 924 INTRA-LIGAND FREE ENERGY PREDICTED BY IDOCK:   -0.23 KCAL/MOL
REMARK 927      BINDING AFFINITY PREDICTED BY RF-SCORE:    0.00 PKD
ROOT
HETATM    1  C   UNL     1     -11.099   8.322  72.395  1.00  0.00    -0.447 C  
HETATM    2  C   UNL     1     -11.288   9.220  71.216  1.00  0.00    -0.423 C  
HETATM    3  C   UNL     1     -10.496   9.223  70.138  1.00  0.00    -0.230 C  
HETATM    4  N   UNL     1     -10.676  10.078  69.062  1.00  0.00    -0.212 N  
HETATM    5  O   UNL     1     -13.221  10.199  72.172  1.00  0.00    -0.444 OA 
HETATM    6  C   UNL     1     -11.767  10.940  69.019  1.00  0.00    -0.320 C  
HETATM    7  O   UNL     1     -12.042  11.672  68.069  1.00  0.00    -0.597 OA 
HETATM    8  H   UNL     1     -13.360  11.587  70.125  1.00  0.00     0.000 HD 
HETATM    9  N   UNL     1     -12.575  10.936  70.127  1.00  0.00    -0.283 N  
HETATM   10  C   UNL     1     -12.434  10.148  71.232  1.00  0.00    -0.406 C  
ENDROOT
BRANCH   4  11
HETATM   11  C   UNL     1      -9.863   9.963  67.852  1.00  0.00    -0.143 C  
HETATM   12  O   UNL     1     -10.605   9.337  66.778  1.00  0.00    -0.221 OA 
HETATM   13  C   UNL     1      -8.779   7.990  67.263  1.00  0.00    -0.132 C  
HETATM   14  C   UNL     1     -10.104   7.991  66.596  1.00  0.00    -0.259 C  
HETATM   15  C   UNL     1      -8.669   9.084  68.016  1.00  0.00    -0.129 C  
BRANCH  14  16
HETATM   16  C   UNL     1     -11.055   6.960  67.234  1.00  0.00    -0.285 C  
HETATM   17  O   UNL     1     -11.401   5.906  66.336  1.00  0.00    -0.730 OA 
HETATM   18  H   UNL     1     -11.987   5.271  66.729  1.00  0.00     0.000 HD 
ENDBRANCH  14  16
ENDBRANCH   4  11
TORSDOF 2
ENDMDL
MODEL       38
REMARK 921   NORMALIZED FREE ENERGY PREDICTED BY IDOCK:   -4.55 KCAL/MOL
REMARK 922        TOTAL FREE ENERGY PREDICTED BY IDOCK:   -5.43 KCAL/MOL
REMARK 923 INTER-LIGAND FREE ENERGY PREDICTED BY IDOCK:   -5.55 KCAL/MOL
REMARK 924 INTRA-LIGAND FREE ENERGY PREDICTED BY IDOCK:    0.13 KCAL/MOL
REMARK 927      BINDING AFFINITY PREDICTED BY RF-SCORE:    0.00 PKD
ROOT
HETATM    1  C   UNL     1      -9.818  17.587  68.661  1.00  0.00    -0.338 C  
HETATM    2  C   UNL     1     -10.366  16.206  68.812  1.00  0.00    -0.248 C  
HETATM    3  C   UNL     1     -11.457  15.902  69.523  1.00  0.00    -0.342 C  
HETATM    4  N   UNL     1     -11.939  14.610  69.667  1.00  0.00    -0.309 N  
HETATM    5  O   UNL     1      -8.675  15.299  67.423  1.00  0.00    -0.163 OA 
HETATM    6  C   UNL     1     -11.339  13.553  68.993  1.00  0.00    -0.288 C  
HETATM    7  O   UNL     1     -11.750  12.394  69.005  1.00  0.00    -0.288 OA 
HETATM    8  H   UNL     1      -9.747  13.096  67.794  1.00  0.00     0.000 HD 
HETATM    9  N   UNL     1     -10.219  13.867  68.266  1.00  0.00    -0.241 N  
HETATM   10  C   UNL     1      -9.672  15.107  68.113  1.00  0.00    -0.217 C  
ENDROOT
BRANCH   4  11
HETATM   11  C   UNL     1     -13.203  14.340  70.351  1.00  0.00     0.113 C  
HETATM   12  O   UNL     1     -13.729  15.536  70.975  1.00  0.00    -0.546 OA 
HETATM   13  C   UNL     1     -13.327  13.976  72.645  1.00  0.00    -0.643 C  
HETATM   14  C   UNL     1     -13.550  15.423  72.407  1.00  0.00    -0.515 C  
HETATM   15  C   UNL     1     -13.077  13.376  71.481  1.00  0.00    -0.427 C  
BRANCH  14  16
HETATM   16  C   UNL     1     -12.346  16.262  72.878  1.00  0.00    -0.461 C  
HETATM   17  O   UNL     1     -12.384  16.533  74.279  1.00  0.00    -0.642 OA 
HETATM   18  H   UNL     1     -11.642  17.050  74.570  1.00  0.00     0.000 HD 
ENDBRANCH  14  16
ENDBRANCH   4  11
TORSDOF 2
ENDMDL
MODEL       39
REMARK 921   NORMALIZED FREE ENERGY PREDICTED BY IDOCK:   -4.54 KCAL/MOL
REMARK 922        TOTAL FREE ENERGY PREDICTED BY IDOCK:   -5.42 KCAL/MOL
REMARK 923 INTER-LIGAND FREE ENERGY PREDICTED BY IDOCK:   -5.06 KCAL/MOL
REMARK 924 INTRA-LIGAND FREE ENERGY PREDICTED BY IDOCK:   -0.36 KCAL/MOL
REMARK 927      BINDING AFFINITY PREDICTED BY RF-SCORE:    0.00 PKD
ROOT
HETATM    1  C   UNL     1     -10.459   9.406  68.012  1.00  0.00    -0.278 C  
HETATM    2  C   UNL     1     -10.316   9.997  66.647  1.00  0.00    -0.281 C  
HETATM    3  C   UNL     1     -10.904  11.132  66.253  1.00  0.00    -0.205 C  
HETATM    4  N   UNL     1     -10.775  11.655  64.976  1.00  0.00    -0.288 N  
HETATM    5  O   UNL     1      -8.861   8.258  65.961  1.00  0.00    -0.152 OA 
HETATM    6  C   UNL     1      -9.940  11.046  64.045  1.00  0.00    -0.335 C  
HETATM    7  O   UNL     1      -9.711  11.487  62.920  1.00  0.00    -0.372 OA 
HETATM    8  H   UNL     1      -8.752   9.406  63.768  1.00  0.00     0.000 HD 
HETATM    9  N   UNL     1      -9.341   9.882  64.451  1.00  0.00    -0.275 N  
HETATM   10  C   UNL     1      -9.453   9.296  65.678  1.00  0.00    -0.256 C  
ENDROOT
BRANCH   4  11
HETATM   11  C   UNL     1     -11.334  12.960  64.626  1.00  0.00    -0.323 C  
HETATM   12  O   UNL     1     -10.320  13.992  64.661  1.00  0.00    -0.440 OA 
HETATM   13  C   UNL     1     -11.938  14.528  66.235  1.00  0.00    -0.335 C  
HETATM   14  C   UNL     1     -10.538  14.812  65.833  1.00  0.00    -0.314 C  
HETATM   15  C   UNL     1     -12.366  13.445  65.588  1.00  0.00    -0.521 C  
BRANCH  14  16
HETATM   16  C   UNL     1      -9.546  14.444  66.954  1.00  0.00    -0.256 C  
HETATM   17  O   UNL     1      -8.431  13.694  66.472  1.00  0.00    -0.428 OA 
HETATM   18  H   UNL     1      -7.820  13.467  67.163  1.00  0.00     0.000 HD 
ENDBRANCH  14  16
ENDBRANCH   4  11
TORSDOF 2
ENDMDL
MODEL       40
REMARK 921   NORMALIZED FREE ENERGY PREDICTED BY IDOCK:   -4.53 KCAL/MOL
REMARK 922        TOTAL FREE ENERGY PREDICTED BY IDOCK:   -5.41 KCAL/MOL
REMARK 923 INTER-LIGAND FREE ENERGY PREDICTED BY IDOCK:   -5.08 KCAL/MOL
REMARK 924 INTRA-LIGAND FREE ENERGY PREDICTED BY IDOCK:   -0.33 KCAL/MOL
REMARK 927      BINDING AFFINITY PREDICTED BY RF-SCORE:    0.00 PKD
ROOT
HETATM    1  C   UNL     1     -10.440  11.254  68.900  1.00  0.00    -0.232 C  
HETATM    2  C   UNL     1     -11.315  10.607  69.924  1.00  0.00    -0.386 C  
HETATM    3  C   UNL     1     -11.343   9.293  70.170  1.00  0.00    -0.164 C  
HETATM    4  N   UNL     1     -12.176   8.709  71.110  1.00  0.00    -0.274 N  
HETATM    5  O   UNL     1     -12.216  12.696  70.587  1.00  0.00    -0.374 OA 
HETATM    6  C   UNL     1     -12.987   9.497  71.920  1.00  0.00    -0.425 C  
HETATM    7  O   UNL     1     -13.696   9.065  72.828  1.00  0.00    -0.434 OA 
HETATM    8  H   UNL     1     -13.574  11.430  72.227  1.00  0.00     0.000 HD 
HETATM    9  N   UNL     1     -12.959  10.844  71.664  1.00  0.00    -0.464 N  
HETATM   10  C   UNL     1     -12.191  11.477  70.732  1.00  0.00    -0.363 C  
ENDROOT
BRANCH   4  11
HETATM   11  C   UNL     1     -12.085   7.286  71.432  1.00  0.00    -0.335 C  
HETATM   12  O   UNL     1     -11.180   7.054  72.537  1.00  0.00    -0.258 OA 
HETATM   13  C   UNL     1     -10.335   5.949  70.680  1.00  0.00    -0.296 C  
HETATM   14  C   UNL     1      -9.963   6.466  72.021  1.00  0.00    -0.167 C  
HETATM   15  C   UNL     1     -11.515   6.460  70.329  1.00  0.00    -0.468 C  
BRANCH  14  16
HETATM   16  C   UNL     1      -8.842   7.519  71.924  1.00  0.00    -0.114 C  
HETATM   17  O   UNL     1      -9.068   8.638  72.781  1.00  0.00    -0.327 OA 
HETATM   18  H   UNL     1      -8.377   9.287  72.722  1.00  0.00     0.000 HD 
ENDBRANCH  14  16
ENDBRANCH   4  11
TORSDOF 2
ENDMDL
MODEL       41
REMARK 921   NORMALIZED FREE ENERGY PREDICTED BY IDOCK:   -4.53 KCAL/MOL
REMARK 922        TOTAL FREE ENERGY PREDICTED BY IDOCK:   -5.40 KCAL/MOL
REMARK 923 INTER-LIGAND FREE ENERGY PREDICTED BY IDOCK:   -5.19 KCAL/MOL
REMARK 924 INTRA-LIGAND FREE ENERGY PREDICTED BY IDOCK:   -0.21 KCAL/MOL
REMARK 927      BINDING AFFINITY PREDICTED BY RF-SCORE:    0.00 PKD
ROOT
HETATM    1  C   UNL     1      -6.393  16.548  69.609  1.00  0.00    -0.216 C  
HETATM    2  C   UNL     1      -7.719  16.353  68.950  1.00  0.00    -0.230 C  
HETATM    3  C   UNL     1      -8.502  17.349  68.522  1.00  0.00    -0.274 C  
HETATM    4  N   UNL     1      -9.739  17.148  67.930  1.00  0.00    -0.263 N  
HETATM    5  O   UNL     1      -7.525  13.995  69.082  1.00  0.00    -0.098 OA 
HETATM    6  C   UNL     1     -10.198  15.861  67.675  1.00  0.00    -0.263 C  
HETATM    7  O   UNL     1     -11.246  15.597  67.086  1.00  0.00    -0.269 OA 
HETATM    8  H   UNL     1      -9.736  13.891  67.969  1.00  0.00     0.000 HD 
HETATM    9  N   UNL     1      -9.395  14.841  68.118  1.00  0.00    -0.192 N  
HETATM   10  C   UNL     1      -8.187  14.969  68.737  1.00  0.00    -0.168 C  
ENDROOT
BRANCH   4  11
HETATM   11  C   UNL     1     -10.504  18.259  67.366  1.00  0.00    -0.409 C  
HETATM   12  O   UNL     1     -10.053  18.582  66.029  1.00  0.00    -0.485 OA 
HETATM   13  C   UNL     1      -9.710  20.446  67.368  1.00  0.00    -0.597 C  
HETATM   14  C   UNL     1      -9.312  19.823  66.081  1.00  0.00    -0.363 C  
HETATM   15  C   UNL     1     -10.338  19.539  68.114  1.00  0.00    -0.550 C  
BRANCH  14  16
HETATM   16  C   UNL     1      -7.794  19.559  66.031  1.00  0.00    -0.308 C  
HETATM   17  O   UNL     1      -7.474  18.332  65.376  1.00  0.00    -0.502 OA 
HETATM   18  H   UNL     1      -6.539  18.168  65.346  1.00  0.00     0.000 HD 
ENDBRANCH  14  16
ENDBRANCH   4  11
TORSDOF 2
ENDMDL
MODEL       42
REMARK 921   NORMALIZED FREE ENERGY PREDICTED BY IDOCK:   -4.51 KCAL/MOL
REMARK 922        TOTAL FREE ENERGY PREDICTED BY IDOCK:   -5.39 KCAL/MOL
REMARK 923 INTER-LIGAND FREE ENERGY PREDICTED BY IDOCK:   -5.09 KCAL/MOL
REMARK 924 INTRA-LIGAND FREE ENERGY PREDICTED BY IDOCK:   -0.29 KCAL/MOL
REMARK 927      BINDING AFFINITY PREDICTED BY RF-SCORE:    0.00 PKD
ROOT
HETATM    1  C   UNL     1     -12.058  12.548  69.929  1.00  0.00    -0.322 C  
HETATM    2  C   UNL     1     -11.513  11.872  68.713  1.00  0.00    -0.347 C  
HETATM    3  C   UNL     1     -11.703  12.305  67.462  1.00  0.00    -0.332 C  
HETATM    4  N   UNL     1     -11.206  11.652  66.344  1.00  0.00    -0.311 N  
HETATM    5  O   UNL     1     -10.454  10.204  70.019  1.00  0.00    -0.264 OA 
HETATM    6  C   UNL     1     -10.396  10.531  66.484  1.00  0.00    -0.233 C  
HETATM    7  O   UNL     1      -9.853   9.941  65.551  1.00  0.00    -0.283 OA 
HETATM    8  H   UNL     1      -9.642   9.246  67.883  1.00  0.00     0.000 HD 
HETATM    9  N   UNL     1     -10.206  10.088  67.768  1.00  0.00    -0.180 N  
HETATM   10  C   UNL     1     -10.694  10.660  68.905  1.00  0.00    -0.219 C  
ENDROOT
BRANCH   4  11
HETATM   11  C   UNL     1     -11.333  12.228  65.007  1.00  0.00    -0.328 C  
HETATM   12  O   UNL     1     -10.166  13.009  64.657  1.00  0.00    -0.338 OA 
HETATM   13  C   UNL     1     -12.001  14.429  64.654  1.00  0.00    -0.475 C  
HETATM   14  C   UNL     1     -10.518  14.411  64.709  1.00  0.00    -0.367 C  
HETATM   15  C   UNL     1     -12.459  13.197  64.877  1.00  0.00    -0.490 C  
BRANCH  14  16
HETATM   16  C   UNL     1      -9.996  15.062  66.005  1.00  0.00    -0.310 C  
HETATM   17  O   UNL     1     -11.021  15.753  66.720  1.00  0.00    -0.293 OA 
HETATM   18  H   UNL     1     -10.700  16.154  67.519  1.00  0.00     0.000 HD 
ENDBRANCH  14  16
ENDBRANCH   4  11
TORSDOF 2
ENDMDL
MODEL       43
REMARK 921   NORMALIZED FREE ENERGY PREDICTED BY IDOCK:   -4.51 KCAL/MOL
REMARK 922        TOTAL FREE ENERGY PREDICTED BY IDOCK:   -5.38 KCAL/MOL
REMARK 923 INTER-LIGAND FREE ENERGY PREDICTED BY IDOCK:   -5.57 KCAL/MOL
REMARK 924 INTRA-LIGAND FREE ENERGY PREDICTED BY IDOCK:    0.19 KCAL/MOL
REMARK 927      BINDING AFFINITY PREDICTED BY RF-SCORE:    0.00 PKD
ROOT
HETATM    1  C   UNL     1     -12.893  14.016  65.841  1.00  0.00    -0.354 C  
HETATM    2  C   UNL     1     -11.998  12.987  65.232  1.00  0.00    -0.446 C  
HETATM    3  C   UNL     1     -11.244  12.134  65.935  1.00  0.00    -0.339 C  
HETATM    4  N   UNL     1     -10.404  11.199  65.351  1.00  0.00    -0.264 N  
HETATM    5  O   UNL     1     -12.632  13.619  63.039  1.00  0.00    -0.729 OA 
HETATM    6  C   UNL     1     -10.368  11.047  63.970  1.00  0.00    -0.371 C  
HETATM    7  O   UNL     1      -9.711  10.191  63.378  1.00  0.00    -0.271 OA 
HETATM    8  H   UNL     1     -11.097  11.847  62.236  1.00  0.00     0.000 HD 
HETATM    9  N   UNL     1     -11.140  11.924  63.252  1.00  0.00    -0.349 N  
HETATM   10  C   UNL     1     -11.959  12.889  63.760  1.00  0.00    -0.512 C  
ENDROOT
BRANCH   4  11
HETATM   11  C   UNL     1      -9.693  10.206  66.156  1.00  0.00    -0.218 C  
HETATM   12  O   UNL     1     -10.576   9.576  67.114  1.00  0.00    -0.257 OA 
HETATM   13  C   UNL     1      -8.905  10.668  68.295  1.00  0.00    -0.139 C  
HETATM   14  C   UNL     1     -10.261  10.081  68.432  1.00  0.00    -0.172 C  
HETATM   15  C   UNL     1      -8.610  10.786  67.001  1.00  0.00    -0.130 C  
BRANCH  14  16
HETATM   16  C   UNL     1     -11.289  11.140  68.875  1.00  0.00    -0.278 C  
HETATM   17  O   UNL     1     -12.623  10.631  68.899  1.00  0.00    -0.742 OA 
HETATM   18  H   UNL     1     -13.257  11.284  69.172  1.00  0.00     0.000 HD 
ENDBRANCH  14  16
ENDBRANCH   4  11
TORSDOF 2
ENDMDL
MODEL       44
REMARK 921   NORMALIZED FREE ENERGY PREDICTED BY IDOCK:   -4.51 KCAL/MOL
REMARK 922        TOTAL FREE ENERGY PREDICTED BY IDOCK:   -5.38 KCAL/MOL
REMARK 923 INTER-LIGAND FREE ENERGY PREDICTED BY IDOCK:   -5.12 KCAL/MOL
REMARK 924 INTRA-LIGAND FREE ENERGY PREDICTED BY IDOCK:   -0.26 KCAL/MOL
REMARK 927      BINDING AFFINITY PREDICTED BY RF-SCORE:    0.00 PKD
ROOT
HETATM    1  C   UNL     1     -10.437  14.304  65.005  1.00  0.00    -0.458 C  
HETATM    2  C   UNL     1     -10.456  14.637  66.461  1.00  0.00    -0.290 C  
HETATM    3  C   UNL     1      -9.737  15.618  67.018  1.00  0.00    -0.227 C  
HETATM    4  N   UNL     1      -9.753  15.899  68.375  1.00  0.00    -0.211 N  
HETATM    5  O   UNL     1     -12.048  12.941  66.909  1.00  0.00    -0.388 OA 
HETATM    6  C   UNL     1     -10.602  15.205  69.231  1.00  0.00    -0.253 C  
HETATM    7  O   UNL     1     -10.732  15.444  70.430  1.00  0.00    -0.306 OA 
HETATM    8  H   UNL     1     -11.937  13.658  69.278  1.00  0.00     0.000 HD 
HETATM    9  N   UNL     1     -11.335  14.198  68.657  1.00  0.00    -0.260 N  
HETATM   10  C   UNL     1     -11.340  13.847  67.339  1.00  0.00    -0.326 C  
ENDROOT
BRANCH   4  11
HETATM   11  C   UNL     1      -9.048  17.057  68.922  1.00  0.00    -0.208 C  
HETATM   12  O   UNL     1      -9.959  18.150  69.187  1.00  0.00    -0.314 OA 
HETATM   13  C   UNL     1      -8.423  18.871  67.606  1.00  0.00    -0.304 C  
HETATM   14  C   UNL     1      -9.755  19.174  68.186  1.00  0.00    -0.361 C  
HETATM   15  C   UNL     1      -8.051  17.648  67.983  1.00  0.00    -0.243 C  
BRANCH  14  16
HETATM   16  C   UNL     1     -10.859  19.121  67.113  1.00  0.00    -0.410 C  
HETATM   17  O   UNL     1     -10.353  18.772  65.824  1.00  0.00    -0.562 OA 
HETATM   18  H   UNL     1     -11.034  18.739  65.162  1.00  0.00     0.000 HD 
ENDBRANCH  14  16
ENDBRANCH   4  11
TORSDOF 2
ENDMDL
MODEL       45
REMARK 921   NORMALIZED FREE ENERGY PREDICTED BY IDOCK:   -4.47 KCAL/MOL
REMARK 922        TOTAL FREE ENERGY PREDICTED BY IDOCK:   -5.34 KCAL/MOL
REMARK 923 INTER-LIGAND FREE ENERGY PREDICTED BY IDOCK:   -5.44 KCAL/MOL
REMARK 924 INTRA-LIGAND FREE ENERGY PREDICTED BY IDOCK:    0.10 KCAL/MOL
REMARK 927      BINDING AFFINITY PREDICTED BY RF-SCORE:    0.00 PKD
ROOT
HETATM    1  C   UNL     1     -12.954  15.527  71.062  1.00  0.00    -0.550 C  
HETATM    2  C   UNL     1     -12.713  14.070  70.834  1.00  0.00    -0.420 C  
HETATM    3  C   UNL     1     -12.037  13.573  69.792  1.00  0.00    -0.318 C  
HETATM    4  N   UNL     1     -11.841  12.217  69.586  1.00  0.00    -0.322 N  
HETATM    5  O   UNL     1     -13.851  13.489  72.829  1.00  0.00    -0.730 OA 
HETATM    6  C   UNL     1     -12.282  11.289  70.524  1.00  0.00    -0.383 C  
HETATM    7  O   UNL     1     -12.081  10.078  70.456  1.00  0.00    -0.274 OA 
HETATM    8  H   UNL     1     -13.336  11.131  72.269  1.00  0.00     0.000 HD 
HETATM    9  N   UNL     1     -12.977  11.802  71.590  1.00  0.00    -0.416 N  
HETATM   10  C   UNL     1     -13.236  13.119  71.833  1.00  0.00    -0.431 C  
ENDROOT
BRANCH   4  11
HETATM   11  C   UNL     1     -10.993  11.725  68.503  1.00  0.00    -0.227 C  
HETATM   12  O   UNL     1      -9.610  12.104  68.704  1.00  0.00    -0.165 OA 
HETATM   13  C   UNL     1     -10.335  13.073  66.724  1.00  0.00    -0.256 C  
HETATM   14  C   UNL     1      -9.279  13.153  67.764  1.00  0.00    -0.203 C  
HETATM   15  C   UNL     1     -11.328  12.305  67.170  1.00  0.00    -0.398 C  
BRANCH  14  16
HETATM   16  C   UNL     1      -9.278  14.530  68.457  1.00  0.00    -0.195 C  
HETATM   17  O   UNL     1      -8.568  15.517  67.709  1.00  0.00    -0.149 OA 
HETATM   18  H   UNL     1      -8.566  16.366  68.136  1.00  0.00     0.000 HD 
ENDBRANCH  14  16
ENDBRANCH   4  11
TORSDOF 2
ENDMDL
MODEL       46
REMARK 921   NORMALIZED FREE ENERGY PREDICTED BY IDOCK:   -4.47 KCAL/MOL
REMARK 922        TOTAL FREE ENERGY PREDICTED BY IDOCK:   -5.34 KCAL/MOL
REMARK 923 INTER-LIGAND FREE ENERGY PREDICTED BY IDOCK:   -5.15 KCAL/MOL
REMARK 924 INTRA-LIGAND FREE ENERGY PREDICTED BY IDOCK:   -0.19 KCAL/MOL
REMARK 927      BINDING AFFINITY PREDICTED BY RF-SCORE:    0.00 PKD
ROOT
HETATM    1  C   UNL     1     -13.117  10.196  71.504  1.00  0.00    -0.529 C  
HETATM    2  C   UNL     1     -11.857  10.306  70.709  1.00  0.00    -0.459 C  
HETATM    3  C   UNL     1     -11.703  11.108  69.650  1.00  0.00    -0.339 C  
HETATM    4  N   UNL     1     -10.532  11.180  68.912  1.00  0.00    -0.202 N  
HETATM    5  O   UNL     1     -10.749   8.744  72.104  1.00  0.00    -0.339 OA 
HETATM    6  C   UNL     1      -9.406  10.462  69.301  1.00  0.00    -0.187 C  
HETATM    7  O   UNL     1      -8.309  10.530  68.749  1.00  0.00    -0.119 OA 
HETATM    8  H   UNL     1      -8.762   9.079  70.662  1.00  0.00     0.000 HD 
HETATM    9  N   UNL     1      -9.569   9.638  70.386  1.00  0.00    -0.259 N  
HETATM   10  C   UNL     1     -10.701   9.493  71.132  1.00  0.00    -0.338 C  
ENDROOT
BRANCH   4  11
HETATM   11  C   UNL     1     -10.366  12.160  67.839  1.00  0.00    -0.206 C  
HETATM   12  O   UNL     1      -9.930  13.439  68.358  1.00  0.00    -0.235 OA 
HETATM   13  C   UNL     1     -11.992  13.747  67.339  1.00  0.00    -0.423 C  
HETATM   14  C   UNL     1     -11.042  14.362  68.299  1.00  0.00    -0.259 C  
HETATM   15  C   UNL     1     -11.634  12.481  67.123  1.00  0.00    -0.437 C  
BRANCH  14  16
HETATM   16  C   UNL     1     -11.685  14.537  69.689  1.00  0.00    -0.307 C  
HETATM   17  O   UNL     1     -10.721  14.807  70.707  1.00  0.00    -0.509 OA 
HETATM   18  H   UNL     1     -11.117  14.915  71.564  1.00  0.00     0.000 HD 
ENDBRANCH  14  16
ENDBRANCH   4  11
TORSDOF 2
ENDMDL
MODEL       47
REMARK 921   NORMALIZED FREE ENERGY PREDICTED BY IDOCK:   -4.46 KCAL/MOL
REMARK 922        TOTAL FREE ENERGY PREDICTED BY IDOCK:   -5.33 KCAL/MOL
REMARK 923 INTER-LIGAND FREE ENERGY PREDICTED BY IDOCK:   -5.43 KCAL/MOL
REMARK 924 INTRA-LIGAND FREE ENERGY PREDICTED BY IDOCK:    0.10 KCAL/MOL
REMARK 927      BINDING AFFINITY PREDICTED BY RF-SCORE:    0.00 PKD
ROOT
HETATM    1  C   UNL     1     -11.397  10.655  69.384  1.00  0.00    -0.348 C  
HETATM    2  C   UNL     1     -11.823  12.013  69.838  1.00  0.00    -0.405 C  
HETATM    3  C   UNL     1     -11.524  13.149  69.200  1.00  0.00    -0.305 C  
HETATM    4  N   UNL     1     -11.912  14.402  69.649  1.00  0.00    -0.317 N  
HETATM    5  O   UNL     1     -12.981  11.111  71.698  1.00  0.00    -0.445 OA 
HETATM    6  C   UNL     1     -12.721  14.529  70.773  1.00  0.00    -0.360 C  
HETATM    7  O   UNL     1     -13.171  15.595  71.191  1.00  0.00    -0.504 OA 
HETATM    8  H   UNL     1     -13.587  13.444  72.273  1.00  0.00     0.000 HD 
HETATM    9  N   UNL     1     -13.023  13.363  71.427  1.00  0.00    -0.349 N  
HETATM   10  C   UNL     1     -12.645  12.105  71.060  1.00  0.00    -0.263 C  
ENDROOT
BRANCH   4  11
HETATM   11  C   UNL     1     -11.669  15.605  68.855  1.00  0.00    -0.384 C  
HETATM   12  O   UNL     1     -11.265  15.272  67.506  1.00  0.00    -0.320 OA 
HETATM   13  C   UNL     1      -9.532  16.453  68.498  1.00  0.00    -0.227 C  
HETATM   14  C   UNL     1      -9.851  15.546  67.367  1.00  0.00    -0.224 C  
HETATM   15  C   UNL     1     -10.545  16.441  69.365  1.00  0.00    -0.317 C  
BRANCH  14  16
HETATM   16  C   UNL     1      -9.029  14.245  67.443  1.00  0.00    -0.201 C  
HETATM   17  O   UNL     1      -9.001  13.543  66.201  1.00  0.00    -0.460 OA 
HETATM   18  H   UNL     1      -8.495  12.741  66.247  1.00  0.00     0.000 HD 
ENDBRANCH  14  16
ENDBRANCH   4  11
TORSDOF 2
ENDMDL
MODEL       48
REMARK 921   NORMALIZED FREE ENERGY PREDICTED BY IDOCK:   -4.46 KCAL/MOL
REMARK 922        TOTAL FREE ENERGY PREDICTED BY IDOCK:   -5.32 KCAL/MOL
REMARK 923 INTER-LIGAND FREE ENERGY PREDICTED BY IDOCK:   -5.20 KCAL/MOL
REMARK 924 INTRA-LIGAND FREE ENERGY PREDICTED BY IDOCK:   -0.12 KCAL/MOL
REMARK 927      BINDING AFFINITY PREDICTED BY RF-SCORE:    0.00 PKD
ROOT
HETATM    1  C   UNL     1     -12.599  15.466  70.753  1.00  0.00    -0.497 C  
HETATM    2  C   UNL     1     -12.332  14.275  69.891  1.00  0.00    -0.377 C  
HETATM    3  C   UNL     1     -12.015  14.341  68.593  1.00  0.00    -0.313 C  
HETATM    4  N   UNL     1     -11.790  13.223  67.805  1.00  0.00    -0.356 N  
HETATM    5  O   UNL     1     -12.667  12.790  71.705  1.00  0.00    -0.243 OA 
HETATM    6  C   UNL     1     -11.807  11.950  68.364  1.00  0.00    -0.289 C  
HETATM    7  O   UNL     1     -11.542  10.916  67.753  1.00  0.00    -0.523 OA 
HETATM    8  H   UNL     1     -12.185  10.956  70.110  1.00  0.00     0.000 HD 
HETATM    9  N   UNL     1     -12.135  11.886  69.694  1.00  0.00    -0.270 N  
HETATM   10  C   UNL     1     -12.402  12.941  70.517  1.00  0.00    -0.283 C  
ENDROOT
BRANCH   4  11
HETATM   11  C   UNL     1     -11.326  13.345  66.424  1.00  0.00    -0.313 C  
HETATM   12  O   UNL     1      -9.893  13.537  66.367  1.00  0.00    -0.281 OA 
HETATM   13  C   UNL     1     -10.901  15.404  65.429  1.00  0.00    -0.403 C  
HETATM   14  C   UNL     1      -9.627  14.914  66.011  1.00  0.00    -0.313 C  
HETATM   15  C   UNL     1     -11.872  14.536  65.713  1.00  0.00    -0.327 C  
BRANCH  14  16
HETATM   16  C   UNL     1      -9.224  15.735  67.251  1.00  0.00    -0.207 C  
HETATM   17  O   UNL     1      -8.752  17.039  66.914  1.00  0.00    -0.208 OA 
HETATM   18  H   UNL     1      -8.504  17.545  67.679  1.00  0.00     0.000 HD 
ENDBRANCH  14  16
ENDBRANCH   4  11
TORSDOF 2
ENDMDL
MODEL       49
REMARK 921   NORMALIZED FREE ENERGY PREDICTED BY IDOCK:   -4.45 KCAL/MOL
REMARK 922        TOTAL FREE ENERGY PREDICTED BY IDOCK:   -5.32 KCAL/MOL
REMARK 923 INTER-LIGAND FREE ENERGY PREDICTED BY IDOCK:   -4.97 KCAL/MOL
REMARK 924 INTRA-LIGAND FREE ENERGY PREDICTED BY IDOCK:   -0.35 KCAL/MOL
REMARK 927      BINDING AFFINITY PREDICTED BY RF-SCORE:    0.00 PKD
ROOT
HETATM    1  C   UNL     1      -8.190  16.759  66.174  1.00  0.00    -0.300 C  
HETATM    2  C   UNL     1      -8.536  15.407  66.709  1.00  0.00    -0.308 C  
HETATM    3  C   UNL     1      -9.759  14.868  66.659  1.00  0.00    -0.261 C  
HETATM    4  N   UNL     1     -10.065  13.620  67.178  1.00  0.00    -0.242 N  
HETATM    5  O   UNL     1      -6.299  15.015  67.383  1.00  0.00    -0.308 OA 
HETATM    6  C   UNL     1      -9.066  12.816  67.719  1.00  0.00    -0.197 C  
HETATM    7  O   UNL     1      -9.239  11.669  68.129  1.00  0.00    -0.171 OA 
HETATM    8  H   UNL     1      -7.079  12.809  68.197  1.00  0.00     0.000 HD 
HETATM    9  N   UNL     1      -7.814  13.373  67.771  1.00  0.00    -0.143 N  
HETATM   10  C   UNL     1      -7.454  14.606  67.312  1.00  0.00    -0.117 C  
ENDROOT
BRANCH   4  11
HETATM   11  C   UNL     1     -11.384  13.018  66.992  1.00  0.00    -0.301 C  
HETATM   12  O   UNL     1     -11.344  11.960  66.006  1.00  0.00    -0.334 OA 
HETATM   13  C   UNL     1     -12.783  13.606  65.228  1.00  0.00    -0.478 C  
HETATM   14  C   UNL     1     -11.982  12.433  64.796  1.00  0.00    -0.398 C  
HETATM   15  C   UNL     1     -12.402  13.966  66.453  1.00  0.00    -0.468 C  
BRANCH  14  16
HETATM   16  C   UNL     1     -10.932  12.828  63.740  1.00  0.00    -0.402 C  
HETATM   17  O   UNL     1      -9.643  12.281  64.019  1.00  0.00    -0.543 OA 
HETATM   18  H   UNL     1      -8.996  12.525  63.368  1.00  0.00     0.000 HD 
ENDBRANCH  14  16
ENDBRANCH   4  11
TORSDOF 2
ENDMDL
MODEL       50
REMARK 921   NORMALIZED FREE ENERGY PREDICTED BY IDOCK:   -4.42 KCAL/MOL
REMARK 922        TOTAL FREE ENERGY PREDICTED BY IDOCK:   -5.28 KCAL/MOL
REMARK 923 INTER-LIGAND FREE ENERGY PREDICTED BY IDOCK:   -5.36 KCAL/MOL
REMARK 924 INTRA-LIGAND FREE ENERGY PREDICTED BY IDOCK:    0.08 KCAL/MOL
REMARK 927      BINDING AFFINITY PREDICTED BY RF-SCORE:    0.00 PKD
ROOT
HETATM    1  C   UNL     1     -12.730  11.960  63.535  1.00  0.00    -0.530 C  
HETATM    2  C   UNL     1     -11.801  12.755  64.394  1.00  0.00    -0.446 C  
HETATM    3  C   UNL     1     -10.857  12.222  65.176  1.00  0.00    -0.301 C  
HETATM    4  N   UNL     1     -10.017  12.975  65.981  1.00  0.00    -0.277 N  
HETATM    5  O   UNL     1     -12.744  14.799  63.656  1.00  0.00    -0.713 OA 
HETATM    6  C   UNL     1     -10.068  14.365  65.949  1.00  0.00    -0.325 C  
HETATM    7  O   UNL     1      -9.308  15.106  66.571  1.00  0.00    -0.242 OA 
HETATM    8  H   UNL     1     -11.110  15.926  65.140  1.00  0.00     0.000 HD 
HETATM    9  N   UNL     1     -11.039  14.909  65.147  1.00  0.00    -0.371 N  
HETATM   10  C   UNL     1     -11.918  14.226  64.360  1.00  0.00    -0.456 C  
ENDROOT
BRANCH   4  11
HETATM   11  C   UNL     1      -8.919  12.360  66.725  1.00  0.00    -0.205 C  
HETATM   12  O   UNL     1      -8.887  10.927  66.524  1.00  0.00    -0.153 OA 
HETATM   13  C   UNL     1      -9.236  11.323  68.784  1.00  0.00    -0.133 C  
HETATM   14  C   UNL     1      -9.354  10.282  67.732  1.00  0.00    -0.144 C  
HETATM   15  C   UNL     1      -9.043  12.507  68.204  1.00  0.00    -0.204 C  
BRANCH  14  16
HETATM   16  C   UNL     1     -10.812   9.808  67.574  1.00  0.00    -0.220 C  
HETATM   17  O   UNL     1     -11.734  10.629  68.289  1.00  0.00    -0.642 OA 
HETATM   18  H   UNL     1     -12.633  10.337  68.191  1.00  0.00     0.000 HD 
ENDBRANCH  14  16
ENDBRANCH   4  11
TORSDOF 2
ENDMDL
MODEL       51
REMARK 921   NORMALIZED FREE ENERGY PREDICTED BY IDOCK:   -4.41 KCAL/MOL
REMARK 922        TOTAL FREE ENERGY PREDICTED BY IDOCK:   -5.26 KCAL/MOL
REMARK 923 INTER-LIGAND FREE ENERGY PREDICTED BY IDOCK:   -5.33 KCAL/MOL
REMARK 924 INTRA-LIGAND FREE ENERGY PREDICTED BY IDOCK:    0.07 KCAL/MOL
REMARK 927      BINDING AFFINITY PREDICTED BY RF-SCORE:    0.00 PKD
ROOT
HETATM    1  C   UNL     1      -9.608   7.393  67.275  1.00  0.00    -0.191 C  
HETATM    2  C   UNL     1     -10.234   8.634  67.823  1.00  0.00    -0.282 C  
HETATM    3  C   UNL     1     -10.530   8.821  69.113  1.00  0.00    -0.217 C  
HETATM    4  N   UNL     1     -11.129   9.972  69.600  1.00  0.00    -0.252 N  
HETATM    5  O   UNL     1     -10.268   9.654  65.685  1.00  0.00    -0.253 OA 
HETATM    6  C   UNL     1     -11.383  11.047  68.754  1.00  0.00    -0.283 C  
HETATM    7  O   UNL     1     -11.838  12.130  69.120  1.00  0.00    -0.300 OA 
HETATM    8  H   UNL     1     -11.293  11.618  66.794  1.00  0.00     0.000 HD 
HETATM    9  N   UNL     1     -11.080  10.851  67.431  1.00  0.00    -0.310 N  
HETATM   10  C   UNL     1     -10.525   9.733  66.883  1.00  0.00    -0.211 C  
ENDROOT
BRANCH   4  11
HETATM   11  C   UNL     1     -11.322  10.184  71.033  1.00  0.00    -0.307 C  
HETATM   12  O   UNL     1     -10.898   9.030  71.797  1.00  0.00    -0.334 OA 
HETATM   13  C   UNL     1     -13.164   9.346  72.181  1.00  0.00    -0.541 C  
HETATM   14  C   UNL     1     -12.074   8.345  72.287  1.00  0.00    -0.392 C  
HETATM   15  C   UNL     1     -12.750  10.362  71.424  1.00  0.00    -0.551 C  
BRANCH  14  16
HETATM   16  C   UNL     1     -12.376   7.096  71.436  1.00  0.00    -0.377 C  
HETATM   17  O   UNL     1     -13.683   7.128  70.862  1.00  0.00    -0.530 OA 
HETATM   18  H   UNL     1     -13.869   6.358  70.338  1.00  0.00     0.000 HD 
ENDBRANCH  14  16
ENDBRANCH   4  11
TORSDOF 2
ENDMDL
MODEL       52
REMARK 921   NORMALIZED FREE ENERGY PREDICTED BY IDOCK:   -4.34 KCAL/MOL
REMARK 922        TOTAL FREE ENERGY PREDICTED BY IDOCK:   -5.19 KCAL/MOL
REMARK 923 INTER-LIGAND FREE ENERGY PREDICTED BY IDOCK:   -5.14 KCAL/MOL
REMARK 924 INTRA-LIGAND FREE ENERGY PREDICTED BY IDOCK:   -0.06 KCAL/MOL
REMARK 927      BINDING AFFINITY PREDICTED BY RF-SCORE:    0.00 PKD
ROOT
HETATM    1  C   UNL     1     -10.419   8.861  67.243  1.00  0.00    -0.348 C  
HETATM    2  C   UNL     1     -10.059  10.291  67.004  1.00  0.00    -0.268 C  
HETATM    3  C   UNL     1     -10.217  10.923  65.836  1.00  0.00    -0.257 C  
HETATM    4  N   UNL     1      -9.858  12.245  65.628  1.00  0.00    -0.248 N  
HETATM    5  O   UNL     1      -9.354  10.570  69.249  1.00  0.00    -0.199 OA 
HETATM    6  C   UNL     1      -9.378  13.020  66.679  1.00  0.00    -0.241 C  
HETATM    7  O   UNL     1      -9.111  14.218  66.598  1.00  0.00    -0.257 OA 
HETATM    8  H   UNL     1      -8.832  12.916  68.646  1.00  0.00     0.000 HD 
HETATM    9  N   UNL     1      -9.215  12.369  67.875  1.00  0.00    -0.185 N  
HETATM   10  C   UNL     1      -9.514  11.065  68.137  1.00  0.00    -0.172 C  
ENDROOT
BRANCH   4  11
HETATM   11  C   UNL     1     -10.161  12.930  64.373  1.00  0.00    -0.318 C  
HETATM   12  O   UNL     1     -10.806  14.203  64.611  1.00  0.00    -0.403 OA 
HETATM   13  C   UNL     1     -12.276  12.875  63.403  1.00  0.00    -0.574 C  
HETATM   14  C   UNL     1     -12.205  14.084  64.261  1.00  0.00    -0.418 C  
HETATM   15  C   UNL     1     -11.134  12.196  63.513  1.00  0.00    -0.525 C  
BRANCH  14  16
HETATM   16  C   UNL     1     -13.076  13.929  65.523  1.00  0.00    -0.187 C  
HETATM   17  O   UNL     1     -12.446  14.458  66.690  1.00  0.00    -0.535 OA 
HETATM   18  H   UNL     1     -12.982  14.362  67.468  1.00  0.00     0.000 HD 
ENDBRANCH  14  16
ENDBRANCH   4  11
TORSDOF 2
ENDMDL
MODEL       53
REMARK 921   NORMALIZED FREE ENERGY PREDICTED BY IDOCK:   -4.31 KCAL/MOL
REMARK 922        TOTAL FREE ENERGY PREDICTED BY IDOCK:   -5.16 KCAL/MOL
REMARK 923 INTER-LIGAND FREE ENERGY PREDICTED BY IDOCK:   -5.27 KCAL/MOL
REMARK 924 INTRA-LIGAND FREE ENERGY PREDICTED BY IDOCK:    0.10 KCAL/MOL
REMARK 927      BINDING AFFINITY PREDICTED BY RF-SCORE:    0.00 PKD
ROOT
HETATM    1  C   UNL     1      -9.584  16.372  68.021  1.00  0.00    -0.226 C  
HETATM    2  C   UNL     1     -10.406  15.925  66.856  1.00  0.00    -0.291 C  
HETATM    3  C   UNL     1     -10.890  14.687  66.705  1.00  0.00    -0.312 C  
HETATM    4  N   UNL     1     -11.633  14.286  65.607  1.00  0.00    -0.339 N  
HETATM    5  O   UNL     1     -10.336  18.082  65.880  1.00  0.00    -0.537 OA 
HETATM    6  C   UNL     1     -11.988  15.202  64.622  1.00  0.00    -0.298 C  
HETATM    7  O   UNL     1     -12.709  14.947  63.659  1.00  0.00    -0.689 OA 
HETATM    8  H   UNL     1     -11.712  17.143  64.045  1.00  0.00     0.000 HD 
HETATM    9  N   UNL     1     -11.489  16.470  64.778  1.00  0.00    -0.121 N  
HETATM   10  C   UNL     1     -10.723  16.920  65.813  1.00  0.00    -0.160 C  
ENDROOT
BRANCH   4  11
HETATM   11  C   UNL     1     -12.245  12.960  65.543  1.00  0.00    -0.474 C  
HETATM   12  O   UNL     1     -11.771  12.111  66.615  1.00  0.00    -0.493 OA 
HETATM   13  C   UNL     1     -11.159  11.130  64.604  1.00  0.00    -0.154 C  
HETATM   14  C   UNL     1     -10.866  11.129  66.058  1.00  0.00    -0.166 C  
HETATM   15  C   UNL     1     -11.897  12.200  64.309  1.00  0.00    -0.460 C  
BRANCH  14  16
HETATM   16  C   UNL     1      -9.400  11.515  66.335  1.00  0.00    -0.209 C  
HETATM   17  O   UNL     1      -8.623  11.602  65.140  1.00  0.00    -0.336 OA 
HETATM   18  H   UNL     1      -7.719  11.840  65.310  1.00  0.00     0.000 HD 
ENDBRANCH  14  16
ENDBRANCH   4  11
TORSDOF 2
ENDMDL
MODEL       54
REMARK 921   NORMALIZED FREE ENERGY PREDICTED BY IDOCK:   -4.31 KCAL/MOL
REMARK 922        TOTAL FREE ENERGY PREDICTED BY IDOCK:   -5.15 KCAL/MOL
REMARK 923 INTER-LIGAND FREE ENERGY PREDICTED BY IDOCK:   -5.01 KCAL/MOL
REMARK 924 INTRA-LIGAND FREE ENERGY PREDICTED BY IDOCK:   -0.15 KCAL/MOL
REMARK 927      BINDING AFFINITY PREDICTED BY RF-SCORE:    0.00 PKD
ROOT
HETATM    1  C   UNL     1      -7.578  14.142  67.927  1.00  0.00    -0.162 C  
HETATM    2  C   UNL     1      -8.853  13.574  67.395  1.00  0.00    -0.221 C  
HETATM    3  C   UNL     1      -9.422  12.450  67.843  1.00  0.00    -0.198 C  
HETATM    4  N   UNL     1     -10.596  11.928  67.322  1.00  0.00    -0.221 N  
HETATM    5  O   UNL     1      -9.100  15.363  65.862  1.00  0.00    -0.311 OA 
HETATM    6  C   UNL     1     -11.297  12.614  66.336  1.00  0.00    -0.331 C  
HETATM    7  O   UNL     1     -12.382  12.261  65.877  1.00  0.00    -0.618 OA 
HETATM    8  H   UNL     1     -11.195  14.261  65.129  1.00  0.00     0.000 HD 
HETATM    9  N   UNL     1     -10.709  13.765  65.877  1.00  0.00    -0.282 N  
HETATM   10  C   UNL     1      -9.542  14.313  66.319  1.00  0.00    -0.288 C  
ENDROOT
BRANCH   4  11
HETATM   11  C   UNL     1     -11.247  10.766  67.924  1.00  0.00    -0.318 C  
HETATM   12  O   UNL     1     -12.514  11.125  68.525  1.00  0.00    -0.452 OA 
HETATM   13  C   UNL     1     -11.132  10.315  70.204  1.00  0.00    -0.385 C  
HETATM   14  C   UNL     1     -12.362  11.111  69.963  1.00  0.00    -0.279 C  
HETATM   15  C   UNL     1     -10.477  10.168  69.053  1.00  0.00    -0.239 C  
BRANCH  14  16
HETATM   16  C   UNL     1     -12.218  12.543  70.514  1.00  0.00    -0.297 C  
HETATM   17  O   UNL     1     -13.099  12.799  71.608  1.00  0.00    -0.401 OA 
HETATM   18  H   UNL     1     -13.012  13.681  71.948  1.00  0.00     0.000 HD 
ENDBRANCH  14  16
ENDBRANCH   4  11
TORSDOF 2
ENDMDL
MODEL       55
REMARK 921   NORMALIZED FREE ENERGY PREDICTED BY IDOCK:   -4.30 KCAL/MOL
REMARK 922        TOTAL FREE ENERGY PREDICTED BY IDOCK:   -5.15 KCAL/MOL
REMARK 923 INTER-LIGAND FREE ENERGY PREDICTED BY IDOCK:   -5.25 KCAL/MOL
REMARK 924 INTRA-LIGAND FREE ENERGY PREDICTED BY IDOCK:    0.10 KCAL/MOL
REMARK 927      BINDING AFFINITY PREDICTED BY RF-SCORE:    0.00 PKD
ROOT
HETATM    1  C   UNL     1      -9.844  11.228  62.850  1.00  0.00    -0.317 C  
HETATM    2  C   UNL     1     -10.187  11.135  64.301  1.00  0.00    -0.399 C  
HETATM    3  C   UNL     1     -10.870  12.066  64.975  1.00  0.00    -0.304 C  
HETATM    4  N   UNL     1     -11.162  11.970  66.327  1.00  0.00    -0.328 N  
HETATM    5  O   UNL     1      -9.150   9.013  64.489  1.00  0.00    -0.111 OA 
HETATM    6  C   UNL     1     -10.816  10.830  67.044  1.00  0.00    -0.252 C  
HETATM    7  O   UNL     1     -11.106  10.633  68.223  1.00  0.00    -0.238 OA 
HETATM    8  H   UNL     1      -9.824   9.051  66.873  1.00  0.00     0.000 HD 
HETATM    9  N   UNL     1     -10.114   9.878  66.351  1.00  0.00    -0.240 N  
HETATM   10  C   UNL     1      -9.764   9.926  65.034  1.00  0.00    -0.288 C  
ENDROOT
BRANCH   4  11
HETATM   11  C   UNL     1     -12.016  12.951  66.994  1.00  0.00    -0.325 C  
HETATM   12  O   UNL     1     -12.371  14.033  66.100  1.00  0.00    -0.448 OA 
HETATM   13  C   UNL     1     -11.181  14.936  67.876  1.00  0.00    -0.324 C  
HETATM   14  C   UNL     1     -11.629  15.213  66.488  1.00  0.00    -0.105 C  
HETATM   15  C   UNL     1     -11.353  13.641  68.138  1.00  0.00    -0.321 C  
BRANCH  14  16
HETATM   16  C   UNL     1     -10.431  15.443  65.547  1.00  0.00    -0.380 C  
HETATM   17  O   UNL     1     -10.816  16.037  64.307  1.00  0.00    -0.871 OA 
HETATM   18  H   UNL     1     -10.077  16.178  63.727  1.00  0.00     0.000 HD 
ENDBRANCH  14  16
ENDBRANCH   4  11
TORSDOF 2
ENDMDL
MODEL       56
REMARK 921   NORMALIZED FREE ENERGY PREDICTED BY IDOCK:   -4.30 KCAL/MOL
REMARK 922        TOTAL FREE ENERGY PREDICTED BY IDOCK:   -5.15 KCAL/MOL
REMARK 923 INTER-LIGAND FREE ENERGY PREDICTED BY IDOCK:   -4.85 KCAL/MOL
REMARK 924 INTRA-LIGAND FREE ENERGY PREDICTED BY IDOCK:   -0.30 KCAL/MOL
REMARK 927      BINDING AFFINITY PREDICTED BY RF-SCORE:    0.00 PKD
ROOT
HETATM    1  C   UNL     1      -7.898  17.144  66.067  1.00  0.00    -0.193 C  
HETATM    2  C   UNL     1      -9.089  16.769  66.888  1.00  0.00    -0.248 C  
HETATM    3  C   UNL     1      -9.967  15.818  66.551  1.00  0.00    -0.269 C  
HETATM    4  N   UNL     1     -11.077  15.499  67.316  1.00  0.00    -0.304 N  
HETATM    5  O   UNL     1      -8.532  18.353  68.559  1.00  0.00    -0.320 OA 
HETATM    6  C   UNL     1     -11.289  16.116  68.544  1.00  0.00    -0.359 C  
HETATM    7  O   UNL     1     -12.204  15.836  69.317  1.00  0.00    -0.298 OA 
HETATM    8  H   UNL     1     -10.551  17.577  69.768  1.00  0.00     0.000 HD 
HETATM    9  N   UNL     1     -10.389  17.092  68.886  1.00  0.00    -0.335 N  
HETATM   10  C   UNL     1      -9.298  17.479  68.164  1.00  0.00    -0.276 C  
ENDROOT
BRANCH   4  11
HETATM   11  C   UNL     1     -11.941  14.371  66.973  1.00  0.00    -0.395 C  
HETATM   12  O   UNL     1     -11.628  13.206  67.773  1.00  0.00    -0.296 OA 
HETATM   13  C   UNL     1     -11.254  12.664  65.549  1.00  0.00    -0.337 C  
HETATM   14  C   UNL     1     -10.944  12.243  66.938  1.00  0.00    -0.267 C  
HETATM   15  C   UNL     1     -11.769  13.892  65.570  1.00  0.00    -0.356 C  
BRANCH  14  16
HETATM   16  C   UNL     1      -9.426  12.264  67.205  1.00  0.00    -0.196 C  
HETATM   17  O   UNL     1      -8.667  12.530  66.025  1.00  0.00    -0.396 OA 
HETATM   18  H   UNL     1      -7.732  12.544  66.189  1.00  0.00     0.000 HD 
ENDBRANCH  14  16
ENDBRANCH   4  11
TORSDOF 2
ENDMDL
MODEL       57
REMARK 921   NORMALIZED FREE ENERGY PREDICTED BY IDOCK:   -4.30 KCAL/MOL
REMARK 922        TOTAL FREE ENERGY PREDICTED BY IDOCK:   -5.14 KCAL/MOL
REMARK 923 INTER-LIGAND FREE ENERGY PREDICTED BY IDOCK:   -4.82 KCAL/MOL
REMARK 924 INTRA-LIGAND FREE ENERGY PREDICTED BY IDOCK:   -0.32 KCAL/MOL
REMARK 927      BINDING AFFINITY PREDICTED BY RF-SCORE:    0.00 PKD
ROOT
HETATM    1  C   UNL     1      -6.156  17.069  69.715  1.00  0.00    -0.227 C  
HETATM    2  C   UNL     1      -7.447  17.433  69.057  1.00  0.00    -0.185 C  
HETATM    3  C   UNL     1      -8.327  16.544  68.582  1.00  0.00    -0.235 C  
HETATM    4  N   UNL     1      -9.511  16.902  67.956  1.00  0.00    -0.238 N  
HETATM    5  O   UNL     1      -7.043  19.746  69.366  1.00  0.00    -0.351 OA 
HETATM    6  C   UNL     1      -9.884  18.238  67.863  1.00  0.00    -0.317 C  
HETATM    7  O   UNL     1     -10.951  18.634  67.394  1.00  0.00    -0.399 OA 
HETATM    8  H   UNL     1      -9.224  20.132  68.255  1.00  0.00     0.000 HD 
HETATM    9  N   UNL     1      -8.979  19.147  68.348  1.00  0.00    -0.337 N  
HETATM   10  C   UNL     1      -7.784  18.865  68.941  1.00  0.00    -0.286 C  
ENDROOT
BRANCH   4  11
HETATM   11  C   UNL     1     -10.499  15.899  67.564  1.00  0.00    -0.298 C  
HETATM   12  O   UNL     1     -11.667  15.951  68.417  1.00  0.00    -0.358 OA 
HETATM   13  C   UNL     1     -10.701  13.855  68.657  1.00  0.00    -0.272 C  
HETATM   14  C   UNL     1     -11.645  14.804  69.299  1.00  0.00    -0.303 C  
HETATM   15  C   UNL     1     -10.016  14.495  67.710  1.00  0.00    -0.225 C  
BRANCH  14  16
HETATM   16  C   UNL     1     -11.167  15.204  70.708  1.00  0.00    -0.286 C  
HETATM   17  O   UNL     1     -11.338  16.597  70.968  1.00  0.00    -0.506 OA 
HETATM   18  H   UNL     1     -11.043  16.844  71.837  1.00  0.00     0.000 HD 
ENDBRANCH  14  16
ENDBRANCH   4  11
TORSDOF 2
ENDMDL
MODEL       58
REMARK 921   NORMALIZED FREE ENERGY PREDICTED BY IDOCK:   -4.29 KCAL/MOL
REMARK 922        TOTAL FREE ENERGY PREDICTED BY IDOCK:   -5.14 KCAL/MOL
REMARK 923 INTER-LIGAND FREE ENERGY PREDICTED BY IDOCK:   -5.21 KCAL/MOL
REMARK 924 INTRA-LIGAND FREE ENERGY PREDICTED BY IDOCK:    0.08 KCAL/MOL
REMARK 927      BINDING AFFINITY PREDICTED BY RF-SCORE:    0.00 PKD
ROOT
HETATM    1  C   UNL     1      -6.749  19.373  69.343  1.00  0.00    -0.354 C  
HETATM    2  C   UNL     1      -7.818  19.151  68.323  1.00  0.00    -0.351 C  
HETATM    3  C   UNL     1      -8.606  18.071  68.280  1.00  0.00    -0.287 C  
HETATM    4  N   UNL     1      -9.579  17.875  67.313  1.00  0.00    -0.267 N  
HETATM    5  O   UNL     1      -7.370  21.234  67.287  1.00  0.00    -0.484 OA 
HETATM    6  C   UNL     1      -9.842  18.858  66.365  1.00  0.00    -0.375 C  
HETATM    7  O   UNL     1     -10.738  18.796  65.525  1.00  0.00    -0.569 OA 
HETATM    8  H   UNL     1      -9.189  20.678  65.701  1.00  0.00     0.000 HD 
HETATM    9  N   UNL     1      -9.031  19.963  66.411  1.00  0.00    -0.366 N  
HETATM   10  C   UNL     1      -8.034  20.203  67.310  1.00  0.00    -0.327 C  
ENDROOT
BRANCH   4  11
HETATM   11  C   UNL     1     -10.499  16.740  67.377  1.00  0.00    -0.310 C  
HETATM   12  O   UNL     1     -10.170  15.859  68.477  1.00  0.00    -0.217 OA 
HETATM   13  C   UNL     1      -9.961  14.650  66.507  1.00  0.00    -0.292 C  
HETATM   14  C   UNL     1      -9.573  14.655  67.940  1.00  0.00    -0.212 C  
HETATM   15  C   UNL     1     -10.435  15.852  66.180  1.00  0.00    -0.336 C  
BRANCH  14  16
HETATM   16  C   UNL     1      -8.042  14.680  68.107  1.00  0.00    -0.137 C  
HETATM   17  O   UNL     1      -7.369  13.929  67.095  1.00  0.00    -0.333 OA 
HETATM   18  H   UNL     1      -6.425  13.945  67.198  1.00  0.00     0.000 HD 
ENDBRANCH  14  16
ENDBRANCH   4  11
TORSDOF 2
ENDMDL
MODEL       59
REMARK 921   NORMALIZED FREE ENERGY PREDICTED BY IDOCK:   -4.29 KCAL/MOL
REMARK 922        TOTAL FREE ENERGY PREDICTED BY IDOCK:   -5.13 KCAL/MOL
REMARK 923 INTER-LIGAND FREE ENERGY PREDICTED BY IDOCK:   -4.88 KCAL/MOL
REMARK 924 INTRA-LIGAND FREE ENERGY PREDICTED BY IDOCK:   -0.25 KCAL/MOL
REMARK 927      BINDING AFFINITY PREDICTED BY RF-SCORE:    0.00 PKD
ROOT
HETATM    1  C   UNL     1     -10.869  10.359  69.995  1.00  0.00    -0.348 C  
HETATM    2  C   UNL     1     -11.204  11.364  68.941  1.00  0.00    -0.310 C  
HETATM    3  C   UNL     1     -11.533  12.636  69.190  1.00  0.00    -0.304 C  
HETATM    4  N   UNL     1     -11.861  13.548  68.199  1.00  0.00    -0.358 N  
HETATM    5  O   UNL     1     -10.838   9.786  67.212  1.00  0.00    -0.265 OA 
HETATM    6  C   UNL     1     -11.782  13.191  66.858  1.00  0.00    -0.387 C  
HETATM    7  O   UNL     1     -11.980  13.960  65.918  1.00  0.00    -0.366 OA 
HETATM    8  H   UNL     1     -11.419  11.600  65.627  1.00  0.00     0.000 HD 
HETATM    9  N   UNL     1     -11.447  11.885  66.605  1.00  0.00    -0.339 N  
HETATM   10  C   UNL     1     -11.148  10.930  67.532  1.00  0.00    -0.310 C  
ENDROOT
BRANCH   4  11
HETATM   11  C   UNL     1     -12.093  14.958  68.507  1.00  0.00    -0.158 C  
HETATM   12  O   UNL     1     -10.979  15.779  68.083  1.00  0.00    -0.303 OA 
HETATM   13  C   UNL     1     -11.185  15.989  70.385  1.00  0.00    -0.401 C  
HETATM   14  C   UNL     1     -10.244  16.199  69.256  1.00  0.00    -0.257 C  
HETATM   15  C   UNL     1     -12.205  15.240  69.968  1.00  0.00    -0.385 C  
BRANCH  14  16
HETATM   16  C   UNL     1      -8.963  15.360  69.431  1.00  0.00    -0.258 C  
HETATM   17  O   UNL     1      -8.239  15.207  68.210  1.00  0.00    -0.136 OA 
HETATM   18  H   UNL     1      -7.449  14.689  68.318  1.00  0.00     0.000 HD 
ENDBRANCH  14  16
ENDBRANCH   4  11
TORSDOF 2
ENDMDL
MODEL       60
REMARK 921   NORMALIZED FREE ENERGY PREDICTED BY IDOCK:   -4.28 KCAL/MOL
REMARK 922        TOTAL FREE ENERGY PREDICTED BY IDOCK:   -5.12 KCAL/MOL
REMARK 923 INTER-LIGAND FREE ENERGY PREDICTED BY IDOCK:   -5.26 KCAL/MOL
REMARK 924 INTRA-LIGAND FREE ENERGY PREDICTED BY IDOCK:    0.14 KCAL/MOL
REMARK 927      BINDING AFFINITY PREDICTED BY RF-SCORE:    0.00 PKD
ROOT
HETATM    1  C   UNL     1     -10.432  10.582  66.510  1.00  0.00    -0.276 C  
HETATM    2  C   UNL     1     -11.016  11.118  67.776  1.00  0.00    -0.315 C  
HETATM    3  C   UNL     1     -11.130  10.417  68.909  1.00  0.00    -0.247 C  
HETATM    4  N   UNL     1     -11.693  10.926  70.069  1.00  0.00    -0.313 N  
HETATM    5  O   UNL     1     -11.395  13.240  66.794  1.00  0.00    -0.304 OA 
HETATM    6  C   UNL     1     -12.104  12.253  70.130  1.00  0.00    -0.287 C  
HETATM    7  O   UNL     1     -12.541  12.802  71.141  1.00  0.00    -0.371 OA 
HETATM    8  H   UNL     1     -12.318  13.933  68.987  1.00  0.00     0.000 HD 
HETATM    9  N   UNL     1     -11.989  12.969  68.966  1.00  0.00    -0.295 N  
HETATM   10  C   UNL     1     -11.479  12.519  67.784  1.00  0.00    -0.321 C  
ENDROOT
BRANCH   4  11
HETATM   11  C   UNL     1     -11.684  10.166  71.318  1.00  0.00    -0.341 C  
HETATM   12  O   UNL     1     -10.535   9.290  71.392  1.00  0.00    -0.319 OA 
HETATM   13  C   UNL     1     -12.443   7.971  71.447  1.00  0.00    -0.320 C  
HETATM   14  C   UNL     1     -10.981   7.928  71.194  1.00  0.00    -0.239 C  
HETATM   15  C   UNL     1     -12.845   9.241  71.463  1.00  0.00    -0.427 C  
BRANCH  14  16
HETATM   16  C   UNL     1     -10.674   7.452  69.760  1.00  0.00    -0.241 C  
HETATM   17  O   UNL     1     -11.701   6.614  69.231  1.00  0.00    -0.645 OA 
HETATM   18  H   UNL     1     -11.512   6.321  68.347  1.00  0.00     0.000 HD 
ENDBRANCH  14  16
ENDBRANCH   4  11
TORSDOF 2
ENDMDL
MODEL       61
REMARK 921   NORMALIZED FREE ENERGY PREDICTED BY IDOCK:   -4.27 KCAL/MOL
REMARK 922        TOTAL FREE ENERGY PREDICTED BY IDOCK:   -5.11 KCAL/MOL
REMARK 923 INTER-LIGAND FREE ENERGY PREDICTED BY IDOCK:   -5.16 KCAL/MOL
REMARK 924 INTRA-LIGAND FREE ENERGY PREDICTED BY IDOCK:    0.05 KCAL/MOL
REMARK 927      BINDING AFFINITY PREDICTED BY RF-SCORE:    0.00 PKD
ROOT
HETATM    1  C   UNL     1     -11.876  11.518  69.093  1.00  0.00    -0.406 C  
HETATM    2  C   UNL     1     -11.737  10.366  70.034  1.00  0.00    -0.366 C  
HETATM    3  C   UNL     1     -10.986   9.285  69.797  1.00  0.00    -0.196 C  
HETATM    4  N   UNL     1     -10.886   8.217  70.674  1.00  0.00    -0.231 N  
HETATM    5  O   UNL     1     -13.154  11.398  71.628  1.00  0.00    -0.455 OA 
HETATM    6  C   UNL     1     -11.516   8.260  71.913  1.00  0.00    -0.310 C  
HETATM    7  O   UNL     1     -11.415   7.392  72.778  1.00  0.00    -0.310 OA 
HETATM    8  H   UNL     1     -12.784   9.398  73.043  1.00  0.00     0.000 HD 
HETATM    9  N   UNL     1     -12.288   9.369  72.153  1.00  0.00    -0.333 N  
HETATM   10  C   UNL     1     -12.458  10.435  71.320  1.00  0.00    -0.415 C  
ENDROOT
BRANCH   4  11
HETATM   11  C   UNL     1      -9.958   7.114  70.430  1.00  0.00    -0.187 C  
HETATM   12  O   UNL     1      -9.156   7.354  69.250  1.00  0.00    -0.136 OA 
HETATM   13  C   UNL     1     -10.402   5.431  68.887  1.00  0.00    -0.260 C  
HETATM   14  C   UNL     1      -9.623   6.485  68.191  1.00  0.00    -0.123 C  
HETATM   15  C   UNL     1     -10.635   5.817  70.141  1.00  0.00    -0.377 C  
BRANCH  14  16
HETATM   16  C   UNL     1     -10.500   7.262  67.190  1.00  0.00    -0.324 C  
HETATM   17  O   UNL     1     -11.606   6.492  66.719  1.00  0.00    -0.731 OA 
HETATM   18  H   UNL     1     -12.147   6.970  66.102  1.00  0.00     0.000 HD 
ENDBRANCH  14  16
ENDBRANCH   4  11
TORSDOF 2
ENDMDL
MODEL       62
REMARK 921   NORMALIZED FREE ENERGY PREDICTED BY IDOCK:   -4.25 KCAL/MOL
REMARK 922        TOTAL FREE ENERGY PREDICTED BY IDOCK:   -5.09 KCAL/MOL
REMARK 923 INTER-LIGAND FREE ENERGY PREDICTED BY IDOCK:   -5.16 KCAL/MOL
REMARK 924 INTRA-LIGAND FREE ENERGY PREDICTED BY IDOCK:    0.08 KCAL/MOL
REMARK 927      BINDING AFFINITY PREDICTED BY RF-SCORE:    0.00 PKD
ROOT
HETATM    1  C   UNL     1     -13.045  11.444  71.953  1.00  0.00    -0.505 C  
HETATM    2  C   UNL     1     -12.643  10.086  71.480  1.00  0.00    -0.525 C  
HETATM    3  C   UNL     1     -11.598   9.845  70.680  1.00  0.00    -0.335 C  
HETATM    4  N   UNL     1     -11.253   8.579  70.235  1.00  0.00    -0.223 N  
HETATM    5  O   UNL     1     -14.399   9.058  72.693  1.00  0.00    -0.603 OA 
HETATM    6  C   UNL     1     -11.949   7.460  70.679  1.00  0.00    -0.176 C  
HETATM    7  O   UNL     1     -11.659   6.299  70.395  1.00  0.00    -0.381 OA 
HETATM    8  H   UNL     1     -13.562   6.902  71.804  1.00  0.00     0.000 HD 
HETATM    9  N   UNL     1     -13.021   7.710  71.498  1.00  0.00    -0.346 N  
HETATM   10  C   UNL     1     -13.436   8.930  71.943  1.00  0.00    -0.414 C  
ENDROOT
BRANCH   4  11
HETATM   11  C   UNL     1     -10.033   8.349  69.463  1.00  0.00    -0.190 C  
HETATM   12  O   UNL     1      -9.253   9.562  69.338  1.00  0.00    -0.156 OA 
HETATM   13  C   UNL     1      -9.866   8.884  67.205  1.00  0.00    -0.256 C  
HETATM   14  C   UNL     1      -9.377  10.050  67.981  1.00  0.00    -0.130 C  
HETATM   15  C   UNL     1     -10.287   7.943  68.051  1.00  0.00    -0.264 C  
BRANCH  14  16
HETATM   16  C   UNL     1     -10.369  11.227  67.910  1.00  0.00    -0.182 C  
HETATM   17  O   UNL     1     -11.600  10.867  67.284  1.00  0.00    -0.475 OA 
HETATM   18  H   UNL     1     -12.212  11.593  67.239  1.00  0.00     0.000 HD 
ENDBRANCH  14  16
ENDBRANCH   4  11
TORSDOF 2
ENDMDL
MODEL       63
REMARK 921   NORMALIZED FREE ENERGY PREDICTED BY IDOCK:   -4.24 KCAL/MOL
REMARK 922        TOTAL FREE ENERGY PREDICTED BY IDOCK:   -5.08 KCAL/MOL
REMARK 923 INTER-LIGAND FREE ENERGY PREDICTED BY IDOCK:   -5.26 KCAL/MOL
REMARK 924 INTRA-LIGAND FREE ENERGY PREDICTED BY IDOCK:    0.17 KCAL/MOL
REMARK 927      BINDING AFFINITY PREDICTED BY RF-SCORE:    0.00 PKD
ROOT
HETATM    1  C   UNL     1      -8.438   8.604  71.461  1.00  0.00    -0.238 C  
HETATM    2  C   UNL     1      -9.906   8.807  71.654  1.00  0.00    -0.378 C  
HETATM    3  C   UNL     1     -10.621   9.760  71.046  1.00  0.00    -0.225 C  
HETATM    4  N   UNL     1     -11.979   9.945  71.254  1.00  0.00    -0.374 N  
HETATM    5  O   UNL     1     -10.043   6.969  73.143  1.00  0.00    -0.185 OA 
HETATM    6  C   UNL     1     -12.694   9.072  72.067  1.00  0.00    -0.398 C  
HETATM    7  O   UNL     1     -13.910   9.119  72.241  1.00  0.00    -0.450 OA 
HETATM    8  H   UNL     1     -12.463   7.471  73.317  1.00  0.00     0.000 HD 
HETATM    9  N   UNL     1     -11.957   8.097  72.691  1.00  0.00    -0.356 N  
HETATM   10  C   UNL     1     -10.617   7.883  72.558  1.00  0.00    -0.315 C  
ENDROOT
BRANCH   4  11
HETATM   11  C   UNL     1     -12.743  10.918  70.476  1.00  0.00    -0.280 C  
HETATM   12  O   UNL     1     -12.471  10.790  69.061  1.00  0.00    -0.379 OA 
HETATM   13  C   UNL     1     -11.818  12.915  69.723  1.00  0.00    -0.380 C  
HETATM   14  C   UNL     1     -11.651  11.908  68.647  1.00  0.00    -0.310 C  
HETATM   15  C   UNL     1     -12.389  12.335  70.778  1.00  0.00    -0.383 C  
BRANCH  14  16
HETATM   16  C   UNL     1     -10.177  11.483  68.500  1.00  0.00    -0.213 C  
HETATM   17  O   UNL     1      -9.269  12.538  68.819  1.00  0.00    -0.394 OA 
HETATM   18  H   UNL     1      -8.361  12.277  68.729  1.00  0.00     0.000 HD 
ENDBRANCH  14  16
ENDBRANCH   4  11
TORSDOF 2
ENDMDL
MODEL       64
REMARK 921   NORMALIZED FREE ENERGY PREDICTED BY IDOCK:   -4.20 KCAL/MOL
REMARK 922        TOTAL FREE ENERGY PREDICTED BY IDOCK:   -5.03 KCAL/MOL
REMARK 923 INTER-LIGAND FREE ENERGY PREDICTED BY IDOCK:   -4.79 KCAL/MOL
REMARK 924 INTRA-LIGAND FREE ENERGY PREDICTED BY IDOCK:   -0.24 KCAL/MOL
REMARK 927      BINDING AFFINITY PREDICTED BY RF-SCORE:    0.00 PKD
ROOT
HETATM    1  C   UNL     1      -9.613   9.799  68.032  1.00  0.00    -0.160 C  
HETATM    2  C   UNL     1     -10.615  10.038  69.114  1.00  0.00    -0.240 C  
HETATM    3  C   UNL     1     -11.142   9.076  69.879  1.00  0.00    -0.142 C  
HETATM    4  N   UNL     1     -12.086   9.316  70.865  1.00  0.00    -0.267 N  
HETATM    5  O   UNL     1     -10.588  12.375  68.729  1.00  0.00    -0.227 OA 
HETATM    6  C   UNL     1     -12.478  10.616  71.165  1.00  0.00    -0.418 C  
HETATM    7  O   UNL     1     -13.249  10.920  72.074  1.00  0.00    -0.492 OA 
HETATM    8  H   UNL     1     -12.243  12.555  70.564  1.00  0.00     0.000 HD 
HETATM    9  N   UNL     1     -11.938  11.600  70.378  1.00  0.00    -0.370 N  
HETATM   10  C   UNL     1     -11.035  11.429  69.371  1.00  0.00    -0.205 C  
ENDROOT
BRANCH   4  11
HETATM   11  C   UNL     1     -12.542   8.253  71.758  1.00  0.00    -0.333 C  
HETATM   12  O   UNL     1     -11.870   8.317  73.038  1.00  0.00    -0.269 OA 
HETATM   13  C   UNL     1     -11.347   6.279  72.059  1.00  0.00    -0.348 C  
HETATM   14  C   UNL     1     -10.915   7.232  73.112  1.00  0.00    -0.340 C  
HETATM   15  C   UNL     1     -12.230   6.881  71.263  1.00  0.00    -0.427 C  
BRANCH  14  16
HETATM   16  C   UNL     1      -9.484   7.742  72.853  1.00  0.00    -0.234 C  
HETATM   17  O   UNL     1      -8.828   8.161  74.049  1.00  0.00    -0.323 OA 
HETATM   18  H   UNL     1      -7.945   8.475  73.890  1.00  0.00     0.000 HD 
ENDBRANCH  14  16
ENDBRANCH   4  11
TORSDOF 2
ENDMDL
MODEL       65
REMARK 921   NORMALIZED FREE ENERGY PREDICTED BY IDOCK:   -4.18 KCAL/MOL
REMARK 922        TOTAL FREE ENERGY PREDICTED BY IDOCK:   -5.01 KCAL/MOL
REMARK 923 INTER-LIGAND FREE ENERGY PREDICTED BY IDOCK:   -4.75 KCAL/MOL
REMARK 924 INTRA-LIGAND FREE ENERGY PREDICTED BY IDOCK:   -0.26 KCAL/MOL
REMARK 927      BINDING AFFINITY PREDICTED BY RF-SCORE:    0.00 PKD
ROOT
HETATM    1  C   UNL     1     -12.339  12.421  64.420  1.00  0.00    -0.532 C  
HETATM    2  C   UNL     1     -11.133  12.625  65.278  1.00  0.00    -0.330 C  
HETATM    3  C   UNL     1     -10.930  13.699  66.050  1.00  0.00    -0.286 C  
HETATM    4  N   UNL     1      -9.794  13.879  66.824  1.00  0.00    -0.266 N  
HETATM    5  O   UNL     1     -10.223  10.536  64.631  1.00  0.00    -0.345 OA 
HETATM    6  C   UNL     1      -8.825  12.885  66.897  1.00  0.00    -0.187 C  
HETATM    7  O   UNL     1      -7.830  12.932  67.618  1.00  0.00    -0.141 OA 
HETATM    8  H   UNL     1      -8.315  11.064  66.121  1.00  0.00     0.000 HD 
HETATM    9  N   UNL     1      -9.035  11.786  66.104  1.00  0.00    -0.182 N  
HETATM   10  C   UNL     1     -10.109  11.563  65.294  1.00  0.00    -0.269 C  
ENDROOT
BRANCH   4  11
HETATM   11  C   UNL     1      -9.671  15.008  67.745  1.00  0.00    -0.215 C  
HETATM   12  O   UNL     1      -9.801  14.580  69.121  1.00  0.00    -0.181 OA 
HETATM   13  C   UNL     1     -11.523  16.069  68.671  1.00  0.00    -0.377 C  
HETATM   14  C   UNL     1     -11.091  15.010  69.617  1.00  0.00    -0.273 C  
HETATM   15  C   UNL     1     -10.748  16.027  67.588  1.00  0.00    -0.320 C  
BRANCH  14  16
HETATM   16  C   UNL     1     -12.090  13.837  69.640  1.00  0.00    -0.336 C  
HETATM   17  O   UNL     1     -11.484  12.611  70.052  1.00  0.00    -0.512 OA 
HETATM   18  H   UNL     1     -12.100  11.888  70.066  1.00  0.00     0.000 HD 
ENDBRANCH  14  16
ENDBRANCH   4  11
TORSDOF 2
ENDMDL
MODEL       66
REMARK 921   NORMALIZED FREE ENERGY PREDICTED BY IDOCK:   -4.12 KCAL/MOL
REMARK 922        TOTAL FREE ENERGY PREDICTED BY IDOCK:   -4.94 KCAL/MOL
REMARK 923 INTER-LIGAND FREE ENERGY PREDICTED BY IDOCK:   -5.03 KCAL/MOL
REMARK 924 INTRA-LIGAND FREE ENERGY PREDICTED BY IDOCK:    0.09 KCAL/MOL
REMARK 927      BINDING AFFINITY PREDICTED BY RF-SCORE:    0.00 PKD
ROOT
HETATM    1  C   UNL     1      -9.549  18.592  68.054  1.00  0.00    -0.348 C  
HETATM    2  C   UNL     1      -9.870  17.194  67.636  1.00  0.00    -0.270 C  
HETATM    3  C   UNL     1     -10.840  16.450  68.177  1.00  0.00    -0.346 C  
HETATM    4  N   UNL     1     -11.109  15.147  67.789  1.00  0.00    -0.303 N  
HETATM    5  O   UNL     1      -8.182  17.221  65.973  1.00  0.00    -0.488 OA 
HETATM    6  C   UNL     1     -10.415  14.567  66.733  1.00  0.00    -0.270 C  
HETATM    7  O   UNL     1     -10.645  13.448  66.277  1.00  0.00    -0.284 OA 
HETATM    8  H   UNL     1      -8.878  14.906  65.429  1.00  0.00     0.000 HD 
HETATM    9  N   UNL     1      -9.419  15.332  66.182  1.00  0.00    -0.306 N  
HETATM   10  C   UNL     1      -9.079  16.603  66.539  1.00  0.00    -0.272 C  
ENDROOT
BRANCH   4  11
HETATM   11  C   UNL     1     -12.258  14.415  68.321  1.00  0.00    -0.125 C  
HETATM   12  O   UNL     1     -12.901  15.150  69.389  1.00  0.00     0.128 OA 
HETATM   13  C   UNL     1     -12.133  13.144  70.267  1.00  0.00    -0.399 C  
HETATM   14  C   UNL     1     -12.589  14.505  70.646  1.00  0.00    -0.352 C  
HETATM   15  C   UNL     1     -11.895  13.114  68.956  1.00  0.00    -0.358 C  
BRANCH  14  16
HETATM   16  C   UNL     1     -11.488  15.275  71.400  1.00  0.00    -0.389 C  
HETATM   17  O   UNL     1     -11.894  16.596  71.760  1.00  0.00    -0.650 OA 
HETATM   18  H   UNL     1     -11.215  17.071  72.225  1.00  0.00     0.000 HD 
ENDBRANCH  14  16
ENDBRANCH   4  11
TORSDOF 2
ENDMDL
MODEL       67
REMARK 921   NORMALIZED FREE ENERGY PREDICTED BY IDOCK:   -4.09 KCAL/MOL
REMARK 922        TOTAL FREE ENERGY PREDICTED BY IDOCK:   -4.91 KCAL/MOL
REMARK 923 INTER-LIGAND FREE ENERGY PREDICTED BY IDOCK:   -4.67 KCAL/MOL
REMARK 924 INTRA-LIGAND FREE ENERGY PREDICTED BY IDOCK:   -0.24 KCAL/MOL
REMARK 927      BINDING AFFINITY PREDICTED BY RF-SCORE:    0.00 PKD
ROOT
HETATM    1  C   UNL     1     -12.687   7.000  71.576  1.00  0.00    -0.425 C  
HETATM    2  C   UNL     1     -11.348   7.643  71.420  1.00  0.00    -0.285 C  
HETATM    3  C   UNL     1     -10.857   8.089  70.259  1.00  0.00    -0.241 C  
HETATM    4  N   UNL     1      -9.603   8.665  70.131  1.00  0.00    -0.168 N  
HETATM    5  O   UNL     1     -10.900   7.454  73.739  1.00  0.00    -0.321 OA 
HETATM    6  C   UNL     1      -8.809   8.884  71.251  1.00  0.00    -0.231 C  
HETATM    7  O   UNL     1      -7.721   9.457  71.234  1.00  0.00    -0.336 OA 
HETATM    8  H   UNL     1      -8.727   8.546  73.265  1.00  0.00     0.000 HD 
HETATM    9  N   UNL     1      -9.313   8.423  72.440  1.00  0.00    -0.268 N  
HETATM   10  C   UNL     1     -10.520   7.817  72.630  1.00  0.00    -0.302 C  
ENDROOT
BRANCH   4  11
HETATM   11  C   UNL     1      -9.158   9.250  68.867  1.00  0.00    -0.139 C  
HETATM   12  O   UNL     1      -9.159  10.696  68.928  1.00  0.00    -0.165 OA 
HETATM   13  C   UNL     1     -10.649  10.051  67.271  1.00  0.00    -0.319 C  
HETATM   14  C   UNL     1     -10.272  11.189  68.145  1.00  0.00    -0.181 C  
HETATM   15  C   UNL     1     -10.057   8.943  67.717  1.00  0.00    -0.263 C  
BRANCH  14  16
HETATM   16  C   UNL     1     -11.441  11.609  69.056  1.00  0.00    -0.294 C  
HETATM   17  O   UNL     1     -12.585  10.769  68.898  1.00  0.00    -0.735 OA 
HETATM   18  H   UNL     1     -13.307  11.028  69.460  1.00  0.00     0.000 HD 
ENDBRANCH  14  16
ENDBRANCH   4  11
TORSDOF 2
ENDMDL
MODEL       68
REMARK 921   NORMALIZED FREE ENERGY PREDICTED BY IDOCK:   -4.08 KCAL/MOL
REMARK 922        TOTAL FREE ENERGY PREDICTED BY IDOCK:   -4.91 KCAL/MOL
REMARK 923 INTER-LIGAND FREE ENERGY PREDICTED BY IDOCK:   -4.98 KCAL/MOL
REMARK 924 INTRA-LIGAND FREE ENERGY PREDICTED BY IDOCK:    0.08 KCAL/MOL
REMARK 927      BINDING AFFINITY PREDICTED BY RF-SCORE:    0.00 PKD
ROOT
HETATM    1  C   UNL     1      -9.926  19.347  69.208  1.00  0.00    -0.316 C  
HETATM    2  C   UNL     1      -9.944  18.380  68.068  1.00  0.00    -0.374 C  
HETATM    3  C   UNL     1      -9.543  17.107  68.154  1.00  0.00    -0.270 C  
HETATM    4  N   UNL     1      -9.549  16.231  67.080  1.00  0.00    -0.227 N  
HETATM    5  O   UNL     1     -10.865  20.001  66.607  1.00  0.00    -0.374 OA 
HETATM    6  C   UNL     1     -10.063  16.626  65.850  1.00  0.00    -0.320 C  
HETATM    7  O   UNL     1     -10.176  15.889  64.871  1.00  0.00    -0.472 OA 
HETATM    8  H   UNL     1     -10.819  18.246  64.858  1.00  0.00     0.000 HD 
HETATM    9  N   UNL     1     -10.471  17.932  65.764  1.00  0.00    -0.294 N  
HETATM   10  C   UNL     1     -10.459  18.854  66.769  1.00  0.00    -0.428 C  
ENDROOT
BRANCH   4  11
HETATM   11  C   UNL     1      -9.218  14.817  67.248  1.00  0.00    -0.203 C  
HETATM   12  O   UNL     1     -10.014  13.984  66.372  1.00  0.00    -0.276 OA 
HETATM   13  C   UNL     1     -10.498  13.385  68.561  1.00  0.00    -0.260 C  
HETATM   14  C   UNL     1     -11.005  13.293  67.169  1.00  0.00    -0.272 C  
HETATM   15  C   UNL     1      -9.521  14.290  68.610  1.00  0.00    -0.178 C  
BRANCH  14  16
HETATM   16  C   UNL     1     -12.386  13.962  67.030  1.00  0.00    -0.249 C  
HETATM   17  O   UNL     1     -12.684  14.325  65.682  1.00  0.00    -0.471 OA 
HETATM   18  H   UNL     1     -13.535  14.738  65.595  1.00  0.00     0.000 HD 
ENDBRANCH  14  16
ENDBRANCH   4  11
TORSDOF 2
ENDMDL
MODEL       69
REMARK 921   NORMALIZED FREE ENERGY PREDICTED BY IDOCK:   -4.02 KCAL/MOL
REMARK 922        TOTAL FREE ENERGY PREDICTED BY IDOCK:   -4.83 KCAL/MOL
REMARK 923 INTER-LIGAND FREE ENERGY PREDICTED BY IDOCK:   -4.94 KCAL/MOL
REMARK 924 INTRA-LIGAND FREE ENERGY PREDICTED BY IDOCK:    0.11 KCAL/MOL
REMARK 927      BINDING AFFINITY PREDICTED BY RF-SCORE:    0.00 PKD
ROOT
HETATM    1  C   UNL     1     -10.717  11.581  66.536  1.00  0.00    -0.318 C  
HETATM    2  C   UNL     1     -10.975  11.080  67.919  1.00  0.00    -0.317 C  
HETATM    3  C   UNL     1     -10.581   9.884  68.373  1.00  0.00    -0.222 C  
HETATM    4  N   UNL     1     -10.847   9.429  69.654  1.00  0.00    -0.238 N  
HETATM    5  O   UNL     1     -12.071  13.089  68.527  1.00  0.00    -0.297 OA 
HETATM    6  C   UNL     1     -11.484  10.251  70.578  1.00  0.00    -0.343 C  
HETATM    7  O   UNL     1     -11.687   9.953  71.754  1.00  0.00    -0.336 OA 
HETATM    8  H   UNL     1     -12.387  12.075  70.766  1.00  0.00     0.000 HD 
HETATM    9  N   UNL     1     -11.888  11.475  70.109  1.00  0.00    -0.348 N  
HETATM   10  C   UNL     1     -11.691  11.969  68.854  1.00  0.00    -0.326 C  
ENDROOT
BRANCH   4  11
HETATM   11  C   UNL     1     -10.292   8.169  70.146  1.00  0.00    -0.215 C  
HETATM   12  O   UNL     1      -9.516   7.502  69.123  1.00  0.00    -0.150 OA 
HETATM   13  C   UNL     1     -11.283   6.112  69.699  1.00  0.00    -0.488 C  
HETATM   14  C   UNL     1     -10.268   6.362  68.644  1.00  0.00    -0.174 C  
HETATM   15  C   UNL     1     -11.329   7.163  70.516  1.00  0.00    -0.333 C  
BRANCH  14  16
HETATM   16  C   UNL     1     -10.933   6.672  67.289  1.00  0.00    -0.385 C  
HETATM   17  O   UNL     1     -10.590   5.721  66.282  1.00  0.00    -0.447 OA 
HETATM   18  H   UNL     1     -10.999   5.912  65.446  1.00  0.00     0.000 HD 
ENDBRANCH  14  16
ENDBRANCH   4  11
TORSDOF 2
ENDMDL
MODEL       70
REMARK 921   NORMALIZED FREE ENERGY PREDICTED BY IDOCK:   -4.01 KCAL/MOL
REMARK 922        TOTAL FREE ENERGY PREDICTED BY IDOCK:   -4.82 KCAL/MOL
REMARK 923 INTER-LIGAND FREE ENERGY PREDICTED BY IDOCK:   -5.18 KCAL/MOL
REMARK 924 INTRA-LIGAND FREE ENERGY PREDICTED BY IDOCK:    0.35 KCAL/MOL
REMARK 927      BINDING AFFINITY PREDICTED BY RF-SCORE:    0.00 PKD
ROOT
HETATM    1  C   UNL     1     -10.941  12.219  65.366  1.00  0.00    -0.341 C  
HETATM    2  C   UNL     1     -11.076  13.262  66.427  1.00  0.00    -0.313 C  
HETATM    3  C   UNL     1     -10.695  14.536  66.284  1.00  0.00    -0.309 C  
HETATM    4  N   UNL     1     -10.811  15.485  67.287  1.00  0.00    -0.313 N  
HETATM    5  O   UNL     1     -12.085  11.724  67.919  1.00  0.00    -0.592 OA 
HETATM    6  C   UNL     1     -11.420  15.164  68.496  1.00  0.00    -0.320 C  
HETATM    7  O   UNL     1     -11.632  15.964  69.405  1.00  0.00    -0.337 OA 
HETATM    8  H   UNL     1     -12.225  13.598  69.534  1.00  0.00     0.000 HD 
HETATM    9  N   UNL     1     -11.808  13.856  68.640  1.00  0.00    -0.356 N  
HETATM   10  C   UNL     1     -11.691  12.867  67.709  1.00  0.00    -0.362 C  
ENDROOT
BRANCH   4  11
HETATM   11  C   UNL     1     -10.497  16.892  67.046  1.00  0.00    -0.281 C  
HETATM   12  O   UNL     1      -9.535  17.040  65.975  1.00  0.00    -0.436 OA 
HETATM   13  C   UNL     1      -8.589  17.908  67.907  1.00  0.00    -0.252 C  
HETATM   14  C   UNL     1      -8.259  17.409  66.548  1.00  0.00    -0.276 C  
HETATM   15  C   UNL     1      -9.841  17.565  68.205  1.00  0.00    -0.306 C  
BRANCH  14  16
HETATM   16  C   UNL     1      -7.313  16.195  66.611  1.00  0.00    -0.121 C  
HETATM   17  O   UNL     1      -5.968  16.565  66.916  1.00  0.00    -0.261 OA 
HETATM   18  H   UNL     1      -5.384  15.817  66.954  1.00  0.00     0.000 HD 
ENDBRANCH  14  16
ENDBRANCH   4  11
TORSDOF 2
ENDMDL
MODEL       71
REMARK 921   NORMALIZED FREE ENERGY PREDICTED BY IDOCK:   -3.98 KCAL/MOL
REMARK 922        TOTAL FREE ENERGY PREDICTED BY IDOCK:   -4.79 KCAL/MOL
REMARK 923 INTER-LIGAND FREE ENERGY PREDICTED BY IDOCK:   -4.51 KCAL/MOL
REMARK 924 INTRA-LIGAND FREE ENERGY PREDICTED BY IDOCK:   -0.28 KCAL/MOL
REMARK 927      BINDING AFFINITY PREDICTED BY RF-SCORE:    0.00 PKD
ROOT
HETATM    1  C   UNL     1      -7.888  11.098  68.006  1.00  0.00    -0.114 C  
HETATM    2  C   UNL     1      -9.126  11.592  67.331  1.00  0.00    -0.166 C  
HETATM    3  C   UNL     1     -10.054  12.352  67.923  1.00  0.00    -0.208 C  
HETATM    4  N   UNL     1     -11.206  12.784  67.285  1.00  0.00    -0.280 N  
HETATM    5  O   UNL     1      -8.518  10.559  65.288  1.00  0.00    -0.168 OA 
HETATM    6  C   UNL     1     -11.415  12.505  65.939  1.00  0.00    -0.373 C  
HETATM    7  O   UNL     1     -12.370  12.916  65.281  1.00  0.00    -0.449 OA 
HETATM    8  H   UNL     1     -10.620  11.483  64.358  1.00  0.00     0.000 HD 
HETATM    9  N   UNL     1     -10.463  11.724  65.336  1.00  0.00    -0.262 N  
HETATM   10  C   UNL     1      -9.328  11.237  65.913  1.00  0.00    -0.219 C  
ENDROOT
BRANCH   4  11
HETATM   11  C   UNL     1     -12.131  13.714  67.931  1.00  0.00    -0.283 C  
HETATM   12  O   UNL     1     -11.786  15.088  67.637  1.00  0.00    -0.342 OA 
HETATM   13  C   UNL     1     -11.626  14.787  69.932  1.00  0.00    -0.330 C  
HETATM   14  C   UNL     1     -11.208  15.681  68.824  1.00  0.00    -0.332 C  
HETATM   15  C   UNL     1     -12.099  13.651  69.421  1.00  0.00    -0.364 C  
BRANCH  14  16
HETATM   16  C   UNL     1      -9.673  15.754  68.710  1.00  0.00    -0.213 C  
HETATM   17  O   UNL     1      -9.015  15.291  69.889  1.00  0.00    -0.409 OA 
HETATM   18  H   UNL     1      -8.069  15.336  69.819  1.00  0.00     0.000 HD 
ENDBRANCH  14  16
ENDBRANCH   4  11
TORSDOF 2
ENDMDL
MODEL       72
REMARK 921   NORMALIZED FREE ENERGY PREDICTED BY IDOCK:   -3.96 KCAL/MOL
REMARK 922        TOTAL FREE ENERGY PREDICTED BY IDOCK:   -4.77 KCAL/MOL
REMARK 923 INTER-LIGAND FREE ENERGY PREDICTED BY IDOCK:   -4.65 KCAL/MOL
REMARK 924 INTRA-LIGAND FREE ENERGY PREDICTED BY IDOCK:   -0.12 KCAL/MOL
REMARK 927      BINDING AFFINITY PREDICTED BY RF-SCORE:    0.00 PKD
ROOT
HETATM    1  C   UNL     1      -5.526  18.026  70.428  1.00  0.00    -0.251 C  
HETATM    2  C   UNL     1      -6.220  18.526  69.204  1.00  0.00    -0.255 C  
HETATM    3  C   UNL     1      -6.755  17.736  68.266  1.00  0.00    -0.206 C  
HETATM    4  N   UNL     1      -7.378  18.218  67.126  1.00  0.00    -0.200 N  
HETATM    5  O   UNL     1      -5.900  20.783  69.848  1.00  0.00    -0.421 OA 
HETATM    6  C   UNL     1      -7.551  19.586  66.941  1.00  0.00    -0.246 C  
HETATM    7  O   UNL     1      -8.160  20.091  65.999  1.00  0.00    -0.332 OA 
HETATM    8  H   UNL     1      -7.090  21.399  67.763  1.00  0.00     0.000 HD 
HETATM    9  N   UNL     1      -7.000  20.393  67.903  1.00  0.00    -0.300 N  
HETATM   10  C   UNL     1      -6.345  19.985  69.027  1.00  0.00    -0.318 C  
ENDROOT
BRANCH   4  11
HETATM   11  C   UNL     1      -8.055  17.322  66.190  1.00  0.00    -0.237 C  
HETATM   12  O   UNL     1      -9.468  17.623  66.103  1.00  0.00    -0.441 OA 
HETATM   13  C   UNL     1      -9.248  15.454  66.895  1.00  0.00    -0.254 C  
HETATM   14  C   UNL     1     -10.203  16.585  66.793  1.00  0.00    -0.295 C  
HETATM   15  C   UNL     1      -8.023  15.890  66.604  1.00  0.00    -0.270 C  
BRANCH  14  16
HETATM   16  C   UNL     1     -10.656  17.065  68.185  1.00  0.00    -0.369 C  
HETATM   17  O   UNL     1      -9.941  16.426  69.243  1.00  0.00    -0.260 OA 
HETATM   18  H   UNL     1     -10.220  16.721  70.101  1.00  0.00     0.000 HD 
ENDBRANCH  14  16
ENDBRANCH   4  11
TORSDOF 2
ENDMDL
MODEL       73
REMARK 921   NORMALIZED FREE ENERGY PREDICTED BY IDOCK:   -3.96 KCAL/MOL
REMARK 922        TOTAL FREE ENERGY PREDICTED BY IDOCK:   -4.77 KCAL/MOL
REMARK 923 INTER-LIGAND FREE ENERGY PREDICTED BY IDOCK:   -4.44 KCAL/MOL
REMARK 924 INTRA-LIGAND FREE ENERGY PREDICTED BY IDOCK:   -0.32 KCAL/MOL
REMARK 927      BINDING AFFINITY PREDICTED BY RF-SCORE:    0.00 PKD
ROOT
HETATM    1  C   UNL     1     -11.685  11.911  69.934  1.00  0.00    -0.383 C  
HETATM    2  C   UNL     1     -11.813  10.517  70.458  1.00  0.00    -0.442 C  
HETATM    3  C   UNL     1     -11.123   9.471  69.991  1.00  0.00    -0.237 C  
HETATM    4  N   UNL     1     -11.270   8.181  70.477  1.00  0.00    -0.263 N  
HETATM    5  O   UNL     1     -13.405  11.189  72.078  1.00  0.00    -0.454 OA 
HETATM    6  C   UNL     1     -12.108   7.925  71.557  1.00  0.00    -0.306 C  
HETATM    7  O   UNL     1     -12.235   6.827  72.096  1.00  0.00    -0.291 OA 
HETATM    8  H   UNL     1     -13.461   8.820  72.801  1.00  0.00     0.000 HD 
HETATM    9  N   UNL     1     -12.816   8.999  72.031  1.00  0.00    -0.370 N  
HETATM   10  C   UNL     1     -12.746  10.283  71.577  1.00  0.00    -0.452 C  
ENDROOT
BRANCH   4  11
HETATM   11  C   UNL     1     -10.407   7.093  70.023  1.00  0.00    -0.208 C  
HETATM   12  O   UNL     1      -9.293   6.894  70.925  1.00  0.00    -0.157 OA 
HETATM   13  C   UNL     1      -8.435   7.473  68.848  1.00  0.00    -0.129 C  
HETATM   14  C   UNL     1      -8.091   7.392  70.290  1.00  0.00    -0.116 C  
HETATM   15  C   UNL     1      -9.755   7.356  68.708  1.00  0.00    -0.149 C  
BRANCH  14  16
HETATM   16  C   UNL     1      -7.705   8.773  70.853  1.00  0.00    -0.109 C  
HETATM   17  O   UNL     1      -8.093   8.935  72.217  1.00  0.00    -0.376 OA 
HETATM   18  H   UNL     1      -7.855   9.787  72.564  1.00  0.00     0.000 HD 
ENDBRANCH  14  16
ENDBRANCH   4  11
TORSDOF 2
ENDMDL
MODEL       74
REMARK 921   NORMALIZED FREE ENERGY PREDICTED BY IDOCK:   -3.92 KCAL/MOL
REMARK 922        TOTAL FREE ENERGY PREDICTED BY IDOCK:   -4.73 KCAL/MOL
REMARK 923 INTER-LIGAND FREE ENERGY PREDICTED BY IDOCK:   -4.89 KCAL/MOL
REMARK 924 INTRA-LIGAND FREE ENERGY PREDICTED BY IDOCK:    0.17 KCAL/MOL
REMARK 927      BINDING AFFINITY PREDICTED BY RF-SCORE:    0.00 PKD
ROOT
HETATM    1  C   UNL     1     -10.001  19.661  68.888  1.00  0.00    -0.524 C  
HETATM    2  C   UNL     1     -10.211  18.639  67.820  1.00  0.00    -0.427 C  
HETATM    3  C   UNL     1     -10.188  17.317  68.026  1.00  0.00    -0.332 C  
HETATM    4  N   UNL     1     -10.365  16.384  67.017  1.00  0.00    -0.291 N  
HETATM    5  O   UNL     1     -10.538  20.311  66.175  1.00  0.00    -0.324 OA 
HETATM    6  C   UNL     1     -10.662  16.792  65.722  1.00  0.00    -0.180 C  
HETATM    7  O   UNL     1     -10.909  16.029  64.789  1.00  0.00    -0.587 OA 
HETATM    8  H   UNL     1     -10.864  18.461  64.559  1.00  0.00     0.000 HD 
HETATM    9  N   UNL     1     -10.681  18.147  65.512  1.00  0.00    -0.170 N  
HETATM   10  C   UNL     1     -10.481  19.117  66.450  1.00  0.00    -0.463 C  
ENDROOT
BRANCH   4  11
HETATM   11  C   UNL     1     -10.456  14.954  67.309  1.00  0.00    -0.263 C  
HETATM   12  O   UNL     1     -10.046  14.668  68.668  1.00  0.00    -0.225 OA 
HETATM   13  C   UNL     1      -8.604  13.547  67.237  1.00  0.00    -0.218 C  
HETATM   14  C   UNL     1      -8.748  14.030  68.633  1.00  0.00    -0.103 C  
HETATM   15  C   UNL     1      -9.542  14.116  66.480  1.00  0.00    -0.310 C  
BRANCH  14  16
HETATM   16  C   UNL     1      -7.634  15.031  68.997  1.00  0.00    -0.160 C  
HETATM   17  O   UNL     1      -7.080  14.786  70.289  1.00  0.00    -0.318 OA 
HETATM   18  H   UNL     1      -6.393  15.403  70.514  1.00  0.00     0.000 HD 
ENDBRANCH  14  16
ENDBRANCH   4  11
TORSDOF 2
ENDMDL
MODEL       75
REMARK 921   NORMALIZED FREE ENERGY PREDICTED BY IDOCK:   -3.91 KCAL/MOL
REMARK 922        TOTAL FREE ENERGY PREDICTED BY IDOCK:   -4.71 KCAL/MOL
REMARK 923 INTER-LIGAND FREE ENERGY PREDICTED BY IDOCK:   -4.85 KCAL/MOL
REMARK 924 INTRA-LIGAND FREE ENERGY PREDICTED BY IDOCK:    0.14 KCAL/MOL
REMARK 927      BINDING AFFINITY PREDICTED BY RF-SCORE:    0.00 PKD
ROOT
HETATM    1  C   UNL     1     -10.455   5.308  69.803  1.00  0.00    -0.340 C  
HETATM    2  C   UNL     1     -10.537   6.638  69.128  1.00  0.00    -0.280 C  
HETATM    3  C   UNL     1     -10.636   7.806  69.773  1.00  0.00    -0.241 C  
HETATM    4  N   UNL     1     -10.732   9.029  69.128  1.00  0.00    -0.198 N  
HETATM    5  O   UNL     1     -10.376   5.646  66.983  1.00  0.00    -0.199 OA 
HETATM    6  C   UNL     1     -10.646   9.104  67.742  1.00  0.00    -0.227 C  
HETATM    7  O   UNL     1     -10.643  10.153  67.099  1.00  0.00    -0.244 OA 
HETATM    8  H   UNL     1     -10.518   7.943  66.065  1.00  0.00     0.000 HD 
HETATM    9  N   UNL     1     -10.547   7.906  67.083  1.00  0.00    -0.336 N  
HETATM   10  C   UNL     1     -10.485   6.668  67.654  1.00  0.00    -0.227 C  
ENDROOT
BRANCH   4  11
HETATM   11  C   UNL     1     -10.713  10.287  69.872  1.00  0.00    -0.294 C  
HETATM   12  O   UNL     1     -10.961  10.068  71.281  1.00  0.00    -0.264 OA 
HETATM   13  C   UNL     1     -12.661  11.416  70.460  1.00  0.00    -0.309 C  
HETATM   14  C   UNL     1     -12.298  10.526  71.591  1.00  0.00    -0.274 C  
HETATM   15  C   UNL     1     -11.789  11.237  69.467  1.00  0.00    -0.427 C  
BRANCH  14  16
HETATM   16  C   UNL     1     -13.273   9.339  71.706  1.00  0.00    -0.403 C  
HETATM   17  O   UNL     1     -12.813   8.340  72.616  1.00  0.00    -0.591 OA 
HETATM   18  H   UNL     1     -13.414   7.608  72.687  1.00  0.00     0.000 HD 
ENDBRANCH  14  16
ENDBRANCH   4  11
TORSDOF 2
ENDMDL
MODEL       76
REMARK 921   NORMALIZED FREE ENERGY PREDICTED BY IDOCK:   -3.91 KCAL/MOL
REMARK 922        TOTAL FREE ENERGY PREDICTED BY IDOCK:   -4.71 KCAL/MOL
REMARK 923 INTER-LIGAND FREE ENERGY PREDICTED BY IDOCK:   -4.39 KCAL/MOL
REMARK 924 INTRA-LIGAND FREE ENERGY PREDICTED BY IDOCK:   -0.32 KCAL/MOL
REMARK 927      BINDING AFFINITY PREDICTED BY RF-SCORE:    0.00 PKD
ROOT
HETATM    1  C   UNL     1     -10.031  19.496  69.193  1.00  0.00    -0.429 C  
HETATM    2  C   UNL     1      -8.982  19.257  68.156  1.00  0.00    -0.371 C  
HETATM    3  C   UNL     1      -7.893  18.505  68.345  1.00  0.00    -0.310 C  
HETATM    4  N   UNL     1      -6.921  18.312  67.376  1.00  0.00    -0.197 N  
HETATM    5  O   UNL     1     -10.152  20.563  66.562  1.00  0.00    -0.375 OA 
HETATM    6  C   UNL     1      -7.080  18.843  66.100  1.00  0.00    -0.256 C  
HETATM    7  O   UNL     1      -6.305  18.653  65.164  1.00  0.00    -0.354 OA 
HETATM    8  H   UNL     1      -8.310  20.039  64.990  1.00  0.00     0.000 HD 
HETATM    9  N   UNL     1      -8.197  19.615  65.910  1.00  0.00    -0.287 N  
HETATM   10  C   UNL     1      -9.172  19.874  66.829  1.00  0.00    -0.378 C  
ENDROOT
BRANCH   4  11
HETATM   11  C   UNL     1      -5.810  17.384  67.584  1.00  0.00    -0.135 C  
HETATM   12  O   UNL     1      -5.968  16.189  66.784  1.00  0.00    -0.304 OA 
HETATM   13  C   UNL     1      -5.965  15.557  69.017  1.00  0.00    -0.104 C  
HETATM   14  C   UNL     1      -6.340  15.096  67.657  1.00  0.00    -0.139 C  
HETATM   15  C   UNL     1      -5.718  16.866  68.980  1.00  0.00    -0.149 C  
BRANCH  14  16
HETATM   16  C   UNL     1      -7.850  14.805  67.559  1.00  0.00    -0.188 C  
HETATM   17  O   UNL     1      -8.414  15.252  66.326  1.00  0.00    -0.410 OA 
HETATM   18  H   UNL     1      -9.345  15.073  66.266  1.00  0.00     0.000 HD 
ENDBRANCH  14  16
ENDBRANCH   4  11
TORSDOF 2
ENDMDL
MODEL       77
REMARK 921   NORMALIZED FREE ENERGY PREDICTED BY IDOCK:   -3.91 KCAL/MOL
REMARK 922        TOTAL FREE ENERGY PREDICTED BY IDOCK:   -4.71 KCAL/MOL
REMARK 923 INTER-LIGAND FREE ENERGY PREDICTED BY IDOCK:   -4.44 KCAL/MOL
REMARK 924 INTRA-LIGAND FREE ENERGY PREDICTED BY IDOCK:   -0.26 KCAL/MOL
REMARK 927      BINDING AFFINITY PREDICTED BY RF-SCORE:    0.00 PKD
ROOT
HETATM    1  C   UNL     1     -10.963   6.550  67.022  1.00  0.00    -0.466 C  
HETATM    2  C   UNL     1     -10.083   7.226  68.023  1.00  0.00    -0.207 C  
HETATM    3  C   UNL     1     -10.516   8.096  68.941  1.00  0.00    -0.185 C  
HETATM    4  N   UNL     1      -9.681   8.728  69.848  1.00  0.00    -0.174 N  
HETATM    5  O   UNL     1      -8.164   6.095  67.215  1.00  0.00    -0.106 OA 
HETATM    6  C   UNL     1      -8.327   8.416  69.897  1.00  0.00    -0.124 C  
HETATM    7  O   UNL     1      -7.535   8.872  70.720  1.00  0.00    -0.075 OA 
HETATM    8  H   UNL     1      -6.887   7.313  68.954  1.00  0.00     0.000 HD 
HETATM    9  N   UNL     1      -7.884   7.526  68.953  1.00  0.00    -0.121 N  
HETATM   10  C   UNL     1      -8.644   6.896  68.011  1.00  0.00    -0.123 C  
ENDROOT
BRANCH   4  11
HETATM   11  C   UNL     1     -10.214   9.576  70.913  1.00  0.00    -0.286 C  
HETATM   12  O   UNL     1     -10.518   8.803  72.098  1.00  0.00    -0.337 OA 
HETATM   13  C   UNL     1     -12.494   9.754  71.341  1.00  0.00    -0.482 C  
HETATM   14  C   UNL     1     -11.955   8.680  72.212  1.00  0.00    -0.368 C  
HETATM   15  C   UNL     1     -11.514  10.221  70.569  1.00  0.00    -0.427 C  
BRANCH  14  16
HETATM   16  C   UNL     1     -12.426   7.289  71.745  1.00  0.00    -0.343 C  
HETATM   17  O   UNL     1     -13.592   7.354  70.924  1.00  0.00    -0.621 OA 
HETATM   18  H   UNL     1     -13.883   6.497  70.636  1.00  0.00     0.000 HD 
ENDBRANCH  14  16
ENDBRANCH   4  11
TORSDOF 2
ENDMDL
MODEL       78
REMARK 921   NORMALIZED FREE ENERGY PREDICTED BY IDOCK:   -3.88 KCAL/MOL
REMARK 922        TOTAL FREE ENERGY PREDICTED BY IDOCK:   -4.68 KCAL/MOL
REMARK 923 INTER-LIGAND FREE ENERGY PREDICTED BY IDOCK:   -4.66 KCAL/MOL
REMARK 924 INTRA-LIGAND FREE ENERGY PREDICTED BY IDOCK:   -0.01 KCAL/MOL
REMARK 927      BINDING AFFINITY PREDICTED BY RF-SCORE:    0.00 PKD
ROOT
HETATM    1  C   UNL     1      -9.762  11.032  62.840  1.00  0.00    -0.353 C  
HETATM    2  C   UNL     1     -10.386  11.387  64.150  1.00  0.00    -0.400 C  
HETATM    3  C   UNL     1      -9.942  10.959  65.337  1.00  0.00    -0.263 C  
HETATM    4  N   UNL     1     -10.547  11.283  66.541  1.00  0.00    -0.257 N  
HETATM    5  O   UNL     1     -12.019  12.741  63.094  1.00  0.00    -0.504 OA 
HETATM    6  C   UNL     1     -11.627  12.159  66.575  1.00  0.00    -0.359 C  
HETATM    7  O   UNL     1     -12.170  12.558  67.604  1.00  0.00    -0.401 OA 
HETATM    8  H   UNL     1     -12.895  13.210  65.364  1.00  0.00     0.000 HD 
HETATM    9  N   UNL     1     -12.082  12.594  65.357  1.00  0.00    -0.450 N  
HETATM   10  C   UNL     1     -11.557  12.286  64.137  1.00  0.00    -0.388 C  
ENDROOT
BRANCH   4  11
HETATM   11  C   UNL     1      -9.956  10.895  67.820  1.00  0.00    -0.176 C  
HETATM   12  O   UNL     1      -8.804  11.712  68.136  1.00  0.00    -0.151 OA 
HETATM   13  C   UNL     1      -8.092   9.511  67.963  1.00  0.00    -0.102 C  
HETATM   14  C   UNL     1      -7.610  10.915  67.955  1.00  0.00    -0.095 C  
HETATM   15  C   UNL     1      -9.418   9.504  67.832  1.00  0.00    -0.149 C  
BRANCH  14  16
HETATM   16  C   UNL     1      -6.915  11.261  66.624  1.00  0.00    -0.129 C  
HETATM   17  O   UNL     1      -6.082  12.417  66.727  1.00  0.00    -0.486 OA 
HETATM   18  H   UNL     1      -5.654  12.631  65.907  1.00  0.00     0.000 HD 
ENDBRANCH  14  16
ENDBRANCH   4  11
TORSDOF 2
ENDMDL
MODEL       79
REMARK 921   NORMALIZED FREE ENERGY PREDICTED BY IDOCK:   -3.88 KCAL/MOL
REMARK 922        TOTAL FREE ENERGY PREDICTED BY IDOCK:   -4.67 KCAL/MOL
REMARK 923 INTER-LIGAND FREE ENERGY PREDICTED BY IDOCK:   -4.78 KCAL/MOL
REMARK 924 INTRA-LIGAND FREE ENERGY PREDICTED BY IDOCK:    0.11 KCAL/MOL
REMARK 927      BINDING AFFINITY PREDICTED BY RF-SCORE:    0.00 PKD
ROOT
HETATM    1  C   UNL     1     -11.959  14.522  69.055  1.00  0.00    -0.334 C  
HETATM    2  C   UNL     1     -11.588  13.079  69.160  1.00  0.00    -0.368 C  
HETATM    3  C   UNL     1     -10.793  12.440  68.295  1.00  0.00    -0.237 C  
HETATM    4  N   UNL     1     -10.477  11.095  68.399  1.00  0.00    -0.180 N  
HETATM    5  O   UNL     1     -12.837  12.824  71.157  1.00  0.00    -0.323 OA 
HETATM    6  C   UNL     1     -10.920  10.347  69.484  1.00  0.00    -0.262 C  
HETATM    7  O   UNL     1     -10.621   9.172  69.691  1.00  0.00    -0.220 OA 
HETATM    8  H   UNL     1     -12.098  10.459  71.151  1.00  0.00     0.000 HD 
HETATM    9  N   UNL     1     -11.737  11.004  70.368  1.00  0.00    -0.335 N  
HETATM   10  C   UNL     1     -12.116  12.312  70.306  1.00  0.00    -0.295 C  
ENDROOT
BRANCH   4  11
HETATM   11  C   UNL     1      -9.507  10.468  67.502  1.00  0.00    -0.149 C  
HETATM   12  O   UNL     1      -8.816  11.457  66.701  1.00  0.00    -0.171 OA 
HETATM   13  C   UNL     1      -9.969  10.051  65.261  1.00  0.00    -0.368 C  
HETATM   14  C   UNL     1      -9.313  11.379  65.345  1.00  0.00    -0.186 C  
HETATM   15  C   UNL     1     -10.125   9.563  66.491  1.00  0.00    -0.326 C  
BRANCH  14  16
HETATM   16  C   UNL     1     -10.312  12.517  65.059  1.00  0.00    -0.299 C  
HETATM   17  O   UNL     1     -10.075  13.151  63.802  1.00  0.00    -0.731 OA 
HETATM   18  H   UNL     1     -10.690  13.852  63.626  1.00  0.00     0.000 HD 
ENDBRANCH  14  16
ENDBRANCH   4  11
TORSDOF 2
ENDMDL
MODEL       80
REMARK 921   NORMALIZED FREE ENERGY PREDICTED BY IDOCK:   -3.85 KCAL/MOL
REMARK 922        TOTAL FREE ENERGY PREDICTED BY IDOCK:   -4.65 KCAL/MOL
REMARK 923 INTER-LIGAND FREE ENERGY PREDICTED BY IDOCK:   -4.31 KCAL/MOL
REMARK 924 INTRA-LIGAND FREE ENERGY PREDICTED BY IDOCK:   -0.34 KCAL/MOL
REMARK 927      BINDING AFFINITY PREDICTED BY RF-SCORE:    0.00 PKD
ROOT
HETATM    1  C   UNL     1      -9.465   7.752  67.714  1.00  0.00    -0.163 C  
HETATM    2  C   UNL     1     -10.285   8.391  68.787  1.00  0.00    -0.223 C  
HETATM    3  C   UNL     1     -10.826   7.730  69.816  1.00  0.00    -0.209 C  
HETATM    4  N   UNL     1     -11.601   8.338  70.791  1.00  0.00    -0.268 N  
HETATM    5  O   UNL     1     -10.021  10.537  67.818  1.00  0.00    -0.165 OA 
HETATM    6  C   UNL     1     -11.791   9.716  70.785  1.00  0.00    -0.300 C  
HETATM    7  O   UNL     1     -12.398  10.341  71.653  1.00  0.00    -0.388 OA 
HETATM    8  H   UNL     1     -11.398  11.397  69.690  1.00  0.00     0.000 HD 
HETATM    9  N   UNL     1     -11.238  10.390  69.727  1.00  0.00    -0.272 N  
HETATM   10  C   UNL     1     -10.496   9.850  68.718  1.00  0.00    -0.213 C  
ENDROOT
BRANCH   4  11
HETATM   11  C   UNL     1     -12.068   7.600  71.964  1.00  0.00    -0.299 C  
HETATM   12  O   UNL     1     -11.333   7.982  73.151  1.00  0.00    -0.317 OA 
HETATM   13  C   UNL     1     -10.961   5.723  72.777  1.00  0.00    -0.314 C  
HETATM   14  C   UNL     1     -10.432   6.906  73.501  1.00  0.00    -0.352 C  
HETATM   15  C   UNL     1     -11.849   6.128  71.870  1.00  0.00    -0.316 C  
BRANCH  14  16
HETATM   16  C   UNL     1      -8.991   7.233  73.063  1.00  0.00    -0.138 C  
HETATM   17  O   UNL     1      -8.813   8.616  72.756  1.00  0.00    -0.374 OA 
HETATM   18  H   UNL     1      -7.925   8.818  72.487  1.00  0.00     0.000 HD 
ENDBRANCH  14  16
ENDBRANCH   4  11
TORSDOF 2
ENDMDL
MODEL       81
REMARK 921   NORMALIZED FREE ENERGY PREDICTED BY IDOCK:   -3.85 KCAL/MOL
REMARK 922        TOTAL FREE ENERGY PREDICTED BY IDOCK:   -4.65 KCAL/MOL
REMARK 923 INTER-LIGAND FREE ENERGY PREDICTED BY IDOCK:   -4.81 KCAL/MOL
REMARK 924 INTRA-LIGAND FREE ENERGY PREDICTED BY IDOCK:    0.17 KCAL/MOL
REMARK 927      BINDING AFFINITY PREDICTED BY RF-SCORE:    0.00 PKD
ROOT
HETATM    1  C   UNL     1     -12.527  14.004  66.046  1.00  0.00    -0.489 C  
HETATM    2  C   UNL     1     -11.734  13.010  65.261  1.00  0.00    -0.388 C  
HETATM    3  C   UNL     1     -11.128  11.942  65.790  1.00  0.00    -0.317 C  
HETATM    4  N   UNL     1     -10.380  11.042  65.048  1.00  0.00    -0.291 N  
HETATM    5  O   UNL     1     -12.172  14.149  63.230  1.00  0.00    -0.531 OA 
HETATM    6  C   UNL     1     -10.292  11.169  63.666  1.00  0.00    -0.389 C  
HETATM    7  O   UNL     1      -9.715  10.372  62.927  1.00  0.00    -0.316 OA 
HETATM    8  H   UNL     1     -10.827  12.391  62.117  1.00  0.00     0.000 HD 
HETATM    9  N   UNL     1     -10.912  12.266  63.126  1.00  0.00    -0.291 N  
HETATM   10  C   UNL     1     -11.632  13.207  63.802  1.00  0.00    -0.425 C  
ENDROOT
BRANCH   4  11
HETATM   11  C   UNL     1      -9.839   9.824  65.647  1.00  0.00    -0.301 C  
HETATM   12  O   UNL     1      -9.997   9.830  67.085  1.00  0.00    -0.177 OA 
HETATM   13  C   UNL     1      -7.726   9.745  66.619  1.00  0.00    -0.102 C  
HETATM   14  C   UNL     1      -8.704  10.060  67.691  1.00  0.00    -0.121 C  
HETATM   15  C   UNL     1      -8.368   9.665  65.454  1.00  0.00    -0.146 C  
BRANCH  14  16
HETATM   16  C   UNL     1      -8.569  11.521  68.161  1.00  0.00    -0.156 C  
HETATM   17  O   UNL     1      -9.773  12.021  68.742  1.00  0.00    -0.374 OA 
HETATM   18  H   UNL     1      -9.690  12.922  69.032  1.00  0.00     0.000 HD 
ENDBRANCH  14  16
ENDBRANCH   4  11
TORSDOF 2
ENDMDL
MODEL       82
REMARK 921   NORMALIZED FREE ENERGY PREDICTED BY IDOCK:   -3.83 KCAL/MOL
REMARK 922        TOTAL FREE ENERGY PREDICTED BY IDOCK:   -4.62 KCAL/MOL
REMARK 923 INTER-LIGAND FREE ENERGY PREDICTED BY IDOCK:   -4.73 KCAL/MOL
REMARK 924 INTRA-LIGAND FREE ENERGY PREDICTED BY IDOCK:    0.11 KCAL/MOL
REMARK 927      BINDING AFFINITY PREDICTED BY RF-SCORE:    0.00 PKD
ROOT
HETATM    1  C   UNL     1      -7.781  15.948  67.274  1.00  0.00    -0.224 C  
HETATM    2  C   UNL     1      -8.432  14.604  67.315  1.00  0.00    -0.234 C  
HETATM    3  C   UNL     1      -9.168  14.093  66.322  1.00  0.00    -0.123 C  
HETATM    4  N   UNL     1      -9.781  12.851  66.387  1.00  0.00    -0.260 N  
HETATM    5  O   UNL     1      -7.555  14.159  69.470  1.00  0.00     0.052 OA 
HETATM    6  C   UNL     1      -9.584  12.024  67.487  1.00  0.00    -0.177 C  
HETATM    7  O   UNL     1     -10.027  10.880  67.589  1.00  0.00    -0.169 OA 
HETATM    8  H   UNL     1      -8.707  11.969  69.333  1.00  0.00     0.000 HD 
HETATM    9  N   UNL     1      -8.831  12.551  68.505  1.00  0.00    -0.105 N  
HETATM   10  C   UNL     1      -8.231  13.776  68.520  1.00  0.00    -0.124 C  
ENDROOT
BRANCH   4  11
HETATM   11  C   UNL     1     -10.473  12.281  65.232  1.00  0.00    -0.282 C  
HETATM   12  O   UNL     1     -10.562  13.237  64.149  1.00  0.00    -0.416 OA 
HETATM   13  C   UNL     1     -12.722  12.691  64.799  1.00  0.00    -0.460 C  
HETATM   14  C   UNL     1     -11.929  13.704  64.059  1.00  0.00    -0.431 C  
HETATM   15  C   UNL     1     -11.894  11.921  65.505  1.00  0.00    -0.135 C  
BRANCH  14  16
HETATM   16  C   UNL     1     -12.074  15.102  64.691  1.00  0.00    -0.257 C  
HETATM   17  O   UNL     1     -11.630  16.143  63.822  1.00  0.00    -1.390 OA 
HETATM   18  H   UNL     1     -11.719  17.005  64.211  1.00  0.00     0.000 HD 
ENDBRANCH  14  16
ENDBRANCH   4  11
TORSDOF 2
ENDMDL
MODEL       83
REMARK 921   NORMALIZED FREE ENERGY PREDICTED BY IDOCK:   -3.82 KCAL/MOL
REMARK 922        TOTAL FREE ENERGY PREDICTED BY IDOCK:   -4.61 KCAL/MOL
REMARK 923 INTER-LIGAND FREE ENERGY PREDICTED BY IDOCK:   -4.36 KCAL/MOL
REMARK 924 INTRA-LIGAND FREE ENERGY PREDICTED BY IDOCK:   -0.25 KCAL/MOL
REMARK 927      BINDING AFFINITY PREDICTED BY RF-SCORE:    0.00 PKD
ROOT
HETATM    1  C   UNL     1     -10.723   5.803  67.428  1.00  0.00    -0.332 C  
HETATM    2  C   UNL     1     -10.320   5.674  68.861  1.00  0.00    -0.295 C  
HETATM    3  C   UNL     1     -10.331   6.682  69.740  1.00  0.00    -0.193 C  
HETATM    4  N   UNL     1      -9.934   6.546  71.061  1.00  0.00    -0.183 N  
HETATM    5  O   UNL     1      -9.884   3.359  68.610  1.00  0.00    -0.025 OA 
HETATM    6  C   UNL     1      -9.575   5.302  71.566  1.00  0.00    -0.154 C  
HETATM    7  O   UNL     1      -9.287   5.082  72.742  1.00  0.00    -0.135 OA 
HETATM    8  H   UNL     1      -9.268   3.359  71.010  1.00  0.00     0.000 HD 
HETATM    9  N   UNL     1      -9.563   4.271  70.662  1.00  0.00    -0.175 N  
HETATM   10  C   UNL     1      -9.905   4.343  69.344  1.00  0.00    -0.168 C  
ENDROOT
BRANCH   4  11
HETATM   11  C   UNL     1     -10.079   7.643  72.017  1.00  0.00    -0.188 C  
HETATM   12  O   UNL     1     -11.240   7.456  72.860  1.00  0.00    -0.327 OA 
HETATM   13  C   UNL     1     -11.538   9.421  71.662  1.00  0.00    -0.466 C  
HETATM   14  C   UNL     1     -12.264   8.393  72.449  1.00  0.00    -0.367 C  
HETATM   15  C   UNL     1     -10.318   8.968  71.374  1.00  0.00    -0.396 C  
BRANCH  14  16
HETATM   16  C   UNL     1     -13.340   7.692  71.598  1.00  0.00    -0.350 C  
HETATM   17  O   UNL     1     -14.339   8.597  71.126  1.00  0.00    -0.609 OA 
HETATM   18  H   UNL     1     -15.003   8.165  70.602  1.00  0.00     0.000 HD 
ENDBRANCH  14  16
ENDBRANCH   4  11
TORSDOF 2
ENDMDL
MODEL       84
REMARK 921   NORMALIZED FREE ENERGY PREDICTED BY IDOCK:   -3.81 KCAL/MOL
REMARK 922        TOTAL FREE ENERGY PREDICTED BY IDOCK:   -4.60 KCAL/MOL
REMARK 923 INTER-LIGAND FREE ENERGY PREDICTED BY IDOCK:   -4.39 KCAL/MOL
REMARK 924 INTRA-LIGAND FREE ENERGY PREDICTED BY IDOCK:   -0.22 KCAL/MOL
REMARK 927      BINDING AFFINITY PREDICTED BY RF-SCORE:    0.00 PKD
ROOT
HETATM    1  C   UNL     1      -9.426  15.524  65.863  1.00  0.00    -0.377 C  
HETATM    2  C   UNL     1     -10.160  14.339  66.400  1.00  0.00    -0.295 C  
HETATM    3  C   UNL     1     -10.033  13.095  65.926  1.00  0.00    -0.269 C  
HETATM    4  N   UNL     1     -10.738  12.011  66.425  1.00  0.00    -0.249 N  
HETATM    5  O   UNL     1     -11.232  15.655  68.053  1.00  0.00    -0.329 OA 
HETATM    6  C   UNL     1     -11.574  12.160  67.527  1.00  0.00    -0.343 C  
HETATM    7  O   UNL     1     -12.173  11.238  68.078  1.00  0.00    -0.621 OA 
HETATM    8  H   UNL     1     -12.341  13.567  68.795  1.00  0.00     0.000 HD 
HETATM    9  N   UNL     1     -11.705  13.437  68.009  1.00  0.00    -0.336 N  
HETATM   10  C   UNL     1     -11.069  14.550  67.543  1.00  0.00    -0.307 C  
ENDROOT
BRANCH   4  11
HETATM   11  C   UNL     1     -10.476  10.651  65.959  1.00  0.00    -0.183 C  
HETATM   12  O   UNL     1      -9.496   9.989  66.793  1.00  0.00    -0.159 OA 
HETATM   13  C   UNL     1      -8.633  10.117  64.644  1.00  0.00    -0.193 C  
HETATM   14  C   UNL     1      -8.250   9.904  66.062  1.00  0.00    -0.119 C  
HETATM   15  C   UNL     1      -9.877  10.591  64.595  1.00  0.00    -0.404 C  
BRANCH  14  16
HETATM   16  C   UNL     1      -7.257  10.979  66.543  1.00  0.00    -0.143 C  
HETATM   17  O   UNL     1      -5.950  10.452  66.772  1.00  0.00    -0.057 OA 
HETATM   18  H   UNL     1      -5.337  11.114  67.069  1.00  0.00     0.000 HD 
ENDBRANCH  14  16
ENDBRANCH   4  11
TORSDOF 2
ENDMDL
MODEL       85
REMARK 921   NORMALIZED FREE ENERGY PREDICTED BY IDOCK:   -3.80 KCAL/MOL
REMARK 922        TOTAL FREE ENERGY PREDICTED BY IDOCK:   -4.59 KCAL/MOL
REMARK 923 INTER-LIGAND FREE ENERGY PREDICTED BY IDOCK:   -4.39 KCAL/MOL
REMARK 924 INTRA-LIGAND FREE ENERGY PREDICTED BY IDOCK:   -0.20 KCAL/MOL
REMARK 927      BINDING AFFINITY PREDICTED BY RF-SCORE:    0.00 PKD
ROOT
HETATM    1  C   UNL     1     -12.201  15.397  63.845  1.00  0.00     0.188 C  
HETATM    2  C   UNL     1     -11.609  14.387  64.774  1.00  0.00    -0.410 C  
HETATM    3  C   UNL     1     -10.701  14.670  65.714  1.00  0.00    -0.315 C  
HETATM    4  N   UNL     1     -10.149  13.715  66.553  1.00  0.00    -0.279 N  
HETATM    5  O   UNL     1     -12.915  12.647  63.838  1.00  0.00    -0.706 OA 
HETATM    6  C   UNL     1     -10.586  12.395  66.506  1.00  0.00    -0.235 C  
HETATM    7  O   UNL     1     -10.205  11.506  67.266  1.00  0.00    -0.196 OA 
HETATM    8  H   UNL     1     -11.820  11.138  65.470  1.00  0.00     0.000 HD 
HETATM    9  N   UNL     1     -11.515  12.109  65.539  1.00  0.00    -0.350 N  
HETATM   10  C   UNL     1     -12.072  12.991  64.660  1.00  0.00    -0.409 C  
ENDROOT
BRANCH   4  11
HETATM   11  C   UNL     1      -9.253  14.087  67.647  1.00  0.00    -0.194 C  
HETATM   12  O   UNL     1      -9.991  14.345  68.865  1.00  0.00    -0.225 OA 
HETATM   13  C   UNL     1      -8.897  16.301  68.267  1.00  0.00    -0.188 C  
HETATM   14  C   UNL     1     -10.002  15.773  69.104  1.00  0.00    -0.241 C  
HETATM   15  C   UNL     1      -8.512  15.359  67.406  1.00  0.00    -0.200 C  
BRANCH  14  16
HETATM   16  C   UNL     1     -11.356  16.387  68.699  1.00  0.00    -0.289 C  
HETATM   17  O   UNL     1     -12.389  16.102  69.642  1.00  0.00    -0.339 OA 
HETATM   18  H   UNL     1     -13.224  16.481  69.392  1.00  0.00     0.000 HD 
ENDBRANCH  14  16
ENDBRANCH   4  11
TORSDOF 2
ENDMDL
MODEL       86
REMARK 921   NORMALIZED FREE ENERGY PREDICTED BY IDOCK:   -3.79 KCAL/MOL
REMARK 922        TOTAL FREE ENERGY PREDICTED BY IDOCK:   -4.58 KCAL/MOL
REMARK 923 INTER-LIGAND FREE ENERGY PREDICTED BY IDOCK:   -4.24 KCAL/MOL
REMARK 924 INTRA-LIGAND FREE ENERGY PREDICTED BY IDOCK:   -0.35 KCAL/MOL
REMARK 927      BINDING AFFINITY PREDICTED BY RF-SCORE:    0.00 PKD
ROOT
HETATM    1  C   UNL     1     -11.354  11.163  67.955  1.00  0.00    -0.380 C  
HETATM    2  C   UNL     1     -10.435  10.008  68.186  1.00  0.00    -0.250 C  
HETATM    3  C   UNL     1     -10.138   9.510  69.391  1.00  0.00    -0.198 C  
HETATM    4  N   UNL     1      -9.267   8.450  69.586  1.00  0.00    -0.159 N  
HETATM    5  O   UNL     1     -10.063   9.739  65.862  1.00  0.00    -0.282 OA 
HETATM    6  C   UNL     1      -8.709   7.785  68.499  1.00  0.00    -0.128 C  
HETATM    7  O   UNL     1      -7.991   6.790  68.583  1.00  0.00    -0.115 OA 
HETATM    8  H   UNL     1      -8.583   7.844  66.460  1.00  0.00     0.000 HD 
HETATM    9  N   UNL     1      -9.013   8.300  67.265  1.00  0.00    -0.136 N  
HETATM   10  C   UNL     1      -9.831   9.359  67.005  1.00  0.00    -0.201 C  
ENDROOT
BRANCH   4  11
HETATM   11  C   UNL     1      -9.068   7.860  70.909  1.00  0.00    -0.151 C  
HETATM   12  O   UNL     1      -9.814   6.628  71.052  1.00  0.00    -0.182 OA 
HETATM   13  C   UNL     1     -10.603   8.128  72.637  1.00  0.00    -0.414 C  
HETATM   14  C   UNL     1     -10.944   6.872  71.923  1.00  0.00    -0.235 C  
HETATM   15  C   UNL     1      -9.573   8.711  72.025  1.00  0.00    -0.385 C  
BRANCH  14  16
HETATM   16  C   UNL     1     -12.243   7.025  71.108  1.00  0.00    -0.382 C  
HETATM   17  O   UNL     1     -12.092   6.598  69.754  1.00  0.00    -0.638 OA 
HETATM   18  H   UNL     1     -12.892   6.692  69.251  1.00  0.00     0.000 HD 
ENDBRANCH  14  16
ENDBRANCH   4  11
TORSDOF 2
ENDMDL
MODEL       87
REMARK 921   NORMALIZED FREE ENERGY PREDICTED BY IDOCK:   -3.77 KCAL/MOL
REMARK 922        TOTAL FREE ENERGY PREDICTED BY IDOCK:   -4.56 KCAL/MOL
REMARK 923 INTER-LIGAND FREE ENERGY PREDICTED BY IDOCK:   -4.28 KCAL/MOL
REMARK 924 INTRA-LIGAND FREE ENERGY PREDICTED BY IDOCK:   -0.28 KCAL/MOL
REMARK 927      BINDING AFFINITY PREDICTED BY RF-SCORE:    0.00 PKD
ROOT
HETATM    1  C   UNL     1      -7.785   8.248  71.276  1.00  0.00    -0.106 C  
HETATM    2  C   UNL     1      -9.121   8.901  71.135  1.00  0.00    -0.315 C  
HETATM    3  C   UNL     1      -9.430   9.787  70.182  1.00  0.00    -0.229 C  
HETATM    4  N   UNL     1     -10.670  10.397  70.080  1.00  0.00    -0.281 N  
HETATM    5  O   UNL     1      -9.985   7.710  72.992  1.00  0.00    -0.231 OA 
HETATM    6  C   UNL     1     -11.703  10.045  70.941  1.00  0.00    -0.374 C  
HETATM    7  O   UNL     1     -12.851  10.481  70.869  1.00  0.00    -0.363 OA 
HETATM    8  H   UNL     1     -12.121   8.896  72.579  1.00  0.00     0.000 HD 
HETATM    9  N   UNL     1     -11.383   9.138  71.919  1.00  0.00    -0.375 N  
HETATM   10  C   UNL     1     -10.176   8.529  72.097  1.00  0.00    -0.333 C  
ENDROOT
BRANCH   4  11
HETATM   11  C   UNL     1     -11.002  11.265  68.951  1.00  0.00    -0.223 C  
HETATM   12  O   UNL     1     -11.676  10.528  67.903  1.00  0.00    -0.453 OA 
HETATM   13  C   UNL     1      -9.696  11.362  67.028  1.00  0.00    -0.210 C  
HETATM   14  C   UNL     1     -10.756  10.349  66.801  1.00  0.00    -0.168 C  
HETATM   15  C   UNL     1      -9.807  11.839  68.267  1.00  0.00    -0.198 C  
BRANCH  14  16
HETATM   16  C   UNL     1     -10.176   8.921  66.797  1.00  0.00    -0.278 C  
HETATM   17  O   UNL     1      -8.834   8.878  66.312  1.00  0.00    -0.141 OA 
HETATM   18  H   UNL     1      -8.476   7.998  66.309  1.00  0.00     0.000 HD 
ENDBRANCH  14  16
ENDBRANCH   4  11
TORSDOF 2
ENDMDL
MODEL       88
REMARK 921   NORMALIZED FREE ENERGY PREDICTED BY IDOCK:   -3.76 KCAL/MOL
REMARK 922        TOTAL FREE ENERGY PREDICTED BY IDOCK:   -4.54 KCAL/MOL
REMARK 923 INTER-LIGAND FREE ENERGY PREDICTED BY IDOCK:   -4.30 KCAL/MOL
REMARK 924 INTRA-LIGAND FREE ENERGY PREDICTED BY IDOCK:   -0.24 KCAL/MOL
REMARK 927      BINDING AFFINITY PREDICTED BY RF-SCORE:    0.00 PKD
ROOT
HETATM    1  C   UNL     1      -8.956  10.183  63.877  1.00  0.00    -0.270 C  
HETATM    2  C   UNL     1      -9.811  10.585  65.034  1.00  0.00    -0.369 C  
HETATM    3  C   UNL     1      -9.858   9.929  66.199  1.00  0.00    -0.260 C  
HETATM    4  N   UNL     1     -10.674  10.307  67.255  1.00  0.00    -0.269 N  
HETATM    5  O   UNL     1     -10.644  12.469  63.865  1.00  0.00    -0.389 OA 
HETATM    6  C   UNL     1     -11.440  11.464  67.176  1.00  0.00    -0.190 C  
HETATM    7  O   UNL     1     -12.128  11.910  68.093  1.00  0.00    -0.516 OA 
HETATM    8  H   UNL     1     -11.975  12.965  65.895  1.00  0.00     0.000 HD 
HETATM    9  N   UNL     1     -11.391  12.133  65.979  1.00  0.00    -0.344 N  
HETATM   10  C   UNL     1     -10.640  11.797  64.892  1.00  0.00    -0.294 C  
ENDROOT
BRANCH   4  11
HETATM   11  C   UNL     1     -10.602   9.635  68.551  1.00  0.00    -0.220 C  
HETATM   12  O   UNL     1      -9.856  10.421  69.510  1.00  0.00    -0.222 OA 
HETATM   13  C   UNL     1      -8.742   8.407  69.218  1.00  0.00    -0.138 C  
HETATM   14  C   UNL     1      -8.569   9.793  69.718  1.00  0.00    -0.201 C  
HETATM   15  C   UNL     1      -9.870   8.336  68.511  1.00  0.00    -0.188 C  
BRANCH  14  16
HETATM   16  C   UNL     1      -7.464  10.536  68.942  1.00  0.00    -0.104 C  
HETATM   17  O   UNL     1      -7.198  11.832  69.476  1.00  0.00    -0.329 OA 
HETATM   18  H   UNL     1      -6.517  12.291  68.998  1.00  0.00     0.000 HD 
ENDBRANCH  14  16
ENDBRANCH   4  11
TORSDOF 2
ENDMDL
MODEL       89
REMARK 921   NORMALIZED FREE ENERGY PREDICTED BY IDOCK:   -3.73 KCAL/MOL
REMARK 922        TOTAL FREE ENERGY PREDICTED BY IDOCK:   -4.51 KCAL/MOL
REMARK 923 INTER-LIGAND FREE ENERGY PREDICTED BY IDOCK:   -4.35 KCAL/MOL
REMARK 924 INTRA-LIGAND FREE ENERGY PREDICTED BY IDOCK:   -0.17 KCAL/MOL
REMARK 927      BINDING AFFINITY PREDICTED BY RF-SCORE:    0.00 PKD
ROOT
HETATM    1  C   UNL     1     -10.069  10.629  68.740  1.00  0.00    -0.203 C  
HETATM    2  C   UNL     1     -10.372  11.442  67.524  1.00  0.00    -0.224 C  
HETATM    3  C   UNL     1     -10.666  12.747  67.544  1.00  0.00    -0.229 C  
HETATM    4  N   UNL     1     -10.964  13.480  66.407  1.00  0.00    -0.292 N  
HETATM    5  O   UNL     1     -10.041   9.578  66.100  1.00  0.00    -0.284 OA 
HETATM    6  C   UNL     1     -10.889  12.893  65.148  1.00  0.00    -0.296 C  
HETATM    7  O   UNL     1     -11.061  13.491  64.087  1.00  0.00    -0.367 OA 
HETATM    8  H   UNL     1     -10.564  11.102  64.217  1.00  0.00     0.000 HD 
HETATM    9  N   UNL     1     -10.589  11.555  65.131  1.00  0.00    -0.285 N  
HETATM   10  C   UNL     1     -10.322  10.768  66.212  1.00  0.00    -0.244 C  
ENDROOT
BRANCH   4  11
HETATM   11  C   UNL     1     -11.159  14.928  66.462  1.00  0.00    -0.341 C  
HETATM   12  O   UNL     1     -10.078  15.629  65.802  1.00  0.00    -0.312 OA 
HETATM   13  C   UNL     1     -10.088  16.270  68.032  1.00  0.00    -0.245 C  
HETATM   14  C   UNL     1      -9.243  16.244  66.812  1.00  0.00    -0.230 C  
HETATM   15  C   UNL     1     -11.145  15.480  67.847  1.00  0.00    -0.321 C  
BRANCH  14  16
HETATM   16  C   UNL     1      -7.959  15.422  67.037  1.00  0.00    -0.224 C  
HETATM   17  O   UNL     1      -6.786  16.116  66.613  1.00  0.00    -0.249 OA 
HETATM   18  H   UNL     1      -5.993  15.610  66.751  1.00  0.00     0.000 HD 
ENDBRANCH  14  16
ENDBRANCH   4  11
TORSDOF 2
ENDMDL
MODEL       90
REMARK 921   NORMALIZED FREE ENERGY PREDICTED BY IDOCK:   -3.71 KCAL/MOL
REMARK 922        TOTAL FREE ENERGY PREDICTED BY IDOCK:   -4.48 KCAL/MOL
REMARK 923 INTER-LIGAND FREE ENERGY PREDICTED BY IDOCK:   -4.57 KCAL/MOL
REMARK 924 INTRA-LIGAND FREE ENERGY PREDICTED BY IDOCK:    0.09 KCAL/MOL
REMARK 927      BINDING AFFINITY PREDICTED BY RF-SCORE:    0.00 PKD
ROOT
HETATM    1  C   UNL     1     -11.274  10.495  68.260  1.00  0.00    -0.354 C  
HETATM    2  C   UNL     1     -11.344  11.979  68.097  1.00  0.00    -0.349 C  
HETATM    3  C   UNL     1     -11.484  12.842  69.109  1.00  0.00    -0.306 C  
HETATM    4  N   UNL     1     -11.567  14.215  68.935  1.00  0.00    -0.288 N  
HETATM    5  O   UNL     1     -11.080  11.811  65.749  1.00  0.00    -0.311 OA 
HETATM    6  C   UNL     1     -11.424  14.776  67.671  1.00  0.00    -0.347 C  
HETATM    7  O   UNL     1     -11.407  15.985  67.442  1.00  0.00    -0.165 OA 
HETATM    8  H   UNL     1     -11.211  14.284  65.698  1.00  0.00     0.000 HD 
HETATM    9  N   UNL     1     -11.283  13.888  66.635  1.00  0.00    -0.313 N  
HETATM   10  C   UNL     1     -11.229  12.529  66.733  1.00  0.00    -0.296 C  
ENDROOT
BRANCH   4  11
HETATM   11  C   UNL     1     -11.596  15.127  70.077  1.00  0.00    -0.294 C  
HETATM   12  O   UNL     1     -11.272  14.439  71.308  1.00  0.00     0.096 OA 
HETATM   13  C   UNL     1     -13.426  15.279  71.505  1.00  0.00    -0.577 C  
HETATM   14  C   UNL     1     -12.484  14.288  72.084  1.00  0.00    -0.219 C  
HETATM   15  C   UNL     1     -12.943  15.711  70.341  1.00  0.00    -0.151 C  
BRANCH  14  16
HETATM   16  C   UNL     1     -13.037  12.855  71.967  1.00  0.00    -0.379 C  
HETATM   17  O   UNL     1     -14.381  12.747  72.437  1.00  0.00    -0.322 OA 
HETATM   18  H   UNL     1     -14.722  11.863  72.365  1.00  0.00     0.000 HD 
ENDBRANCH  14  16
ENDBRANCH   4  11
TORSDOF 2
ENDMDL
MODEL       91
REMARK 921   NORMALIZED FREE ENERGY PREDICTED BY IDOCK:   -3.70 KCAL/MOL
REMARK 922        TOTAL FREE ENERGY PREDICTED BY IDOCK:   -4.48 KCAL/MOL
REMARK 923 INTER-LIGAND FREE ENERGY PREDICTED BY IDOCK:   -4.50 KCAL/MOL
REMARK 924 INTRA-LIGAND FREE ENERGY PREDICTED BY IDOCK:    0.02 KCAL/MOL
REMARK 927      BINDING AFFINITY PREDICTED BY RF-SCORE:    0.00 PKD
ROOT
HETATM    1  C   UNL     1     -12.454  12.271  63.544  1.00  0.00    -0.642 C  
HETATM    2  C   UNL     1     -11.779  12.584  64.839  1.00  0.00    -0.409 C  
HETATM    3  C   UNL     1     -11.130  11.685  65.587  1.00  0.00    -0.249 C  
HETATM    4  N   UNL     1     -10.526  11.991  66.796  1.00  0.00    -0.210 N  
HETATM    5  O   UNL     1     -12.367  14.873  64.682  1.00  0.00    -0.399 OA 
HETATM    6  C   UNL     1     -10.499  13.302  67.260  1.00  0.00    -0.247 C  
HETATM    7  O   UNL     1      -9.919  13.669  68.281  1.00  0.00    -0.227 OA 
HETATM    8  H   UNL     1     -11.184  15.180  66.838  1.00  0.00     0.000 HD 
HETATM    9  N   UNL     1     -11.167  14.221  66.492  1.00  0.00    -0.323 N  
HETATM   10  C   UNL     1     -11.810  13.981  65.314  1.00  0.00    -0.359 C  
ENDROOT
BRANCH   4  11
HETATM   11  C   UNL     1      -9.723  11.006  67.519  1.00  0.00    -0.172 C  
HETATM   12  O   UNL     1      -8.509  10.687  66.798  1.00  0.00    -0.129 OA 
HETATM   13  C   UNL     1      -9.758   8.740  66.989  1.00  0.00    -0.258 C  
HETATM   14  C   UNL     1      -8.646   9.364  66.229  1.00  0.00    -0.131 C  
HETATM   15  C   UNL     1     -10.398   9.685  67.677  1.00  0.00    -0.290 C  
BRANCH  14  16
HETATM   16  C   UNL     1      -8.971   9.444  64.724  1.00  0.00    -0.194 C  
HETATM   17  O   UNL     1      -8.279  10.509  64.072  1.00  0.00    -0.262 OA 
HETATM   18  H   UNL     1      -8.479  10.559  63.145  1.00  0.00     0.000 HD 
ENDBRANCH  14  16
ENDBRANCH   4  11
TORSDOF 2
ENDMDL
MODEL       92
REMARK 921   NORMALIZED FREE ENERGY PREDICTED BY IDOCK:   -3.70 KCAL/MOL
REMARK 922        TOTAL FREE ENERGY PREDICTED BY IDOCK:   -4.48 KCAL/MOL
REMARK 923 INTER-LIGAND FREE ENERGY PREDICTED BY IDOCK:   -4.60 KCAL/MOL
REMARK 924 INTRA-LIGAND FREE ENERGY PREDICTED BY IDOCK:    0.12 KCAL/MOL
REMARK 927      BINDING AFFINITY PREDICTED BY RF-SCORE:    0.00 PKD
ROOT
HETATM    1  C   UNL     1     -12.598  15.414  70.662  1.00  0.00    -0.491 C  
HETATM    2  C   UNL     1     -11.482  15.029  69.746  1.00  0.00    -0.324 C  
HETATM    3  C   UNL     1     -10.510  15.860  69.352  1.00  0.00    -0.265 C  
HETATM    4  N   UNL     1      -9.494  15.489  68.485  1.00  0.00    -0.195 N  
HETATM    5  O   UNL     1     -12.276  12.803  69.587  1.00  0.00    -0.234 OA 
HETATM    6  C   UNL     1      -9.392  14.177  68.037  1.00  0.00    -0.203 C  
HETATM    7  O   UNL     1      -8.479  13.749  67.331  1.00  0.00    -0.181 OA 
HETATM    8  H   UNL     1     -10.348  12.371  68.092  1.00  0.00     0.000 HD 
HETATM    9  N   UNL     1     -10.391  13.328  68.440  1.00  0.00    -0.248 N  
HETATM   10  C   UNL     1     -11.436  13.636  69.261  1.00  0.00    -0.291 C  
ENDROOT
BRANCH   4  11
HETATM   11  C   UNL     1      -8.386  16.392  68.179  1.00  0.00    -0.186 C  
HETATM   12  O   UNL     1      -8.617  17.712  68.725  1.00  0.00    -0.272 OA 
HETATM   13  C   UNL     1      -8.464  17.911  66.419  1.00  0.00    -0.263 C  
HETATM   14  C   UNL     1      -8.942  18.610  67.638  1.00  0.00    -0.275 C  
HETATM   15  C   UNL     1      -8.202  16.640  66.720  1.00  0.00    -0.274 C  
BRANCH  14  16
HETATM   16  C   UNL     1     -10.459  18.872  67.576  1.00  0.00    -0.450 C  
HETATM   17  O   UNL     1     -10.815  19.780  66.533  1.00  0.00    -0.451 OA 
HETATM   18  H   UNL     1     -11.750  19.941  66.494  1.00  0.00     0.000 HD 
ENDBRANCH  14  16
ENDBRANCH   4  11
TORSDOF 2
ENDMDL
MODEL       93
REMARK 921   NORMALIZED FREE ENERGY PREDICTED BY IDOCK:   -3.70 KCAL/MOL
REMARK 922        TOTAL FREE ENERGY PREDICTED BY IDOCK:   -4.48 KCAL/MOL
REMARK 923 INTER-LIGAND FREE ENERGY PREDICTED BY IDOCK:   -4.30 KCAL/MOL
REMARK 924 INTRA-LIGAND FREE ENERGY PREDICTED BY IDOCK:   -0.17 KCAL/MOL
REMARK 927      BINDING AFFINITY PREDICTED BY RF-SCORE:    0.00 PKD
ROOT
HETATM    1  C   UNL     1     -10.876   6.917  67.106  1.00  0.00    -0.447 C  
HETATM    2  C   UNL     1     -10.389   8.320  67.268  1.00  0.00    -0.372 C  
HETATM    3  C   UNL     1      -9.914   9.072  66.269  1.00  0.00    -0.281 C  
HETATM    4  N   UNL     1      -9.448  10.366  66.444  1.00  0.00    -0.164 N  
HETATM    5  O   UNL     1     -10.895   8.311  69.582  1.00  0.00    -0.226 OA 
HETATM    6  C   UNL     1      -9.530  10.985  67.686  1.00  0.00    -0.164 C  
HETATM    7  O   UNL     1      -9.212  12.152  67.907  1.00  0.00    -0.175 OA 
HETATM    8  H   UNL     1     -10.050  10.639  69.633  1.00  0.00     0.000 HD 
HETATM    9  N   UNL     1     -10.015  10.210  68.708  1.00  0.00    -0.171 N  
HETATM   10  C   UNL     1     -10.456   8.923  68.613  1.00  0.00    -0.193 C  
ENDROOT
BRANCH   4  11
HETATM   11  C   UNL     1      -9.053  11.194  65.305  1.00  0.00    -0.167 C  
HETATM   12  O   UNL     1      -9.986  12.280  65.097  1.00  0.00    -0.261 OA 
HETATM   13  C   UNL     1     -10.006  10.949  63.197  1.00  0.00    -0.368 C  
HETATM   14  C   UNL     1     -10.779  11.988  63.922  1.00  0.00    -0.397 C  
HETATM   15  C   UNL     1      -9.063  10.464  64.004  1.00  0.00    -0.271 C  
BRANCH  14  16
HETATM   16  C   UNL     1     -12.177  11.473  64.316  1.00  0.00     0.175 C  
HETATM   17  O   UNL     1     -12.994  12.495  64.889  1.00  0.00    -0.821 OA 
HETATM   18  H   UNL     1     -13.856  12.178  65.132  1.00  0.00     0.000 HD 
ENDBRANCH  14  16
ENDBRANCH   4  11
TORSDOF 2
ENDMDL
MODEL       94
REMARK 921   NORMALIZED FREE ENERGY PREDICTED BY IDOCK:   -3.67 KCAL/MOL
REMARK 922        TOTAL FREE ENERGY PREDICTED BY IDOCK:   -4.44 KCAL/MOL
REMARK 923 INTER-LIGAND FREE ENERGY PREDICTED BY IDOCK:   -4.65 KCAL/MOL
REMARK 924 INTRA-LIGAND FREE ENERGY PREDICTED BY IDOCK:    0.20 KCAL/MOL
REMARK 927      BINDING AFFINITY PREDICTED BY RF-SCORE:    0.00 PKD
ROOT
HETATM    1  C   UNL     1     -10.081  10.508  65.917  1.00  0.00    -0.323 C  
HETATM    2  C   UNL     1     -10.637  10.881  67.253  1.00  0.00    -0.296 C  
HETATM    3  C   UNL     1     -11.122  12.090  67.556  1.00  0.00    -0.275 C  
HETATM    4  N   UNL     1     -11.615  12.423  68.807  1.00  0.00    -0.303 N  
HETATM    5  O   UNL     1     -10.266   8.701  68.103  1.00  0.00    -0.190 OA 
HETATM    6  C   UNL     1     -11.704  11.462  69.810  1.00  0.00    -0.344 C  
HETATM    7  O   UNL     1     -12.199  11.655  70.919  1.00  0.00    -0.364 OA 
HETATM    8  H   UNL     1     -11.231   9.520  70.233  1.00  0.00     0.000 HD 
HETATM    9  N   UNL     1     -11.203  10.225  69.497  1.00  0.00    -0.253 N  
HETATM   10  C   UNL     1     -10.673   9.842  68.300  1.00  0.00    -0.233 C  
ENDROOT
BRANCH   4  11
HETATM   11  C   UNL     1     -12.248  13.716  69.058  1.00  0.00    -0.208 C  
HETATM   12  O   UNL     1     -11.903  14.678  68.033  1.00  0.00    -0.338 OA 
HETATM   13  C   UNL     1     -11.116  15.485  70.061  1.00  0.00    -0.326 C  
HETATM   14  C   UNL     1     -10.969  15.632  68.591  1.00  0.00    -0.294 C  
HETATM   15  C   UNL     1     -11.796  14.368  70.321  1.00  0.00    -0.382 C  
BRANCH  14  16
HETATM   16  C   UNL     1      -9.529  15.321  68.137  1.00  0.00    -0.203 C  
HETATM   17  O   UNL     1      -8.682  14.951  69.225  1.00  0.00    -0.315 OA 
HETATM   18  H   UNL     1      -7.794  14.759  68.945  1.00  0.00     0.000 HD 
ENDBRANCH  14  16
ENDBRANCH   4  11
TORSDOF 2
ENDMDL
MODEL       95
REMARK 921   NORMALIZED FREE ENERGY PREDICTED BY IDOCK:   -3.67 KCAL/MOL
REMARK 922        TOTAL FREE ENERGY PREDICTED BY IDOCK:   -4.44 KCAL/MOL
REMARK 923 INTER-LIGAND FREE ENERGY PREDICTED BY IDOCK:   -5.88 KCAL/MOL
REMARK 924 INTRA-LIGAND FREE ENERGY PREDICTED BY IDOCK:    1.44 KCAL/MOL
REMARK 927      BINDING AFFINITY PREDICTED BY RF-SCORE:    0.00 PKD
ROOT
HETATM    1  C   UNL     1     -10.951   9.965  68.907  1.00  0.00    -0.214 C  
HETATM    2  C   UNL     1     -11.705  10.816  69.876  1.00  0.00    -0.412 C  
HETATM    3  C   UNL     1     -11.839  12.142  69.769  1.00  0.00    -0.327 C  
HETATM    4  N   UNL     1     -12.526  12.917  70.690  1.00  0.00    -0.297 N  
HETATM    5  O   UNL     1     -12.308   8.932  71.180  1.00  0.00    -0.294 OA 
HETATM    6  C   UNL     1     -13.195  12.322  71.754  1.00  0.00    -0.326 C  
HETATM    7  O   UNL     1     -13.890  12.928  72.568  1.00  0.00    -0.579 OA 
HETATM    8  H   UNL     1     -13.510  10.516  72.658  1.00  0.00     0.000 HD 
HETATM    9  N   UNL     1     -13.054  10.962  71.863  1.00  0.00    -0.487 N  
HETATM   10  C   UNL     1     -12.364  10.147  71.015  1.00  0.00    -0.373 C  
ENDROOT
BRANCH   4  11
HETATM   11  C   UNL     1     -12.752  14.344  70.468  1.00  0.00    -0.340 C  
HETATM   12  O   UNL     1     -11.710  15.142  71.077  1.00  0.00    -0.290 OA 
HETATM   13  C   UNL     1     -13.724  15.717  72.075  1.00  0.00    -0.408 C  
HETATM   14  C   UNL     1     -12.252  15.788  72.252  1.00  0.00    -0.462 C  
HETATM   15  C   UNL     1     -14.003  14.856  71.097  1.00  0.00    -0.403 C  
BRANCH  14  16
HETATM   16  C   UNL     1     -11.806  15.059  73.535  1.00  0.00    -0.228 C  
HETATM   17  O   UNL     1     -12.846  14.982  74.509  1.00  0.00    -0.441 OA 
HETATM   18  H   UNL     1     -12.571  14.533  75.300  1.00  0.00     0.000 HD 
ENDBRANCH  14  16
ENDBRANCH   4  11
TORSDOF 2
ENDMDL
MODEL       96
REMARK 921   NORMALIZED FREE ENERGY PREDICTED BY IDOCK:   -3.67 KCAL/MOL
REMARK 922        TOTAL FREE ENERGY PREDICTED BY IDOCK:   -4.44 KCAL/MOL
REMARK 923 INTER-LIGAND FREE ENERGY PREDICTED BY IDOCK:   -4.53 KCAL/MOL
REMARK 924 INTRA-LIGAND FREE ENERGY PREDICTED BY IDOCK:    0.09 KCAL/MOL
REMARK 927      BINDING AFFINITY PREDICTED BY RF-SCORE:    0.00 PKD
ROOT
HETATM    1  C   UNL     1     -12.333  14.176  65.907  1.00  0.00    -0.486 C  
HETATM    2  C   UNL     1     -11.007  14.828  66.130  1.00  0.00    -0.332 C  
HETATM    3  C   UNL     1     -10.742  16.110  65.856  1.00  0.00    -0.255 C  
HETATM    4  N   UNL     1      -9.499  16.691  66.051  1.00  0.00    -0.277 N  
HETATM    5  O   UNL     1     -10.086  12.830  67.009  1.00  0.00    -0.234 OA 
HETATM    6  C   UNL     1      -8.465  15.966  66.633  1.00  0.00    -0.287 C  
HETATM    7  O   UNL     1      -7.359  16.428  66.911  1.00  0.00    -0.193 OA 
HETATM    8  H   UNL     1      -7.978  14.098  67.305  1.00  0.00     0.000 HD 
HETATM    9  N   UNL     1      -8.739  14.651  66.910  1.00  0.00    -0.233 N  
HETATM   10  C   UNL     1      -9.925  14.009  66.710  1.00  0.00    -0.268 C  
ENDROOT
BRANCH   4  11
HETATM   11  C   UNL     1      -9.288  18.124  65.855  1.00  0.00     0.161 C  
HETATM   12  O   UNL     1      -8.608  18.715  66.987  1.00  0.00    -0.263 OA 
HETATM   13  C   UNL     1     -10.686  19.730  66.795  1.00  0.00    -0.526 C  
HETATM   14  C   UNL     1      -9.561  19.505  67.737  1.00  0.00    -0.346 C  
HETATM   15  C   UNL     1     -10.554  18.906  65.755  1.00  0.00    -0.358 C  
BRANCH  14  16
HETATM   16  C   UNL     1     -10.028  18.751  68.997  1.00  0.00    -0.296 C  
HETATM   17  O   UNL     1     -10.165  19.611  70.129  1.00  0.00    -0.338 OA 
HETATM   18  H   UNL     1     -10.453  19.146  70.906  1.00  0.00     0.000 HD 
ENDBRANCH  14  16
ENDBRANCH   4  11
TORSDOF 2
ENDMDL
MODEL       97
REMARK 921   NORMALIZED FREE ENERGY PREDICTED BY IDOCK:   -3.66 KCAL/MOL
REMARK 922        TOTAL FREE ENERGY PREDICTED BY IDOCK:   -4.43 KCAL/MOL
REMARK 923 INTER-LIGAND FREE ENERGY PREDICTED BY IDOCK:   -4.50 KCAL/MOL
REMARK 924 INTRA-LIGAND FREE ENERGY PREDICTED BY IDOCK:    0.07 KCAL/MOL
REMARK 927      BINDING AFFINITY PREDICTED BY RF-SCORE:    0.00 PKD
ROOT
HETATM    1  C   UNL     1     -12.122   9.301  71.925  1.00  0.00    -0.440 C  
HETATM    2  C   UNL     1     -11.626   8.445  70.806  1.00  0.00    -0.252 C  
HETATM    3  C   UNL     1     -10.859   8.886  69.803  1.00  0.00    -0.200 C  
HETATM    4  N   UNL     1     -10.426   8.080  68.762  1.00  0.00    -0.200 N  
HETATM    5  O   UNL     1     -12.673   6.522  71.710  1.00  0.00    -0.320 OA 
HETATM    6  C   UNL     1     -10.712   6.719  68.756  1.00  0.00    -0.239 C  
HETATM    7  O   UNL     1     -10.301   5.923  67.914  1.00  0.00    -0.170 OA 
HETATM    8  H   UNL     1     -11.747   5.281  69.775  1.00  0.00     0.000 HD 
HETATM    9  N   UNL     1     -11.500   6.270  69.785  1.00  0.00    -0.440 N  
HETATM   10  C   UNL     1     -11.989   7.015  70.818  1.00  0.00    -0.345 C  
ENDROOT
BRANCH   4  11
HETATM   11  C   UNL     1      -9.489   8.574  67.754  1.00  0.00    -0.145 C  
HETATM   12  O   UNL     1      -9.080   9.933  68.038  1.00  0.00    -0.122 OA 
HETATM   13  C   UNL     1     -10.160   9.928  65.985  1.00  0.00    -0.314 C  
HETATM   14  C   UNL     1      -9.727  10.816  67.092  1.00  0.00    -0.170 C  
HETATM   15  C   UNL     1     -10.074   8.659  66.385  1.00  0.00    -0.294 C  
BRANCH  14  16
HETATM   16  C   UNL     1     -10.929  11.531  67.740  1.00  0.00    -0.236 C  
HETATM   17  O   UNL     1     -11.924  11.902  66.786  1.00  0.00    -0.613 OA 
HETATM   18  H   UNL     1     -12.664  12.343  67.185  1.00  0.00     0.000 HD 
ENDBRANCH  14  16
ENDBRANCH   4  11
TORSDOF 2
ENDMDL
MODEL       98
REMARK 921   NORMALIZED FREE ENERGY PREDICTED BY IDOCK:   -3.65 KCAL/MOL
REMARK 922        TOTAL FREE ENERGY PREDICTED BY IDOCK:   -4.42 KCAL/MOL
REMARK 923 INTER-LIGAND FREE ENERGY PREDICTED BY IDOCK:   -4.48 KCAL/MOL
REMARK 924 INTRA-LIGAND FREE ENERGY PREDICTED BY IDOCK:    0.06 KCAL/MOL
REMARK 927      BINDING AFFINITY PREDICTED BY RF-SCORE:    0.00 PKD
ROOT
HETATM    1  C   UNL     1     -11.058  12.050  68.834  1.00  0.00    -0.298 C  
HETATM    2  C   UNL     1     -11.613  11.162  69.900  1.00  0.00    -0.416 C  
HETATM    3  C   UNL     1     -11.356   9.853  70.000  1.00  0.00    -0.249 C  
HETATM    4  N   UNL     1     -11.897   9.042  70.985  1.00  0.00    -0.287 N  
HETATM    5  O   UNL     1     -12.757  12.969  70.918  1.00  0.00    -0.299 OA 
HETATM    6  C   UNL     1     -12.690   9.585  71.990  1.00  0.00    -0.396 C  
HETATM    7  O   UNL     1     -13.143   8.950  72.941  1.00  0.00    -0.339 OA 
HETATM    8  H   UNL     1     -13.562  11.332  72.594  1.00  0.00     0.000 HD 
HETATM    9  N   UNL     1     -12.954  10.927  71.883  1.00  0.00    -0.451 N  
HETATM   10  C   UNL     1     -12.484  11.773  70.923  1.00  0.00    -0.318 C  
ENDROOT
BRANCH   4  11
HETATM   11  C   UNL     1     -11.491   7.645  71.129  1.00  0.00    -0.275 C  
HETATM   12  O   UNL     1     -10.082   7.536  71.440  1.00  0.00    -0.186 OA 
HETATM   13  C   UNL     1     -10.450   6.466  69.415  1.00  0.00    -0.277 C  
HETATM   14  C   UNL     1      -9.387   7.056  70.266  1.00  0.00    -0.159 C  
HETATM   15  C   UNL     1     -11.640   6.847  69.878  1.00  0.00    -0.255 C  
BRANCH  14  16
HETATM   16  C   UNL     1      -8.667   8.211  69.543  1.00  0.00    -0.142 C  
HETATM   17  O   UNL     1      -8.838   8.161  68.127  1.00  0.00    -0.132 OA 
HETATM   18  H   UNL     1      -8.395   8.873  67.681  1.00  0.00     0.000 HD 
ENDBRANCH  14  16
ENDBRANCH   4  11
TORSDOF 2
ENDMDL
MODEL       99
REMARK 921   NORMALIZED FREE ENERGY PREDICTED BY IDOCK:   -3.64 KCAL/MOL
REMARK 922        TOTAL FREE ENERGY PREDICTED BY IDOCK:   -4.41 KCAL/MOL
REMARK 923 INTER-LIGAND FREE ENERGY PREDICTED BY IDOCK:   -4.26 KCAL/MOL
REMARK 924 INTRA-LIGAND FREE ENERGY PREDICTED BY IDOCK:   -0.15 KCAL/MOL
REMARK 927      BINDING AFFINITY PREDICTED BY RF-SCORE:    0.00 PKD
ROOT
HETATM    1  C   UNL     1     -10.310   8.635  67.076  1.00  0.00    -0.368 C  
HETATM    2  C   UNL     1      -9.650   9.976  67.074  1.00  0.00    -0.212 C  
HETATM    3  C   UNL     1     -10.148  11.059  66.468  1.00  0.00    -0.226 C  
HETATM    4  N   UNL     1      -9.511  12.290  66.460  1.00  0.00    -0.232 N  
HETATM    5  O   UNL     1      -7.860   9.184  68.407  1.00  0.00    -0.099 OA 
HETATM    6  C   UNL     1      -8.331  12.479  67.172  1.00  0.00    -0.179 C  
HETATM    7  O   UNL     1      -7.746  13.556  67.281  1.00  0.00    -0.154 OA 
HETATM    8  H   UNL     1      -6.940  11.481  68.288  1.00  0.00     0.000 HD 
HETATM    9  N   UNL     1      -7.822  11.366  67.791  1.00  0.00    -0.112 N  
HETATM   10  C   UNL     1      -8.378  10.121  67.807  1.00  0.00    -0.114 C  
ENDROOT
BRANCH   4  11
HETATM   11  C   UNL     1     -10.150  13.476  65.891  1.00  0.00    -0.303 C  
HETATM   12  O   UNL     1     -10.307  14.516  66.885  1.00  0.00    -0.261 OA 
HETATM   13  C   UNL     1     -12.421  13.911  66.146  1.00  0.00    -0.478 C  
HETATM   14  C   UNL     1     -11.705  14.598  67.249  1.00  0.00    -0.385 C  
HETATM   15  C   UNL     1     -11.541  13.232  65.411  1.00  0.00    -0.346 C  
BRANCH  14  16
HETATM   16  C   UNL     1     -11.962  13.906  68.602  1.00  0.00    -0.366 C  
HETATM   17  O   UNL     1     -10.752  13.582  69.288  1.00  0.00    -0.421 OA 
HETATM   18  H   UNL     1     -10.910  13.155  70.122  1.00  0.00     0.000 HD 
ENDBRANCH  14  16
ENDBRANCH   4  11
TORSDOF 2
ENDMDL
MODEL      100
REMARK 921   NORMALIZED FREE ENERGY PREDICTED BY IDOCK:   -3.62 KCAL/MOL
REMARK 922        TOTAL FREE ENERGY PREDICTED BY IDOCK:   -4.39 KCAL/MOL
REMARK 923 INTER-LIGAND FREE ENERGY PREDICTED BY IDOCK:   -4.52 KCAL/MOL
REMARK 924 INTRA-LIGAND FREE ENERGY PREDICTED BY IDOCK:    0.14 KCAL/MOL
REMARK 927      BINDING AFFINITY PREDICTED BY RF-SCORE:    0.00 PKD
ROOT
HETATM    1  C   UNL     1     -10.180   7.412  67.929  1.00  0.00    -0.242 C  
HETATM    2  C   UNL     1     -10.742   8.585  68.664  1.00  0.00    -0.082 C  
HETATM    3  C   UNL     1     -10.978   9.779  68.109  1.00  0.00    -0.175 C  
HETATM    4  N   UNL     1     -11.481  10.862  68.813  1.00  0.00    -0.286 N  
HETATM    5  O   UNL     1     -10.911   7.343  70.674  1.00  0.00    -0.233 OA 
HETATM    6  C   UNL     1     -11.848  10.727  70.147  1.00  0.00    -0.343 C  
HETATM    7  O   UNL     1     -12.373  11.614  70.819  1.00  0.00    -0.376 OA 
HETATM    8  H   UNL     1     -11.835   9.400  71.702  1.00  0.00     0.000 HD 
HETATM    9  N   UNL     1     -11.602   9.503  70.714  1.00  0.00    -0.291 N  
HETATM   10  C   UNL     1     -11.078   8.410  70.090  1.00  0.00    -0.182 C  
ENDROOT
BRANCH   4  11
HETATM   11  C   UNL     1     -11.840  12.109  68.139  1.00  0.00    -0.299 C  
HETATM   12  O   UNL     1     -11.950  11.920  66.708  1.00  0.00    -0.613 OA 
HETATM   13  C   UNL     1     -10.259  13.461  67.096  1.00  0.00    -0.247 C  
HETATM   14  C   UNL     1     -10.804  12.534  66.073  1.00  0.00    -0.276 C  
HETATM   15  C   UNL     1     -10.811  13.179  68.276  1.00  0.00    -0.274 C  
BRANCH  14  16
HETATM   16  C   UNL     1      -9.765  11.471  65.669  1.00  0.00    -0.232 C  
HETATM   17  O   UNL     1      -9.426  11.536  64.283  1.00  0.00    -0.374 OA 
HETATM   18  H   UNL     1      -8.786  10.881  64.034  1.00  0.00     0.000 HD 
ENDBRANCH  14  16
ENDBRANCH   4  11
TORSDOF 2
ENDMDL
MODEL      101
REMARK 921   NORMALIZED FREE ENERGY PREDICTED BY IDOCK:   -3.62 KCAL/MOL
REMARK 922        TOTAL FREE ENERGY PREDICTED BY IDOCK:   -4.38 KCAL/MOL
REMARK 923 INTER-LIGAND FREE ENERGY PREDICTED BY IDOCK:   -4.19 KCAL/MOL
REMARK 924 INTRA-LIGAND FREE ENERGY PREDICTED BY IDOCK:   -0.19 KCAL/MOL
REMARK 927      BINDING AFFINITY PREDICTED BY RF-SCORE:    0.00 PKD
ROOT
HETATM    1  C   UNL     1     -10.921  15.787  64.762  1.00  0.00    -0.410 C  
HETATM    2  C   UNL     1     -10.964  14.462  65.452  1.00  0.00    -0.343 C  
HETATM    3  C   UNL     1      -9.894  13.841  65.959  1.00  0.00    -0.282 C  
HETATM    4  N   UNL     1      -9.951  12.602  66.577  1.00  0.00    -0.245 N  
HETATM    5  O   UNL     1     -13.313  14.312  65.183  1.00  0.00    -0.626 OA 
HETATM    6  C   UNL     1     -11.173  11.968  66.775  1.00  0.00    -0.322 C  
HETATM    7  O   UNL     1     -11.319  10.908  67.381  1.00  0.00    -0.412 OA 
HETATM    8  H   UNL     1     -13.167  12.135  66.359  1.00  0.00     0.000 HD 
HETATM    9  N   UNL     1     -12.268  12.606  66.251  1.00  0.00    -0.285 N  
HETATM   10  C   UNL     1     -12.277  13.805  65.602  1.00  0.00    -0.454 C  
ENDROOT
BRANCH   4  11
HETATM   11  C   UNL     1      -8.778  12.019  67.225  1.00  0.00    -0.175 C  
HETATM   12  O   UNL     1      -8.666  12.455  68.601  1.00  0.00    -0.096 OA 
HETATM   13  C   UNL     1      -6.779  13.184  67.466  1.00  0.00    -0.159 C  
HETATM   14  C   UNL     1      -7.579  13.404  68.696  1.00  0.00    -0.101 C  
HETATM   15  C   UNL     1      -7.485  12.442  66.614  1.00  0.00     0.324 C  
BRANCH  14  16
HETATM   16  C   UNL     1      -8.115  14.848  68.765  1.00  0.00    -0.162 C  
HETATM   17  O   UNL     1      -8.896  15.085  69.936  1.00  0.00    -0.448 OA 
HETATM   18  H   UNL     1      -9.226  15.975  69.979  1.00  0.00     0.000 HD 
ENDBRANCH  14  16
ENDBRANCH   4  11
TORSDOF 2
ENDMDL
MODEL      102
REMARK 921   NORMALIZED FREE ENERGY PREDICTED BY IDOCK:   -3.62 KCAL/MOL
REMARK 922        TOTAL FREE ENERGY PREDICTED BY IDOCK:   -4.38 KCAL/MOL
REMARK 923 INTER-LIGAND FREE ENERGY PREDICTED BY IDOCK:   -4.43 KCAL/MOL
REMARK 924 INTRA-LIGAND FREE ENERGY PREDICTED BY IDOCK:    0.05 KCAL/MOL
REMARK 927      BINDING AFFINITY PREDICTED BY RF-SCORE:    0.00 PKD
ROOT
HETATM    1  C   UNL     1      -8.498  14.286  68.290  1.00  0.00    -0.167 C  
HETATM    2  C   UNL     1      -7.741  15.572  68.369  1.00  0.00    -0.124 C  
HETATM    3  C   UNL     1      -8.312  16.780  68.425  1.00  0.00    -0.222 C  
HETATM    4  N   UNL     1      -7.592  17.963  68.477  1.00  0.00    -0.280 N  
HETATM    5  O   UNL     1      -5.661  14.437  68.383  1.00  0.00    -0.091 OA 
HETATM    6  C   UNL     1      -6.204  17.942  68.558  1.00  0.00    -0.189 C  
HETATM    7  O   UNL     1      -5.497  18.940  68.686  1.00  0.00    -0.193 OA 
HETATM    8  H   UNL     1      -4.602  16.672  68.522  1.00  0.00     0.000 HD 
HETATM    9  N   UNL     1      -5.621  16.702  68.498  1.00  0.00    -0.119 N  
HETATM   10  C   UNL     1      -6.267  15.504  68.410  1.00  0.00    -0.104 C  
ENDROOT
BRANCH   4  11
HETATM   11  C   UNL     1      -8.256  19.252  68.661  1.00  0.00    -0.373 C  
HETATM   12  O   UNL     1      -9.668  19.082  68.933  1.00  0.00    -0.388 OA 
HETATM   13  C   UNL     1      -9.462  20.287  66.961  1.00  0.00    -0.546 C  
HETATM   14  C   UNL     1     -10.414  19.473  67.757  1.00  0.00    -0.449 C  
HETATM   15  C   UNL     1      -8.232  20.116  67.446  1.00  0.00    -0.385 C  
BRANCH  14  16
HETATM   16  C   UNL     1     -10.887  18.235  66.970  1.00  0.00    -0.164 C  
HETATM   17  O   UNL     1     -10.584  18.324  65.578  1.00  0.00    -0.632 OA 
HETATM   18  H   UNL     1     -10.876  17.561  65.092  1.00  0.00     0.000 HD 
ENDBRANCH  14  16
ENDBRANCH   4  11
TORSDOF 2
ENDMDL
MODEL      103
REMARK 921   NORMALIZED FREE ENERGY PREDICTED BY IDOCK:   -3.61 KCAL/MOL
REMARK 922        TOTAL FREE ENERGY PREDICTED BY IDOCK:   -4.38 KCAL/MOL
REMARK 923 INTER-LIGAND FREE ENERGY PREDICTED BY IDOCK:   -4.46 KCAL/MOL
REMARK 924 INTRA-LIGAND FREE ENERGY PREDICTED BY IDOCK:    0.08 KCAL/MOL
REMARK 927      BINDING AFFINITY PREDICTED BY RF-SCORE:    0.00 PKD
ROOT
HETATM    1  C   UNL     1     -11.033   6.636  66.885  1.00  0.00    -0.396 C  
HETATM    2  C   UNL     1     -10.700   5.946  68.168  1.00  0.00    -0.329 C  
HETATM    3  C   UNL     1     -11.165   6.317  69.366  1.00  0.00    -0.420 C  
HETATM    4  N   UNL     1     -10.828   5.676  70.548  1.00  0.00    -0.274 N  
HETATM    5  O   UNL     1      -9.362   4.343  67.049  1.00  0.00    -0.132 OA 
HETATM    6  C   UNL     1     -10.033   4.535  70.530  1.00  0.00    -0.208 C  
HETATM    7  O   UNL     1      -9.753   3.865  71.522  1.00  0.00    -0.159 OA 
HETATM    8  H   UNL     1      -8.943   3.344  69.277  1.00  0.00     0.000 HD 
HETATM    9  N   UNL     1      -9.556   4.159  69.301  1.00  0.00    -0.189 N  
HETATM   10  C   UNL     1      -9.818   4.764  68.108  1.00  0.00    -0.120 C  
ENDROOT
BRANCH   4  11
HETATM   11  C   UNL     1     -11.456   6.039  71.817  1.00  0.00    -0.253 C  
HETATM   12  O   UNL     1     -12.321   7.189  71.666  1.00  0.00    -0.325 OA 
HETATM   13  C   UNL     1     -10.643   7.751  73.165  1.00  0.00    -0.415 C  
HETATM   14  C   UNL     1     -11.677   8.333  72.274  1.00  0.00    -0.388 C  
HETATM   15  C   UNL     1     -10.483   6.463  72.865  1.00  0.00    -0.243 C  
BRANCH  14  16
HETATM   16  C   UNL     1     -11.047   9.243  71.203  1.00  0.00    -0.341 C  
HETATM   17  O   UNL     1      -9.624   9.300  71.302  1.00  0.00    -0.271 OA 
HETATM   18  H   UNL     1      -9.235   9.861  70.641  1.00  0.00     0.000 HD 
ENDBRANCH  14  16
ENDBRANCH   4  11
TORSDOF 2
ENDMDL
MODEL      104
REMARK 921   NORMALIZED FREE ENERGY PREDICTED BY IDOCK:   -3.59 KCAL/MOL
REMARK 922        TOTAL FREE ENERGY PREDICTED BY IDOCK:   -4.36 KCAL/MOL
REMARK 923 INTER-LIGAND FREE ENERGY PREDICTED BY IDOCK:   -4.18 KCAL/MOL
REMARK 924 INTRA-LIGAND FREE ENERGY PREDICTED BY IDOCK:   -0.18 KCAL/MOL
REMARK 927      BINDING AFFINITY PREDICTED BY RF-SCORE:    0.00 PKD
ROOT
HETATM    1  C   UNL     1     -10.998   6.816  67.147  1.00  0.00    -0.458 C  
HETATM    2  C   UNL     1      -9.995   7.878  66.833  1.00  0.00    -0.332 C  
HETATM    3  C   UNL     1     -10.262   9.189  66.828  1.00  0.00    -0.261 C  
HETATM    4  N   UNL     1      -9.322  10.158  66.515  1.00  0.00    -0.160 N  
HETATM    5  O   UNL     1      -8.277   6.275  66.530  1.00  0.00    -0.108 OA 
HETATM    6  C   UNL     1      -8.001   9.804  66.262  1.00  0.00    -0.109 C  
HETATM    7  O   UNL     1      -7.092  10.606  66.054  1.00  0.00    -0.128 OA 
HETATM    8  H   UNL     1      -6.773   8.184  66.048  1.00  0.00     0.000 HD 
HETATM    9  N   UNL     1      -7.731   8.460  66.266  1.00  0.00    -0.092 N  
HETATM   10  C   UNL     1      -8.614   7.455  66.530  1.00  0.00    -0.132 C  
ENDROOT
BRANCH   4  11
HETATM   11  C   UNL     1      -9.624  11.582  66.642  1.00  0.00    -0.197 C  
HETATM   12  O   UNL     1      -9.488  12.028  68.012  1.00  0.00    -0.186 OA 
HETATM   13  C   UNL     1     -11.694  12.357  67.371  1.00  0.00    -0.417 C  
HETATM   14  C   UNL     1     -10.810  12.248  68.558  1.00  0.00    -0.237 C  
HETATM   15  C   UNL     1     -11.033  11.927  66.296  1.00  0.00    -0.345 C  
BRANCH  14  16
HETATM   16  C   UNL     1     -11.232  11.076  69.466  1.00  0.00    -0.279 C  
HETATM   17  O   UNL     1     -12.553  10.615  69.184  1.00  0.00    -0.734 OA 
HETATM   18  H   UNL     1     -12.814   9.892  69.743  1.00  0.00     0.000 HD 
ENDBRANCH  14  16
ENDBRANCH   4  11
TORSDOF 2
ENDMDL
MODEL      105
REMARK 921   NORMALIZED FREE ENERGY PREDICTED BY IDOCK:   -3.59 KCAL/MOL
REMARK 922        TOTAL FREE ENERGY PREDICTED BY IDOCK:   -4.35 KCAL/MOL
REMARK 923 INTER-LIGAND FREE ENERGY PREDICTED BY IDOCK:   -4.13 KCAL/MOL
REMARK 924 INTRA-LIGAND FREE ENERGY PREDICTED BY IDOCK:   -0.23 KCAL/MOL
REMARK 927      BINDING AFFINITY PREDICTED BY RF-SCORE:    0.00 PKD
ROOT
HETATM    1  C   UNL     1      -9.219   3.262  72.342  1.00  0.00    -0.150 C  
HETATM    2  C   UNL     1      -9.711   4.092  71.200  1.00  0.00    -0.257 C  
HETATM    3  C   UNL     1     -10.488   5.172  71.334  1.00  0.00    -0.179 C  
HETATM    4  N   UNL     1     -10.950   5.917  70.260  1.00  0.00    -0.326 N  
HETATM    5  O   UNL     1      -8.567   2.741  69.625  1.00  0.00    -0.058 OA 
HETATM    6  C   UNL     1     -10.549   5.612  68.964  1.00  0.00    -0.246 C  
HETATM    7  O   UNL     1     -10.850   6.268  67.968  1.00  0.00    -0.272 OA 
HETATM    8  H   UNL     1      -9.480   4.247  67.882  1.00  0.00     0.000 HD 
HETATM    9  N   UNL     1      -9.754   4.502  68.830  1.00  0.00    -0.167 N  
HETATM   10  C   UNL     1      -9.294   3.707  69.838  1.00  0.00    -0.176 C  
ENDROOT
BRANCH   4  11
HETATM   11  C   UNL     1     -11.694   7.160  70.459  1.00  0.00    -0.272 C  
HETATM   12  O   UNL     1     -10.812   8.307  70.451  1.00  0.00    -0.230 OA 
HETATM   13  C   UNL     1     -11.837   8.209  72.531  1.00  0.00    -0.438 C  
HETATM   14  C   UNL     1     -10.683   8.798  71.806  1.00  0.00    -0.343 C  
HETATM   15  C   UNL     1     -12.373   7.244  71.784  1.00  0.00    -0.375 C  
BRANCH  14  16
HETATM   16  C   UNL     1      -9.344   8.352  72.427  1.00  0.00    -0.285 C  
HETATM   17  O   UNL     1      -8.220   8.985  71.815  1.00  0.00    -0.351 OA 
HETATM   18  H   UNL     1      -7.395   8.710  72.197  1.00  0.00     0.000 HD 
ENDBRANCH  14  16
ENDBRANCH   4  11
TORSDOF 2
ENDMDL
MODEL      106
REMARK 921   NORMALIZED FREE ENERGY PREDICTED BY IDOCK:   -3.59 KCAL/MOL
REMARK 922        TOTAL FREE ENERGY PREDICTED BY IDOCK:   -4.35 KCAL/MOL
REMARK 923 INTER-LIGAND FREE ENERGY PREDICTED BY IDOCK:   -4.53 KCAL/MOL
REMARK 924 INTRA-LIGAND FREE ENERGY PREDICTED BY IDOCK:    0.18 KCAL/MOL
REMARK 927      BINDING AFFINITY PREDICTED BY RF-SCORE:    0.00 PKD
ROOT
HETATM    1  C   UNL     1     -12.115  12.704  64.614  1.00  0.00    -0.484 C  
HETATM    2  C   UNL     1     -11.104  12.880  65.700  1.00  0.00    -0.307 C  
HETATM    3  C   UNL     1     -11.097  13.899  66.565  1.00  0.00    -0.308 C  
HETATM    4  N   UNL     1     -10.138  14.055  67.554  1.00  0.00    -0.235 N  
HETATM    5  O   UNL     1      -9.999  10.871  65.101  1.00  0.00    -0.245 OA 
HETATM    6  C   UNL     1      -9.158  13.087  67.746  1.00  0.00    -0.200 C  
HETATM    7  O   UNL     1      -8.321  13.110  68.646  1.00  0.00    -0.099 OA 
HETATM    8  H   UNL     1      -8.433  11.344  66.962  1.00  0.00     0.000 HD 
HETATM    9  N   UNL     1      -9.166  12.044  66.855  1.00  0.00    -0.191 N  
HETATM   10  C   UNL     1     -10.056  11.850  65.840  1.00  0.00    -0.234 C  
ENDROOT
BRANCH   4  11
HETATM   11  C   UNL     1     -10.240  15.116  68.555  1.00  0.00    -0.231 C  
HETATM   12  O   UNL     1     -11.167  16.145  68.136  1.00  0.00    -0.347 OA 
HETATM   13  C   UNL     1      -9.075  17.121  68.369  1.00  0.00    -0.263 C  
HETATM   14  C   UNL     1     -10.411  17.318  67.753  1.00  0.00    -0.356 C  
HETATM   15  C   UNL     1      -8.964  15.856  68.773  1.00  0.00    -0.216 C  
BRANCH  14  16
HETATM   16  C   UNL     1     -10.311  17.430  66.219  1.00  0.00    -0.330 C  
HETATM   17  O   UNL     1      -9.080  18.014  65.793  1.00  0.00    -0.482 OA 
HETATM   18  H   UNL     1      -9.017  18.083  64.848  1.00  0.00     0.000 HD 
ENDBRANCH  14  16
ENDBRANCH   4  11
TORSDOF 2
ENDMDL
MODEL      107
REMARK 921   NORMALIZED FREE ENERGY PREDICTED BY IDOCK:   -3.59 KCAL/MOL
REMARK 922        TOTAL FREE ENERGY PREDICTED BY IDOCK:   -4.35 KCAL/MOL
REMARK 923 INTER-LIGAND FREE ENERGY PREDICTED BY IDOCK:   -4.92 KCAL/MOL
REMARK 924 INTRA-LIGAND FREE ENERGY PREDICTED BY IDOCK:    0.57 KCAL/MOL
REMARK 927      BINDING AFFINITY PREDICTED BY RF-SCORE:    0.00 PKD
ROOT
HETATM    1  C   UNL     1     -12.526  11.988  71.050  1.00  0.00    -0.376 C  
HETATM    2  C   UNL     1     -12.157  13.270  70.377  1.00  0.00    -0.401 C  
HETATM    3  C   UNL     1     -11.871  13.382  69.075  1.00  0.00    -0.335 C  
HETATM    4  N   UNL     1     -11.510  14.577  68.473  1.00  0.00    -0.285 N  
HETATM    5  O   UNL     1     -12.392  14.487  72.395  1.00  0.00    -0.302 OA 
HETATM    6  C   UNL     1     -11.508  15.762  69.201  1.00  0.00    -0.380 C  
HETATM    7  O   UNL     1     -11.277  16.873  68.726  1.00  0.00    -0.228 OA 
HETATM    8  H   UNL     1     -11.767  16.499  71.090  1.00  0.00     0.000 HD 
HETATM    9  N   UNL     1     -11.799  15.643  70.536  1.00  0.00    -0.342 N  
HETATM   10  C   UNL     1     -12.126  14.496  71.197  1.00  0.00    -0.344 C  
ENDROOT
BRANCH   4  11
HETATM   11  C   UNL     1     -11.327  14.677  67.026  1.00  0.00    -0.355 C  
HETATM   12  O   UNL     1     -10.705  13.485  66.491  1.00  0.00    -0.284 OA 
HETATM   13  C   UNL     1      -9.295  15.277  66.065  1.00  0.00    -0.346 C  
HETATM   14  C   UNL     1      -9.335  13.796  66.145  1.00  0.00    -0.080 C  
HETATM   15  C   UNL     1     -10.403  15.773  66.615  1.00  0.00    -0.292 C  
BRANCH  14  16
HETATM   16  C   UNL     1      -8.364  13.265  67.217  1.00  0.00    -0.177 C  
HETATM   17  O   UNL     1      -7.033  13.748  67.035  1.00  0.00    -0.397 OA 
HETATM   18  H   UNL     1      -6.433  13.421  67.696  1.00  0.00     0.000 HD 
ENDBRANCH  14  16
ENDBRANCH   4  11
TORSDOF 2
ENDMDL
MODEL      108
REMARK 921   NORMALIZED FREE ENERGY PREDICTED BY IDOCK:   -3.59 KCAL/MOL
REMARK 922        TOTAL FREE ENERGY PREDICTED BY IDOCK:   -4.35 KCAL/MOL
REMARK 923 INTER-LIGAND FREE ENERGY PREDICTED BY IDOCK:   -4.04 KCAL/MOL
REMARK 924 INTRA-LIGAND FREE ENERGY PREDICTED BY IDOCK:   -0.31 KCAL/MOL
REMARK 927      BINDING AFFINITY PREDICTED BY RF-SCORE:    0.00 PKD
ROOT
HETATM    1  C   UNL     1     -11.227  16.083  69.055  1.00  0.00    -0.347 C  
HETATM    2  C   UNL     1     -10.001  15.361  68.598  1.00  0.00    -0.210 C  
HETATM    3  C   UNL     1      -9.934  14.040  68.405  1.00  0.00    -0.236 C  
HETATM    4  N   UNL     1      -8.781  13.385  68.000  1.00  0.00    -0.170 N  
HETATM    5  O   UNL     1      -8.772  17.381  68.451  1.00  0.00    -0.256 OA 
HETATM    6  C   UNL     1      -7.633  14.106  67.688  1.00  0.00    -0.180 C  
HETATM    7  O   UNL     1      -6.597  13.611  67.248  1.00  0.00    -0.254 OA 
HETATM    8  H   UNL     1      -6.860  15.998  67.697  1.00  0.00     0.000 HD 
HETATM    9  N   UNL     1      -7.705  15.460  67.889  1.00  0.00    -0.125 N  
HETATM   10  C   UNL     1      -8.793  16.161  68.319  1.00  0.00    -0.188 C  
ENDROOT
BRANCH   4  11
HETATM   11  C   UNL     1      -8.786  11.958  67.683  1.00  0.00    -0.162 C  
HETATM   12  O   UNL     1      -8.863  11.737  66.255  1.00  0.00    -0.195 OA 
HETATM   13  C   UNL     1     -10.745  10.789  67.227  1.00  0.00    -0.325 C  
HETATM   14  C   UNL     1     -10.192  11.264  65.934  1.00  0.00    -0.249 C  
HETATM   15  C   UNL     1      -9.973  11.231  68.219  1.00  0.00    -0.201 C  
BRANCH  14  16
HETATM   16  C   UNL     1     -11.050  12.398  65.339  1.00  0.00    -0.306 C  
HETATM   17  O   UNL     1     -12.350  12.465  65.926  1.00  0.00    -0.638 OA 
HETATM   18  H   UNL     1     -12.879  13.164  65.560  1.00  0.00     0.000 HD 
ENDBRANCH  14  16
ENDBRANCH   4  11
TORSDOF 2
ENDMDL
MODEL      109
REMARK 921   NORMALIZED FREE ENERGY PREDICTED BY IDOCK:   -3.58 KCAL/MOL
REMARK 922        TOTAL FREE ENERGY PREDICTED BY IDOCK:   -4.34 KCAL/MOL
REMARK 923 INTER-LIGAND FREE ENERGY PREDICTED BY IDOCK:   -4.44 KCAL/MOL
REMARK 924 INTRA-LIGAND FREE ENERGY PREDICTED BY IDOCK:    0.09 KCAL/MOL
REMARK 927      BINDING AFFINITY PREDICTED BY RF-SCORE:    0.00 PKD
ROOT
HETATM    1  C   UNL     1     -12.035  13.559  68.805  1.00  0.00    -0.374 C  
HETATM    2  C   UNL     1     -11.568  12.786  67.614  1.00  0.00    -0.412 C  
HETATM    3  C   UNL     1     -11.060  11.550  67.670  1.00  0.00    -0.266 C  
HETATM    4  N   UNL     1     -10.614  10.857  66.556  1.00  0.00    -0.250 N  
HETATM    5  O   UNL     1     -12.170  14.541  66.142  1.00  0.00    -0.353 OA 
HETATM    6  C   UNL     1     -10.754  11.400  65.284  1.00  0.00    -0.265 C  
HETATM    7  O   UNL     1     -10.456  10.820  64.240  1.00  0.00    -0.367 OA 
HETATM    8  H   UNL     1     -11.350  13.093  64.306  1.00  0.00     0.000 HD 
HETATM    9  N   UNL     1     -11.273  12.668  65.230  1.00  0.00    -0.292 N  
HETATM   10  C   UNL     1     -11.697  13.418  66.287  1.00  0.00    -0.366 C  
ENDROOT
BRANCH   4  11
HETATM   11  C   UNL     1     -10.180   9.464  66.648  1.00  0.00    -0.249 C  
HETATM   12  O   UNL     1     -10.633   8.853  67.879  1.00  0.00    -0.230 OA 
HETATM   13  C   UNL     1      -8.313   8.817  67.877  1.00  0.00    -0.118 C  
HETATM   14  C   UNL     1      -9.498   8.702  68.764  1.00  0.00    -0.143 C  
HETATM   15  C   UNL     1      -8.699   9.301  66.696  1.00  0.00    -0.139 C  
BRANCH  14  16
HETATM   16  C   UNL     1      -9.496   9.798  69.847  1.00  0.00    -0.231 C  
HETATM   17  O   UNL     1      -8.368  10.667  69.744  1.00  0.00    -0.381 OA 
HETATM   18  H   UNL     1      -8.367  11.342  70.412  1.00  0.00     0.000 HD 
ENDBRANCH  14  16
ENDBRANCH   4  11
TORSDOF 2
ENDMDL
MODEL      110
REMARK 921   NORMALIZED FREE ENERGY PREDICTED BY IDOCK:   -3.57 KCAL/MOL
REMARK 922        TOTAL FREE ENERGY PREDICTED BY IDOCK:   -4.33 KCAL/MOL
REMARK 923 INTER-LIGAND FREE ENERGY PREDICTED BY IDOCK:   -4.40 KCAL/MOL
REMARK 924 INTRA-LIGAND FREE ENERGY PREDICTED BY IDOCK:    0.07 KCAL/MOL
REMARK 927      BINDING AFFINITY PREDICTED BY RF-SCORE:    0.00 PKD
ROOT
HETATM    1  C   UNL     1     -10.968   8.338  72.345  1.00  0.00    -0.438 C  
HETATM    2  C   UNL     1     -11.230   9.292  71.225  1.00  0.00    -0.425 C  
HETATM    3  C   UNL     1     -10.464   9.402  70.134  1.00  0.00    -0.240 C  
HETATM    4  N   UNL     1     -10.713  10.307  69.115  1.00  0.00    -0.214 N  
HETATM    5  O   UNL     1     -13.192  10.105  72.274  1.00  0.00    -0.415 OA 
HETATM    6  C   UNL     1     -11.849  11.109  69.144  1.00  0.00    -0.350 C  
HETATM    7  O   UNL     1     -12.183  11.879  68.245  1.00  0.00    -0.447 OA 
HETATM    8  H   UNL     1     -13.450  11.602  70.316  1.00  0.00     0.000 HD 
HETATM    9  N   UNL     1     -12.631  10.995  70.265  1.00  0.00    -0.276 N  
HETATM   10  C   UNL     1     -12.425  10.153  71.317  1.00  0.00    -0.406 C  
ENDROOT
BRANCH   4  11
HETATM   11  C   UNL     1      -9.922  10.308  67.885  1.00  0.00    -0.164 C  
HETATM   12  O   UNL     1      -8.948   9.237  67.886  1.00  0.00    -0.128 OA 
HETATM   13  C   UNL     1      -7.796  11.247  67.772  1.00  0.00    -0.115 C  
HETATM   14  C   UNL     1      -7.635   9.808  68.095  1.00  0.00    -0.082 C  
HETATM   15  C   UNL     1      -9.096  11.537  67.707  1.00  0.00    -0.165 C  
BRANCH  14  16
HETATM   16  C   UNL     1      -7.175   9.608  69.552  1.00  0.00    -0.080 C  
HETATM   17  O   UNL     1      -7.161  10.828  70.293  1.00  0.00    -0.453 OA 
HETATM   18  H   UNL     1      -6.877  10.705  71.191  1.00  0.00     0.000 HD 
ENDBRANCH  14  16
ENDBRANCH   4  11
TORSDOF 2
ENDMDL
MODEL      111
REMARK 921   NORMALIZED FREE ENERGY PREDICTED BY IDOCK:   -3.56 KCAL/MOL
REMARK 922        TOTAL FREE ENERGY PREDICTED BY IDOCK:   -4.32 KCAL/MOL
REMARK 923 INTER-LIGAND FREE ENERGY PREDICTED BY IDOCK:   -4.16 KCAL/MOL
REMARK 924 INTRA-LIGAND FREE ENERGY PREDICTED BY IDOCK:   -0.16 KCAL/MOL
REMARK 927      BINDING AFFINITY PREDICTED BY RF-SCORE:    0.00 PKD
ROOT
HETATM    1  C   UNL     1      -6.791  11.166  68.196  1.00  0.00    -0.067 C  
HETATM    2  C   UNL     1      -8.161  10.957  68.754  1.00  0.00    -0.145 C  
HETATM    3  C   UNL     1      -9.234  11.675  68.406  1.00  0.00    -0.182 C  
HETATM    4  N   UNL     1     -10.493  11.479  68.951  1.00  0.00    -0.207 N  
HETATM    5  O   UNL     1      -7.421   9.151  70.098  1.00  0.00    -0.061 OA 
HETATM    6  C   UNL     1     -10.720  10.442  69.849  1.00  0.00    -0.279 C  
HETATM    7  O   UNL     1     -11.820  10.151  70.317  1.00  0.00    -0.266 OA 
HETATM    8  H   UNL     1      -9.762   8.966  70.889  1.00  0.00     0.000 HD 
HETATM    9  N   UNL     1      -9.617   9.708  70.205  1.00  0.00    -0.256 N  
HETATM   10  C   UNL     1      -8.347   9.872  69.736  1.00  0.00    -0.183 C  
ENDROOT
BRANCH   4  11
HETATM   11  C   UNL     1     -11.661  12.203  68.452  1.00  0.00    -0.327 C  
HETATM   12  O   UNL     1     -12.156  11.621  67.223  1.00  0.00    -0.595 OA 
HETATM   13  C   UNL     1     -11.510  13.803  66.769  1.00  0.00    -0.367 C  
HETATM   14  C   UNL     1     -11.813  12.500  66.126  1.00  0.00    -0.397 C  
HETATM   15  C   UNL     1     -11.372  13.619  68.082  1.00  0.00    -0.321 C  
BRANCH  14  16
HETATM   16  C   UNL     1     -10.595  11.961  65.351  1.00  0.00    -0.271 C  
HETATM   17  O   UNL     1     -10.527  10.535  65.363  1.00  0.00    -0.244 OA 
HETATM   18  H   UNL     1      -9.776  10.202  64.885  1.00  0.00     0.000 HD 
ENDBRANCH  14  16
ENDBRANCH   4  11
TORSDOF 2
ENDMDL
MODEL      112
REMARK 921   NORMALIZED FREE ENERGY PREDICTED BY IDOCK:   -3.56 KCAL/MOL
REMARK 922        TOTAL FREE ENERGY PREDICTED BY IDOCK:   -4.32 KCAL/MOL
REMARK 923 INTER-LIGAND FREE ENERGY PREDICTED BY IDOCK:   -4.42 KCAL/MOL
REMARK 924 INTRA-LIGAND FREE ENERGY PREDICTED BY IDOCK:    0.10 KCAL/MOL
REMARK 927      BINDING AFFINITY PREDICTED BY RF-SCORE:    0.00 PKD
ROOT
HETATM    1  C   UNL     1      -7.638  15.906  68.011  1.00  0.00    -0.137 C  
HETATM    2  C   UNL     1      -8.402  14.624  68.085  1.00  0.00    -0.144 C  
HETATM    3  C   UNL     1      -9.674  14.527  68.488  1.00  0.00    -0.224 C  
HETATM    4  N   UNL     1     -10.359  13.326  68.569  1.00  0.00    -0.248 N  
HETATM    5  O   UNL     1      -6.556  13.386  67.265  1.00  0.00    -0.234 OA 
HETATM    6  C   UNL     1      -9.763  12.143  68.146  1.00  0.00    -0.208 C  
HETATM    7  O   UNL     1     -10.328  11.050  68.112  1.00  0.00    -0.171 OA 
HETATM    8  H   UNL     1      -7.997  11.379  67.455  1.00  0.00     0.000 HD 
HETATM    9  N   UNL     1      -8.459  12.245  67.736  1.00  0.00    -0.152 N  
HETATM   10  C   UNL     1      -7.716  13.386  67.666  1.00  0.00    -0.177 C  
ENDROOT
BRANCH   4  11
HETATM   11  C   UNL     1     -11.784  13.281  68.896  1.00  0.00    -0.327 C  
HETATM   12  O   UNL     1     -12.341  14.613  68.999  1.00  0.00    -0.203 OA 
HETATM   13  C   UNL     1     -12.575  13.580  71.063  1.00  0.00    -0.438 C  
HETATM   14  C   UNL     1     -12.579  14.906  70.396  1.00  0.00    -0.343 C  
HETATM   15  C   UNL     1     -12.073  12.673  70.226  1.00  0.00    -0.372 C  
BRANCH  14  16
HETATM   16  C   UNL     1     -11.477  15.822  70.961  1.00  0.00    -0.407 C  
HETATM   17  O   UNL     1     -11.951  16.665  72.011  1.00  0.00    -0.635 OA 
HETATM   18  H   UNL     1     -11.272  17.230  72.359  1.00  0.00     0.000 HD 
ENDBRANCH  14  16
ENDBRANCH   4  11
TORSDOF 2
ENDMDL
MODEL      113
REMARK 921   NORMALIZED FREE ENERGY PREDICTED BY IDOCK:   -3.56 KCAL/MOL
REMARK 922        TOTAL FREE ENERGY PREDICTED BY IDOCK:   -4.32 KCAL/MOL
REMARK 923 INTER-LIGAND FREE ENERGY PREDICTED BY IDOCK:   -4.10 KCAL/MOL
REMARK 924 INTRA-LIGAND FREE ENERGY PREDICTED BY IDOCK:   -0.22 KCAL/MOL
REMARK 927      BINDING AFFINITY PREDICTED BY RF-SCORE:    0.00 PKD
ROOT
HETATM    1  C   UNL     1     -10.277  12.021  66.472  1.00  0.00    -0.232 C  
HETATM    2  C   UNL     1     -10.853  11.808  67.833  1.00  0.00    -0.255 C  
HETATM    3  C   UNL     1     -10.699  10.688  68.550  1.00  0.00    -0.217 C  
HETATM    4  N   UNL     1     -11.259  10.502  69.804  1.00  0.00    -0.276 N  
HETATM    5  O   UNL     1     -11.799  13.979  67.858  1.00  0.00    -0.344 OA 
HETATM    6  C   UNL     1     -11.959  11.531  70.425  1.00  0.00    -0.368 C  
HETATM    7  O   UNL     1     -12.418  11.474  71.564  1.00  0.00    -0.270 OA 
HETATM    8  H   UNL     1     -12.657  13.427  70.116  1.00  0.00     0.000 HD 
HETATM    9  N   UNL     1     -12.117  12.676  69.687  1.00  0.00    -0.256 N  
HETATM   10  C   UNL     1     -11.624  12.911  68.437  1.00  0.00    -0.333 C  
ENDROOT
BRANCH   4  11
HETATM   11  C   UNL     1     -10.963   9.313  70.601  1.00  0.00    -0.276 C  
HETATM   12  O   UNL     1      -9.853   9.547  71.501  1.00  0.00    -0.183 OA 
HETATM   13  C   UNL     1      -9.249   7.839  70.052  1.00  0.00    -0.153 C  
HETATM   14  C   UNL     1      -8.696   8.839  70.998  1.00  0.00    -0.202 C  
HETATM   15  C   UNL     1     -10.519   8.144  69.789  1.00  0.00    -0.227 C  
BRANCH  14  16
HETATM   16  C   UNL     1      -7.726   9.805  70.289  1.00  0.00    -0.172 C  
HETATM   17  O   UNL     1      -6.655  10.223  71.136  1.00  0.00    -0.332 OA 
HETATM   18  H   UNL     1      -6.058  10.819  70.699  1.00  0.00     0.000 HD 
ENDBRANCH  14  16
ENDBRANCH   4  11
TORSDOF 2
ENDMDL
MODEL      114
REMARK 921   NORMALIZED FREE ENERGY PREDICTED BY IDOCK:   -3.55 KCAL/MOL
REMARK 922        TOTAL FREE ENERGY PREDICTED BY IDOCK:   -4.31 KCAL/MOL
REMARK 923 INTER-LIGAND FREE ENERGY PREDICTED BY IDOCK:   -4.48 KCAL/MOL
REMARK 924 INTRA-LIGAND FREE ENERGY PREDICTED BY IDOCK:    0.17 KCAL/MOL
REMARK 927      BINDING AFFINITY PREDICTED BY RF-SCORE:    0.00 PKD
ROOT
HETATM    1  C   UNL     1     -10.663   6.188  66.725  1.00  0.00    -0.371 C  
HETATM    2  C   UNL     1     -10.692   7.209  67.815  1.00  0.00    -0.282 C  
HETATM    3  C   UNL     1     -10.721   8.530  67.609  1.00  0.00    -0.119 C  
HETATM    4  N   UNL     1     -10.728   9.462  68.635  1.00  0.00    -0.194 N  
HETATM    5  O   UNL     1     -10.707   5.533  69.490  1.00  0.00    -0.310 OA 
HETATM    6  C   UNL     1     -10.788   9.051  69.962  1.00  0.00    -0.231 C  
HETATM    7  O   UNL     1     -10.876   9.812  70.925  1.00  0.00    -0.310 OA 
HETATM    8  H   UNL     1     -10.764   7.381  71.140  1.00  0.00     0.000 HD 
HETATM    9  N   UNL     1     -10.756   7.696  70.170  1.00  0.00    -0.237 N  
HETATM   10  C   UNL     1     -10.713   6.728  69.210  1.00  0.00    -0.253 C  
ENDROOT
BRANCH   4  11
HETATM   11  C   UNL     1     -10.885  10.891  68.366  1.00  0.00    -0.222 C  
HETATM   12  O   UNL     1     -11.548  11.117  67.099  1.00  0.00    -0.495 OA 
HETATM   13  C   UNL     1      -9.434  12.064  66.976  1.00  0.00    -0.199 C  
HETATM   14  C   UNL     1     -10.570  11.593  66.145  1.00  0.00    -0.262 C  
HETATM   15  C   UNL     1      -9.591  11.617  68.222  1.00  0.00    -0.198 C  
BRANCH  14  16
HETATM   16  C   UNL     1     -10.137  10.462  65.192  1.00  0.00    -0.308 C  
HETATM   17  O   UNL     1     -10.457  10.744  63.829  1.00  0.00    -0.488 OA 
HETATM   18  H   UNL     1     -10.190  10.047  63.241  1.00  0.00     0.000 HD 
ENDBRANCH  14  16
ENDBRANCH   4  11
TORSDOF 2
ENDMDL
MODEL      115
REMARK 921   NORMALIZED FREE ENERGY PREDICTED BY IDOCK:   -3.55 KCAL/MOL
REMARK 922        TOTAL FREE ENERGY PREDICTED BY IDOCK:   -4.30 KCAL/MOL
REMARK 923 INTER-LIGAND FREE ENERGY PREDICTED BY IDOCK:   -4.69 KCAL/MOL
REMARK 924 INTRA-LIGAND FREE ENERGY PREDICTED BY IDOCK:    0.39 KCAL/MOL
REMARK 927      BINDING AFFINITY PREDICTED BY RF-SCORE:    0.00 PKD
ROOT
HETATM    1  C   UNL     1     -11.867  12.181  68.471  1.00  0.00    -0.365 C  
HETATM    2  C   UNL     1     -11.047  11.188  69.228  1.00  0.00    -0.318 C  
HETATM    3  C   UNL     1     -11.482  10.508  70.294  1.00  0.00    -0.333 C  
HETATM    4  N   UNL     1     -10.699   9.605  70.996  1.00  0.00    -0.331 N  
HETATM    5  O   UNL     1      -9.200  11.489  67.775  1.00  0.00    -0.157 OA 
HETATM    6  C   UNL     1      -9.415   9.297  70.561  1.00  0.00    -0.264 C  
HETATM    7  O   UNL     1      -8.686   8.453  71.079  1.00  0.00    -0.133 OA 
HETATM    8  H   UNL     1      -8.017   9.808  69.159  1.00  0.00     0.000 HD 
HETATM    9  N   UNL     1      -8.970   9.998  69.469  1.00  0.00    -0.198 N  
HETATM   10  C   UNL     1      -9.674  10.923  68.756  1.00  0.00    -0.189 C  
ENDROOT
BRANCH   4  11
HETATM   11  C   UNL     1     -11.254   8.794  72.078  1.00  0.00    -0.373 C  
HETATM   12  O   UNL     1     -10.624   7.492  72.136  1.00  0.00    -0.208 OA 
HETATM   13  C   UNL     1     -12.882   7.172  71.711  1.00  0.00    -0.368 C  
HETATM   14  C   UNL     1     -11.558   6.505  71.641  1.00  0.00    -0.308 C  
HETATM   15  C   UNL     1     -12.702   8.478  71.906  1.00  0.00    -0.401 C  
BRANCH  14  16
HETATM   16  C   UNL     1     -11.211   6.098  70.195  1.00  0.00    -0.382 C  
HETATM   17  O   UNL     1     -12.111   6.658  69.239  1.00  0.00    -0.361 OA 
HETATM   18  H   UNL     1     -11.897   6.407  68.348  1.00  0.00     0.000 HD 
ENDBRANCH  14  16
ENDBRANCH   4  11
TORSDOF 2
ENDMDL
MODEL      116
REMARK 921   NORMALIZED FREE ENERGY PREDICTED BY IDOCK:   -3.54 KCAL/MOL
REMARK 922        TOTAL FREE ENERGY PREDICTED BY IDOCK:   -4.30 KCAL/MOL
REMARK 923 INTER-LIGAND FREE ENERGY PREDICTED BY IDOCK:   -4.36 KCAL/MOL
REMARK 924 INTRA-LIGAND FREE ENERGY PREDICTED BY IDOCK:    0.06 KCAL/MOL
REMARK 927      BINDING AFFINITY PREDICTED BY RF-SCORE:    0.00 PKD
ROOT
HETATM    1  C   UNL     1      -7.561   9.837  68.472  1.00  0.00    -0.080 C  
HETATM    2  C   UNL     1      -8.782   9.863  69.331  1.00  0.00    -0.186 C  
HETATM    3  C   UNL     1      -9.832  10.665  69.124  1.00  0.00    -0.200 C  
HETATM    4  N   UNL     1     -10.949  10.688  69.945  1.00  0.00    -0.281 N  
HETATM    5  O   UNL     1      -7.935   8.143  70.722  1.00  0.00    -0.090 OA 
HETATM    6  C   UNL     1     -11.065   9.795  71.005  1.00  0.00    -0.361 C  
HETATM    7  O   UNL     1     -12.053   9.698  71.731  1.00  0.00    -0.378 OA 
HETATM    8  H   UNL     1     -10.042   8.339  72.011  1.00  0.00     0.000 HD 
HETATM    9  N   UNL     1      -9.986   8.975  71.216  1.00  0.00    -0.288 N  
HETATM   10  C   UNL     1      -8.845   8.927  70.470  1.00  0.00    -0.192 C  
ENDROOT
BRANCH   4  11
HETATM   11  C   UNL     1     -12.124  11.491  69.611  1.00  0.00    -0.296 C  
HETATM   12  O   UNL     1     -11.898  12.284  68.421  1.00  0.00    -0.317 OA 
HETATM   13  C   UNL     1     -12.300  13.740  70.183  1.00  0.00    -0.390 C  
HETATM   14  C   UNL     1     -11.731  13.666  68.814  1.00  0.00    -0.348 C  
HETATM   15  C   UNL     1     -12.471  12.503  70.650  1.00  0.00    -0.323 C  
BRANCH  14  16
HETATM   16  C   UNL     1     -10.242  14.064  68.804  1.00  0.00    -0.197 C  
HETATM   17  O   UNL     1      -9.849  14.741  69.998  1.00  0.00    -0.438 OA 
HETATM   18  H   UNL     1      -8.932  14.987  69.992  1.00  0.00     0.000 HD 
ENDBRANCH  14  16
ENDBRANCH   4  11
TORSDOF 2
ENDMDL
MODEL      117
REMARK 921   NORMALIZED FREE ENERGY PREDICTED BY IDOCK:   -3.54 KCAL/MOL
REMARK 922        TOTAL FREE ENERGY PREDICTED BY IDOCK:   -4.29 KCAL/MOL
REMARK 923 INTER-LIGAND FREE ENERGY PREDICTED BY IDOCK:   -4.34 KCAL/MOL
REMARK 924 INTRA-LIGAND FREE ENERGY PREDICTED BY IDOCK:    0.05 KCAL/MOL
REMARK 927      BINDING AFFINITY PREDICTED BY RF-SCORE:    0.00 PKD
ROOT
HETATM    1  C   UNL     1      -6.058  16.339  69.507  1.00  0.00    -0.179 C  
HETATM    2  C   UNL     1      -7.380  16.799  68.985  1.00  0.00    -0.231 C  
HETATM    3  C   UNL     1      -8.447  16.007  68.831  1.00  0.00    -0.232 C  
HETATM    4  N   UNL     1      -9.659  16.448  68.325  1.00  0.00    -0.216 N  
HETATM    5  O   UNL     1      -6.604  19.026  68.763  1.00  0.00    -0.252 OA 
HETATM    6  C   UNL     1      -9.850  17.792  68.022  1.00  0.00    -0.317 C  
HETATM    7  O   UNL     1     -10.915  18.277  67.644  1.00  0.00    -0.333 OA 
HETATM    8  H   UNL     1      -8.870  19.583  67.927  1.00  0.00     0.000 HD 
HETATM    9  N   UNL     1      -8.754  18.601  68.178  1.00  0.00    -0.302 N  
HETATM   10  C   UNL     1      -7.526  18.225  68.635  1.00  0.00    -0.295 C  
ENDROOT
BRANCH   4  11
HETATM   11  C   UNL     1     -10.833  15.578  68.290  1.00  0.00    -0.292 C  
HETATM   12  O   UNL     1     -10.597  14.348  69.016  1.00  0.00    -0.241 OA 
HETATM   13  C   UNL     1     -11.022  13.799  66.802  1.00  0.00    -0.307 C  
HETATM   14  C   UNL     1     -10.438  13.273  68.061  1.00  0.00    -0.242 C  
HETATM   15  C   UNL     1     -11.194  15.115  66.919  1.00  0.00    -0.292 C  
BRANCH  14  16
HETATM   16  C   UNL     1      -8.951  12.912  67.882  1.00  0.00    -0.193 C  
HETATM   17  O   UNL     1      -8.576  12.803  66.509  1.00  0.00    -0.416 OA 
HETATM   18  H   UNL     1      -7.659  12.581  66.398  1.00  0.00     0.000 HD 
ENDBRANCH  14  16
ENDBRANCH   4  11
TORSDOF 2
ENDMDL
MODEL      118
REMARK 921   NORMALIZED FREE ENERGY PREDICTED BY IDOCK:   -3.52 KCAL/MOL
REMARK 922        TOTAL FREE ENERGY PREDICTED BY IDOCK:   -4.28 KCAL/MOL
REMARK 923 INTER-LIGAND FREE ENERGY PREDICTED BY IDOCK:   -4.08 KCAL/MOL
REMARK 924 INTRA-LIGAND FREE ENERGY PREDICTED BY IDOCK:   -0.20 KCAL/MOL
REMARK 927      BINDING AFFINITY PREDICTED BY RF-SCORE:    0.00 PKD
ROOT
HETATM    1  C   UNL     1     -13.459   6.973  71.650  1.00  0.00    -0.350 C  
HETATM    2  C   UNL     1     -12.010   6.796  71.330  1.00  0.00    -0.403 C  
HETATM    3  C   UNL     1     -11.409   7.306  70.249  1.00  0.00    -0.238 C  
HETATM    4  N   UNL     1     -10.067   7.114  69.960  1.00  0.00    -0.186 N  
HETATM    5  O   UNL     1     -11.647   5.542  73.307  1.00  0.00    -0.180 OA 
HETATM    6  C   UNL     1      -9.244   6.431  70.849  1.00  0.00    -0.158 C  
HETATM    7  O   UNL     1      -8.031   6.285  70.706  1.00  0.00    -0.107 OA 
HETATM    8  H   UNL     1      -9.279   5.375  72.599  1.00  0.00     0.000 HD 
HETATM    9  N   UNL     1      -9.863   5.908  71.955  1.00  0.00    -0.157 N  
HETATM   10  C   UNL     1     -11.182   6.028  72.281  1.00  0.00    -0.293 C  
ENDROOT
BRANCH   4  11
HETATM   11  C   UNL     1      -9.426   7.791  68.834  1.00  0.00    -0.150 C  
HETATM   12  O   UNL     1      -8.997   9.124  69.198  1.00  0.00    -0.139 OA 
HETATM   13  C   UNL     1     -10.556   9.318  67.491  1.00  0.00    -0.329 C  
HETATM   14  C   UNL     1      -9.884  10.081  68.572  1.00  0.00    -0.156 C  
HETATM   15  C   UNL     1     -10.337   8.016  67.675  1.00  0.00    -0.312 C  
BRANCH  14  16
HETATM   16  C   UNL     1     -10.904  10.630  69.588  1.00  0.00    -0.268 C  
HETATM   17  O   UNL     1     -12.165  10.930  68.989  1.00  0.00    -0.651 OA 
HETATM   18  H   UNL     1     -12.794  11.269  69.615  1.00  0.00     0.000 HD 
ENDBRANCH  14  16
ENDBRANCH   4  11
TORSDOF 2
ENDMDL
MODEL      119
REMARK 921   NORMALIZED FREE ENERGY PREDICTED BY IDOCK:   -3.52 KCAL/MOL
REMARK 922        TOTAL FREE ENERGY PREDICTED BY IDOCK:   -4.28 KCAL/MOL
REMARK 923 INTER-LIGAND FREE ENERGY PREDICTED BY IDOCK:   -4.05 KCAL/MOL
REMARK 924 INTRA-LIGAND FREE ENERGY PREDICTED BY IDOCK:   -0.22 KCAL/MOL
REMARK 927      BINDING AFFINITY PREDICTED BY RF-SCORE:    0.00 PKD
ROOT
HETATM    1  C   UNL     1      -9.159  10.928  68.076  1.00  0.00    -0.152 C  
HETATM    2  C   UNL     1      -9.678   9.533  68.204  1.00  0.00    -0.166 C  
HETATM    3  C   UNL     1      -9.782   8.872  69.362  1.00  0.00    -0.169 C  
HETATM    4  N   UNL     1     -10.248   7.570  69.458  1.00  0.00    -0.201 N  
HETATM    5  O   UNL     1     -10.082   9.387  65.875  1.00  0.00    -0.296 OA 
HETATM    6  C   UNL     1     -10.716   6.903  68.332  1.00  0.00    -0.211 C  
HETATM    7  O   UNL     1     -11.216   5.779  68.344  1.00  0.00    -0.099 OA 
HETATM    8  H   UNL     1     -10.914   7.093  66.306  1.00  0.00     0.000 HD 
HETATM    9  N   UNL     1     -10.606   7.583  67.146  1.00  0.00    -0.335 N  
HETATM   10  C   UNL     1     -10.125   8.848  66.977  1.00  0.00    -0.261 C  
ENDROOT
BRANCH   4  11
HETATM   11  C   UNL     1     -10.461   6.930  70.755  1.00  0.00    -0.216 C  
HETATM   12  O   UNL     1     -11.870   6.729  71.017  1.00  0.00    -0.339 OA 
HETATM   13  C   UNL     1     -11.034   8.137  72.661  1.00  0.00    -0.440 C  
HETATM   14  C   UNL     1     -12.293   7.681  72.021  1.00  0.00    -0.280 C  
HETATM   15  C   UNL     1     -10.001   7.754  71.910  1.00  0.00    -0.222 C  
BRANCH  14  16
HETATM   16  C   UNL     1     -13.052   8.857  71.376  1.00  0.00    -0.269 C  
HETATM   17  O   UNL     1     -12.628  10.124  71.881  1.00  0.00    -0.396 OA 
HETATM   18  H   UNL     1     -13.095  10.849  71.484  1.00  0.00     0.000 HD 
ENDBRANCH  14  16
ENDBRANCH   4  11
TORSDOF 2
ENDMDL
MODEL      120
REMARK 921   NORMALIZED FREE ENERGY PREDICTED BY IDOCK:   -3.52 KCAL/MOL
REMARK 922        TOTAL FREE ENERGY PREDICTED BY IDOCK:   -4.27 KCAL/MOL
REMARK 923 INTER-LIGAND FREE ENERGY PREDICTED BY IDOCK:   -4.37 KCAL/MOL
REMARK 924 INTRA-LIGAND FREE ENERGY PREDICTED BY IDOCK:    0.09 KCAL/MOL
REMARK 927      BINDING AFFINITY PREDICTED BY RF-SCORE:    0.00 PKD
ROOT
HETATM    1  C   UNL     1      -9.977   5.118  68.955  1.00  0.00    -0.265 C  
HETATM    2  C   UNL     1      -9.869   6.607  69.011  1.00  0.00    -0.149 C  
HETATM    3  C   UNL     1     -10.458   7.371  69.937  1.00  0.00    -0.231 C  
HETATM    4  N   UNL     1     -10.362   8.753  69.960  1.00  0.00    -0.198 N  
HETATM    5  O   UNL     1      -8.449   6.652  67.114  1.00  0.00    -0.112 OA 
HETATM    6  C   UNL     1      -9.559   9.421  69.041  1.00  0.00    -0.164 C  
HETATM    7  O   UNL     1      -9.359  10.634  69.041  1.00  0.00    -0.184 OA 
HETATM    8  H   UNL     1      -8.395   9.114  67.389  1.00  0.00     0.000 HD 
HETATM    9  N   UNL     1      -8.959   8.635  68.091  1.00  0.00    -0.141 N  
HETATM   10  C   UNL     1      -9.040   7.277  67.990  1.00  0.00    -0.133 C  
ENDROOT
BRANCH   4  11
HETATM   11  C   UNL     1     -10.919   9.538  71.061  1.00  0.00    -0.353 C  
HETATM   12  O   UNL     1     -11.458   8.682  72.096  1.00  0.00    -0.346 OA 
HETATM   13  C   UNL     1     -13.197   9.967  71.257  1.00  0.00    -0.469 C  
HETATM   14  C   UNL     1     -12.902   8.739  72.036  1.00  0.00    -0.390 C  
HETATM   15  C   UNL     1     -12.080  10.385  70.663  1.00  0.00    -0.443 C  
BRANCH  14  16
HETATM   16  C   UNL     1     -13.473   7.486  71.344  1.00  0.00    -0.317 C  
HETATM   17  O   UNL     1     -13.724   6.422  72.262  1.00  0.00    -0.472 OA 
HETATM   18  H   UNL     1     -14.076   5.649  71.836  1.00  0.00     0.000 HD 
ENDBRANCH  14  16
ENDBRANCH   4  11
TORSDOF 2
ENDMDL
MODEL      121
REMARK 921   NORMALIZED FREE ENERGY PREDICTED BY IDOCK:   -3.50 KCAL/MOL
REMARK 922        TOTAL FREE ENERGY PREDICTED BY IDOCK:   -4.25 KCAL/MOL
REMARK 923 INTER-LIGAND FREE ENERGY PREDICTED BY IDOCK:   -4.45 KCAL/MOL
REMARK 924 INTRA-LIGAND FREE ENERGY PREDICTED BY IDOCK:    0.20 KCAL/MOL
REMARK 927      BINDING AFFINITY PREDICTED BY RF-SCORE:    0.00 PKD
ROOT
HETATM    1  C   UNL     1      -9.949  10.794  63.171  1.00  0.00    -0.341 C  
HETATM    2  C   UNL     1     -10.656  11.798  64.021  1.00  0.00    -0.425 C  
HETATM    3  C   UNL     1     -10.060  12.550  64.952  1.00  0.00    -0.226 C  
HETATM    4  N   UNL     1     -10.737  13.463  65.745  1.00  0.00    -0.271 N  
HETATM    5  O   UNL     1     -12.727  11.354  62.959  1.00  0.00    -0.159 OA 
HETATM    6  C   UNL     1     -12.093  13.702  65.547  1.00  0.00    -0.411 C  
HETATM    7  O   UNL     1     -12.748  14.547  66.153  1.00  0.00    -0.231 OA 
HETATM    8  H   UNL     1     -13.703  13.067  64.460  1.00  0.00     0.000 HD 
HETATM    9  N   UNL     1     -12.702  12.927  64.593  1.00  0.00    -0.379 N  
HETATM   10  C   UNL     1     -12.103  11.989  63.805  1.00  0.00    -0.499 C  
ENDROOT
BRANCH   4  11
HETATM   11  C   UNL     1     -10.026  14.351  66.663  1.00  0.00    -0.272 C  
HETATM   12  O   UNL     1      -8.696  13.855  66.949  1.00  0.00    -0.219 OA 
HETATM   13  C   UNL     1      -9.876  13.924  68.946  1.00  0.00    -0.041 C  
HETATM   14  C   UNL     1      -8.680  13.330  68.298  1.00  0.00    -0.168 C  
HETATM   15  C   UNL     1     -10.662  14.454  68.008  1.00  0.00    -0.244 C  
BRANCH  14  16
HETATM   16  C   UNL     1      -8.753  11.791  68.289  1.00  0.00    -0.167 C  
HETATM   17  O   UNL     1      -9.497  11.273  69.391  1.00  0.00    -0.399 OA 
HETATM   18  H   UNL     1      -9.542  10.324  69.386  1.00  0.00     0.000 HD 
ENDBRANCH  14  16
ENDBRANCH   4  11
TORSDOF 2
ENDMDL
MODEL      122
REMARK 921   NORMALIZED FREE ENERGY PREDICTED BY IDOCK:   -3.49 KCAL/MOL
REMARK 922        TOTAL FREE ENERGY PREDICTED BY IDOCK:   -4.25 KCAL/MOL
REMARK 923 INTER-LIGAND FREE ENERGY PREDICTED BY IDOCK:   -4.19 KCAL/MOL
REMARK 924 INTRA-LIGAND FREE ENERGY PREDICTED BY IDOCK:   -0.06 KCAL/MOL
REMARK 927      BINDING AFFINITY PREDICTED BY RF-SCORE:    0.00 PKD
ROOT
HETATM    1  C   UNL     1     -12.053  14.220  66.197  1.00  0.00    -0.424 C  
HETATM    2  C   UNL     1     -10.629  14.059  66.619  1.00  0.00    -0.274 C  
HETATM    3  C   UNL     1      -9.749  15.064  66.698  1.00  0.00    -0.258 C  
HETATM    4  N   UNL     1      -8.426  14.891  67.072  1.00  0.00    -0.225 N  
HETATM    5  O   UNL     1     -10.914  11.734  66.970  1.00  0.00    -0.254 OA 
HETATM    6  C   UNL     1      -7.962  13.643  67.473  1.00  0.00    -0.182 C  
HETATM    7  O   UNL     1      -6.828  13.422  67.893  1.00  0.00    -0.109 OA 
HETATM    8  H   UNL     1      -8.530  11.687  67.646  1.00  0.00     0.000 HD 
HETATM    9  N   UNL     1      -8.866  12.615  67.388  1.00  0.00    -0.180 N  
HETATM   10  C   UNL     1     -10.168  12.709  66.995  1.00  0.00    -0.226 C  
ENDROOT
BRANCH   4  11
HETATM   11  C   UNL     1      -7.533  16.033  67.264  1.00  0.00    -0.201 C  
HETATM   12  O   UNL     1      -7.842  16.743  68.487  1.00  0.00    -0.206 OA 
HETATM   13  C   UNL     1      -8.154  18.207  66.714  1.00  0.00    -0.266 C  
HETATM   14  C   UNL     1      -8.488  17.991  68.144  1.00  0.00    -0.269 C  
HETATM   15  C   UNL     1      -7.663  17.077  66.206  1.00  0.00    -0.346 C  
BRANCH  14  16
HETATM   16  C   UNL     1     -10.012  17.898  68.356  1.00  0.00    -0.367 C  
HETATM   17  O   UNL     1     -10.750  18.326  67.212  1.00  0.00    -0.404 OA 
HETATM   18  H   UNL     1     -11.690  18.269  67.342  1.00  0.00     0.000 HD 
ENDBRANCH  14  16
ENDBRANCH   4  11
TORSDOF 2
ENDMDL
MODEL      123
REMARK 921   NORMALIZED FREE ENERGY PREDICTED BY IDOCK:   -3.47 KCAL/MOL
REMARK 922        TOTAL FREE ENERGY PREDICTED BY IDOCK:   -4.22 KCAL/MOL
REMARK 923 INTER-LIGAND FREE ENERGY PREDICTED BY IDOCK:   -3.93 KCAL/MOL
REMARK 924 INTRA-LIGAND FREE ENERGY PREDICTED BY IDOCK:   -0.29 KCAL/MOL
REMARK 927      BINDING AFFINITY PREDICTED BY RF-SCORE:    0.00 PKD
ROOT
HETATM    1  C   UNL     1     -13.013   6.978  71.786  1.00  0.00    -0.356 C  
HETATM    2  C   UNL     1     -11.782   6.319  71.255  1.00  0.00    -0.300 C  
HETATM    3  C   UNL     1     -11.372   6.400  69.984  1.00  0.00    -0.430 C  
HETATM    4  N   UNL     1     -10.238   5.765  69.505  1.00  0.00    -0.215 N  
HETATM    5  O   UNL     1     -11.241   5.435  73.385  1.00  0.00    -0.294 OA 
HETATM    6  C   UNL     1      -9.406   5.060  70.369  1.00  0.00    -0.158 C  
HETATM    7  O   UNL     1      -8.343   4.535  70.041  1.00  0.00    -0.066 OA 
HETATM    8  H   UNL     1      -9.247   4.434  72.308  1.00  0.00     0.000 HD 
HETATM    9  N   UNL     1      -9.829   4.977  71.671  1.00  0.00    -0.173 N  
HETATM   10  C   UNL     1     -10.951   5.546  72.198  1.00  0.00    -0.231 C  
ENDROOT
BRANCH   4  11
HETATM   11  C   UNL     1      -9.761   5.981  68.140  1.00  0.00    -0.127 C  
HETATM   12  O   UNL     1      -8.773   7.038  68.090  1.00  0.00    -0.127 OA 
HETATM   13  C   UNL     1     -10.581   7.690  66.790  1.00  0.00    -0.256 C  
HETATM   14  C   UNL     1      -9.379   8.207  67.490  1.00  0.00    -0.140 C  
HETATM   15  C   UNL     1     -10.824   6.446  67.203  1.00  0.00    -0.467 C  
BRANCH  14  16
HETATM   16  C   UNL     1      -9.758   9.242  68.567  1.00  0.00    -0.150 C  
HETATM   17  O   UNL     1     -11.124   9.649  68.477  1.00  0.00    -0.440 OA 
HETATM   18  H   UNL     1     -11.359  10.287  69.140  1.00  0.00     0.000 HD 
ENDBRANCH  14  16
ENDBRANCH   4  11
TORSDOF 2
ENDMDL
MODEL      124
REMARK 921   NORMALIZED FREE ENERGY PREDICTED BY IDOCK:   -3.47 KCAL/MOL
REMARK 922        TOTAL FREE ENERGY PREDICTED BY IDOCK:   -4.22 KCAL/MOL
REMARK 923 INTER-LIGAND FREE ENERGY PREDICTED BY IDOCK:   -4.00 KCAL/MOL
REMARK 924 INTRA-LIGAND FREE ENERGY PREDICTED BY IDOCK:   -0.22 KCAL/MOL
REMARK 927      BINDING AFFINITY PREDICTED BY RF-SCORE:    0.00 PKD
ROOT
HETATM    1  C   UNL     1     -11.044  10.554  67.811  1.00  0.00    -0.382 C  
HETATM    2  C   UNL     1     -10.171   9.942  66.764  1.00  0.00    -0.301 C  
HETATM    3  C   UNL     1      -9.436   8.840  66.946  1.00  0.00    -0.177 C  
HETATM    4  N   UNL     1      -8.616   8.299  65.968  1.00  0.00    -0.140 N  
HETATM    5  O   UNL     1     -10.793  11.585  65.174  1.00  0.00    -0.291 OA 
HETATM    6  C   UNL     1      -8.584   8.847  64.691  1.00  0.00    -0.143 C  
HETATM    7  O   UNL     1      -7.946   8.382  63.748  1.00  0.00    -0.148 OA 
HETATM    8  H   UNL     1      -9.297  10.412  63.585  1.00  0.00     0.000 HD 
HETATM    9  N   UNL     1      -9.338   9.978  64.508  1.00  0.00    -0.268 N  
HETATM   10  C   UNL     1     -10.135  10.582  65.435  1.00  0.00    -0.291 C  
ENDROOT
BRANCH   4  11
HETATM   11  C   UNL     1      -7.927   7.026  66.171  1.00  0.00    -0.110 C  
HETATM   12  O   UNL     1      -8.571   5.956  65.439  1.00  0.00    -0.152 OA 
HETATM   13  C   UNL     1      -8.669   5.435  67.698  1.00  0.00    -0.106 C  
HETATM   14  C   UNL     1      -9.273   5.111  66.381  1.00  0.00    -0.141 C  
HETATM   15  C   UNL     1      -7.951   6.551  67.585  1.00  0.00    -0.114 C  
BRANCH  14  16
HETATM   16  C   UNL     1     -10.784   5.410  66.368  1.00  0.00    -0.217 C  
HETATM   17  O   UNL     1     -11.490   4.618  65.412  1.00  0.00    -1.018 OA 
HETATM   18  H   UNL     1     -12.422   4.802  65.404  1.00  0.00     0.000 HD 
ENDBRANCH  14  16
ENDBRANCH   4  11
TORSDOF 2
ENDMDL
MODEL      125
REMARK 921   NORMALIZED FREE ENERGY PREDICTED BY IDOCK:   -3.43 KCAL/MOL
REMARK 922        TOTAL FREE ENERGY PREDICTED BY IDOCK:   -4.18 KCAL/MOL
REMARK 923 INTER-LIGAND FREE ENERGY PREDICTED BY IDOCK:   -3.94 KCAL/MOL
REMARK 924 INTRA-LIGAND FREE ENERGY PREDICTED BY IDOCK:   -0.23 KCAL/MOL
REMARK 927      BINDING AFFINITY PREDICTED BY RF-SCORE:    0.00 PKD
ROOT
HETATM    1  C   UNL     1     -11.576  11.697  68.427  1.00  0.00    -0.376 C  
HETATM    2  C   UNL     1     -11.547  10.640  69.483  1.00  0.00    -0.360 C  
HETATM    3  C   UNL     1     -10.885   9.483  69.373  1.00  0.00    -0.206 C  
HETATM    4  N   UNL     1     -10.887   8.507  70.357  1.00  0.00    -0.232 N  
HETATM    5  O   UNL     1     -12.897  11.941  70.931  1.00  0.00    -0.248 OA 
HETATM    6  C   UNL     1     -11.530   8.727  71.570  1.00  0.00    -0.305 C  
HETATM    7  O   UNL     1     -11.514   7.947  72.521  1.00  0.00    -0.348 OA 
HETATM    8  H   UNL     1     -12.715  10.074  72.550  1.00  0.00     0.000 HD 
HETATM    9  N   UNL     1     -12.210   9.913  71.678  1.00  0.00    -0.401 N  
HETATM   10  C   UNL     1     -12.279  10.899  70.738  1.00  0.00    -0.383 C  
ENDROOT
BRANCH   4  11
HETATM   11  C   UNL     1     -10.051   7.313  70.247  1.00  0.00    -0.192 C  
HETATM   12  O   UNL     1      -8.873   7.417  71.081  1.00  0.00    -0.140 OA 
HETATM   13  C   UNL     1      -8.171   7.230  68.878  1.00  0.00    -0.125 C  
HETATM   14  C   UNL     1      -7.724   7.644  70.231  1.00  0.00    -0.091 C  
HETATM   15  C   UNL     1      -9.497   7.095  68.879  1.00  0.00    -0.142 C  
BRANCH  14  16
HETATM   16  C   UNL     1      -7.309   9.128  70.254  1.00  0.00    -0.090 C  
HETATM   17  O   UNL     1      -6.742   9.518  71.506  1.00  0.00    -0.304 OA 
HETATM   18  H   UNL     1      -6.486  10.432  71.520  1.00  0.00     0.000 HD 
ENDBRANCH  14  16
ENDBRANCH   4  11
TORSDOF 2
ENDMDL
MODEL      126
REMARK 921   NORMALIZED FREE ENERGY PREDICTED BY IDOCK:   -3.42 KCAL/MOL
REMARK 922        TOTAL FREE ENERGY PREDICTED BY IDOCK:   -4.17 KCAL/MOL
REMARK 923 INTER-LIGAND FREE ENERGY PREDICTED BY IDOCK:   -4.05 KCAL/MOL
REMARK 924 INTRA-LIGAND FREE ENERGY PREDICTED BY IDOCK:   -0.12 KCAL/MOL
REMARK 927      BINDING AFFINITY PREDICTED BY RF-SCORE:    0.00 PKD
ROOT
HETATM    1  C   UNL     1     -10.614   8.208  69.722  1.00  0.00    -0.231 C  
HETATM    2  C   UNL     1     -10.479   8.814  68.363  1.00  0.00    -0.220 C  
HETATM    3  C   UNL     1     -10.916  10.035  68.036  1.00  0.00    -0.240 C  
HETATM    4  N   UNL     1     -10.799  10.572  66.763  1.00  0.00    -0.190 N  
HETATM    5  O   UNL     1      -9.352   6.901  67.536  1.00  0.00    -0.122 OA 
HETATM    6  C   UNL     1     -10.131   9.876  65.762  1.00  0.00    -0.247 C  
HETATM    7  O   UNL     1      -9.917  10.313  64.632  1.00  0.00    -0.336 OA 
HETATM    8  H   UNL     1      -9.225   8.087  65.365  1.00  0.00     0.000 HD 
HETATM    9  N   UNL     1      -9.687   8.623  66.099  1.00  0.00    -0.248 N  
HETATM   10  C   UNL     1      -9.800   8.023  67.318  1.00  0.00    -0.197 C  
ENDROOT
BRANCH   4  11
HETATM   11  C   UNL     1     -11.179  11.955  66.482  1.00  0.00    -0.327 C  
HETATM   12  O   UNL     1     -10.036  12.739  66.064  1.00  0.00    -0.260 OA 
HETATM   13  C   UNL     1     -10.864  13.672  68.021  1.00  0.00    -0.261 C  
HETATM   14  C   UNL     1      -9.666  13.627  67.146  1.00  0.00    -0.245 C  
HETATM   15  C   UNL     1     -11.693  12.688  67.675  1.00  0.00    -0.420 C  
BRANCH  14  16
HETATM   16  C   UNL     1      -8.437  13.087  67.903  1.00  0.00    -0.185 C  
HETATM   17  O   UNL     1      -8.102  13.884  69.039  1.00  0.00    -0.322 OA 
HETATM   18  H   UNL     1      -7.345  13.551  69.506  1.00  0.00     0.000 HD 
ENDBRANCH  14  16
ENDBRANCH   4  11
TORSDOF 2
ENDMDL
MODEL      127
REMARK 921   NORMALIZED FREE ENERGY PREDICTED BY IDOCK:   -3.39 KCAL/MOL
REMARK 922        TOTAL FREE ENERGY PREDICTED BY IDOCK:   -4.13 KCAL/MOL
REMARK 923 INTER-LIGAND FREE ENERGY PREDICTED BY IDOCK:   -3.91 KCAL/MOL
REMARK 924 INTRA-LIGAND FREE ENERGY PREDICTED BY IDOCK:   -0.21 KCAL/MOL
REMARK 927      BINDING AFFINITY PREDICTED BY RF-SCORE:    0.00 PKD
ROOT
HETATM    1  C   UNL     1      -8.821   3.892  69.124  1.00  0.00    -0.151 C  
HETATM    2  C   UNL     1      -9.838   4.823  69.700  1.00  0.00    -0.292 C  
HETATM    3  C   UNL     1     -10.182   4.856  70.992  1.00  0.00    -0.192 C  
HETATM    4  N   UNL     1     -11.143   5.714  71.504  1.00  0.00    -0.213 N  
HETATM    5  O   UNL     1     -10.220   5.835  67.592  1.00  0.00    -0.158 OA 
HETATM    6  C   UNL     1     -11.751   6.661  70.687  1.00  0.00    -0.394 C  
HETATM    7  O   UNL     1     -12.553   7.508  71.078  1.00  0.00    -0.281 OA 
HETATM    8  H   UNL     1     -11.862   7.289  68.745  1.00  0.00     0.000 HD 
HETATM    9  N   UNL     1     -11.398   6.623  69.363  1.00  0.00    -0.299 N  
HETATM   10  C   UNL     1     -10.490   5.783  68.789  1.00  0.00    -0.242 C  
ENDROOT
BRANCH   4  11
HETATM   11  C   UNL     1     -11.398   5.802  72.941  1.00  0.00    -0.252 C  
HETATM   12  O   UNL     1     -10.864   7.027  73.496  1.00  0.00    -0.341 OA 
HETATM   13  C   UNL     1      -9.790   5.249  74.529  1.00  0.00    -0.223 C  
HETATM   14  C   UNL     1      -9.685   6.707  74.270  1.00  0.00    -0.302 C  
HETATM   15  C   UNL     1     -10.726   4.732  73.734  1.00  0.00    -0.359 C  
BRANCH  14  16
HETATM   16  C   UNL     1      -8.403   7.046  73.485  1.00  0.00    -0.117 C  
HETATM   17  O   UNL     1      -7.248   7.099  74.321  1.00  0.00    -0.094 OA 
HETATM   18  H   UNL     1      -6.457   7.308  73.837  1.00  0.00     0.000 HD 
ENDBRANCH  14  16
ENDBRANCH   4  11
TORSDOF 2
ENDMDL
MODEL      128
REMARK 921   NORMALIZED FREE ENERGY PREDICTED BY IDOCK:   -3.38 KCAL/MOL
REMARK 922        TOTAL FREE ENERGY PREDICTED BY IDOCK:   -4.12 KCAL/MOL
REMARK 923 INTER-LIGAND FREE ENERGY PREDICTED BY IDOCK:   -3.76 KCAL/MOL
REMARK 924 INTRA-LIGAND FREE ENERGY PREDICTED BY IDOCK:   -0.36 KCAL/MOL
REMARK 927      BINDING AFFINITY PREDICTED BY RF-SCORE:    0.00 PKD
ROOT
HETATM    1  C   UNL     1     -12.027  11.601  69.100  1.00  0.00    -0.378 C  
HETATM    2  C   UNL     1     -11.040  11.043  68.127  1.00  0.00    -0.329 C  
HETATM    3  C   UNL     1     -10.044  10.214  68.455  1.00  0.00    -0.169 C  
HETATM    4  N   UNL     1      -9.126   9.723  67.540  1.00  0.00    -0.131 N  
HETATM    5  O   UNL     1     -12.084  12.155  66.314  1.00  0.00    -0.626 OA 
HETATM    6  C   UNL     1      -9.253  10.015  66.187  1.00  0.00    -0.165 C  
HETATM    7  O   UNL     1      -8.530   9.558  65.303  1.00  0.00    -0.133 OA 
HETATM    8  H   UNL     1     -10.359  11.119  64.868  1.00  0.00     0.000 HD 
HETATM    9  N   UNL     1     -10.274  10.868  65.853  1.00  0.00    -0.250 N  
HETATM   10  C   UNL     1     -11.188  11.414  66.706  1.00  0.00    -0.252 C  
ENDROOT
BRANCH   4  11
HETATM   11  C   UNL     1      -8.130   8.723  67.921  1.00  0.00    -0.107 C  
HETATM   12  O   UNL     1      -8.572   7.386  67.584  1.00  0.00    -0.119 OA 
HETATM   13  C   UNL     1      -8.293   7.487  69.885  1.00  0.00    -0.133 C  
HETATM   14  C   UNL     1      -8.940   6.701  68.805  1.00  0.00    -0.125 C  
HETATM   15  C   UNL     1      -7.884   8.654  69.391  1.00  0.00    -0.096 C  
BRANCH  14  16
HETATM   16  C   UNL     1     -10.471   6.667  68.975  1.00  0.00    -0.214 C  
HETATM   17  O   UNL     1     -11.162   6.888  67.745  1.00  0.00    -0.534 OA 
HETATM   18  H   UNL     1     -12.106   6.867  67.850  1.00  0.00     0.000 HD 
ENDBRANCH  14  16
ENDBRANCH   4  11
TORSDOF 2
ENDMDL
MODEL      129
REMARK 921   NORMALIZED FREE ENERGY PREDICTED BY IDOCK:   -3.30 KCAL/MOL
REMARK 922        TOTAL FREE ENERGY PREDICTED BY IDOCK:   -4.03 KCAL/MOL
REMARK 923 INTER-LIGAND FREE ENERGY PREDICTED BY IDOCK:   -4.91 KCAL/MOL
REMARK 924 INTRA-LIGAND FREE ENERGY PREDICTED BY IDOCK:    0.88 KCAL/MOL
REMARK 927      BINDING AFFINITY PREDICTED BY RF-SCORE:    0.00 PKD
ROOT
HETATM    1  C   UNL     1     -11.797  13.947  67.303  1.00  0.00    -0.442 C  
HETATM    2  C   UNL     1     -11.250  15.251  67.785  1.00  0.00    -0.327 C  
HETATM    3  C   UNL     1     -10.619  16.137  67.007  1.00  0.00    -0.292 C  
HETATM    4  N   UNL     1     -10.102  17.334  67.477  1.00  0.00    -0.304 N  
HETATM    5  O   UNL     1     -12.022  14.849  69.989  1.00  0.00    -0.291 OA 
HETATM    6  C   UNL     1     -10.292  17.714  68.801  1.00  0.00    -0.348 C  
HETATM    7  O   UNL     1      -9.934  18.790  69.277  1.00  0.00    -0.294 OA 
HETATM    8  H   UNL     1     -11.054  17.053  70.579  1.00  0.00     0.000 HD 
HETATM    9  N   UNL     1     -10.937  16.802  69.597  1.00  0.00    -0.226 N  
HETATM   10  C   UNL     1     -11.438  15.595  69.208  1.00  0.00    -0.362 C  
ENDROOT
BRANCH   4  11
HETATM   11  C   UNL     1      -9.530  18.326  66.568  1.00  0.00    -0.310 C  
HETATM   12  O   UNL     1      -8.512  17.739  65.722  1.00  0.00    -0.519 OA 
HETATM   13  C   UNL     1      -7.509  19.394  67.002  1.00  0.00    -0.242 C  
HETATM   14  C   UNL     1      -7.216  18.196  66.175  1.00  0.00    -0.281 C  
HETATM   15  C   UNL     1      -8.814  19.433  67.266  1.00  0.00    -0.342 C  
BRANCH  14  16
HETATM   16  C   UNL     1      -6.507  17.105  67.001  1.00  0.00    -0.190 C  
HETATM   17  O   UNL     1      -5.600  17.648  67.960  1.00  0.00    -0.143 OA 
HETATM   18  H   UNL     1      -5.162  16.976  68.468  1.00  0.00     0.000 HD 
ENDBRANCH  14  16
ENDBRANCH   4  11
TORSDOF 2
ENDMDL
MODEL      130
REMARK 921   NORMALIZED FREE ENERGY PREDICTED BY IDOCK:   -3.29 KCAL/MOL
REMARK 922        TOTAL FREE ENERGY PREDICTED BY IDOCK:   -4.02 KCAL/MOL
REMARK 923 INTER-LIGAND FREE ENERGY PREDICTED BY IDOCK:   -4.40 KCAL/MOL
REMARK 924 INTRA-LIGAND FREE ENERGY PREDICTED BY IDOCK:    0.39 KCAL/MOL
REMARK 927      BINDING AFFINITY PREDICTED BY RF-SCORE:    0.00 PKD
ROOT
HETATM    1  C   UNL     1     -10.145  10.542  65.808  1.00  0.00    -0.329 C  
HETATM    2  C   UNL     1     -10.674  11.365  66.937  1.00  0.00    -0.308 C  
HETATM    3  C   UNL     1     -10.845  12.691  66.887  1.00  0.00    -0.254 C  
HETATM    4  N   UNL     1     -11.318  13.440  67.953  1.00  0.00    -0.274 N  
HETATM    5  O   UNL     1     -10.946   9.452  68.308  1.00  0.00    -0.152 OA 
HETATM    6  C   UNL     1     -11.724  12.818  69.128  1.00  0.00    -0.322 C  
HETATM    7  O   UNL     1     -12.226  13.400  70.089  1.00  0.00    -0.331 OA 
HETATM    8  H   UNL     1     -11.806  10.994  70.046  1.00  0.00     0.000 HD 
HETATM    9  N   UNL     1     -11.545  11.459  69.178  1.00  0.00    -0.283 N  
HETATM   10  C   UNL     1     -11.053  10.668  68.182  1.00  0.00    -0.285 C  
ENDROOT
BRANCH   4  11
HETATM   11  C   UNL     1     -11.605  14.867  67.813  1.00  0.00    -0.339 C  
HETATM   12  O   UNL     1     -10.782  15.471  66.787  1.00  0.00    -0.303 OA 
HETATM   13  C   UNL     1     -10.284  16.507  68.803  1.00  0.00    -0.267 C  
HETATM   14  C   UNL     1      -9.772  16.286  67.427  1.00  0.00    -0.234 C  
HETATM   15  C   UNL     1     -11.289  15.662  69.034  1.00  0.00    -0.332 C  
BRANCH  14  16
HETATM   16  C   UNL     1      -8.412  15.562  67.445  1.00  0.00    -0.180 C  
HETATM   17  O   UNL     1      -7.461  16.163  66.566  1.00  0.00    -0.211 OA 
HETATM   18  H   UNL     1      -6.623  15.717  66.576  1.00  0.00     0.000 HD 
ENDBRANCH  14  16
ENDBRANCH   4  11
TORSDOF 2
ENDMDL
MODEL      131
REMARK 921   NORMALIZED FREE ENERGY PREDICTED BY IDOCK:   -3.27 KCAL/MOL
REMARK 922        TOTAL FREE ENERGY PREDICTED BY IDOCK:   -3.99 KCAL/MOL
REMARK 923 INTER-LIGAND FREE ENERGY PREDICTED BY IDOCK:   -3.98 KCAL/MOL
REMARK 924 INTRA-LIGAND FREE ENERGY PREDICTED BY IDOCK:   -0.02 KCAL/MOL
REMARK 927      BINDING AFFINITY PREDICTED BY RF-SCORE:    0.00 PKD
ROOT
HETATM    1  C   UNL     1     -10.136  15.419  65.545  1.00  0.00    -0.405 C  
HETATM    2  C   UNL     1     -10.613  14.810  66.823  1.00  0.00    -0.302 C  
HETATM    3  C   UNL     1     -10.535  13.506  67.111  1.00  0.00    -0.256 C  
HETATM    4  N   UNL     1     -11.002  12.957  68.295  1.00  0.00    -0.244 N  
HETATM    5  O   UNL     1     -11.282  16.919  67.669  1.00  0.00    -0.150 OA 
HETATM    6  C   UNL     1     -11.515  13.772  69.298  1.00  0.00    -0.293 C  
HETATM    7  O   UNL     1     -11.877  13.375  70.404  1.00  0.00    -0.297 OA 
HETATM    8  H   UNL     1     -12.001  15.714  69.711  1.00  0.00     0.000 HD 
HETATM    9  N   UNL     1     -11.596  15.108  68.998  1.00  0.00    -0.311 N  
HETATM   10  C   UNL     1     -11.189  15.707  67.843  1.00  0.00    -0.328 C  
ENDROOT
BRANCH   4  11
HETATM   11  C   UNL     1     -10.785  11.548  68.620  1.00  0.00    -0.207 C  
HETATM   12  O   UNL     1      -9.388  11.280  68.889  1.00  0.00    -0.163 OA 
HETATM   13  C   UNL     1     -10.016  10.012  67.050  1.00  0.00    -0.257 C  
HETATM   14  C   UNL     1      -8.835  10.551  67.768  1.00  0.00    -0.125 C  
HETATM   15  C   UNL     1     -11.114  10.619  67.500  1.00  0.00    -0.367 C  
BRANCH  14  16
HETATM   16  C   UNL     1      -8.006  11.483  66.862  1.00  0.00    -0.164 C  
HETATM   17  O   UNL     1      -7.182  12.380  67.608  1.00  0.00    -0.106 OA 
HETATM   18  H   UNL     1      -6.671  12.954  67.050  1.00  0.00     0.000 HD 
ENDBRANCH  14  16
ENDBRANCH   4  11
TORSDOF 2
ENDMDL
MODEL      132
REMARK 921   NORMALIZED FREE ENERGY PREDICTED BY IDOCK:   -3.23 KCAL/MOL
REMARK 922        TOTAL FREE ENERGY PREDICTED BY IDOCK:   -3.95 KCAL/MOL
REMARK 923 INTER-LIGAND FREE ENERGY PREDICTED BY IDOCK:   -5.12 KCAL/MOL
REMARK 924 INTRA-LIGAND FREE ENERGY PREDICTED BY IDOCK:    1.17 KCAL/MOL
REMARK 927      BINDING AFFINITY PREDICTED BY RF-SCORE:    0.00 PKD
ROOT
HETATM    1  C   UNL     1     -12.965  10.690  71.754  1.00  0.00    -0.577 C  
HETATM    2  C   UNL     1     -12.732  11.984  71.045  1.00  0.00    -0.337 C  
HETATM    3  C   UNL     1     -12.247  12.086  69.803  1.00  0.00    -0.159 C  
HETATM    4  N   UNL     1     -12.019  13.298  69.170  1.00  0.00    -0.312 N  
HETATM    5  O   UNL     1     -13.548  13.229  72.888  1.00  0.00    -0.565 OA 
HETATM    6  C   UNL     1     -12.370  14.494  69.786  1.00  0.00    -0.272 C  
HETATM    7  O   UNL     1     -12.273  15.603  69.263  1.00  0.00    -0.303 OA 
HETATM    8  H   UNL     1     -13.095  15.257  71.538  1.00  0.00     0.000 HD 
HETATM    9  N   UNL     1     -12.865  14.386  71.060  1.00  0.00    -0.338 N  
HETATM   10  C   UNL     1     -13.080  13.231  71.753  1.00  0.00    -0.379 C  
ENDROOT
BRANCH   4  11
HETATM   11  C   UNL     1     -11.604  13.359  67.769  1.00  0.00    -0.340 C  
HETATM   12  O   UNL     1     -10.178  13.158  67.633  1.00  0.00    -0.218 OA 
HETATM   13  C   UNL     1     -10.680  15.275  66.826  1.00  0.00    -0.313 C  
HETATM   14  C   UNL     1      -9.562  14.427  67.312  1.00  0.00    -0.227 C  
HETATM   15  C   UNL     1     -11.836  14.689  67.135  1.00  0.00    -0.367 C  
BRANCH  14  16
HETATM   16  C   UNL     1      -8.892  15.043  68.556  1.00  0.00    -0.181 C  
HETATM   17  O   UNL     1      -9.557  16.223  69.008  1.00  0.00    -0.237 OA 
HETATM   18  H   UNL     1      -9.144  16.602  69.774  1.00  0.00     0.000 HD 
ENDBRANCH  14  16
ENDBRANCH   4  11
TORSDOF 2
ENDMDL
MODEL      133
REMARK 921   NORMALIZED FREE ENERGY PREDICTED BY IDOCK:   -3.23 KCAL/MOL
REMARK 922        TOTAL FREE ENERGY PREDICTED BY IDOCK:   -3.95 KCAL/MOL
REMARK 923 INTER-LIGAND FREE ENERGY PREDICTED BY IDOCK:   -3.69 KCAL/MOL
REMARK 924 INTRA-LIGAND FREE ENERGY PREDICTED BY IDOCK:   -0.27 KCAL/MOL
REMARK 927      BINDING AFFINITY PREDICTED BY RF-SCORE:    0.00 PKD
ROOT
HETATM    1  C   UNL     1      -6.979   9.553  68.748  1.00  0.00    -0.067 C  
HETATM    2  C   UNL     1      -8.139   8.710  68.327  1.00  0.00    -0.118 C  
HETATM    3  C   UNL     1      -8.581   7.645  69.004  1.00  0.00    -0.136 C  
HETATM    4  N   UNL     1      -9.647   6.863  68.586  1.00  0.00    -0.133 N  
HETATM    5  O   UNL     1      -8.530  10.064  66.422  1.00  0.00    -0.127 OA 
HETATM    6  C   UNL     1     -10.375   7.210  67.453  1.00  0.00    -0.254 C  
HETATM    7  O   UNL     1     -11.378   6.617  67.059  1.00  0.00    -0.348 OA 
HETATM    8  H   UNL     1     -10.420   8.547  65.907  1.00  0.00     0.000 HD 
HETATM    9  N   UNL     1      -9.917   8.301  66.759  1.00  0.00    -0.261 N  
HETATM   10  C   UNL     1      -8.857   9.090  67.095  1.00  0.00    -0.119 C  
ENDROOT
BRANCH   4  11
HETATM   11  C   UNL     1     -10.173   5.784  69.419  1.00  0.00    -0.234 C  
HETATM   12  O   UNL     1     -11.523   6.069  69.856  1.00  0.00    -0.388 OA 
HETATM   13  C   UNL     1     -10.185   5.896  71.743  1.00  0.00    -0.248 C  
HETATM   14  C   UNL     1     -11.490   6.412  71.261  1.00  0.00    -0.314 C  
HETATM   15  C   UNL     1      -9.422   5.592  70.693  1.00  0.00    -0.209 C  
BRANCH  14  16
HETATM   16  C   UNL     1     -11.597   7.937  71.457  1.00  0.00    -0.270 C  
HETATM   17  O   UNL     1     -12.067   8.606  70.287  1.00  0.00    -0.462 OA 
HETATM   18  H   UNL     1     -12.133   9.546  70.407  1.00  0.00     0.000 HD 
ENDBRANCH  14  16
ENDBRANCH   4  11
TORSDOF 2
ENDMDL
MODEL      134
REMARK 921   NORMALIZED FREE ENERGY PREDICTED BY IDOCK:   -3.21 KCAL/MOL
REMARK 922        TOTAL FREE ENERGY PREDICTED BY IDOCK:   -3.93 KCAL/MOL
REMARK 923 INTER-LIGAND FREE ENERGY PREDICTED BY IDOCK:   -3.98 KCAL/MOL
REMARK 924 INTRA-LIGAND FREE ENERGY PREDICTED BY IDOCK:    0.05 KCAL/MOL
REMARK 927      BINDING AFFINITY PREDICTED BY RF-SCORE:    0.00 PKD
ROOT
HETATM    1  C   UNL     1     -10.076  10.819  63.597  1.00  0.00    -0.375 C  
HETATM    2  C   UNL     1     -10.354  11.016  65.052  1.00  0.00    -0.360 C  
HETATM    3  C   UNL     1      -9.851  10.251  66.026  1.00  0.00    -0.233 C  
HETATM    4  N   UNL     1     -10.137  10.438  67.369  1.00  0.00    -0.187 N  
HETATM    5  O   UNL     1     -11.713  12.907  64.614  1.00  0.00    -0.327 OA 
HETATM    6  C   UNL     1     -10.919  11.512  67.781  1.00  0.00    -0.236 C  
HETATM    7  O   UNL     1     -11.155  11.793  68.955  1.00  0.00    -0.223 OA 
HETATM    8  H   UNL     1     -12.039  13.064  67.066  1.00  0.00     0.000 HD 
HETATM    9  N   UNL     1     -11.436  12.294  66.780  1.00  0.00    -0.345 N  
HETATM   10  C   UNL     1     -11.224  12.143  65.441  1.00  0.00    -0.333 C  
ENDROOT
BRANCH   4  11
HETATM   11  C   UNL     1      -9.468   9.656  68.407  1.00  0.00    -0.137 C  
HETATM   12  O   UNL     1      -8.393   8.860  67.855  1.00  0.00    -0.116 OA 
HETATM   13  C   UNL     1      -9.951   7.411  68.782  1.00  0.00    -0.171 C  
HETATM   14  C   UNL     1      -8.810   7.474  67.834  1.00  0.00    -0.126 C  
HETATM   15  C   UNL     1     -10.354   8.650  69.061  1.00  0.00    -0.226 C  
BRANCH  14  16
HETATM   16  C   UNL     1      -9.236   7.050  66.415  1.00  0.00    -0.149 C  
HETATM   17  O   UNL     1     -10.441   6.285  66.412  1.00  0.00    -0.432 OA 
HETATM   18  H   UNL     1     -10.704   6.023  65.537  1.00  0.00     0.000 HD 
ENDBRANCH  14  16
ENDBRANCH   4  11
TORSDOF 2
ENDMDL
MODEL      135
REMARK 921   NORMALIZED FREE ENERGY PREDICTED BY IDOCK:   -3.20 KCAL/MOL
REMARK 922        TOTAL FREE ENERGY PREDICTED BY IDOCK:   -3.91 KCAL/MOL
REMARK 923 INTER-LIGAND FREE ENERGY PREDICTED BY IDOCK:   -4.15 KCAL/MOL
REMARK 924 INTRA-LIGAND FREE ENERGY PREDICTED BY IDOCK:    0.23 KCAL/MOL
REMARK 927      BINDING AFFINITY PREDICTED BY RF-SCORE:    0.00 PKD
ROOT
HETATM    1  C   UNL     1     -12.323  12.110  70.093  1.00  0.00    -0.219 C  
HETATM    2  C   UNL     1     -11.657  12.610  68.852  1.00  0.00    -0.363 C  
HETATM    3  C   UNL     1     -10.951  11.843  68.015  1.00  0.00    -0.224 C  
HETATM    4  N   UNL     1     -10.323  12.330  66.879  1.00  0.00    -0.216 N  
HETATM    5  O   UNL     1     -12.452  14.811  69.220  1.00  0.00    -0.158 OA 
HETATM    6  C   UNL     1     -10.471  13.662  66.507  1.00  0.00    -0.281 C  
HETATM    7  O   UNL     1     -10.013  14.153  65.476  1.00  0.00    -0.327 OA 
HETATM    8  H   UNL     1     -11.282  15.433  67.126  1.00  0.00     0.000 HD 
HETATM    9  N   UNL     1     -11.194  14.446  67.369  1.00  0.00    -0.311 N  
HETATM   10  C   UNL     1     -11.805  14.040  68.518  1.00  0.00    -0.364 C  
ENDROOT
BRANCH   4  11
HETATM   11  C   UNL     1      -9.666  11.435  65.928  1.00  0.00    -0.227 C  
HETATM   12  O   UNL     1     -10.406  10.201  65.770  1.00  0.00    -0.234 OA 
HETATM   13  C   UNL     1      -8.308   9.672  66.608  1.00  0.00    -0.123 C  
HETATM   14  C   UNL     1      -9.685   9.142  66.442  1.00  0.00    -0.262 C  
HETATM   15  C   UNL     1      -8.315  10.983  66.368  1.00  0.00    -0.165 C  
BRANCH  14  16
HETATM   16  C   UNL     1     -10.329   8.816  67.803  1.00  0.00    -0.237 C  
HETATM   17  O   UNL     1     -11.258   7.735  67.724  1.00  0.00    -0.435 OA 
HETATM   18  H   UNL     1     -11.655   7.534  68.563  1.00  0.00     0.000 HD 
ENDBRANCH  14  16
ENDBRANCH   4  11
TORSDOF 2
ENDMDL
MODEL      136
REMARK 921   NORMALIZED FREE ENERGY PREDICTED BY IDOCK:   -3.15 KCAL/MOL
REMARK 922        TOTAL FREE ENERGY PREDICTED BY IDOCK:   -3.86 KCAL/MOL
REMARK 923 INTER-LIGAND FREE ENERGY PREDICTED BY IDOCK:   -4.07 KCAL/MOL
REMARK 924 INTRA-LIGAND FREE ENERGY PREDICTED BY IDOCK:    0.21 KCAL/MOL
REMARK 927      BINDING AFFINITY PREDICTED BY RF-SCORE:    0.00 PKD
ROOT
HETATM    1  C   UNL     1      -9.531  14.871  66.217  1.00  0.00    -0.339 C  
HETATM    2  C   UNL     1     -10.299  13.774  66.879  1.00  0.00    -0.266 C  
HETATM    3  C   UNL     1     -10.171  12.477  66.579  1.00  0.00    -0.240 C  
HETATM    4  N   UNL     1     -10.907  11.475  67.191  1.00  0.00    -0.253 N  
HETATM    5  O   UNL     1     -11.413  15.307  68.301  1.00  0.00    -0.323 OA 
HETATM    6  C   UNL     1     -11.780  11.776  68.231  1.00  0.00    -0.310 C  
HETATM    7  O   UNL     1     -12.411  10.940  68.877  1.00  0.00    -0.486 OA 
HETATM    8  H   UNL     1     -12.575  13.345  69.272  1.00  0.00     0.000 HD 
HETATM    9  N   UNL     1     -11.912  13.107  68.535  1.00  0.00    -0.331 N  
HETATM   10  C   UNL     1     -11.246  14.143  67.949  1.00  0.00    -0.279 C  
ENDROOT
BRANCH   4  11
HETATM   11  C   UNL     1     -10.646  10.063  66.920  1.00  0.00    -0.192 C  
HETATM   12  O   UNL     1     -10.669   9.281  68.137  1.00  0.00    -0.213 OA 
HETATM   13  C   UNL     1      -8.547   9.104  67.216  1.00  0.00    -0.118 C  
HETATM   14  C   UNL     1      -9.310   8.913  68.474  1.00  0.00    -0.140 C  
HETATM   15  C   UNL     1      -9.289   9.803  66.358  1.00  0.00    -0.218 C  
BRANCH  14  16
HETATM   16  C   UNL     1      -8.764   9.807  69.604  1.00  0.00    -0.199 C  
HETATM   17  O   UNL     1      -8.368   9.056  70.752  1.00  0.00    -0.158 OA 
HETATM   18  H   UNL     1      -8.031   9.607  71.449  1.00  0.00     0.000 HD 
ENDBRANCH  14  16
ENDBRANCH   4  11
TORSDOF 2
ENDMDL
MODEL      137
REMARK 921   NORMALIZED FREE ENERGY PREDICTED BY IDOCK:   -3.13 KCAL/MOL
REMARK 922        TOTAL FREE ENERGY PREDICTED BY IDOCK:   -3.84 KCAL/MOL
REMARK 923 INTER-LIGAND FREE ENERGY PREDICTED BY IDOCK:   -3.92 KCAL/MOL
REMARK 924 INTRA-LIGAND FREE ENERGY PREDICTED BY IDOCK:    0.08 KCAL/MOL
REMARK 927      BINDING AFFINITY PREDICTED BY RF-SCORE:    0.00 PKD
ROOT
HETATM    1  C   UNL     1      -7.211   9.770  69.227  1.00  0.00    -0.072 C  
HETATM    2  C   UNL     1      -8.663  10.121  69.241  1.00  0.00    -0.186 C  
HETATM    3  C   UNL     1      -9.275  10.837  68.291  1.00  0.00    -0.157 C  
HETATM    4  N   UNL     1     -10.620  11.169  68.332  1.00  0.00    -0.183 N  
HETATM    5  O   UNL     1      -9.007   8.949  71.270  1.00  0.00    -0.212 OA 
HETATM    6  C   UNL     1     -11.434  10.691  69.352  1.00  0.00    -0.286 C  
HETATM    7  O   UNL     1     -12.649  10.874  69.420  1.00  0.00    -0.335 OA 
HETATM    8  H   UNL     1     -11.383   9.631  71.099  1.00  0.00     0.000 HD 
HETATM    9  N   UNL     1     -10.804   9.959  70.326  1.00  0.00    -0.288 N  
HETATM   10  C   UNL     1      -9.482   9.628  70.365  1.00  0.00    -0.222 C  
ENDROOT
BRANCH   4  11
HETATM   11  C   UNL     1     -11.272  11.846  67.212  1.00  0.00    -0.317 C  
HETATM   12  O   UNL     1     -10.315  12.215  66.191  1.00  0.00    -0.225 OA 
HETATM   13  C   UNL     1     -11.287  14.163  66.995  1.00  0.00    -0.346 C  
HETATM   14  C   UNL     1     -10.116  13.648  66.242  1.00  0.00    -0.299 C  
HETATM   15  C   UNL     1     -11.908  13.143  67.587  1.00  0.00    -0.405 C  
BRANCH  14  16
HETATM   16  C   UNL     1      -8.795  13.994  66.956  1.00  0.00    -0.219 C  
HETATM   17  O   UNL     1      -8.905  15.156  67.777  1.00  0.00    -0.165 OA 
HETATM   18  H   UNL     1      -8.091  15.370  68.217  1.00  0.00     0.000 HD 
ENDBRANCH  14  16
ENDBRANCH   4  11
TORSDOF 2
ENDMDL
MODEL      138
REMARK 921   NORMALIZED FREE ENERGY PREDICTED BY IDOCK:   -3.13 KCAL/MOL
REMARK 922        TOTAL FREE ENERGY PREDICTED BY IDOCK:   -3.84 KCAL/MOL
REMARK 923 INTER-LIGAND FREE ENERGY PREDICTED BY IDOCK:   -3.94 KCAL/MOL
REMARK 924 INTRA-LIGAND FREE ENERGY PREDICTED BY IDOCK:    0.10 KCAL/MOL
REMARK 927      BINDING AFFINITY PREDICTED BY RF-SCORE:    0.00 PKD
ROOT
HETATM    1  C   UNL     1     -11.922  11.351  70.048  1.00  0.00    -0.442 C  
HETATM    2  C   UNL     1     -11.589  10.140  70.859  1.00  0.00    -0.459 C  
HETATM    3  C   UNL     1     -10.429   9.480  70.786  1.00  0.00    -0.314 C  
HETATM    4  N   UNL     1     -10.147   8.347  71.532  1.00  0.00    -0.207 N  
HETATM    5  O   UNL     1     -13.683  10.211  71.966  1.00  0.00    -0.284 OA 
HETATM    6  C   UNL     1     -11.054   7.880  72.477  1.00  0.00    -0.362 C  
HETATM    7  O   UNL     1     -10.849   6.931  73.232  1.00  0.00    -0.293 OA 
HETATM    8  H   UNL     1     -12.933   8.206  73.213  1.00  0.00     0.000 HD 
HETATM    9  N   UNL     1     -12.244   8.557  72.548  1.00  0.00    -0.371 N  
HETATM   10  C   UNL     1     -12.598   9.654  71.820  1.00  0.00    -0.409 C  
ENDROOT
BRANCH   4  11
HETATM   11  C   UNL     1      -8.821   7.730  71.510  1.00  0.00    -0.129 C  
HETATM   12  O   UNL     1      -7.909   8.474  70.668  1.00  0.00    -0.076 OA 
HETATM   13  C   UNL     1      -8.121   6.340  69.781  1.00  0.00    -0.120 C  
HETATM   14  C   UNL     1      -7.688   7.721  69.452  1.00  0.00    -0.106 C  
HETATM   15  C   UNL     1      -8.809   6.360  70.922  1.00  0.00    -0.136 C  
BRANCH  14  16
HETATM   16  C   UNL     1      -8.512   8.305  68.287  1.00  0.00    -0.136 C  
HETATM   17  O   UNL     1      -7.763   9.227  67.496  1.00  0.00    -0.091 OA 
HETATM   18  H   UNL     1      -8.270   9.587  66.778  1.00  0.00     0.000 HD 
ENDBRANCH  14  16
ENDBRANCH   4  11
TORSDOF 2
ENDMDL
MODEL      139
REMARK 921   NORMALIZED FREE ENERGY PREDICTED BY IDOCK:   -3.12 KCAL/MOL
REMARK 922        TOTAL FREE ENERGY PREDICTED BY IDOCK:   -3.83 KCAL/MOL
REMARK 923 INTER-LIGAND FREE ENERGY PREDICTED BY IDOCK:   -3.59 KCAL/MOL
REMARK 924 INTRA-LIGAND FREE ENERGY PREDICTED BY IDOCK:   -0.24 KCAL/MOL
REMARK 927      BINDING AFFINITY PREDICTED BY RF-SCORE:    0.00 PKD
ROOT
HETATM    1  C   UNL     1      -7.088   8.464  69.127  1.00  0.00    -0.064 C  
HETATM    2  C   UNL     1      -7.532   8.315  70.546  1.00  0.00    -0.067 C  
HETATM    3  C   UNL     1      -8.802   8.422  70.953  1.00  0.00    -0.159 C  
HETATM    4  N   UNL     1      -9.192   8.300  72.277  1.00  0.00    -0.204 N  
HETATM    5  O   UNL     1      -5.321   7.874  71.274  1.00  0.00    -0.030 OA 
HETATM    6  C   UNL     1      -8.263   7.972  73.259  1.00  0.00    -0.198 C  
HETATM    7  O   UNL     1      -8.539   7.770  74.441  1.00  0.00    -0.226 OA 
HETATM    8  H   UNL     1      -6.265   7.659  73.555  1.00  0.00     0.000 HD 
HETATM    9  N   UNL     1      -6.962   7.866  72.840  1.00  0.00    -0.078 N  
HETATM   10  C   UNL     1      -6.507   8.008  71.562  1.00  0.00    -0.041 C  
ENDROOT
BRANCH   4  11
HETATM   11  C   UNL     1     -10.603   8.301  72.660  1.00  0.00    -0.308 C  
HETATM   12  O   UNL     1     -11.161   6.967  72.615  1.00  0.00    -0.252 OA 
HETATM   13  C   UNL     1     -12.320   8.275  71.090  1.00  0.00    -0.224 C  
HETATM   14  C   UNL     1     -12.028   6.868  71.462  1.00  0.00    -0.344 C  
HETATM   15  C   UNL     1     -11.473   9.080  71.731  1.00  0.00    -0.442 C  
BRANCH  14  16
HETATM   16  C   UNL     1     -11.330   6.117  70.311  1.00  0.00    -0.344 C  
HETATM   17  O   UNL     1     -11.730   6.592  69.026  1.00  0.00    -0.608 OA 
HETATM   18  H   UNL     1     -11.300   6.129  68.317  1.00  0.00     0.000 HD 
ENDBRANCH  14  16
ENDBRANCH   4  11
TORSDOF 2
ENDMDL
MODEL      140
REMARK 921   NORMALIZED FREE ENERGY PREDICTED BY IDOCK:   -3.12 KCAL/MOL
REMARK 922        TOTAL FREE ENERGY PREDICTED BY IDOCK:   -3.83 KCAL/MOL
REMARK 923 INTER-LIGAND FREE ENERGY PREDICTED BY IDOCK:   -3.95 KCAL/MOL
REMARK 924 INTRA-LIGAND FREE ENERGY PREDICTED BY IDOCK:    0.12 KCAL/MOL
REMARK 927      BINDING AFFINITY PREDICTED BY RF-SCORE:    0.00 PKD
ROOT
HETATM    1  C   UNL     1      -8.712   7.675  67.558  1.00  0.00    -0.125 C  
HETATM    2  C   UNL     1      -9.638   7.409  68.699  1.00  0.00    -0.146 C  
HETATM    3  C   UNL     1      -9.466   7.889  69.936  1.00  0.00    -0.160 C  
HETATM    4  N   UNL     1     -10.327   7.614  70.988  1.00  0.00    -0.202 N  
HETATM    5  O   UNL     1     -11.078   6.116  67.332  1.00  0.00    -0.331 OA 
HETATM    6  C   UNL     1     -11.484   6.872  70.778  1.00  0.00    -0.335 C  
HETATM    7  O   UNL     1     -12.336   6.650  71.637  1.00  0.00    -0.349 OA 
HETATM    8  H   UNL     1     -12.483   5.805  69.349  1.00  0.00     0.000 HD 
HETATM    9  N   UNL     1     -11.656   6.380  69.510  1.00  0.00    -0.355 N  
HETATM   10  C   UNL     1     -10.832   6.581  68.442  1.00  0.00    -0.289 C  
ENDROOT
BRANCH   4  11
HETATM   11  C   UNL     1     -10.168   8.259  72.290  1.00  0.00    -0.305 C  
HETATM   12  O   UNL     1      -8.894   8.939  72.389  1.00  0.00    -0.396 OA 
HETATM   13  C   UNL     1      -8.951   7.290  74.021  1.00  0.00    -0.268 C  
HETATM   14  C   UNL     1      -8.031   8.175  73.263  1.00  0.00    -0.178 C  
HETATM   15  C   UNL     1     -10.147   7.301  73.433  1.00  0.00    -0.367 C  
BRANCH  14  16
HETATM   16  C   UNL     1      -7.010   7.356  72.449  1.00  0.00    -0.063 C  
HETATM   17  O   UNL     1      -7.037   5.967  72.778  1.00  0.00    -0.078 OA 
HETATM   18  H   UNL     1      -6.407   5.462  72.276  1.00  0.00     0.000 HD 
ENDBRANCH  14  16
ENDBRANCH   4  11
TORSDOF 2
ENDMDL
MODEL      141
REMARK 921   NORMALIZED FREE ENERGY PREDICTED BY IDOCK:   -3.09 KCAL/MOL
REMARK 922        TOTAL FREE ENERGY PREDICTED BY IDOCK:   -3.80 KCAL/MOL
REMARK 923 INTER-LIGAND FREE ENERGY PREDICTED BY IDOCK:   -3.55 KCAL/MOL
REMARK 924 INTRA-LIGAND FREE ENERGY PREDICTED BY IDOCK:   -0.25 KCAL/MOL
REMARK 927      BINDING AFFINITY PREDICTED BY RF-SCORE:    0.00 PKD
ROOT
HETATM    1  C   UNL     1      -9.347   4.781  68.327  1.00  0.00    -0.177 C  
HETATM    2  C   UNL     1      -9.443   4.650  69.813  1.00  0.00    -0.238 C  
HETATM    3  C   UNL     1      -9.419   5.682  70.663  1.00  0.00    -0.164 C  
HETATM    4  N   UNL     1      -9.489   5.539  72.040  1.00  0.00    -0.150 N  
HETATM    5  O   UNL     1      -9.647   2.294  69.670  1.00  0.00    -0.082 OA 
HETATM    6  C   UNL     1      -9.674   4.284  72.610  1.00  0.00    -0.143 C  
HETATM    7  O   UNL     1      -9.824   4.080  73.814  1.00  0.00    -0.108 OA 
HETATM    8  H   UNL     1      -9.797   2.298  72.143  1.00  0.00     0.000 HD 
HETATM    9  N   UNL     1      -9.696   3.228  71.736  1.00  0.00    -0.159 N  
HETATM   10  C   UNL     1      -9.596   3.296  70.378  1.00  0.00    -0.141 C  
ENDROOT
BRANCH   4  11
HETATM   11  C   UNL     1      -9.583   6.700  72.923  1.00  0.00    -0.149 C  
HETATM   12  O   UNL     1     -10.962   7.012  73.235  1.00  0.00    -0.303 OA 
HETATM   13  C   UNL     1     -10.049   8.836  72.128  1.00  0.00    -0.362 C  
HETATM   14  C   UNL     1     -11.338   8.207  72.511  1.00  0.00    -0.401 C  
HETATM   15  C   UNL     1      -9.064   7.958  72.314  1.00  0.00    -0.217 C  
BRANCH  14  16
HETATM   16  C   UNL     1     -12.180   7.855  71.270  1.00  0.00    -0.294 C  
HETATM   17  O   UNL     1     -12.322   8.958  70.374  1.00  0.00    -0.462 OA 
HETATM   18  H   UNL     1     -12.841   8.741  69.609  1.00  0.00     0.000 HD 
ENDBRANCH  14  16
ENDBRANCH   4  11
TORSDOF 2
ENDMDL
MODEL      142
REMARK 921   NORMALIZED FREE ENERGY PREDICTED BY IDOCK:   -3.09 KCAL/MOL
REMARK 922        TOTAL FREE ENERGY PREDICTED BY IDOCK:   -3.80 KCAL/MOL
REMARK 923 INTER-LIGAND FREE ENERGY PREDICTED BY IDOCK:   -3.86 KCAL/MOL
REMARK 924 INTRA-LIGAND FREE ENERGY PREDICTED BY IDOCK:    0.06 KCAL/MOL
REMARK 927      BINDING AFFINITY PREDICTED BY RF-SCORE:    0.00 PKD
ROOT
HETATM    1  C   UNL     1     -11.802  12.480  67.477  1.00  0.00    -0.389 C  
HETATM    2  C   UNL     1     -10.999  11.347  66.925  1.00  0.00    -0.355 C  
HETATM    3  C   UNL     1     -10.769  10.200  67.574  1.00  0.00    -0.290 C  
HETATM    4  N   UNL     1     -10.004   9.169  67.053  1.00  0.00    -0.210 N  
HETATM    5  O   UNL     1     -10.620  12.504  64.893  1.00  0.00    -0.282 OA 
HETATM    6  C   UNL     1      -9.494   9.250  65.762  1.00  0.00    -0.262 C  
HETATM    7  O   UNL     1      -8.874   8.350  65.198  1.00  0.00    -0.143 OA 
HETATM    8  H   UNL     1      -9.333  10.516  64.165  1.00  0.00     0.000 HD 
HETATM    9  N   UNL     1      -9.730  10.428  65.100  1.00  0.00    -0.267 N  
HETATM   10  C   UNL     1     -10.442  11.493  65.567  1.00  0.00    -0.275 C  
ENDROOT
BRANCH   4  11
HETATM   11  C   UNL     1      -9.881   7.886  67.745  1.00  0.00    -0.163 C  
HETATM   12  O   UNL     1     -10.684   7.860  68.949  1.00  0.00    -0.179 OA 
HETATM   13  C   UNL     1      -8.464   7.583  69.565  1.00  0.00    -0.132 C  
HETATM   14  C   UNL     1      -9.802   7.950  70.092  1.00  0.00    -0.184 C  
HETATM   15  C   UNL     1      -8.502   7.600  68.233  1.00  0.00    -0.125 C  
BRANCH  14  16
HETATM   16  C   UNL     1      -9.803   9.377  70.675  1.00  0.00    -0.276 C  
HETATM   17  O   UNL     1     -11.113   9.824  71.024  1.00  0.00    -0.325 OA 
HETATM   18  H   UNL     1     -11.113  10.703  71.383  1.00  0.00     0.000 HD 
ENDBRANCH  14  16
ENDBRANCH   4  11
TORSDOF 2
ENDMDL
MODEL      143
REMARK 921   NORMALIZED FREE ENERGY PREDICTED BY IDOCK:   -3.08 KCAL/MOL
REMARK 922        TOTAL FREE ENERGY PREDICTED BY IDOCK:   -3.78 KCAL/MOL
REMARK 923 INTER-LIGAND FREE ENERGY PREDICTED BY IDOCK:   -4.70 KCAL/MOL
REMARK 924 INTRA-LIGAND FREE ENERGY PREDICTED BY IDOCK:    0.93 KCAL/MOL
REMARK 927      BINDING AFFINITY PREDICTED BY RF-SCORE:    0.00 PKD
ROOT
HETATM    1  C   UNL     1     -12.216  13.088  63.546  1.00  0.00    -0.580 C  
HETATM    2  C   UNL     1     -11.837  12.903  64.979  1.00  0.00    -0.411 C  
HETATM    3  C   UNL     1     -12.160  13.753  65.959  1.00  0.00    -0.436 C  
HETATM    4  N   UNL     1     -11.782  13.574  67.281  1.00  0.00    -0.361 N  
HETATM    5  O   UNL     1     -10.752  10.851  64.508  1.00  0.00    -0.327 OA 
HETATM    6  C   UNL     1     -11.098  12.428  67.670  1.00  0.00    -0.259 C  
HETATM    7  O   UNL     1     -10.795  12.156  68.831  1.00  0.00    -0.219 OA 
HETATM    8  H   UNL     1     -10.234  10.730  66.928  1.00  0.00     0.000 HD 
HETATM    9  N   UNL     1     -10.766  11.559  66.662  1.00  0.00    -0.257 N  
HETATM   10  C   UNL     1     -11.075  11.693  65.340  1.00  0.00    -0.239 C  
ENDROOT
BRANCH   4  11
HETATM   11  C   UNL     1     -12.262  14.463  68.338  1.00  0.00    -0.143 C  
HETATM   12  O   UNL     1     -11.961  15.846  68.038  1.00  0.00    -0.065 OA 
HETATM   13  C   UNL     1     -10.862  15.287  70.003  1.00  0.00    -0.303 C  
HETATM   14  C   UNL     1     -10.885  16.281  68.902  1.00  0.00    -0.317 C  
HETATM   15  C   UNL     1     -11.601  14.234  69.656  1.00  0.00    -0.351 C  
BRANCH  14  16
HETATM   16  C   UNL     1      -9.546  16.306  68.140  1.00  0.00    -0.219 C  
HETATM   17  O   UNL     1      -8.427  16.069  68.995  1.00  0.00    -0.218 OA 
HETATM   18  H   UNL     1      -7.601  16.084  68.525  1.00  0.00     0.000 HD 
ENDBRANCH  14  16
ENDBRANCH   4  11
TORSDOF 2
ENDMDL
MODEL      144
REMARK 921   NORMALIZED FREE ENERGY PREDICTED BY IDOCK:   -3.07 KCAL/MOL
REMARK 922        TOTAL FREE ENERGY PREDICTED BY IDOCK:   -3.78 KCAL/MOL
REMARK 923 INTER-LIGAND FREE ENERGY PREDICTED BY IDOCK:   -4.06 KCAL/MOL
REMARK 924 INTRA-LIGAND FREE ENERGY PREDICTED BY IDOCK:    0.29 KCAL/MOL
REMARK 927      BINDING AFFINITY PREDICTED BY RF-SCORE:    0.00 PKD
ROOT
HETATM    1  C   UNL     1     -12.083  13.334  63.678  1.00  0.00    -0.551 C  
HETATM    2  C   UNL     1     -11.261  12.705  64.756  1.00  0.00    -0.337 C  
HETATM    3  C   UNL     1     -11.088  13.230  65.974  1.00  0.00    -0.283 C  
HETATM    4  N   UNL     1     -10.305  12.641  66.954  1.00  0.00    -0.232 N  
HETATM    5  O   UNL     1     -10.736  10.849  63.381  1.00  0.00    -0.233 OA 
HETATM    6  C   UNL     1      -9.712  11.402  66.735  1.00  0.00    -0.198 C  
HETATM    7  O   UNL     1      -9.069  10.778  67.577  1.00  0.00    -0.139 OA 
HETATM    8  H   UNL     1      -9.432   9.976  65.298  1.00  0.00     0.000 HD 
HETATM    9  N   UNL     1      -9.889  10.868  65.484  1.00  0.00    -0.231 N  
HETATM   10  C   UNL     1     -10.615  11.411  64.465  1.00  0.00    -0.328 C  
ENDROOT
BRANCH   4  11
HETATM   11  C   UNL     1     -10.244  13.185  68.310  1.00  0.00    -0.250 C  
HETATM   12  O   UNL     1     -10.200  12.129  69.299  1.00  0.00     0.089 OA 
HETATM   13  C   UNL     1     -12.127  13.369  69.665  1.00  0.00    -0.349 C  
HETATM   14  C   UNL     1     -11.485  12.063  69.960  1.00  0.00    -0.101 C  
HETATM   15  C   UNL     1     -11.450  13.976  68.691  1.00  0.00    -0.337 C  
BRANCH  14  16
HETATM   16  C   UNL     1     -12.324  10.891  69.416  1.00  0.00    -0.118 C  
HETATM   17  O   UNL     1     -12.408   9.804  70.339  1.00  0.00    -0.466 OA 
HETATM   18  H   UNL     1     -12.924   9.081  70.004  1.00  0.00     0.000 HD 
ENDBRANCH  14  16
ENDBRANCH   4  11
TORSDOF 2
ENDMDL
MODEL      145
REMARK 921   NORMALIZED FREE ENERGY PREDICTED BY IDOCK:   -3.06 KCAL/MOL
REMARK 922        TOTAL FREE ENERGY PREDICTED BY IDOCK:   -3.76 KCAL/MOL
REMARK 923 INTER-LIGAND FREE ENERGY PREDICTED BY IDOCK:   -3.59 KCAL/MOL
REMARK 924 INTRA-LIGAND FREE ENERGY PREDICTED BY IDOCK:   -0.17 KCAL/MOL
REMARK 927      BINDING AFFINITY PREDICTED BY RF-SCORE:    0.00 PKD
ROOT
HETATM    1  C   UNL     1     -12.123  12.660  65.463  1.00  0.00    -0.515 C  
HETATM    2  C   UNL     1     -10.946  12.516  66.371  1.00  0.00    -0.309 C  
HETATM    3  C   UNL     1     -10.795  11.526  67.258  1.00  0.00    -0.256 C  
HETATM    4  N   UNL     1      -9.704  11.421  68.106  1.00  0.00    -0.186 N  
HETATM    5  O   UNL     1      -9.915  14.449  65.470  1.00  0.00    -0.339 OA 
HETATM    6  C   UNL     1      -8.648  12.321  68.014  1.00  0.00    -0.176 C  
HETATM    7  O   UNL     1      -7.613  12.252  68.674  1.00  0.00    -0.117 OA 
HETATM    8  H   UNL     1      -8.056  14.024  67.051  1.00  0.00     0.000 HD 
HETATM    9  N   UNL     1      -8.807  13.336  67.106  1.00  0.00    -0.216 N  
HETATM   10  C   UNL     1      -9.868  13.519  66.269  1.00  0.00    -0.299 C  
ENDROOT
BRANCH   4  11
HETATM   11  C   UNL     1      -9.521  10.257  68.972  1.00  0.00    -0.200 C  
HETATM   12  O   UNL     1      -8.821   9.194  68.283  1.00  0.00    -0.129 OA 
HETATM   13  C   UNL     1     -10.919   8.399  68.874  1.00  0.00     0.115 C  
HETATM   14  C   UNL     1      -9.767   8.143  67.974  1.00  0.00    -0.161 C  
HETATM   15  C   UNL     1     -10.802   9.620  69.395  1.00  0.00    -0.239 C  
BRANCH  14  16
HETATM   16  C   UNL     1     -10.188   8.201  66.493  1.00  0.00    -0.177 C  
HETATM   17  O   UNL     1      -9.280   7.506  65.639  1.00  0.00    -0.388 OA 
HETATM   18  H   UNL     1      -9.539   7.541  64.726  1.00  0.00     0.000 HD 
ENDBRANCH  14  16
ENDBRANCH   4  11
TORSDOF 2
ENDMDL
MODEL      146
REMARK 921   NORMALIZED FREE ENERGY PREDICTED BY IDOCK:   -3.00 KCAL/MOL
REMARK 922        TOTAL FREE ENERGY PREDICTED BY IDOCK:   -3.69 KCAL/MOL
REMARK 923 INTER-LIGAND FREE ENERGY PREDICTED BY IDOCK:   -3.54 KCAL/MOL
REMARK 924 INTRA-LIGAND FREE ENERGY PREDICTED BY IDOCK:   -0.15 KCAL/MOL
REMARK 927      BINDING AFFINITY PREDICTED BY RF-SCORE:    0.00 PKD
ROOT
HETATM    1  C   UNL     1      -6.033   7.247  71.280  1.00  0.00    -0.036 C  
HETATM    2  C   UNL     1      -7.191   6.741  72.076  1.00  0.00    -0.080 C  
HETATM    3  C   UNL     1      -8.377   7.356  72.154  1.00  0.00    -0.109 C  
HETATM    4  N   UNL     1      -9.434   6.881  72.915  1.00  0.00    -0.138 N  
HETATM    5  O   UNL     1      -5.977   4.831  72.775  1.00  0.00    -0.015 OA 
HETATM    6  C   UNL     1      -9.332   5.667  73.585  1.00  0.00    -0.137 C  
HETATM    7  O   UNL     1     -10.246   5.139  74.216  1.00  0.00    -0.214 OA 
HETATM    8  H   UNL     1      -8.014   4.166  74.021  1.00  0.00     0.000 HD 
HETATM    9  N   UNL     1      -8.114   5.041  73.505  1.00  0.00    -0.107 N  
HETATM   10  C   UNL     1      -7.025   5.470  72.807  1.00  0.00    -0.083 C  
ENDROOT
BRANCH   4  11
HETATM   11  C   UNL     1     -10.749   7.517  72.873  1.00  0.00    -0.358 C  
HETATM   12  O   UNL     1     -11.738   6.643  72.279  1.00  0.00    -0.284 OA 
HETATM   13  C   UNL     1     -11.578   8.542  70.955  1.00  0.00    -0.317 C  
HETATM   14  C   UNL     1     -12.053   7.135  70.955  1.00  0.00    -0.350 C  
HETATM   15  C   UNL     1     -10.796   8.737  72.017  1.00  0.00    -0.428 C  
BRANCH  14  16
HETATM   16  C   UNL     1     -11.337   6.302  69.874  1.00  0.00    -0.434 C  
HETATM   17  O   UNL     1     -11.682   6.712  68.551  1.00  0.00    -0.450 OA 
HETATM   18  H   UNL     1     -11.242   6.198  67.884  1.00  0.00     0.000 HD 
ENDBRANCH  14  16
ENDBRANCH   4  11
TORSDOF 2
ENDMDL
MODEL      147
REMARK 921   NORMALIZED FREE ENERGY PREDICTED BY IDOCK:   -2.99 KCAL/MOL
REMARK 922        TOTAL FREE ENERGY PREDICTED BY IDOCK:   -3.69 KCAL/MOL
REMARK 923 INTER-LIGAND FREE ENERGY PREDICTED BY IDOCK:   -4.22 KCAL/MOL
REMARK 924 INTRA-LIGAND FREE ENERGY PREDICTED BY IDOCK:    0.53 KCAL/MOL
REMARK 927      BINDING AFFINITY PREDICTED BY RF-SCORE:    0.00 PKD
ROOT
HETATM    1  C   UNL     1     -10.592   7.017  66.682  1.00  0.00    -0.184 C  
HETATM    2  C   UNL     1      -9.969   8.370  66.793  1.00  0.00    -0.354 C  
HETATM    3  C   UNL     1     -10.652   9.520  66.757  1.00  0.00    -0.137 C  
HETATM    4  N   UNL     1     -10.053  10.767  66.842  1.00  0.00    -0.204 N  
HETATM    5  O   UNL     1      -7.805   7.439  67.039  1.00  0.00    -0.111 OA 
HETATM    6  C   UNL     1      -8.684  10.879  67.056  1.00  0.00    -0.141 C  
HETATM    7  O   UNL     1      -8.088  11.943  67.220  1.00  0.00    -0.154 OA 
HETATM    8  H   UNL     1      -6.975   9.768  67.211  1.00  0.00     0.000 HD 
HETATM    9  N   UNL     1      -7.986   9.699  67.089  1.00  0.00    -0.105 N  
HETATM   10  C   UNL     1      -8.506   8.444  66.976  1.00  0.00    -0.122 C  
ENDROOT
BRANCH   4  11
HETATM   11  C   UNL     1     -10.849  11.990  66.923  1.00  0.00    -0.259 C  
HETATM   12  O   UNL     1     -12.037  11.900  66.101  1.00  0.00    -0.519 OA 
HETATM   13  C   UNL     1     -10.746  13.654  65.299  1.00  0.00    -0.340 C  
HETATM   14  C   UNL     1     -11.854  12.736  64.934  1.00  0.00    -0.379 C  
HETATM   15  C   UNL     1     -10.146  13.196  66.398  1.00  0.00    -0.281 C  
BRANCH  14  16
HETATM   16  C   UNL     1     -11.495  11.886  63.700  1.00  0.00    -0.461 C  
HETATM   17  O   UNL     1     -10.431  12.454  62.936  1.00  0.00    -0.467 OA 
HETATM   18  H   UNL     1     -10.209  11.930  62.175  1.00  0.00     0.000 HD 
ENDBRANCH  14  16
ENDBRANCH   4  11
TORSDOF 2
ENDMDL
MODEL      148
REMARK 921   NORMALIZED FREE ENERGY PREDICTED BY IDOCK:   -2.98 KCAL/MOL
REMARK 922        TOTAL FREE ENERGY PREDICTED BY IDOCK:   -3.68 KCAL/MOL
REMARK 923 INTER-LIGAND FREE ENERGY PREDICTED BY IDOCK:   -3.54 KCAL/MOL
REMARK 924 INTRA-LIGAND FREE ENERGY PREDICTED BY IDOCK:   -0.14 KCAL/MOL
REMARK 927      BINDING AFFINITY PREDICTED BY RF-SCORE:    0.00 PKD
ROOT
HETATM    1  C   UNL     1     -12.047  13.610  70.284  1.00  0.00    -0.427 C  
HETATM    2  C   UNL     1     -11.442  12.937  69.094  1.00  0.00    -0.360 C  
HETATM    3  C   UNL     1     -10.486  13.476  68.330  1.00  0.00    -0.253 C  
HETATM    4  N   UNL     1      -9.951  12.844  67.218  1.00  0.00    -0.222 N  
HETATM    5  O   UNL     1     -12.775  11.005  69.411  1.00  0.00    -0.279 OA 
HETATM    6  C   UNL     1     -10.340  11.551  66.886  1.00  0.00    -0.223 C  
HETATM    7  O   UNL     1      -9.859  10.893  65.964  1.00  0.00    -0.214 OA 
HETATM    8  H   UNL     1     -11.642  10.068  67.417  1.00  0.00     0.000 HD 
HETATM    9  N   UNL     1     -11.322  11.003  67.670  1.00  0.00    -0.302 N  
HETATM   10  C   UNL     1     -11.915  11.582  68.753  1.00  0.00    -0.271 C  
ENDROOT
BRANCH   4  11
HETATM   11  C   UNL     1      -8.823  13.416  66.485  1.00  0.00     0.024 C  
HETATM   12  O   UNL     1      -7.568  13.135  67.149  1.00  0.00    -0.117 OA 
HETATM   13  C   UNL     1      -7.842  15.438  67.087  1.00  0.00    -0.249 C  
HETATM   14  C   UNL     1      -7.091  14.354  67.767  1.00  0.00    -0.176 C  
HETATM   15  C   UNL     1      -8.855  14.905  66.405  1.00  0.00    -0.196 C  
BRANCH  14  16
HETATM   16  C   UNL     1      -7.366  14.345  69.283  1.00  0.00    -0.088 C  
HETATM   17  O   UNL     1      -8.080  15.504  69.715  1.00  0.00    -0.183 OA 
HETATM   18  H   UNL     1      -8.250  15.499  70.650  1.00  0.00     0.000 HD 
ENDBRANCH  14  16
ENDBRANCH   4  11
TORSDOF 2
ENDMDL
MODEL      149
REMARK 921   NORMALIZED FREE ENERGY PREDICTED BY IDOCK:   -2.96 KCAL/MOL
REMARK 922        TOTAL FREE ENERGY PREDICTED BY IDOCK:   -3.65 KCAL/MOL
REMARK 923 INTER-LIGAND FREE ENERGY PREDICTED BY IDOCK:   -3.41 KCAL/MOL
REMARK 924 INTRA-LIGAND FREE ENERGY PREDICTED BY IDOCK:   -0.24 KCAL/MOL
REMARK 927      BINDING AFFINITY PREDICTED BY RF-SCORE:    0.00 PKD
ROOT
HETATM    1  C   UNL     1     -12.154  13.064  69.642  1.00  0.00    -0.304 C  
HETATM    2  C   UNL     1     -11.323  12.327  68.644  1.00  0.00    -0.339 C  
HETATM    3  C   UNL     1     -10.302  11.523  68.961  1.00  0.00    -0.118 C  
HETATM    4  N   UNL     1      -9.529  10.862  68.018  1.00  0.00    -0.159 N  
HETATM    5  O   UNL     1     -12.596  13.180  66.837  1.00  0.00    -0.198 OA 
HETATM    6  C   UNL     1      -9.842  10.945  66.666  1.00  0.00    -0.198 C  
HETATM    7  O   UNL     1      -9.257  10.330  65.775  1.00  0.00    -0.160 OA 
HETATM    8  H   UNL     1     -11.106  11.870  65.353  1.00  0.00     0.000 HD 
HETATM    9  N   UNL     1     -10.887  11.772  66.344  1.00  0.00    -0.271 N  
HETATM   10  C   UNL     1     -11.663  12.477  67.216  1.00  0.00    -0.362 C  
ENDROOT
BRANCH   4  11
HETATM   11  C   UNL     1      -8.504   9.898  68.413  1.00  0.00    -0.111 C  
HETATM   12  O   UNL     1      -8.987   8.539  68.296  1.00  0.00    -0.138 OA 
HETATM   13  C   UNL     1      -8.461   8.919  70.523  1.00  0.00    -0.198 C  
HETATM   14  C   UNL     1      -9.225   8.018  69.624  1.00  0.00    -0.152 C  
HETATM   15  C   UNL     1      -8.101  10.008  69.845  1.00  0.00    -0.180 C  
BRANCH  14  16
HETATM   16  C   UNL     1     -10.729   8.035  69.960  1.00  0.00    -0.244 C  
HETATM   17  O   UNL     1     -11.216   6.752  70.352  1.00  0.00    -0.282 OA 
HETATM   18  H   UNL     1     -12.143   6.762  70.559  1.00  0.00     0.000 HD 
ENDBRANCH  14  16
ENDBRANCH   4  11
TORSDOF 2
ENDMDL
MODEL      150
REMARK 921   NORMALIZED FREE ENERGY PREDICTED BY IDOCK:   -2.96 KCAL/MOL
REMARK 922        TOTAL FREE ENERGY PREDICTED BY IDOCK:   -3.65 KCAL/MOL
REMARK 923 INTER-LIGAND FREE ENERGY PREDICTED BY IDOCK:   -3.78 KCAL/MOL
REMARK 924 INTRA-LIGAND FREE ENERGY PREDICTED BY IDOCK:    0.13 KCAL/MOL
REMARK 927      BINDING AFFINITY PREDICTED BY RF-SCORE:    0.00 PKD
ROOT
HETATM    1  C   UNL     1     -10.323   9.231  71.128  1.00  0.00    -0.392 C  
HETATM    2  C   UNL     1     -10.222   7.741  71.181  1.00  0.00    -0.214 C  
HETATM    3  C   UNL     1      -9.561   6.999  70.287  1.00  0.00    -0.168 C  
HETATM    4  N   UNL     1      -9.496   5.615  70.342  1.00  0.00    -0.162 N  
HETATM    5  O   UNL     1     -11.489   7.649  73.180  1.00  0.00    -0.314 OA 
HETATM    6  C   UNL     1     -10.065   4.924  71.406  1.00  0.00    -0.198 C  
HETATM    7  O   UNL     1      -9.985   3.707  71.570  1.00  0.00    -0.174 OA 
HETATM    8  H   UNL     1     -11.196   5.190  73.087  1.00  0.00     0.000 HD 
HETATM    9  N   UNL     1     -10.745   5.687  72.319  1.00  0.00    -0.221 N  
HETATM   10  C   UNL     1     -10.877   7.045  72.305  1.00  0.00    -0.230 C  
ENDROOT
BRANCH   4  11
HETATM   11  C   UNL     1      -8.660   4.854  69.415  1.00  0.00    -0.087 C  
HETATM   12  O   UNL     1      -8.207   5.680  68.316  1.00  0.00    -0.102 OA 
HETATM   13  C   UNL     1      -9.491   3.960  67.434  1.00  0.00    -0.236 C  
HETATM   14  C   UNL     1      -8.935   5.302  67.125  1.00  0.00    -0.112 C  
HETATM   15  C   UNL     1      -9.380   3.735  68.743  1.00  0.00    -0.230 C  
BRANCH  14  16
HETATM   16  C   UNL     1     -10.055   6.316  66.821  1.00  0.00    -0.180 C  
HETATM   17  O   UNL     1     -11.239   5.690  66.324  1.00  0.00    -0.759 OA 
HETATM   18  H   UNL     1     -11.929   6.315  66.136  1.00  0.00     0.000 HD 
ENDBRANCH  14  16
ENDBRANCH   4  11
TORSDOF 2
ENDMDL
MODEL      151
REMARK 921   NORMALIZED FREE ENERGY PREDICTED BY IDOCK:   -2.96 KCAL/MOL
REMARK 922        TOTAL FREE ENERGY PREDICTED BY IDOCK:   -3.65 KCAL/MOL
REMARK 923 INTER-LIGAND FREE ENERGY PREDICTED BY IDOCK:   -4.13 KCAL/MOL
REMARK 924 INTRA-LIGAND FREE ENERGY PREDICTED BY IDOCK:    0.48 KCAL/MOL
REMARK 927      BINDING AFFINITY PREDICTED BY RF-SCORE:    0.00 PKD
ROOT
HETATM    1  C   UNL     1     -10.426  11.049  68.603  1.00  0.00    -0.214 C  
HETATM    2  C   UNL     1     -10.632   9.599  68.900  1.00  0.00    -0.239 C  
HETATM    3  C   UNL     1     -11.025   9.121  70.085  1.00  0.00    -0.239 C  
HETATM    4  N   UNL     1     -11.191   7.770  70.346  1.00  0.00    -0.261 N  
HETATM    5  O   UNL     1     -10.063   8.985  66.683  1.00  0.00    -0.255 OA 
HETATM    6  C   UNL     1     -11.029   6.830  69.334  1.00  0.00    -0.276 C  
HETATM    7  O   UNL     1     -11.233   5.624  69.463  1.00  0.00    -0.249 OA 
HETATM    8  H   UNL     1     -10.467   6.642  67.378  1.00  0.00     0.000 HD 
HETATM    9  N   UNL     1     -10.623   7.323  68.121  1.00  0.00    -0.197 N  
HETATM   10  C   UNL     1     -10.407   8.632  67.807  1.00  0.00    -0.242 C  
ENDROOT
BRANCH   4  11
HETATM   11  C   UNL     1     -11.741   7.301  71.617  1.00  0.00    -0.284 C  
HETATM   12  O   UNL     1     -11.413   8.207  72.698  1.00  0.00    -0.392 OA 
HETATM   13  C   UNL     1     -10.460   6.147  73.180  1.00  0.00    -0.254 C  
HETATM   14  C   UNL     1     -10.399   7.589  73.525  1.00  0.00    -0.317 C  
HETATM   15  C   UNL     1     -11.177   5.996  72.067  1.00  0.00    -0.341 C  
BRANCH  14  16
HETATM   16  C   UNL     1      -9.008   8.180  73.222  1.00  0.00    -0.261 C  
HETATM   17  O   UNL     1      -8.343   7.496  72.160  1.00  0.00    -0.105 OA 
HETATM   18  H   UNL     1      -7.485   7.859  71.973  1.00  0.00     0.000 HD 
ENDBRANCH  14  16
ENDBRANCH   4  11
TORSDOF 2
ENDMDL
MODEL      152
REMARK 921   NORMALIZED FREE ENERGY PREDICTED BY IDOCK:   -2.95 KCAL/MOL
REMARK 922        TOTAL FREE ENERGY PREDICTED BY IDOCK:   -3.64 KCAL/MOL
REMARK 923 INTER-LIGAND FREE ENERGY PREDICTED BY IDOCK:   -4.09 KCAL/MOL
REMARK 924 INTRA-LIGAND FREE ENERGY PREDICTED BY IDOCK:    0.45 KCAL/MOL
REMARK 927      BINDING AFFINITY PREDICTED BY RF-SCORE:    0.00 PKD
ROOT
HETATM    1  C   UNL     1      -7.077  14.424  68.965  1.00  0.00    -0.120 C  
HETATM    2  C   UNL     1      -8.141  15.015  68.098  1.00  0.00    -0.131 C  
HETATM    3  C   UNL     1      -9.315  14.428  67.839  1.00  0.00    -0.203 C  
HETATM    4  N   UNL     1     -10.281  14.983  67.016  1.00  0.00    -0.254 N  
HETATM    5  O   UNL     1      -6.850  16.962  67.707  1.00  0.00    -0.134 OA 
HETATM    6  C   UNL     1     -10.102  16.250  66.472  1.00  0.00    -0.291 C  
HETATM    7  O   UNL     1     -10.941  16.846  65.797  1.00  0.00    -0.116 OA 
HETATM    8  H   UNL     1      -8.737  17.764  66.316  1.00  0.00     0.000 HD 
HETATM    9  N   UNL     1      -8.897  16.849  66.737  1.00  0.00    -0.222 N  
HETATM   10  C   UNL     1      -7.891  16.344  67.507  1.00  0.00    -0.146 C  
ENDROOT
BRANCH   4  11
HETATM   11  C   UNL     1     -11.597  14.365  66.861  1.00  0.00    -0.388 C  
HETATM   12  O   UNL     1     -11.515  12.923  66.957  1.00  0.00    -0.302 OA 
HETATM   13  C   UNL     1     -12.314  13.452  64.844  1.00  0.00    -0.457 C  
HETATM   14  C   UNL     1     -11.690  12.362  65.635  1.00  0.00    -0.414 C  
HETATM   15  C   UNL     1     -12.211  14.596  65.521  1.00  0.00    -0.200 C  
BRANCH  14  16
HETATM   16  C   UNL     1     -10.336  11.939  65.034  1.00  0.00    -0.289 C  
HETATM   17  O   UNL     1     -10.185  12.356  63.677  1.00  0.00    -0.419 OA 
HETATM   18  H   UNL     1      -9.350  12.095  63.307  1.00  0.00     0.000 HD 
ENDBRANCH  14  16
ENDBRANCH   4  11
TORSDOF 2
ENDMDL
MODEL      153
REMARK 921   NORMALIZED FREE ENERGY PREDICTED BY IDOCK:   -2.93 KCAL/MOL
REMARK 922        TOTAL FREE ENERGY PREDICTED BY IDOCK:   -3.62 KCAL/MOL
REMARK 923 INTER-LIGAND FREE ENERGY PREDICTED BY IDOCK:   -3.71 KCAL/MOL
REMARK 924 INTRA-LIGAND FREE ENERGY PREDICTED BY IDOCK:    0.10 KCAL/MOL
REMARK 927      BINDING AFFINITY PREDICTED BY RF-SCORE:    0.00 PKD
ROOT
HETATM    1  C   UNL     1      -7.497   9.535  70.576  1.00  0.00    -0.159 C  
HETATM    2  C   UNL     1      -8.960   9.311  70.779  1.00  0.00    -0.292 C  
HETATM    3  C   UNL     1      -9.476   8.524  71.730  1.00  0.00    -0.258 C  
HETATM    4  N   UNL     1     -10.837   8.313  71.890  1.00  0.00    -0.262 N  
HETATM    5  O   UNL     1      -9.512  10.775  69.001  1.00  0.00    -0.191 OA 
HETATM    6  C   UNL     1     -11.755   8.992  71.097  1.00  0.00    -0.302 C  
HETATM    7  O   UNL     1     -12.976   8.920  71.226  1.00  0.00    -0.299 OA 
HETATM    8  H   UNL     1     -11.884  10.274  69.510  1.00  0.00     0.000 HD 
HETATM    9  N   UNL     1     -11.223   9.796  70.122  1.00  0.00    -0.260 N  
HETATM   10  C   UNL     1      -9.898  10.019  69.888  1.00  0.00    -0.224 C  
ENDROOT
BRANCH   4  11
HETATM   11  C   UNL     1     -11.361   7.544  73.018  1.00  0.00    -0.263 C  
HETATM   12  O   UNL     1     -10.298   7.116  73.902  1.00  0.00    -0.358 OA 
HETATM   13  C   UNL     1     -11.334   5.218  73.061  1.00  0.00    -0.376 C  
HETATM   14  C   UNL     1     -10.094   5.695  73.723  1.00  0.00    -0.211 C  
HETATM   15  C   UNL     1     -12.022   6.269  72.616  1.00  0.00    -0.041 C  
BRANCH  14  16
HETATM   16  C   UNL     1      -8.853   5.424  72.850  1.00  0.00    -0.121 C  
HETATM   17  O   UNL     1      -7.676   5.205  73.628  1.00  0.00    -0.097 OA 
HETATM   18  H   UNL     1      -6.910   5.038  73.090  1.00  0.00     0.000 HD 
ENDBRANCH  14  16
ENDBRANCH   4  11
TORSDOF 2
ENDMDL
MODEL      154
REMARK 921   NORMALIZED FREE ENERGY PREDICTED BY IDOCK:   -2.92 KCAL/MOL
REMARK 922        TOTAL FREE ENERGY PREDICTED BY IDOCK:   -3.61 KCAL/MOL
REMARK 923 INTER-LIGAND FREE ENERGY PREDICTED BY IDOCK:   -3.29 KCAL/MOL
REMARK 924 INTRA-LIGAND FREE ENERGY PREDICTED BY IDOCK:   -0.31 KCAL/MOL
REMARK 927      BINDING AFFINITY PREDICTED BY RF-SCORE:    0.00 PKD
ROOT
HETATM    1  C   UNL     1      -9.032   3.691  67.843  1.00  0.00    -0.165 C  
HETATM    2  C   UNL     1      -9.849   4.593  68.710  1.00  0.00    -0.201 C  
HETATM    3  C   UNL     1      -9.874   4.534  70.046  1.00  0.00    -0.226 C  
HETATM    4  N   UNL     1     -10.654   5.367  70.832  1.00  0.00    -0.237 N  
HETATM    5  O   UNL     1     -10.687   5.768  66.831  1.00  0.00    -0.285 OA 
HETATM    6  C   UNL     1     -11.406   6.384  70.253  1.00  0.00    -0.403 C  
HETATM    7  O   UNL     1     -12.061   7.213  70.883  1.00  0.00    -0.338 OA 
HETATM    8  H   UNL     1     -11.954   7.159  68.443  1.00  0.00     0.000 HD 
HETATM    9  N   UNL     1     -11.380   6.440  68.884  1.00  0.00    -0.308 N  
HETATM   10  C   UNL     1     -10.665   5.631  68.051  1.00  0.00    -0.154 C  
ENDROOT
BRANCH   4  11
HETATM   11  C   UNL     1     -10.556   5.350  72.291  1.00  0.00    -0.225 C  
HETATM   12  O   UNL     1      -9.582   6.311  72.764  1.00  0.00    -0.155 OA 
HETATM   13  C   UNL     1      -8.875   4.199  73.414  1.00  0.00    -0.097 C  
HETATM   14  C   UNL     1      -8.409   5.594  73.213  1.00  0.00    -0.117 C  
HETATM   15  C   UNL     1     -10.069   4.053  72.842  1.00  0.00    -0.214 C  
BRANCH  14  16
HETATM   16  C   UNL     1      -7.285   5.664  72.161  1.00  0.00    -0.089 C  
HETATM   17  O   UNL     1      -7.354   6.848  71.367  1.00  0.00    -0.079 OA 
HETATM   18  H   UNL     1      -6.661   6.892  70.718  1.00  0.00     0.000 HD 
ENDBRANCH  14  16
ENDBRANCH   4  11
TORSDOF 2
ENDMDL
MODEL      155
REMARK 921   NORMALIZED FREE ENERGY PREDICTED BY IDOCK:   -2.90 KCAL/MOL
REMARK 922        TOTAL FREE ENERGY PREDICTED BY IDOCK:   -3.59 KCAL/MOL
REMARK 923 INTER-LIGAND FREE ENERGY PREDICTED BY IDOCK:   -3.29 KCAL/MOL
REMARK 924 INTRA-LIGAND FREE ENERGY PREDICTED BY IDOCK:   -0.30 KCAL/MOL
REMARK 927      BINDING AFFINITY PREDICTED BY RF-SCORE:    0.00 PKD
ROOT
HETATM    1  C   UNL     1      -6.308   8.568  72.302  1.00  0.00    -0.073 C  
HETATM    2  C   UNL     1      -7.799   8.495  72.359  1.00  0.00    -0.112 C  
HETATM    3  C   UNL     1      -8.613   8.941  71.396  1.00  0.00    -0.172 C  
HETATM    4  N   UNL     1      -9.996   8.883  71.477  1.00  0.00    -0.296 N  
HETATM    5  O   UNL     1      -7.743   7.417  74.468  1.00  0.00    -0.128 OA 
HETATM    6  C   UNL     1     -10.614   8.266  72.559  1.00  0.00    -0.337 C  
HETATM    7  O   UNL     1     -11.828   8.104  72.670  1.00  0.00    -0.395 OA 
HETATM    8  H   UNL     1     -10.218   7.388  74.362  1.00  0.00     0.000 HD 
HETATM    9  N   UNL     1      -9.777   7.812  73.546  1.00  0.00    -0.293 N  
HETATM   10  C   UNL     1      -8.415   7.870  73.546  1.00  0.00    -0.228 C  
ENDROOT
BRANCH   4  11
HETATM   11  C   UNL     1     -10.842   9.269  70.349  1.00  0.00    -0.254 C  
HETATM   12  O   UNL     1     -11.091   8.147  69.470  1.00  0.00    -0.112 OA 
HETATM   13  C   UNL     1      -9.970   9.772  68.252  1.00  0.00    -0.175 C  
HETATM   14  C   UNL     1     -10.320   8.330  68.260  1.00  0.00    -0.198 C  
HETATM   15  C   UNL     1     -10.219  10.287  69.456  1.00  0.00    -0.261 C  
BRANCH  14  16
HETATM   16  C   UNL     1      -9.057   7.447  68.274  1.00  0.00    -0.128 C  
HETATM   17  O   UNL     1      -9.188   6.319  69.139  1.00  0.00    -0.129 OA 
HETATM   18  H   UNL     1      -8.409   5.775  69.149  1.00  0.00     0.000 HD 
ENDBRANCH  14  16
ENDBRANCH   4  11
TORSDOF 2
ENDMDL
MODEL      156
REMARK 921   NORMALIZED FREE ENERGY PREDICTED BY IDOCK:   -2.89 KCAL/MOL
REMARK 922        TOTAL FREE ENERGY PREDICTED BY IDOCK:   -3.57 KCAL/MOL
REMARK 923 INTER-LIGAND FREE ENERGY PREDICTED BY IDOCK:   -3.23 KCAL/MOL
REMARK 924 INTRA-LIGAND FREE ENERGY PREDICTED BY IDOCK:   -0.34 KCAL/MOL
REMARK 927      BINDING AFFINITY PREDICTED BY RF-SCORE:    0.00 PKD
ROOT
HETATM    1  C   UNL     1      -8.045   5.227  67.994  1.00  0.00    -0.099 C  
HETATM    2  C   UNL     1      -8.722   5.918  69.133  1.00  0.00    -0.118 C  
HETATM    3  C   UNL     1      -8.561   7.212  69.432  1.00  0.00    -0.134 C  
HETATM    4  N   UNL     1      -9.182   7.830  70.505  1.00  0.00    -0.161 N  
HETATM    5  O   UNL     1      -9.866   3.940  69.756  1.00  0.00    -0.195 OA 
HETATM    6  C   UNL     1     -10.090   7.132  71.294  1.00  0.00    -0.189 C  
HETATM    7  O   UNL     1     -10.740   7.626  72.213  1.00  0.00    -0.229 OA 
HETATM    8  H   UNL     1     -10.887   5.272  71.578  1.00  0.00     0.000 HD 
HETATM    9  N   UNL     1     -10.251   5.805  70.987  1.00  0.00    -0.207 N  
HETATM   10  C   UNL     1      -9.645   5.128  69.970  1.00  0.00    -0.181 C  
ENDROOT
BRANCH   4  11
HETATM   11  C   UNL     1      -9.075   9.272  70.720  1.00  0.00    -0.244 C  
HETATM   12  O   UNL     1     -10.185   9.978  70.118  1.00  0.00    -0.262 OA 
HETATM   13  C   UNL     1      -8.235  10.716  69.100  1.00  0.00    -0.142 C  
HETATM   14  C   UNL     1      -9.709  10.662  68.935  1.00  0.00    -0.202 C  
HETATM   15  C   UNL     1      -7.876   9.885  70.078  1.00  0.00    -0.192 C  
BRANCH  14  16
HETATM   16  C   UNL     1     -10.104   9.893  67.660  1.00  0.00    -0.197 C  
HETATM   17  O   UNL     1     -11.209   9.014  67.871  1.00  0.00    -0.476 OA 
HETATM   18  H   UNL     1     -11.452   8.540  67.085  1.00  0.00     0.000 HD 
ENDBRANCH  14  16
ENDBRANCH   4  11
TORSDOF 2
ENDMDL
MODEL      157
REMARK 921   NORMALIZED FREE ENERGY PREDICTED BY IDOCK:   -2.88 KCAL/MOL
REMARK 922        TOTAL FREE ENERGY PREDICTED BY IDOCK:   -3.56 KCAL/MOL
REMARK 923 INTER-LIGAND FREE ENERGY PREDICTED BY IDOCK:   -3.65 KCAL/MOL
REMARK 924 INTRA-LIGAND FREE ENERGY PREDICTED BY IDOCK:    0.09 KCAL/MOL
REMARK 927      BINDING AFFINITY PREDICTED BY RF-SCORE:    0.00 PKD
ROOT
HETATM    1  C   UNL     1      -6.366   8.419  70.689  1.00  0.00    -0.036 C  
HETATM    2  C   UNL     1      -7.699   8.319  71.356  1.00  0.00    -0.108 C  
HETATM    3  C   UNL     1      -8.849   8.719  70.803  1.00  0.00    -0.191 C  
HETATM    4  N   UNL     1     -10.074   8.635  71.447  1.00  0.00    -0.229 N  
HETATM    5  O   UNL     1      -6.748   7.308  73.276  1.00  0.00    -0.064 OA 
HETATM    6  C   UNL     1     -10.175   8.040  72.700  1.00  0.00    -0.316 C  
HETATM    7  O   UNL     1     -11.231   7.857  73.303  1.00  0.00    -0.308 OA 
HETATM    8  H   UNL     1      -9.047   7.227  74.198  1.00  0.00     0.000 HD 
HETATM    9  N   UNL     1      -8.993   7.634  73.264  1.00  0.00    -0.180 N  
HETATM   10  C   UNL     1      -7.753   7.719  72.703  1.00  0.00    -0.105 C  
ENDROOT
BRANCH   4  11
HETATM   11  C   UNL     1     -11.321   8.969  70.759  1.00  0.00    -0.277 C  
HETATM   12  O   UNL     1     -11.091   9.235  69.355  1.00  0.00    -0.170 OA 
HETATM   13  C   UNL     1     -11.950  11.165  70.316  1.00  0.00    -0.460 C  
HETATM   14  C   UNL     1     -11.214  10.659  69.130  1.00  0.00    -0.265 C  
HETATM   15  C   UNL     1     -11.960  10.221  71.257  1.00  0.00    -0.457 C  
BRANCH  14  16
HETATM   16  C   UNL     1      -9.826  11.318  69.009  1.00  0.00    -0.082 C  
HETATM   17  O   UNL     1      -9.906  12.730  68.814  1.00  0.00    -0.403 OA 
HETATM   18  H   UNL     1      -9.051  13.136  68.739  1.00  0.00     0.000 HD 
ENDBRANCH  14  16
ENDBRANCH   4  11
TORSDOF 2
ENDMDL
MODEL      158
REMARK 921   NORMALIZED FREE ENERGY PREDICTED BY IDOCK:   -2.87 KCAL/MOL
REMARK 922        TOTAL FREE ENERGY PREDICTED BY IDOCK:   -3.55 KCAL/MOL
REMARK 923 INTER-LIGAND FREE ENERGY PREDICTED BY IDOCK:   -3.76 KCAL/MOL
REMARK 924 INTRA-LIGAND FREE ENERGY PREDICTED BY IDOCK:    0.21 KCAL/MOL
REMARK 927      BINDING AFFINITY PREDICTED BY RF-SCORE:    0.00 PKD
ROOT
HETATM    1  C   UNL     1     -12.347  15.056  70.972  1.00  0.00    -0.394 C  
HETATM    2  C   UNL     1     -12.503  13.571  71.034  1.00  0.00    -0.451 C  
HETATM    3  C   UNL     1     -11.871  12.713  70.225  1.00  0.00    -0.214 C  
HETATM    4  N   UNL     1     -12.044  11.340  70.285  1.00  0.00    -0.349 N  
HETATM    5  O   UNL     1     -13.999  13.727  72.864  1.00  0.00    -0.635 OA 
HETATM    6  C   UNL     1     -12.844  10.771  71.271  1.00  0.00    -0.438 C  
HETATM    7  O   UNL     1     -12.988   9.561  71.441  1.00  0.00    -0.339 OA 
HETATM    8  H   UNL     1     -14.110  11.252  72.802  1.00  0.00     0.000 HD 
HETATM    9  N   UNL     1     -13.493  11.653  72.096  1.00  0.00    -0.320 N  
HETATM   10  C   UNL     1     -13.395  13.013  72.068  1.00  0.00    -0.492 C  
ENDROOT
BRANCH   4  11
HETATM   11  C   UNL     1     -11.241  10.434  69.466  1.00  0.00    -0.269 C  
HETATM   12  O   UNL     1     -11.005   9.179  70.147  1.00  0.00    -0.236 OA 
HETATM   13  C   UNL     1      -8.948  10.182  69.768  1.00  0.00    -0.159 C  
HETATM   14  C   UNL     1      -9.626   9.143  70.583  1.00  0.00    -0.255 C  
HETATM   15  C   UNL     1      -9.869  10.944  69.180  1.00  0.00    -0.164 C  
BRANCH  14  16
HETATM   16  C   UNL     1      -9.517   9.452  72.088  1.00  0.00     1.133 C  
HETATM   17  O   UNL     1     -10.325   8.585  72.884  1.00  0.00    -0.179 OA 
HETATM   18  H   UNL     1     -10.259   8.775  73.812  1.00  0.00     0.000 HD 
ENDBRANCH  14  16
ENDBRANCH   4  11
TORSDOF 2
ENDMDL
MODEL      159
REMARK 921   NORMALIZED FREE ENERGY PREDICTED BY IDOCK:   -2.86 KCAL/MOL
REMARK 922        TOTAL FREE ENERGY PREDICTED BY IDOCK:   -3.54 KCAL/MOL
REMARK 923 INTER-LIGAND FREE ENERGY PREDICTED BY IDOCK:   -3.50 KCAL/MOL
REMARK 924 INTRA-LIGAND FREE ENERGY PREDICTED BY IDOCK:   -0.05 KCAL/MOL
REMARK 927      BINDING AFFINITY PREDICTED BY RF-SCORE:    0.00 PKD
ROOT
HETATM    1  C   UNL     1      -7.242   9.759  70.474  1.00  0.00    -0.130 C  
HETATM    2  C   UNL     1      -8.537   9.027  70.338  1.00  0.00    -0.215 C  
HETATM    3  C   UNL     1      -9.075   8.658  69.170  1.00  0.00    -0.142 C  
HETATM    4  N   UNL     1     -10.288   7.996  69.063  1.00  0.00    -0.217 N  
HETATM    5  O   UNL     1      -8.831   8.950  72.687  1.00  0.00    -0.358 OA 
HETATM    6  C   UNL     1     -10.981   7.604  70.203  1.00  0.00    -0.246 C  
HETATM    7  O   UNL     1     -12.021   6.948  70.196  1.00  0.00    -0.271 OA 
HETATM    8  H   UNL     1     -10.944   7.735  72.242  1.00  0.00     0.000 HD 
HETATM    9  N   UNL     1     -10.429   7.986  71.399  1.00  0.00    -0.211 N  
HETATM   10  C   UNL     1      -9.261   8.667  71.573  1.00  0.00    -0.246 C  
ENDROOT
BRANCH   4  11
HETATM   11  C   UNL     1     -10.777   7.504  67.776  1.00  0.00    -0.163 C  
HETATM   12  O   UNL     1     -11.184   6.118  67.864  1.00  0.00    -0.304 OA 
HETATM   13  C   UNL     1      -9.446   6.256  66.333  1.00  0.00    -0.165 C  
HETATM   14  C   UNL     1     -10.195   5.304  67.191  1.00  0.00    -0.220 C  
HETATM   15  C   UNL     1      -9.740   7.501  66.704  1.00  0.00    -0.273 C  
BRANCH  14  16
HETATM   16  C   UNL     1      -9.264   4.616  68.209  1.00  0.00    -0.128 C  
HETATM   17  O   UNL     1      -9.887   4.432  69.481  1.00  0.00    -0.209 OA 
HETATM   18  H   UNL     1      -9.313   4.008  70.109  1.00  0.00     0.000 HD 
ENDBRANCH  14  16
ENDBRANCH   4  11
TORSDOF 2
ENDMDL
MODEL      160
REMARK 921   NORMALIZED FREE ENERGY PREDICTED BY IDOCK:   -2.85 KCAL/MOL
REMARK 922        TOTAL FREE ENERGY PREDICTED BY IDOCK:   -3.53 KCAL/MOL
REMARK 923 INTER-LIGAND FREE ENERGY PREDICTED BY IDOCK:   -3.71 KCAL/MOL
REMARK 924 INTRA-LIGAND FREE ENERGY PREDICTED BY IDOCK:    0.18 KCAL/MOL
REMARK 927      BINDING AFFINITY PREDICTED BY RF-SCORE:    0.00 PKD
ROOT
HETATM    1  C   UNL     1     -10.177   5.237  68.117  1.00  0.00    -0.204 C  
HETATM    2  C   UNL     1     -10.252   6.720  68.276  1.00  0.00    -0.194 C  
HETATM    3  C   UNL     1     -10.570   7.340  69.418  1.00  0.00    -0.229 C  
HETATM    4  N   UNL     1     -10.654   8.718  69.542  1.00  0.00    -0.227 N  
HETATM    5  O   UNL     1      -9.614   7.074  66.022  1.00  0.00    -0.015 OA 
HETATM    6  C   UNL     1     -10.323   9.544  68.473  1.00  0.00    -0.207 C  
HETATM    7  O   UNL     1     -10.296  10.772  68.522  1.00  0.00    -0.169 OA 
HETATM    8  H   UNL     1      -9.788   9.499  66.500  1.00  0.00     0.000 HD 
HETATM    9  N   UNL     1     -10.000   8.906  67.303  1.00  0.00    -0.197 N  
HETATM   10  C   UNL     1      -9.933   7.558  67.104  1.00  0.00    -0.220 C  
ENDROOT
BRANCH   4  11
HETATM   11  C   UNL     1     -10.883   9.355  70.837  1.00  0.00    -0.322 C  
HETATM   12  O   UNL     1      -9.854   8.995  71.789  1.00  0.00    -0.310 OA 
HETATM   13  C   UNL     1     -11.885   8.237  72.615  1.00  0.00    -0.382 C  
HETATM   14  C   UNL     1     -10.416   8.070  72.749  1.00  0.00    -0.345 C  
HETATM   15  C   UNL     1     -12.146   8.920  71.501  1.00  0.00    -0.395 C  
BRANCH  14  16
HETATM   16  C   UNL     1      -9.985   6.624  72.435  1.00  0.00    -0.166 C  
HETATM   17  O   UNL     1      -8.869   6.204  73.220  1.00  0.00    -0.127 OA 
HETATM   18  H   UNL     1      -8.603   5.312  73.026  1.00  0.00     0.000 HD 
ENDBRANCH  14  16
ENDBRANCH   4  11
TORSDOF 2
ENDMDL
MODEL      161
REMARK 921   NORMALIZED FREE ENERGY PREDICTED BY IDOCK:   -2.85 KCAL/MOL
REMARK 922        TOTAL FREE ENERGY PREDICTED BY IDOCK:   -3.53 KCAL/MOL
REMARK 923 INTER-LIGAND FREE ENERGY PREDICTED BY IDOCK:   -3.25 KCAL/MOL
REMARK 924 INTRA-LIGAND FREE ENERGY PREDICTED BY IDOCK:   -0.28 KCAL/MOL
REMARK 927      BINDING AFFINITY PREDICTED BY RF-SCORE:    0.00 PKD
ROOT
HETATM    1  C   UNL     1     -10.300  13.434  66.093  1.00  0.00    -0.295 C  
HETATM    2  C   UNL     1      -9.807  12.088  65.673  1.00  0.00    -0.265 C  
HETATM    3  C   UNL     1      -9.072  11.280  66.446  1.00  0.00    -0.192 C  
HETATM    4  N   UNL     1      -8.607  10.042  66.031  1.00  0.00    -0.135 N  
HETATM    5  O   UNL     1     -10.858  12.276  63.559  1.00  0.00    -0.425 OA 
HETATM    6  C   UNL     1      -8.962   9.536  64.785  1.00  0.00    -0.218 C  
HETATM    7  O   UNL     1      -8.657   8.417  64.373  1.00  0.00    -0.095 OA 
HETATM    8  H   UNL     1      -9.952  10.024  63.064  1.00  0.00     0.000 HD 
HETATM    9  N   UNL     1      -9.713  10.367  63.994  1.00  0.00    -0.311 N  
HETATM   10  C   UNL     1     -10.172  11.608  64.326  1.00  0.00    -0.311 C  
ENDROOT
BRANCH   4  11
HETATM   11  C   UNL     1      -7.914   9.141  66.949  1.00  0.00    -0.105 C  
HETATM   12  O   UNL     1      -8.811   8.135  67.477  1.00  0.00    -0.133 OA 
HETATM   13  C   UNL     1      -8.021   9.392  69.260  1.00  0.00    -0.093 C  
HETATM   14  C   UNL     1      -9.099   8.454  68.859  1.00  0.00    -0.147 C  
HETATM   15  C   UNL     1      -7.387   9.820  68.168  1.00  0.00    -0.080 C  
BRANCH  14  16
HETATM   16  C   UNL     1     -10.488   9.106  68.995  1.00  0.00    -0.221 C  
HETATM   17  O   UNL     1     -10.424  10.423  69.542  1.00  0.00    -0.223 OA 
HETATM   18  H   UNL     1     -11.280  10.825  69.626  1.00  0.00     0.000 HD 
ENDBRANCH  14  16
ENDBRANCH   4  11
TORSDOF 2
ENDMDL
MODEL      162
REMARK 921   NORMALIZED FREE ENERGY PREDICTED BY IDOCK:   -2.85 KCAL/MOL
REMARK 922        TOTAL FREE ENERGY PREDICTED BY IDOCK:   -3.53 KCAL/MOL
REMARK 923 INTER-LIGAND FREE ENERGY PREDICTED BY IDOCK:   -3.23 KCAL/MOL
REMARK 924 INTRA-LIGAND FREE ENERGY PREDICTED BY IDOCK:   -0.30 KCAL/MOL
REMARK 927      BINDING AFFINITY PREDICTED BY RF-SCORE:    0.00 PKD
ROOT
HETATM    1  C   UNL     1     -11.074   6.814  69.384  1.00  0.00    -0.310 C  
HETATM    2  C   UNL     1     -10.303   7.150  68.149  1.00  0.00    -0.234 C  
HETATM    3  C   UNL     1     -10.375   8.324  67.513  1.00  0.00    -0.265 C  
HETATM    4  N   UNL     1      -9.667   8.610  66.356  1.00  0.00    -0.249 N  
HETATM    5  O   UNL     1      -9.244   5.031  68.139  1.00  0.00    -0.112 OA 
HETATM    6  C   UNL     1      -8.763   7.691  65.836  1.00  0.00    -0.152 C  
HETATM    7  O   UNL     1      -8.041   7.896  64.862  1.00  0.00    -0.139 OA 
HETATM    8  H   UNL     1      -8.059   5.790  66.100  1.00  0.00     0.000 HD 
HETATM    9  N   UNL     1      -8.693   6.487  66.490  1.00  0.00    -0.129 N  
HETATM   10  C   UNL     1      -9.386   6.129  67.608  1.00  0.00    -0.112 C  
ENDROOT
BRANCH   4  11
HETATM   11  C   UNL     1      -9.682   9.947  65.764  1.00  0.00    -0.266 C  
HETATM   12  O   UNL     1      -8.552  10.733  66.213  1.00  0.00    -0.150 OA 
HETATM   13  C   UNL     1     -10.489  11.807  66.906  1.00  0.00    -0.256 C  
HETATM   14  C   UNL     1      -9.027  11.728  67.150  1.00  0.00    -0.177 C  
HETATM   15  C   UNL     1     -10.863  10.765  66.165  1.00  0.00    -0.124 C  
BRANCH  14  16
HETATM   16  C   UNL     1      -8.721  11.306  68.600  1.00  0.00    -0.136 C  
HETATM   17  O   UNL     1      -9.874  11.368  69.441  1.00  0.00    -0.418 OA 
HETATM   18  H   UNL     1      -9.686  11.108  70.335  1.00  0.00     0.000 HD 
ENDBRANCH  14  16
ENDBRANCH   4  11
TORSDOF 2
ENDMDL
MODEL      163
REMARK 921   NORMALIZED FREE ENERGY PREDICTED BY IDOCK:   -2.82 KCAL/MOL
REMARK 922        TOTAL FREE ENERGY PREDICTED BY IDOCK:   -3.49 KCAL/MOL
REMARK 923 INTER-LIGAND FREE ENERGY PREDICTED BY IDOCK:   -3.19 KCAL/MOL
REMARK 924 INTRA-LIGAND FREE ENERGY PREDICTED BY IDOCK:   -0.31 KCAL/MOL
REMARK 927      BINDING AFFINITY PREDICTED BY RF-SCORE:    0.00 PKD
ROOT
HETATM    1  C   UNL     1      -7.351   9.189  71.004  1.00  0.00    -0.116 C  
HETATM    2  C   UNL     1      -8.451   8.253  71.387  1.00  0.00    -0.172 C  
HETATM    3  C   UNL     1      -9.123   7.486  70.522  1.00  0.00    -0.156 C  
HETATM    4  N   UNL     1     -10.155   6.639  70.894  1.00  0.00    -0.187 N  
HETATM    5  O   UNL     1      -8.228   8.806  73.680  1.00  0.00    -0.366 OA 
HETATM    6  C   UNL     1     -10.493   6.484  72.234  1.00  0.00    -0.202 C  
HETATM    7  O   UNL     1     -11.340   5.697  72.654  1.00  0.00    -0.285 OA 
HETATM    8  H   UNL     1     -10.065   7.197  74.102  1.00  0.00     0.000 HD 
HETATM    9  N   UNL     1      -9.804   7.274  73.119  1.00  0.00    -0.210 N  
HETATM   10  C   UNL     1      -8.806   8.152  72.816  1.00  0.00    -0.231 C  
ENDROOT
BRANCH   4  11
HETATM   11  C   UNL     1     -10.777   5.728  69.935  1.00  0.00    -0.342 C  
HETATM   12  O   UNL     1     -10.258   4.384  70.072  1.00  0.00    -0.168 OA 
HETATM   13  C   UNL     1      -9.749   5.131  67.935  1.00  0.00    -0.184 C  
HETATM   14  C   UNL     1      -9.386   4.110  68.950  1.00  0.00    -0.163 C  
HETATM   15  C   UNL     1     -10.493   6.074  68.512  1.00  0.00    -0.287 C  
BRANCH  14  16
HETATM   16  C   UNL     1      -7.906   4.230  69.363  1.00  0.00    -0.057 C  
HETATM   17  O   UNL     1      -7.170   5.105  68.508  1.00  0.00    -0.060 OA 
HETATM   18  H   UNL     1      -6.258   5.180  68.762  1.00  0.00     0.000 HD 
ENDBRANCH  14  16
ENDBRANCH   4  11
TORSDOF 2
ENDMDL
MODEL      164
REMARK 921   NORMALIZED FREE ENERGY PREDICTED BY IDOCK:   -2.82 KCAL/MOL
REMARK 922        TOTAL FREE ENERGY PREDICTED BY IDOCK:   -3.49 KCAL/MOL
REMARK 923 INTER-LIGAND FREE ENERGY PREDICTED BY IDOCK:   -4.47 KCAL/MOL
REMARK 924 INTRA-LIGAND FREE ENERGY PREDICTED BY IDOCK:    0.98 KCAL/MOL
REMARK 927      BINDING AFFINITY PREDICTED BY RF-SCORE:    0.00 PKD
ROOT
HETATM    1  C   UNL     1     -12.667  15.472  70.968  1.00  0.00    -0.526 C  
HETATM    2  C   UNL     1     -12.431  14.226  70.179  1.00  0.00    -0.393 C  
HETATM    3  C   UNL     1     -12.044  14.207  68.899  1.00  0.00    -0.304 C  
HETATM    4  N   UNL     1     -11.850  13.040  68.177  1.00  0.00    -0.348 N  
HETATM    5  O   UNL     1     -12.952  12.855  72.040  1.00  0.00    -0.335 OA 
HETATM    6  C   UNL     1     -11.975  11.799  68.793  1.00  0.00    -0.257 C  
HETATM    7  O   UNL     1     -11.745  10.722  68.247  1.00  0.00    -0.468 OA 
HETATM    8  H   UNL     1     -12.503  10.919  70.561  1.00  0.00     0.000 HD 
HETATM    9  N   UNL     1     -12.374  11.822  70.105  1.00  0.00    -0.234 N  
HETATM   10  C   UNL     1     -12.616  12.930  70.861  1.00  0.00    -0.270 C  
ENDROOT
BRANCH   4  11
HETATM   11  C   UNL     1     -11.309  13.064  66.819  1.00  0.00    -0.324 C  
HETATM   12  O   UNL     1     -10.735  11.785  66.459  1.00  0.00    -0.244 OA 
HETATM   13  C   UNL     1      -9.044  13.372  66.386  1.00  0.00    -0.063 C  
HETATM   14  C   UNL     1      -9.293  11.911  66.460  1.00  0.00    -0.216 C  
HETATM   15  C   UNL     1     -10.179  14.021  66.644  1.00  0.00    -0.275 C  
BRANCH  14  16
HETATM   16  C   UNL     1      -8.689  11.303  67.740  1.00  0.00    -0.134 C  
HETATM   17  O   UNL     1      -7.262  11.290  67.719  1.00  0.00    -0.083 OA 
HETATM   18  H   UNL     1      -6.889  10.915  68.508  1.00  0.00     0.000 HD 
ENDBRANCH  14  16
ENDBRANCH   4  11
TORSDOF 2
ENDMDL
MODEL      165
REMARK 921   NORMALIZED FREE ENERGY PREDICTED BY IDOCK:   -2.81 KCAL/MOL
REMARK 922        TOTAL FREE ENERGY PREDICTED BY IDOCK:   -3.48 KCAL/MOL
REMARK 923 INTER-LIGAND FREE ENERGY PREDICTED BY IDOCK:   -3.44 KCAL/MOL
REMARK 924 INTRA-LIGAND FREE ENERGY PREDICTED BY IDOCK:   -0.04 KCAL/MOL
REMARK 927      BINDING AFFINITY PREDICTED BY RF-SCORE:    0.00 PKD
ROOT
HETATM    1  C   UNL     1     -11.942   8.547  70.752  1.00  0.00    -0.129 C  
HETATM    2  C   UNL     1     -11.488   9.857  70.196  1.00  0.00    -0.309 C  
HETATM    3  C   UNL     1     -10.514   9.994  69.289  1.00  0.00    -0.225 C  
HETATM    4  N   UNL     1     -10.094  11.221  68.800  1.00  0.00    -0.202 N  
HETATM    5  O   UNL     1     -13.089  11.044  71.476  1.00  0.00    -0.418 OA 
HETATM    6  C   UNL     1     -10.739  12.392  69.181  1.00  0.00    -0.034 C  
HETATM    7  O   UNL     1     -10.480  13.509  68.735  1.00  0.00    -0.245 OA 
HETATM    8  H   UNL     1     -12.195  13.103  70.427  1.00  0.00     0.000 HD 
HETATM    9  N   UNL     1     -11.735  12.249  70.113  1.00  0.00    -0.257 N  
HETATM   10  C   UNL     1     -12.173  11.079  70.660  1.00  0.00    -0.385 C  
ENDROOT
BRANCH   4  11
HETATM   11  C   UNL     1      -9.112  11.315  67.720  1.00  0.00    -0.152 C  
HETATM   12  O   UNL     1      -9.582  12.176  66.656  1.00  0.00    -0.208 OA 
HETATM   13  C   UNL     1      -9.278  10.053  65.772  1.00  0.00    -0.222 C  
HETATM   14  C   UNL     1      -9.950  11.353  65.525  1.00  0.00    -0.239 C  
HETATM   15  C   UNL     1      -8.852  10.016  67.035  1.00  0.00    -0.147 C  
BRANCH  14  16
HETATM   16  C   UNL     1     -11.480  11.186  65.441  1.00  0.00     0.333 C  
HETATM   17  O   UNL     1     -12.177  12.119  66.266  1.00  0.00    -0.604 OA 
HETATM   18  H   UNL     1     -13.120  12.017  66.215  1.00  0.00     0.000 HD 
ENDBRANCH  14  16
ENDBRANCH   4  11
TORSDOF 2
ENDMDL
MODEL      166
REMARK 921   NORMALIZED FREE ENERGY PREDICTED BY IDOCK:   -2.81 KCAL/MOL
REMARK 922        TOTAL FREE ENERGY PREDICTED BY IDOCK:   -3.48 KCAL/MOL
REMARK 923 INTER-LIGAND FREE ENERGY PREDICTED BY IDOCK:   -3.67 KCAL/MOL
REMARK 924 INTRA-LIGAND FREE ENERGY PREDICTED BY IDOCK:    0.19 KCAL/MOL
REMARK 927      BINDING AFFINITY PREDICTED BY RF-SCORE:    0.00 PKD
ROOT
HETATM    1  C   UNL     1      -7.435  15.785  67.933  1.00  0.00    -0.147 C  
HETATM    2  C   UNL     1      -7.555  14.306  67.763  1.00  0.00    -0.175 C  
HETATM    3  C   UNL     1      -8.705  13.628  67.847  1.00  0.00    -0.184 C  
HETATM    4  N   UNL     1      -8.792  12.252  67.706  1.00  0.00    -0.165 N  
HETATM    5  O   UNL     1      -5.233  14.088  67.346  1.00  0.00    -0.333 OA 
HETATM    6  C   UNL     1      -7.666  11.503  67.380  1.00  0.00    -0.143 C  
HETATM    7  O   UNL     1      -7.673  10.293  67.161  1.00  0.00    -0.092 OA 
HETATM    8  H   UNL     1      -5.649  11.659  67.093  1.00  0.00     0.000 HD 
HETATM    9  N   UNL     1      -6.489  12.200  67.297  1.00  0.00    -0.146 N  
HETATM   10  C   UNL     1      -6.327  13.545  67.460  1.00  0.00    -0.082 C  
ENDROOT
BRANCH   4  11
HETATM   11  C   UNL     1     -10.084  11.569  67.682  1.00  0.00    -0.184 C  
HETATM   12  O   UNL     1     -11.134  12.445  67.209  1.00  0.00    -0.254 OA 
HETATM   13  C   UNL     1     -11.655  11.816  69.381  1.00  0.00    -0.386 C  
HETATM   14  C   UNL     1     -11.960  12.824  68.335  1.00  0.00    -0.231 C  
HETATM   15  C   UNL     1     -10.559  11.143  69.031  1.00  0.00    -0.251 C  
BRANCH  14  16
HETATM   16  C   UNL     1     -11.619  14.249  68.813  1.00  0.00    -0.322 C  
HETATM   17  O   UNL     1     -12.742  14.916  69.388  1.00  0.00    -0.574 OA 
HETATM   18  H   UNL     1     -12.531  15.794  69.683  1.00  0.00     0.000 HD 
ENDBRANCH  14  16
ENDBRANCH   4  11
TORSDOF 2
ENDMDL
MODEL      167
REMARK 921   NORMALIZED FREE ENERGY PREDICTED BY IDOCK:   -2.81 KCAL/MOL
REMARK 922        TOTAL FREE ENERGY PREDICTED BY IDOCK:   -3.48 KCAL/MOL
REMARK 923 INTER-LIGAND FREE ENERGY PREDICTED BY IDOCK:   -3.59 KCAL/MOL
REMARK 924 INTRA-LIGAND FREE ENERGY PREDICTED BY IDOCK:    0.11 KCAL/MOL
REMARK 927      BINDING AFFINITY PREDICTED BY RF-SCORE:    0.00 PKD
ROOT
HETATM    1  C   UNL     1      -9.195   4.252  67.541  1.00  0.00    -0.174 C  
HETATM    2  C   UNL     1      -9.967   5.001  68.578  1.00  0.00    -0.207 C  
HETATM    3  C   UNL     1      -9.811   4.839  69.896  1.00  0.00    -0.221 C  
HETATM    4  N   UNL     1     -10.551   5.529  70.843  1.00  0.00    -0.251 N  
HETATM    5  O   UNL     1     -11.146   6.225  66.928  1.00  0.00    -0.361 OA 
HETATM    6  C   UNL     1     -11.460   6.507  70.453  1.00  0.00    -0.404 C  
HETATM    7  O   UNL     1     -12.098   7.217  71.229  1.00  0.00    -0.312 OA 
HETATM    8  H   UNL     1     -12.309   7.358  68.799  1.00  0.00     0.000 HD 
HETATM    9  N   UNL     1     -11.620   6.668  69.101  1.00  0.00    -0.130 N  
HETATM   10  C   UNL     1     -10.952   5.999  68.118  1.00  0.00    -0.246 C  
ENDROOT
BRANCH   4  11
HETATM   11  C   UNL     1     -10.261   5.413  72.271  1.00  0.00    -0.196 C  
HETATM   12  O   UNL     1      -9.251   4.407  72.522  1.00  0.00    -0.121 OA 
HETATM   13  C   UNL     1     -11.196   3.748  73.601  1.00  0.00    -0.288 C  
HETATM   14  C   UNL     1      -9.890   3.247  73.105  1.00  0.00    -0.114 C  
HETATM   15  C   UNL     1     -11.426   4.954  73.082  1.00  0.00    -0.362 C  
BRANCH  14  16
HETATM   16  C   UNL     1     -10.078   2.136  72.053  1.00  0.00    -0.149 C  
HETATM   17  O   UNL     1      -8.907   1.929  71.263  1.00  0.00    -0.058 OA 
HETATM   18  H   UNL     1      -9.023   1.245  70.614  1.00  0.00     0.000 HD 
ENDBRANCH  14  16
ENDBRANCH   4  11
TORSDOF 2
ENDMDL
MODEL      168
REMARK 921   NORMALIZED FREE ENERGY PREDICTED BY IDOCK:   -2.80 KCAL/MOL
REMARK 922        TOTAL FREE ENERGY PREDICTED BY IDOCK:   -3.47 KCAL/MOL
REMARK 923 INTER-LIGAND FREE ENERGY PREDICTED BY IDOCK:   -3.28 KCAL/MOL
REMARK 924 INTRA-LIGAND FREE ENERGY PREDICTED BY IDOCK:   -0.19 KCAL/MOL
REMARK 927      BINDING AFFINITY PREDICTED BY RF-SCORE:    0.00 PKD
ROOT
HETATM    1  C   UNL     1     -12.441  10.661  70.781  1.00  0.00    -0.480 C  
HETATM    2  C   UNL     1     -11.673   9.863  69.777  1.00  0.00    -0.079 C  
HETATM    3  C   UNL     1     -11.406  10.275  68.533  1.00  0.00    -0.168 C  
HETATM    4  N   UNL     1     -10.709   9.512  67.610  1.00  0.00    -0.278 N  
HETATM    5  O   UNL     1     -11.338   8.098  71.321  1.00  0.00    -0.254 OA 
HETATM    6  C   UNL     1     -10.170   8.282  67.973  1.00  0.00    -0.214 C  
HETATM    7  O   UNL     1      -9.475   7.581  67.240  1.00  0.00    -0.140 OA 
HETATM    8  H   UNL     1     -10.088   6.946  69.518  1.00  0.00     0.000 HD 
HETATM    9  N   UNL     1     -10.448   7.862  69.248  1.00  0.00    -0.221 N  
HETATM   10  C   UNL     1     -11.156   8.545  70.192  1.00  0.00    -0.188 C  
ENDROOT
BRANCH   4  11
HETATM   11  C   UNL     1     -10.333  10.051  66.304  1.00  0.00    -0.165 C  
HETATM   12  O   UNL     1      -8.909  10.297  66.226  1.00  0.00    -0.142 OA 
HETATM   13  C   UNL     1     -10.000  12.325  65.943  1.00  0.00    -0.272 C  
HETATM   14  C   UNL     1      -8.685  11.725  66.280  1.00  0.00    -0.106 C  
HETATM   15  C   UNL     1     -10.939  11.382  66.010  1.00  0.00    -0.286 C  
BRANCH  14  16
HETATM   16  C   UNL     1      -8.216  12.154  67.684  1.00  0.00    -0.163 C  
HETATM   17  O   UNL     1      -7.028  12.945  67.645  1.00  0.00    -0.122 OA 
HETATM   18  H   UNL     1      -6.738  13.210  68.511  1.00  0.00     0.000 HD 
ENDBRANCH  14  16
ENDBRANCH   4  11
TORSDOF 2
ENDMDL
MODEL      169
REMARK 921   NORMALIZED FREE ENERGY PREDICTED BY IDOCK:   -2.78 KCAL/MOL
REMARK 922        TOTAL FREE ENERGY PREDICTED BY IDOCK:   -3.45 KCAL/MOL
REMARK 923 INTER-LIGAND FREE ENERGY PREDICTED BY IDOCK:   -3.56 KCAL/MOL
REMARK 924 INTRA-LIGAND FREE ENERGY PREDICTED BY IDOCK:    0.11 KCAL/MOL
REMARK 927      BINDING AFFINITY PREDICTED BY RF-SCORE:    0.00 PKD
ROOT
HETATM    1  C   UNL     1     -12.648  10.799  70.721  1.00  0.00    -0.476 C  
HETATM    2  C   UNL     1     -11.494  10.106  70.073  1.00  0.00    -0.344 C  
HETATM    3  C   UNL     1     -11.301   8.783  70.095  1.00  0.00    -0.090 C  
HETATM    4  N   UNL     1     -10.213   8.160  69.504  1.00  0.00    -0.208 N  
HETATM    5  O   UNL     1     -10.625  12.152  69.254  1.00  0.00    -0.079 OA 
HETATM    6  C   UNL     1      -9.289   8.898  68.772  1.00  0.00    -0.137 C  
HETATM    7  O   UNL     1      -8.342   8.414  68.153  1.00  0.00    -0.125 OA 
HETATM    8  H   UNL     1      -8.800  10.812  68.248  1.00  0.00     0.000 HD 
HETATM    9  N   UNL     1      -9.488  10.254  68.752  1.00  0.00    -0.168 N  
HETATM   10  C   UNL     1     -10.515  10.933  69.341  1.00  0.00    -0.173 C  
ENDROOT
BRANCH   4  11
HETATM   11  C   UNL     1     -10.106   6.703  69.447  1.00  0.00    -0.173 C  
HETATM   12  O   UNL     1     -11.112   6.070  70.273  1.00  0.00    -0.328 OA 
HETATM   13  C   UNL     1      -9.029   5.466  71.098  1.00  0.00    -0.155 C  
HETATM   14  C   UNL     1     -10.469   5.533  71.453  1.00  0.00    -0.240 C  
HETATM   15  C   UNL     1      -8.821   6.176  69.989  1.00  0.00    -0.144 C  
BRANCH  14  16
HETATM   16  C   UNL     1     -10.704   6.448  72.671  1.00  0.00    -0.234 C  
HETATM   17  O   UNL     1     -12.067   6.852  72.796  1.00  0.00    -0.485 OA 
HETATM   18  H   UNL     1     -12.213   7.416  73.546  1.00  0.00     0.000 HD 
ENDBRANCH  14  16
ENDBRANCH   4  11
TORSDOF 2
ENDMDL
MODEL      170
REMARK 921   NORMALIZED FREE ENERGY PREDICTED BY IDOCK:   -2.77 KCAL/MOL
REMARK 922        TOTAL FREE ENERGY PREDICTED BY IDOCK:   -3.43 KCAL/MOL
REMARK 923 INTER-LIGAND FREE ENERGY PREDICTED BY IDOCK:   -3.47 KCAL/MOL
REMARK 924 INTRA-LIGAND FREE ENERGY PREDICTED BY IDOCK:    0.03 KCAL/MOL
REMARK 927      BINDING AFFINITY PREDICTED BY RF-SCORE:    0.00 PKD
ROOT
HETATM    1  C   UNL     1      -9.916   6.157  66.483  1.00  0.00    -0.179 C  
HETATM    2  C   UNL     1      -9.390   6.522  67.833  1.00  0.00    -0.111 C  
HETATM    3  C   UNL     1      -9.594   7.703  68.426  1.00  0.00    -0.151 C  
HETATM    4  N   UNL     1      -9.080   8.030  69.671  1.00  0.00    -0.152 N  
HETATM    5  O   UNL     1      -8.395   4.390  68.108  1.00  0.00    -0.093 OA 
HETATM    6  C   UNL     1      -8.378   7.088  70.415  1.00  0.00    -0.129 C  
HETATM    7  O   UNL     1      -7.958   7.272  71.556  1.00  0.00    -0.098 OA 
HETATM    8  H   UNL     1      -7.625   5.190  70.323  1.00  0.00     0.000 HD 
HETATM    9  N   UNL     1      -8.169   5.879  69.803  1.00  0.00    -0.111 N  
HETATM   10  C   UNL     1      -8.614   5.506  68.569  1.00  0.00    -0.102 C  
ENDROOT
BRANCH   4  11
HETATM   11  C   UNL     1      -9.431   9.285  70.334  1.00  0.00    -0.246 C  
HETATM   12  O   UNL     1      -9.883   9.055  71.689  1.00  0.00    -0.306 OA 
HETATM   13  C   UNL     1     -11.627  10.031  70.511  1.00  0.00    -0.403 C  
HETATM   14  C   UNL     1     -11.316   9.255  71.737  1.00  0.00    -0.367 C  
HETATM   15  C   UNL     1     -10.573  10.000  69.696  1.00  0.00    -0.278 C  
BRANCH  14  16
HETATM   16  C   UNL     1     -12.058   7.904  71.749  1.00  0.00    -0.303 C  
HETATM   17  O   UNL     1     -12.961   7.767  70.651  1.00  0.00    -0.439 OA 
HETATM   18  H   UNL     1     -13.419   6.934  70.659  1.00  0.00     0.000 HD 
ENDBRANCH  14  16
ENDBRANCH   4  11
TORSDOF 2
ENDMDL
MODEL      171
REMARK 921   NORMALIZED FREE ENERGY PREDICTED BY IDOCK:   -2.75 KCAL/MOL
REMARK 922        TOTAL FREE ENERGY PREDICTED BY IDOCK:   -3.41 KCAL/MOL
REMARK 923 INTER-LIGAND FREE ENERGY PREDICTED BY IDOCK:   -3.51 KCAL/MOL
REMARK 924 INTRA-LIGAND FREE ENERGY PREDICTED BY IDOCK:    0.10 KCAL/MOL
REMARK 927      BINDING AFFINITY PREDICTED BY RF-SCORE:    0.00 PKD
ROOT
HETATM    1  C   UNL     1     -12.299  13.339  70.842  1.00  0.00    -0.413 C  
HETATM    2  C   UNL     1     -11.411  14.175  69.979  1.00  0.00    -0.195 C  
HETATM    3  C   UNL     1     -10.594  13.684  69.040  1.00  0.00    -0.121 C  
HETATM    4  N   UNL     1      -9.763  14.475  68.263  1.00  0.00    -0.212 N  
HETATM    5  O   UNL     1     -12.188  16.175  70.982  1.00  0.00    -0.349 OA 
HETATM    6  C   UNL     1      -9.802  15.861  68.372  1.00  0.00    -0.214 C  
HETATM    7  O   UNL     1      -9.156  16.635  67.667  1.00  0.00    -0.205 OA 
HETATM    8  H   UNL     1     -10.652  17.374  69.452  1.00  0.00     0.000 HD 
HETATM    9  N   UNL     1     -10.638  16.360  69.337  1.00  0.00    -0.298 N  
HETATM   10  C   UNL     1     -11.454  15.639  70.158  1.00  0.00    -0.348 C  
ENDROOT
BRANCH   4  11
HETATM   11  C   UNL     1      -8.979  13.909  67.166  1.00  0.00    -0.235 C  
HETATM   12  O   UNL     1      -9.305  12.515  66.952  1.00  0.00    -0.206 OA 
HETATM   13  C   UNL     1      -7.061  12.642  67.529  1.00  0.00    -0.152 C  
HETATM   14  C   UNL     1      -8.209  11.705  67.439  1.00  0.00    -0.153 C  
HETATM   15  C   UNL     1      -7.511  13.892  67.427  1.00  0.00    -0.147 C  
BRANCH  14  16
HETATM   16  C   UNL     1      -8.545  11.096  68.814  1.00  0.00    -0.132 C  
HETATM   17  O   UNL     1      -9.092   9.782  68.711  1.00  0.00    -0.130 OA 
HETATM   18  H   UNL     1      -9.299   9.406  69.558  1.00  0.00     0.000 HD 
ENDBRANCH  14  16
ENDBRANCH   4  11
TORSDOF 2
ENDMDL
MODEL      172
REMARK 921   NORMALIZED FREE ENERGY PREDICTED BY IDOCK:   -2.74 KCAL/MOL
REMARK 922        TOTAL FREE ENERGY PREDICTED BY IDOCK:   -3.41 KCAL/MOL
REMARK 923 INTER-LIGAND FREE ENERGY PREDICTED BY IDOCK:   -3.21 KCAL/MOL
REMARK 924 INTRA-LIGAND FREE ENERGY PREDICTED BY IDOCK:   -0.20 KCAL/MOL
REMARK 927      BINDING AFFINITY PREDICTED BY RF-SCORE:    0.00 PKD
ROOT
HETATM    1  C   UNL     1      -9.128  10.091  65.267  1.00  0.00    -0.243 C  
HETATM    2  C   UNL     1      -9.587   9.491  66.556  1.00  0.00    -0.259 C  
HETATM    3  C   UNL     1     -10.010   8.229  66.691  1.00  0.00    -0.278 C  
HETATM    4  N   UNL     1     -10.451   7.697  67.893  1.00  0.00    -0.218 N  
HETATM    5  O   UNL     1      -9.158  11.501  67.734  1.00  0.00    -0.156 OA 
HETATM    6  C   UNL     1     -10.394   8.449  69.061  1.00  0.00    -0.218 C  
HETATM    7  O   UNL     1     -10.691   8.027  70.178  1.00  0.00    -0.238 OA 
HETATM    8  H   UNL     1      -9.948  10.316  69.761  1.00  0.00     0.000 HD 
HETATM    9  N   UNL     1      -9.962   9.742  68.919  1.00  0.00    -0.168 N  
HETATM   10  C   UNL     1      -9.550  10.338  67.763  1.00  0.00    -0.152 C  
ENDROOT
BRANCH   4  11
HETATM   11  C   UNL     1     -10.787   6.280  68.020  1.00  0.00    -0.326 C  
HETATM   12  O   UNL     1      -9.805   5.576  68.816  1.00  0.00    -0.134 OA 
HETATM   13  C   UNL     1      -9.805   4.641  66.693  1.00  0.00    -0.239 C  
HETATM   14  C   UNL     1      -9.003   4.753  67.937  1.00  0.00    -0.111 C  
HETATM   15  C   UNL     1     -10.784   5.545  66.723  1.00  0.00    -0.329 C  
BRANCH  14  16
HETATM   16  C   UNL     1      -7.636   5.411  67.664  1.00  0.00    -0.088 C  
HETATM   17  O   UNL     1      -6.850   4.670  66.731  1.00  0.00    -0.053 OA 
HETATM   18  H   UNL     1      -6.007   5.075  66.563  1.00  0.00     0.000 HD 
ENDBRANCH  14  16
ENDBRANCH   4  11
TORSDOF 2
ENDMDL
MODEL      173
REMARK 921   NORMALIZED FREE ENERGY PREDICTED BY IDOCK:   -2.74 KCAL/MOL
REMARK 922        TOTAL FREE ENERGY PREDICTED BY IDOCK:   -3.41 KCAL/MOL
REMARK 923 INTER-LIGAND FREE ENERGY PREDICTED BY IDOCK:   -3.52 KCAL/MOL
REMARK 924 INTRA-LIGAND FREE ENERGY PREDICTED BY IDOCK:    0.11 KCAL/MOL
REMARK 927      BINDING AFFINITY PREDICTED BY RF-SCORE:    0.00 PKD
ROOT
HETATM    1  C   UNL     1      -7.630   9.590  65.539  1.00  0.00    -0.105 C  
HETATM    2  C   UNL     1      -8.845   9.970  66.321  1.00  0.00    -0.160 C  
HETATM    3  C   UNL     1      -8.995   9.754  67.632  1.00  0.00    -0.128 C  
HETATM    4  N   UNL     1     -10.138  10.096  68.336  1.00  0.00    -0.158 N  
HETATM    5  O   UNL     1      -9.881  10.902  64.405  1.00  0.00    -0.254 OA 
HETATM    6  C   UNL     1     -11.179  10.772  67.708  1.00  0.00    -0.316 C  
HETATM    7  O   UNL     1     -12.191  11.180  68.276  1.00  0.00    -0.613 OA 
HETATM    8  H   UNL     1     -11.793  11.454  65.881  1.00  0.00     0.000 HD 
HETATM    9  N   UNL     1     -11.023  10.990  66.363  1.00  0.00    -0.193 N  
HETATM   10  C   UNL     1      -9.943  10.648  65.604  1.00  0.00    -0.268 C  
ENDROOT
BRANCH   4  11
HETATM   11  C   UNL     1     -10.210   9.954  69.789  1.00  0.00    -0.246 C  
HETATM   12  O   UNL     1      -8.929   9.572  70.344  1.00  0.00    -0.237 OA 
HETATM   13  C   UNL     1     -10.448   7.887  70.830  1.00  0.00    -0.218 C  
HETATM   14  C   UNL     1      -8.996   8.183  70.744  1.00  0.00    -0.145 C  
HETATM   15  C   UNL     1     -11.128   8.869  70.239  1.00  0.00    -0.251 C  
BRANCH  14  16
HETATM   16  C   UNL     1      -8.300   7.279  69.708  1.00  0.00    -0.135 C  
HETATM   17  O   UNL     1      -7.466   6.293  70.317  1.00  0.00    -0.089 OA 
HETATM   18  H   UNL     1      -7.036   5.735  69.679  1.00  0.00     0.000 HD 
ENDBRANCH  14  16
ENDBRANCH   4  11
TORSDOF 2
ENDMDL
MODEL      174
REMARK 921   NORMALIZED FREE ENERGY PREDICTED BY IDOCK:   -2.74 KCAL/MOL
REMARK 922        TOTAL FREE ENERGY PREDICTED BY IDOCK:   -3.40 KCAL/MOL
REMARK 923 INTER-LIGAND FREE ENERGY PREDICTED BY IDOCK:   -3.58 KCAL/MOL
REMARK 924 INTRA-LIGAND FREE ENERGY PREDICTED BY IDOCK:    0.18 KCAL/MOL
REMARK 927      BINDING AFFINITY PREDICTED BY RF-SCORE:    0.00 PKD
ROOT
HETATM    1  C   UNL     1      -9.891   9.422  66.742  1.00  0.00    -0.280 C  
HETATM    2  C   UNL     1      -9.583   8.339  67.723  1.00  0.00    -0.178 C  
HETATM    3  C   UNL     1     -10.491   7.759  68.515  1.00  0.00    -0.168 C  
HETATM    4  N   UNL     1     -10.182   6.769  69.434  1.00  0.00    -0.181 N  
HETATM    5  O   UNL     1      -7.295   8.326  67.109  1.00  0.00    -0.085 OA 
HETATM    6  C   UNL     1      -8.889   6.264  69.520  1.00  0.00    -0.135 C  
HETATM    7  O   UNL     1      -8.550   5.335  70.251  1.00  0.00    -0.116 OA 
HETATM    8  H   UNL     1      -7.000   6.526  68.785  1.00  0.00     0.000 HD 
HETATM    9  N   UNL     1      -7.959   6.862  68.709  1.00  0.00    -0.118 N  
HETATM   10  C   UNL     1      -8.189   7.863  67.811  1.00  0.00    -0.129 C  
ENDROOT
BRANCH   4  11
HETATM   11  C   UNL     1     -11.225   6.077  70.189  1.00  0.00    -0.342 C  
HETATM   12  O   UNL     1     -12.461   6.830  70.189  1.00  0.00    -0.064 OA 
HETATM   13  C   UNL     1     -11.747   6.631  72.388  1.00  0.00    -0.260 C  
HETATM   14  C   UNL     1     -12.647   7.411  71.502  1.00  0.00    -0.367 C  
HETATM   15  C   UNL     1     -10.908   5.917  71.638  1.00  0.00    -0.321 C  
BRANCH  14  16
HETATM   16  C   UNL     1     -12.273   8.906  71.499  1.00  0.00    -0.327 C  
HETATM   17  O   UNL     1     -12.801   9.599  70.368  1.00  0.00    -0.510 OA 
HETATM   18  H   UNL     1     -12.571  10.521  70.366  1.00  0.00     0.000 HD 
ENDBRANCH  14  16
ENDBRANCH   4  11
TORSDOF 2
ENDMDL
MODEL      175
REMARK 921   NORMALIZED FREE ENERGY PREDICTED BY IDOCK:   -2.67 KCAL/MOL
REMARK 922        TOTAL FREE ENERGY PREDICTED BY IDOCK:   -3.32 KCAL/MOL
REMARK 923 INTER-LIGAND FREE ENERGY PREDICTED BY IDOCK:   -3.50 KCAL/MOL
REMARK 924 INTRA-LIGAND FREE ENERGY PREDICTED BY IDOCK:    0.17 KCAL/MOL
REMARK 927      BINDING AFFINITY PREDICTED BY RF-SCORE:    0.00 PKD
ROOT
HETATM    1  C   UNL     1      -9.627   9.631  66.526  1.00  0.00    -0.252 C  
HETATM    2  C   UNL     1     -10.038   9.227  67.904  1.00  0.00    -0.246 C  
HETATM    3  C   UNL     1     -10.476   8.006  68.233  1.00  0.00    -0.161 C  
HETATM    4  N   UNL     1     -10.871   7.656  69.514  1.00  0.00    -0.208 N  
HETATM    5  O   UNL     1      -9.526  11.372  68.770  1.00  0.00    -0.186 OA 
HETATM    6  C   UNL     1     -10.751   8.562  70.562  1.00  0.00    -0.221 C  
HETATM    7  O   UNL     1     -11.006   8.306  71.738  1.00  0.00    -0.247 OA 
HETATM    8  H   UNL     1     -10.245  10.499  70.975  1.00  0.00     0.000 HD 
HETATM    9  N   UNL     1     -10.305   9.813  70.222  1.00  0.00    -0.276 N  
HETATM   10  C   UNL     1      -9.935  10.233  68.979  1.00  0.00    -0.213 C  
ENDROOT
BRANCH   4  11
HETATM   11  C   UNL     1     -11.224   6.278  69.853  1.00  0.00    -0.429 C  
HETATM   12  O   UNL     1     -10.677   5.896  71.137  1.00  0.00    -0.244 OA 
HETATM   13  C   UNL     1      -9.760   4.500  69.527  1.00  0.00    -0.282 C  
HETATM   14  C   UNL     1      -9.572   4.990  70.915  1.00  0.00    -0.179 C  
HETATM   15  C   UNL     1     -10.659   5.268  68.912  1.00  0.00    -0.128 C  
BRANCH  14  16
HETATM   16  C   UNL     1      -8.223   5.719  71.074  1.00  0.00    -0.122 C  
HETATM   17  O   UNL     1      -8.027   6.223  72.395  1.00  0.00    -0.103 OA 
HETATM   18  H   UNL     1      -7.196   6.673  72.494  1.00  0.00     0.000 HD 
ENDBRANCH  14  16
ENDBRANCH   4  11
TORSDOF 2
ENDMDL
MODEL      176
REMARK 921   NORMALIZED FREE ENERGY PREDICTED BY IDOCK:   -2.66 KCAL/MOL
REMARK 922        TOTAL FREE ENERGY PREDICTED BY IDOCK:   -3.32 KCAL/MOL
REMARK 923 INTER-LIGAND FREE ENERGY PREDICTED BY IDOCK:   -3.14 KCAL/MOL
REMARK 924 INTRA-LIGAND FREE ENERGY PREDICTED BY IDOCK:   -0.18 KCAL/MOL
REMARK 927      BINDING AFFINITY PREDICTED BY RF-SCORE:    0.00 PKD
ROOT
HETATM    1  C   UNL     1      -8.412   6.481  65.083  1.00  0.00    -0.052 C  
HETATM    2  C   UNL     1      -9.190   6.580  66.354  1.00  0.00    -0.178 C  
HETATM    3  C   UNL     1      -9.157   7.635  67.177  1.00  0.00    -0.127 C  
HETATM    4  N   UNL     1      -9.871   7.699  68.363  1.00  0.00    -0.162 N  
HETATM    5  O   UNL     1     -10.172   4.452  66.011  1.00  0.00    -0.244 OA 
HETATM    6  C   UNL     1     -10.741   6.675  68.721  1.00  0.00    -0.258 C  
HETATM    7  O   UNL     1     -11.466   6.690  69.714  1.00  0.00    -0.351 OA 
HETATM    8  H   UNL     1     -11.376   4.819  68.144  1.00  0.00     0.000 HD 
HETATM    9  N   UNL     1     -10.769   5.594  67.877  1.00  0.00    -0.200 N  
HETATM   10  C   UNL     1     -10.067   5.451  66.716  1.00  0.00    -0.214 C  
ENDROOT
BRANCH   4  11
HETATM   11  C   UNL     1      -9.903   8.919  69.168  1.00  0.00    -0.180 C  
HETATM   12  O   UNL     1     -10.950   9.815  68.723  1.00  0.00    -0.213 OA 
HETATM   13  C   UNL     1      -8.918  10.905  68.460  1.00  0.00    -0.157 C  
HETATM   14  C   UNL     1     -10.339  10.930  68.031  1.00  0.00    -0.185 C  
HETATM   15  C   UNL     1      -8.663   9.741  69.056  1.00  0.00    -0.148 C  
BRANCH  14  16
HETATM   16  C   UNL     1     -10.467  10.764  66.504  1.00  0.00    -0.240 C  
HETATM   17  O   UNL     1      -9.867  11.843  65.786  1.00  0.00    -0.230 OA 
HETATM   18  H   UNL     1      -9.946  11.741  64.845  1.00  0.00     0.000 HD 
ENDBRANCH  14  16
ENDBRANCH   4  11
TORSDOF 2
ENDMDL
MODEL      177
REMARK 921   NORMALIZED FREE ENERGY PREDICTED BY IDOCK:   -2.63 KCAL/MOL
REMARK 922        TOTAL FREE ENERGY PREDICTED BY IDOCK:   -3.29 KCAL/MOL
REMARK 923 INTER-LIGAND FREE ENERGY PREDICTED BY IDOCK:   -3.38 KCAL/MOL
REMARK 924 INTRA-LIGAND FREE ENERGY PREDICTED BY IDOCK:    0.09 KCAL/MOL
REMARK 927      BINDING AFFINITY PREDICTED BY RF-SCORE:    0.00 PKD
ROOT
HETATM    1  C   UNL     1      -6.561   8.836  71.805  1.00  0.00    -0.074 C  
HETATM    2  C   UNL     1      -7.831   8.075  72.006  1.00  0.00    -0.131 C  
HETATM    3  C   UNL     1      -8.412   7.319  71.068  1.00  0.00    -0.127 C  
HETATM    4  N   UNL     1      -9.602   6.636  71.268  1.00  0.00    -0.169 N  
HETATM    5  O   UNL     1      -8.000   8.800  74.254  1.00  0.00    -0.378 OA 
HETATM    6  C   UNL     1     -10.219   6.643  72.514  1.00  0.00    -0.182 C  
HETATM    7  O   UNL     1     -11.232   6.003  72.795  1.00  0.00    -0.260 OA 
HETATM    8  H   UNL     1     -10.083   7.464  74.381  1.00  0.00     0.000 HD 
HETATM    9  N   UNL     1      -9.622   7.422  73.472  1.00  0.00    -0.243 N  
HETATM   10  C   UNL     1      -8.475   8.145  73.331  1.00  0.00    -0.239 C  
ENDROOT
BRANCH   4  11
HETATM   11  C   UNL     1     -10.136   5.724  70.258  1.00  0.00    -0.211 C  
HETATM   12  O   UNL     1      -9.208   5.554  69.160  1.00  0.00    -0.113 OA 
HETATM   13  C   UNL     1     -11.157   6.481  68.310  1.00  0.00    -0.332 C  
HETATM   14  C   UNL     1      -9.719   6.268  68.010  1.00  0.00    -0.122 C  
HETATM   15  C   UNL     1     -11.377   6.223  69.599  1.00  0.00    -0.492 C  
BRANCH  14  16
HETATM   16  C   UNL     1      -8.981   7.607  67.822  1.00  0.00    -0.131 C  
HETATM   17  O   UNL     1      -9.463   8.344  66.698  1.00  0.00    -0.172 OA 
HETATM   18  H   UNL     1      -9.008   9.170  66.582  1.00  0.00     0.000 HD 
ENDBRANCH  14  16
ENDBRANCH   4  11
TORSDOF 2
ENDMDL
MODEL      178
REMARK 921   NORMALIZED FREE ENERGY PREDICTED BY IDOCK:   -2.62 KCAL/MOL
REMARK 922        TOTAL FREE ENERGY PREDICTED BY IDOCK:   -3.27 KCAL/MOL
REMARK 923 INTER-LIGAND FREE ENERGY PREDICTED BY IDOCK:   -3.40 KCAL/MOL
REMARK 924 INTRA-LIGAND FREE ENERGY PREDICTED BY IDOCK:    0.13 KCAL/MOL
REMARK 927      BINDING AFFINITY PREDICTED BY RF-SCORE:    0.00 PKD
ROOT
HETATM    1  C   UNL     1      -9.325   8.552  65.926  1.00  0.00    -0.231 C  
HETATM    2  C   UNL     1      -9.402   7.210  66.579  1.00  0.00    -0.208 C  
HETATM    3  C   UNL     1      -9.980   6.981  67.763  1.00  0.00    -0.152 C  
HETATM    4  N   UNL     1     -10.023   5.732  68.362  1.00  0.00    -0.143 N  
HETATM    5  O   UNL     1      -8.287   6.176  64.762  1.00  0.00    -0.135 OA 
HETATM    6  C   UNL     1      -9.523   4.614  67.701  1.00  0.00    -0.153 C  
HETATM    7  O   UNL     1      -9.592   3.463  68.128  1.00  0.00    -0.177 OA 
HETATM    8  H   UNL     1      -8.527   4.049  66.009  1.00  0.00     0.000 HD 
HETATM    9  N   UNL     1      -8.929   4.853  66.489  1.00  0.00    -0.111 N  
HETATM   10  C   UNL     1      -8.821   6.059  65.861  1.00  0.00    -0.149 C  
ENDROOT
BRANCH   4  11
HETATM   11  C   UNL     1     -10.772   5.504  69.596  1.00  0.00    -0.278 C  
HETATM   12  O   UNL     1     -11.689   6.591  69.863  1.00  0.00    -0.406 OA 
HETATM   13  C   UNL     1     -10.174   6.489  71.617  1.00  0.00    -0.216 C  
HETATM   14  C   UNL     1     -11.166   7.376  70.960  1.00  0.00    -0.264 C  
HETATM   15  C   UNL     1      -9.915   5.457  70.816  1.00  0.00    -0.269 C  
BRANCH  14  16
HETATM   16  C   UNL     1     -10.506   8.670  70.444  1.00  0.00    -0.208 C  
HETATM   17  O   UNL     1     -10.724   9.780  71.315  1.00  0.00    -0.304 OA 
HETATM   18  H   UNL     1     -10.318  10.577  70.997  1.00  0.00     0.000 HD 
ENDBRANCH  14  16
ENDBRANCH   4  11
TORSDOF 2
ENDMDL
MODEL      179
REMARK 921   NORMALIZED FREE ENERGY PREDICTED BY IDOCK:   -2.62 KCAL/MOL
REMARK 922        TOTAL FREE ENERGY PREDICTED BY IDOCK:   -3.27 KCAL/MOL
REMARK 923 INTER-LIGAND FREE ENERGY PREDICTED BY IDOCK:   -3.11 KCAL/MOL
REMARK 924 INTRA-LIGAND FREE ENERGY PREDICTED BY IDOCK:   -0.16 KCAL/MOL
REMARK 927      BINDING AFFINITY PREDICTED BY RF-SCORE:    0.00 PKD
ROOT
HETATM    1  C   UNL     1     -13.353  12.870  71.827  1.00  0.00    -0.451 C  
HETATM    2  C   UNL     1     -12.344  13.562  70.969  1.00  0.00    -0.422 C  
HETATM    3  C   UNL     1     -11.377  12.936  70.290  1.00  0.00     0.402 C  
HETATM    4  N   UNL     1     -10.438  13.598  69.514  1.00  0.00     0.216 N  
HETATM    5  O   UNL     1     -13.301  15.682  71.420  1.00  0.00    -0.499 OA 
HETATM    6  C   UNL     1     -10.511  14.976  69.340  1.00  0.00    -0.247 C  
HETATM    7  O   UNL     1      -9.767  15.627  68.608  1.00  0.00    -0.193 OA 
HETATM    8  H   UNL     1     -11.547  16.630  69.949  1.00  0.00     0.000 HD 
HETATM    9  N   UNL     1     -11.502  15.615  70.040  1.00  0.00    -0.313 N  
HETATM   10  C   UNL     1     -12.434  15.030  70.846  1.00  0.00    -0.345 C  
ENDROOT
BRANCH   4  11
HETATM   11  C   UNL     1      -9.476  12.866  68.691  1.00  0.00     0.004 C  
HETATM   12  O   UNL     1      -9.751  13.042  67.281  1.00  0.00    -0.216 OA 
HETATM   13  C   UNL     1      -9.954  10.783  67.772  1.00  0.00    -0.195 C  
HETATM   14  C   UNL     1     -10.314  11.813  66.765  1.00  0.00    -0.219 C  
HETATM   15  C   UNL     1      -9.531  11.388  68.881  1.00  0.00    -0.064 C  
BRANCH  14  16
HETATM   16  C   UNL     1     -11.842  11.933  66.606  1.00  0.00    -0.067 C  
HETATM   17  O   UNL     1     -12.222  12.394  65.310  1.00  0.00    -0.495 OA 
HETATM   18  H   UNL     1     -13.164  12.468  65.211  1.00  0.00     0.000 HD 
ENDBRANCH  14  16
ENDBRANCH   4  11
TORSDOF 2
ENDMDL
MODEL      180
REMARK 921   NORMALIZED FREE ENERGY PREDICTED BY IDOCK:   -2.59 KCAL/MOL
REMARK 922        TOTAL FREE ENERGY PREDICTED BY IDOCK:   -3.24 KCAL/MOL
REMARK 923 INTER-LIGAND FREE ENERGY PREDICTED BY IDOCK:   -4.07 KCAL/MOL
REMARK 924 INTRA-LIGAND FREE ENERGY PREDICTED BY IDOCK:    0.83 KCAL/MOL
REMARK 927      BINDING AFFINITY PREDICTED BY RF-SCORE:    0.00 PKD
ROOT
HETATM    1  C   UNL     1      -5.962   9.061  70.354  1.00  0.00    -0.036 C  
HETATM    2  C   UNL     1      -7.424   9.353  70.256  1.00  0.00    -0.131 C  
HETATM    3  C   UNL     1      -8.348   8.865  71.091  1.00  0.00    -0.183 C  
HETATM    4  N   UNL     1      -9.702   9.132  70.971  1.00  0.00    -0.277 N  
HETATM    5  O   UNL     1      -7.094  10.764  68.381  1.00  0.00    -0.071 OA 
HETATM    6  C   UNL     1     -10.165  10.010  69.996  1.00  0.00    -0.255 C  
HETATM    7  O   UNL     1     -11.338  10.360  69.872  1.00  0.00    -0.260 OA 
HETATM    8  H   UNL     1      -9.546  11.124  68.399  1.00  0.00     0.000 HD 
HETATM    9  N   UNL     1      -9.216  10.506  69.140  1.00  0.00    -0.185 N  
HETATM   10  C   UNL     1      -7.876  10.257  69.180  1.00  0.00    -0.127 C  
ENDROOT
BRANCH   4  11
HETATM   11  C   UNL     1     -10.661   8.679  71.977  1.00  0.00    -0.351 C  
HETATM   12  O   UNL     1     -10.493   7.271  72.266  1.00  0.00    -0.204 OA 
HETATM   13  C   UNL     1     -12.630   7.575  71.415  1.00  0.00    -0.382 C  
HETATM   14  C   UNL     1     -11.593   6.544  71.670  1.00  0.00    -0.308 C  
HETATM   15  C   UNL     1     -12.082   8.783  71.539  1.00  0.00    -0.388 C  
BRANCH  14  16
HETATM   16  C   UNL     1     -11.152   5.857  70.363  1.00  0.00    -0.283 C  
HETATM   17  O   UNL     1     -11.678   6.501  69.203  1.00  0.00    -0.623 OA 
HETATM   18  H   UNL     1     -11.407   6.077  68.397  1.00  0.00     0.000 HD 
ENDBRANCH  14  16
ENDBRANCH   4  11
TORSDOF 2
ENDMDL
MODEL      181
REMARK 921   NORMALIZED FREE ENERGY PREDICTED BY IDOCK:   -2.57 KCAL/MOL
REMARK 922        TOTAL FREE ENERGY PREDICTED BY IDOCK:   -3.21 KCAL/MOL
REMARK 923 INTER-LIGAND FREE ENERGY PREDICTED BY IDOCK:   -3.25 KCAL/MOL
REMARK 924 INTRA-LIGAND FREE ENERGY PREDICTED BY IDOCK:    0.04 KCAL/MOL
REMARK 927      BINDING AFFINITY PREDICTED BY RF-SCORE:    0.00 PKD
ROOT
HETATM    1  C   UNL     1      -7.150   5.279  73.889  1.00  0.00    -0.082 C  
HETATM    2  C   UNL     1      -8.144   5.256  72.775  1.00  0.00    -0.109 C  
HETATM    3  C   UNL     1      -9.337   5.860  72.816  1.00  0.00    -0.145 C  
HETATM    4  N   UNL     1     -10.255   5.810  71.779  1.00  0.00    -0.191 N  
HETATM    5  O   UNL     1      -6.699   3.971  71.407  1.00  0.00    -0.025 OA 
HETATM    6  C   UNL     1      -9.934   5.179  70.582  1.00  0.00    -0.226 C  
HETATM    7  O   UNL     1     -10.659   5.157  69.589  1.00  0.00    -0.261 OA 
HETATM    8  H   UNL     1      -8.477   4.061  69.684  1.00  0.00     0.000 HD 
HETATM    9  N   UNL     1      -8.712   4.558  70.544  1.00  0.00    -0.091 N  
HETATM   10  C   UNL     1      -7.779   4.537  71.538  1.00  0.00    -0.082 C  
ENDROOT
BRANCH   4  11
HETATM   11  C   UNL     1     -11.492   6.587  71.818  1.00  0.00    -0.300 C  
HETATM   12  O   UNL     1     -11.790   7.167  70.526  1.00  0.00    -0.299 OA 
HETATM   13  C   UNL     1     -11.504   8.904  72.039  1.00  0.00    -0.431 C  
HETATM   14  C   UNL     1     -11.528   8.589  70.588  1.00  0.00    -0.228 C  
HETATM   15  C   UNL     1     -11.429   7.766  72.729  1.00  0.00    -0.415 C  
BRANCH  14  16
HETATM   16  C   UNL     1     -10.184   8.930  69.917  1.00  0.00    -0.200 C  
HETATM   17  O   UNL     1      -9.795   7.957  68.947  1.00  0.00    -0.166 OA 
HETATM   18  H   UNL     1      -8.966   8.167  68.533  1.00  0.00     0.000 HD 
ENDBRANCH  14  16
ENDBRANCH   4  11
TORSDOF 2
ENDMDL
MODEL      182
REMARK 921   NORMALIZED FREE ENERGY PREDICTED BY IDOCK:   -2.56 KCAL/MOL
REMARK 922        TOTAL FREE ENERGY PREDICTED BY IDOCK:   -3.21 KCAL/MOL
REMARK 923 INTER-LIGAND FREE ENERGY PREDICTED BY IDOCK:   -4.27 KCAL/MOL
REMARK 924 INTRA-LIGAND FREE ENERGY PREDICTED BY IDOCK:    1.07 KCAL/MOL
REMARK 927      BINDING AFFINITY PREDICTED BY RF-SCORE:    0.00 PKD
ROOT
HETATM    1  C   UNL     1     -12.491  13.965  65.773  1.00  0.00    -0.530 C  
HETATM    2  C   UNL     1     -11.721  12.686  65.812  1.00  0.00    -0.466 C  
HETATM    3  C   UNL     1     -11.462  11.996  66.929  1.00  0.00    -0.337 C  
HETATM    4  N   UNL     1     -10.727  10.821  66.947  1.00  0.00    -0.262 N  
HETATM    5  O   UNL     1     -11.440  12.693  63.460  1.00  0.00    -0.461 OA 
HETATM    6  C   UNL     1     -10.283  10.248  65.760  1.00  0.00    -0.219 C  
HETATM    7  O   UNL     1      -9.695   9.170  65.683  1.00  0.00    -0.270 OA 
HETATM    8  H   UNL     1     -10.198  10.567  63.743  1.00  0.00     0.000 HD 
HETATM    9  N   UNL     1     -10.548  10.958  64.618  1.00  0.00    -0.313 N  
HETATM   10  C   UNL     1     -11.231  12.135  64.533  1.00  0.00    -0.331 C  
ENDROOT
BRANCH   4  11
HETATM   11  C   UNL     1     -10.574  10.037  68.171  1.00  0.00    -0.227 C  
HETATM   12  O   UNL     1      -9.919  10.804  69.208  1.00  0.00    -0.214 OA 
HETATM   13  C   UNL     1      -8.583   8.969  68.726  1.00  0.00    -0.132 C  
HETATM   14  C   UNL     1      -8.568  10.310  69.363  1.00  0.00    -0.156 C  
HETATM   15  C   UNL     1      -9.699   8.840  68.009  1.00  0.00    -0.183 C  
BRANCH  14  16
HETATM   16  C   UNL     1      -7.558  11.247  68.671  1.00  0.00    -0.129 C  
HETATM   17  O   UNL     1      -6.206  10.936  69.007  1.00  0.00    -0.041 OA 
HETATM   18  H   UNL     1      -5.583  11.513  68.581  1.00  0.00     0.000 HD 
ENDBRANCH  14  16
ENDBRANCH   4  11
TORSDOF 2
ENDMDL
MODEL      183
REMARK 921   NORMALIZED FREE ENERGY PREDICTED BY IDOCK:   -2.48 KCAL/MOL
REMARK 922        TOTAL FREE ENERGY PREDICTED BY IDOCK:   -3.11 KCAL/MOL
REMARK 923 INTER-LIGAND FREE ENERGY PREDICTED BY IDOCK:   -4.42 KCAL/MOL
REMARK 924 INTRA-LIGAND FREE ENERGY PREDICTED BY IDOCK:    1.31 KCAL/MOL
REMARK 927      BINDING AFFINITY PREDICTED BY RF-SCORE:    0.00 PKD
ROOT
HETATM    1  C   UNL     1      -9.029  10.161  67.632  1.00  0.00    -0.134 C  
HETATM    2  C   UNL     1      -9.949  11.286  67.287  1.00  0.00    -0.208 C  
HETATM    3  C   UNL     1      -9.637  12.287  66.456  1.00  0.00    -0.238 C  
HETATM    4  N   UNL     1     -10.497  13.334  66.165  1.00  0.00    -0.288 N  
HETATM    5  O   UNL     1     -11.675  10.394  68.642  1.00  0.00    -0.224 OA 
HETATM    6  C   UNL     1     -11.791  13.347  66.675  1.00  0.00    -0.395 C  
HETATM    7  O   UNL     1     -12.639  14.195  66.403  1.00  0.00    -0.427 OA 
HETATM    8  H   UNL     1     -13.042  12.337  67.937  1.00  0.00     0.000 HD 
HETATM    9  N   UNL     1     -12.107  12.321  67.528  1.00  0.00    -0.118 N  
HETATM   10  C   UNL     1     -11.299  11.283  67.884  1.00  0.00    -0.299 C  
ENDROOT
BRANCH   4  11
HETATM   11  C   UNL     1     -10.161  14.339  65.158  1.00  0.00    -0.385 C  
HETATM   12  O   UNL     1      -9.188  15.284  65.662  1.00  0.00    -0.231 OA 
HETATM   13  C   UNL     1     -11.120  16.459  65.144  1.00  0.00    -0.176 C  
HETATM   14  C   UNL     1      -9.856  16.542  65.917  1.00  0.00    -0.295 C  
HETATM   15  C   UNL     1     -11.315  15.197  64.761  1.00  0.00    -0.399 C  
BRANCH  14  16
HETATM   16  C   UNL     1     -10.131  16.723  67.423  1.00  0.00    -0.276 C  
HETATM   17  O   UNL     1     -10.117  18.094  67.819  1.00  0.00    -0.327 OA 
HETATM   18  H   UNL     1     -10.286  18.206  68.747  1.00  0.00     0.000 HD 
ENDBRANCH  14  16
ENDBRANCH   4  11
TORSDOF 2
ENDMDL
MODEL      184
REMARK 921   NORMALIZED FREE ENERGY PREDICTED BY IDOCK:   -2.46 KCAL/MOL
REMARK 922        TOTAL FREE ENERGY PREDICTED BY IDOCK:   -3.10 KCAL/MOL
REMARK 923 INTER-LIGAND FREE ENERGY PREDICTED BY IDOCK:   -3.16 KCAL/MOL
REMARK 924 INTRA-LIGAND FREE ENERGY PREDICTED BY IDOCK:    0.07 KCAL/MOL
REMARK 927      BINDING AFFINITY PREDICTED BY RF-SCORE:    0.00 PKD
ROOT
HETATM    1  C   UNL     1     -10.884  12.293  68.674  1.00  0.00    -0.268 C  
HETATM    2  C   UNL     1     -10.494  10.894  69.024  1.00  0.00    -0.244 C  
HETATM    3  C   UNL     1      -9.628  10.155  68.321  1.00  0.00    -0.141 C  
HETATM    4  N   UNL     1      -9.295   8.851  68.650  1.00  0.00    -0.140 N  
HETATM    5  O   UNL     1     -11.873  10.907  70.950  1.00  0.00    -0.323 OA 
HETATM    6  C   UNL     1      -9.798   8.263  69.805  1.00  0.00    -0.187 C  
HETATM    7  O   UNL     1      -9.492   7.142  70.209  1.00  0.00    -0.162 OA 
HETATM    8  H   UNL     1     -11.091   8.591  71.354  1.00  0.00     0.000 HD 
HETATM    9  N   UNL     1     -10.687   9.022  70.523  1.00  0.00    -0.226 N  
HETATM   10  C   UNL     1     -11.085  10.294  70.236  1.00  0.00    -0.319 C  
ENDROOT
BRANCH   4  11
HETATM   11  C   UNL     1      -8.253   8.125  67.926  1.00  0.00    -0.129 C  
HETATM   12  O   UNL     1      -7.577   8.983  66.976  1.00  0.00    -0.090 OA 
HETATM   13  C   UNL     1      -8.588   7.263  65.791  1.00  0.00    -0.143 C  
HETATM   14  C   UNL     1      -8.005   8.620  65.642  1.00  0.00    -0.105 C  
HETATM   15  C   UNL     1      -8.776   7.009  67.085  1.00  0.00    -0.121 C  
BRANCH  14  16
HETATM   16  C   UNL     1      -9.047   9.623  65.108  1.00  0.00    -0.228 C  
HETATM   17  O   UNL     1      -8.485  10.910  64.852  1.00  0.00    -0.338 OA 
HETATM   18  H   UNL     1      -9.127  11.528  64.523  1.00  0.00     0.000 HD 
ENDBRANCH  14  16
ENDBRANCH   4  11
TORSDOF 2
ENDMDL
MODEL      185
REMARK 921   NORMALIZED FREE ENERGY PREDICTED BY IDOCK:   -2.46 KCAL/MOL
REMARK 922        TOTAL FREE ENERGY PREDICTED BY IDOCK:   -3.09 KCAL/MOL
REMARK 923 INTER-LIGAND FREE ENERGY PREDICTED BY IDOCK:   -2.78 KCAL/MOL
REMARK 924 INTRA-LIGAND FREE ENERGY PREDICTED BY IDOCK:   -0.31 KCAL/MOL
REMARK 927      BINDING AFFINITY PREDICTED BY RF-SCORE:    0.00 PKD
ROOT
HETATM    1  C   UNL     1      -7.655  16.533  66.589  1.00  0.00    -0.310 C  
HETATM    2  C   UNL     1      -8.582  15.423  66.965  1.00  0.00    -0.262 C  
HETATM    3  C   UNL     1      -8.254  14.126  66.940  1.00  0.00     0.036 C  
HETATM    4  N   UNL     1      -9.136  13.110  67.273  1.00  0.00    -0.208 N  
HETATM    5  O   UNL     1     -10.320  16.947  67.484  1.00  0.00    -0.301 OA 
HETATM    6  C   UNL     1     -10.412  13.406  67.738  1.00  0.00    -0.243 C  
HETATM    7  O   UNL     1     -11.225  12.569  68.127  1.00  0.00    -0.232 OA 
HETATM    8  H   UNL     1     -11.691  14.967  68.066  1.00  0.00     0.000 HD 
HETATM    9  N   UNL     1     -10.746  14.736  67.760  1.00  0.00    -0.264 N  
HETATM   10  C   UNL     1      -9.942  15.781  67.413  1.00  0.00    -0.237 C  
ENDROOT
BRANCH   4  11
HETATM   11  C   UNL     1      -8.698  11.717  67.351  1.00  0.00    -0.155 C  
HETATM   12  O   UNL     1      -8.377  11.342  68.711  1.00  0.00    -0.150 OA 
HETATM   13  C   UNL     1      -6.452  11.119  67.436  1.00  0.00    -0.071 C  
HETATM   14  C   UNL     1      -6.939  11.238  68.833  1.00  0.00    -0.099 C  
HETATM   15  C   UNL     1      -7.438  11.444  66.601  1.00  0.00    -0.110 C  
BRANCH  14  16
HETATM   16  C   UNL     1      -6.355  12.484  69.526  1.00  0.00    -0.112 C  
HETATM   17  O   UNL     1      -5.206  12.997  68.852  1.00  0.00    -0.067 OA 
HETATM   18  H   UNL     1      -4.845  13.765  69.279  1.00  0.00     0.000 HD 
ENDBRANCH  14  16
ENDBRANCH   4  11
TORSDOF 2
ENDMDL
MODEL      186
REMARK 921   NORMALIZED FREE ENERGY PREDICTED BY IDOCK:   -2.37 KCAL/MOL
REMARK 922        TOTAL FREE ENERGY PREDICTED BY IDOCK:   -2.99 KCAL/MOL
REMARK 923 INTER-LIGAND FREE ENERGY PREDICTED BY IDOCK:   -2.78 KCAL/MOL
REMARK 924 INTRA-LIGAND FREE ENERGY PREDICTED BY IDOCK:   -0.21 KCAL/MOL
REMARK 927      BINDING AFFINITY PREDICTED BY RF-SCORE:    0.00 PKD
ROOT
HETATM    1  C   UNL     1     -12.113   9.856  70.729  1.00  0.00    -0.396 C  
HETATM    2  C   UNL     1     -11.094   8.785  70.949  1.00  0.00    -0.320 C  
HETATM    3  C   UNL     1     -10.104   8.500  70.096  1.00  0.00    -0.190 C  
HETATM    4  N   UNL     1      -9.181   7.489  70.310  1.00  0.00    -0.157 N  
HETATM    5  O   UNL     1     -12.036   8.213  73.047  1.00  0.00    -0.269 OA 
HETATM    6  C   UNL     1      -9.194   6.758  71.493  1.00  0.00    -0.149 C  
HETATM    7  O   UNL     1      -8.365   5.900  71.793  1.00  0.00    -0.118 OA 
HETATM    8  H   UNL     1     -10.254   6.500  73.221  1.00  0.00     0.000 HD 
HETATM    9  N   UNL     1     -10.211   7.051  72.364  1.00  0.00    -0.185 N  
HETATM   10  C   UNL     1     -11.171   8.006  72.200  1.00  0.00    -0.319 C  
ENDROOT
BRANCH   4  11
HETATM   11  C   UNL     1      -8.044   7.293  69.412  1.00  0.00    -0.130 C  
HETATM   12  O   UNL     1      -6.890   8.049  69.852  1.00  0.00    -0.040 OA 
HETATM   13  C   UNL     1      -7.491   8.824  67.749  1.00  0.00    -0.093 C  
HETATM   14  C   UNL     1      -6.711   9.176  68.961  1.00  0.00    -0.055 C  
HETATM   15  C   UNL     1      -8.284   7.789  68.026  1.00  0.00    -0.123 C  
BRANCH  14  16
HETATM   16  C   UNL     1      -7.233  10.474  69.606  1.00  0.00    -0.148 C  
HETATM   17  O   UNL     1      -6.305  11.553  69.491  1.00  0.00    -0.091 OA 
HETATM   18  H   UNL     1      -6.626  12.353  69.889  1.00  0.00     0.000 HD 
ENDBRANCH  14  16
ENDBRANCH   4  11
TORSDOF 2
ENDMDL
MODEL      187
REMARK 921   NORMALIZED FREE ENERGY PREDICTED BY IDOCK:   -2.34 KCAL/MOL
REMARK 922        TOTAL FREE ENERGY PREDICTED BY IDOCK:   -2.96 KCAL/MOL
REMARK 923 INTER-LIGAND FREE ENERGY PREDICTED BY IDOCK:   -2.65 KCAL/MOL
REMARK 924 INTRA-LIGAND FREE ENERGY PREDICTED BY IDOCK:   -0.31 KCAL/MOL
REMARK 927      BINDING AFFINITY PREDICTED BY RF-SCORE:    0.00 PKD
ROOT
HETATM    1  C   UNL     1      -8.512   8.611  69.645  1.00  0.00    -0.129 C  
HETATM    2  C   UNL     1      -9.528   7.830  70.412  1.00  0.00    -0.164 C  
HETATM    3  C   UNL     1      -9.503   6.501  70.558  1.00  0.00    -0.166 C  
HETATM    4  N   UNL     1     -10.467   5.791  71.257  1.00  0.00    -0.226 N  
HETATM    5  O   UNL     1     -10.710   9.797  71.001  1.00  0.00    -0.324 OA 
HETATM    6  C   UNL     1     -11.489   6.458  71.924  1.00  0.00    -0.304 C  
HETATM    7  O   UNL     1     -12.337   5.910  72.627  1.00  0.00    -0.094 OA 
HETATM    8  H   UNL     1     -12.278   8.319  72.224  1.00  0.00     0.000 HD 
HETATM    9  N   UNL     1     -11.514   7.820  71.769  1.00  0.00    -0.257 N  
HETATM   10  C   UNL     1     -10.620   8.574  71.068  1.00  0.00    -0.216 C  
ENDROOT
BRANCH   4  11
HETATM   11  C   UNL     1     -10.333   4.355  71.496  1.00  0.00    -0.026 C  
HETATM   12  O   UNL     1      -9.719   4.092  72.781  1.00  0.00    -0.131 OA 
HETATM   13  C   UNL     1      -8.338   3.213  71.136  1.00  0.00    -0.086 C  
HETATM   14  C   UNL     1      -8.364   3.636  72.559  1.00  0.00    -0.085 C  
HETATM   15  C   UNL     1      -9.431   3.670  70.526  1.00  0.00    -0.255 C  
BRANCH  14  16
HETATM   16  C   UNL     1      -7.353   4.768  72.826  1.00  0.00    -0.085 C  
HETATM   17  O   UNL     1      -7.771   5.636  73.880  1.00  0.00    -0.100 OA 
HETATM   18  H   UNL     1      -7.148   6.334  74.045  1.00  0.00     0.000 HD 
ENDBRANCH  14  16
ENDBRANCH   4  11
TORSDOF 2
ENDMDL
MODEL      188
REMARK 921   NORMALIZED FREE ENERGY PREDICTED BY IDOCK:   -2.34 KCAL/MOL
REMARK 922        TOTAL FREE ENERGY PREDICTED BY IDOCK:   -2.96 KCAL/MOL
REMARK 923 INTER-LIGAND FREE ENERGY PREDICTED BY IDOCK:   -3.51 KCAL/MOL
REMARK 924 INTRA-LIGAND FREE ENERGY PREDICTED BY IDOCK:    0.55 KCAL/MOL
REMARK 927      BINDING AFFINITY PREDICTED BY RF-SCORE:    0.00 PKD
ROOT
HETATM    1  C   UNL     1     -10.543   5.215  66.553  1.00  0.00    -0.320 C  
HETATM    2  C   UNL     1     -10.536   6.457  67.384  1.00  0.00    -0.312 C  
HETATM    3  C   UNL     1     -10.521   7.697  66.884  1.00  0.00    -0.318 C  
HETATM    4  N   UNL     1     -10.494   8.837  67.672  1.00  0.00    -0.251 N  
HETATM    5  O   UNL     1     -10.601   5.206  69.394  1.00  0.00    -0.212 OA 
HETATM    6  C   UNL     1     -10.564   8.740  69.057  1.00  0.00    -0.171 C  
HETATM    7  O   UNL     1     -10.623   9.701  69.822  1.00  0.00    -0.213 OA 
HETATM    8  H   UNL     1     -10.592   7.380  70.583  1.00  0.00     0.000 HD 
HETATM    9  N   UNL     1     -10.576   7.467  69.567  1.00  0.00    -0.235 N  
HETATM   10  C   UNL     1     -10.568   6.306  68.851  1.00  0.00    -0.268 C  
ENDROOT
BRANCH   4  11
HETATM   11  C   UNL     1     -10.604  10.172  67.085  1.00  0.00    -0.246 C  
HETATM   12  O   UNL     1      -9.898  10.251  65.824  1.00  0.00    -0.224 OA 
HETATM   13  C   UNL     1      -8.919  11.764  67.286  1.00  0.00    -0.172 C  
HETATM   14  C   UNL     1      -8.690  11.024  66.020  1.00  0.00    -0.188 C  
HETATM   15  C   UNL     1      -9.973  11.241  67.911  1.00  0.00    -0.189 C  
BRANCH  14  16
HETATM   16  C   UNL     1      -7.459  10.102  66.125  1.00  0.00    -0.115 C  
HETATM   17  O   UNL     1      -6.417  10.669  66.919  1.00  0.00    -0.073 OA 
HETATM   18  H   UNL     1      -5.659  10.101  66.984  1.00  0.00     0.000 HD 
ENDBRANCH  14  16
ENDBRANCH   4  11
TORSDOF 2
ENDMDL
MODEL      189
REMARK 921   NORMALIZED FREE ENERGY PREDICTED BY IDOCK:   -2.33 KCAL/MOL
REMARK 922        TOTAL FREE ENERGY PREDICTED BY IDOCK:   -2.94 KCAL/MOL
REMARK 923 INTER-LIGAND FREE ENERGY PREDICTED BY IDOCK:   -2.94 KCAL/MOL
REMARK 924 INTRA-LIGAND FREE ENERGY PREDICTED BY IDOCK:   -0.00 KCAL/MOL
REMARK 927      BINDING AFFINITY PREDICTED BY RF-SCORE:    0.00 PKD
ROOT
HETATM    1  C   UNL     1      -7.401   4.367  72.663  1.00  0.00    -0.077 C  
HETATM    2  C   UNL     1      -7.730   5.034  71.367  1.00  0.00    -0.100 C  
HETATM    3  C   UNL     1      -8.879   5.672  71.118  1.00  0.00    -0.135 C  
HETATM    4  N   UNL     1      -9.173   6.267  69.902  1.00  0.00    -0.150 N  
HETATM    5  O   UNL     1      -5.623   4.459  70.448  1.00  0.00    -0.011 OA 
HETATM    6  C   UNL     1      -8.226   6.298  68.883  1.00  0.00    -0.113 C  
HETATM    7  O   UNL     1      -8.378   6.872  67.806  1.00  0.00    -0.119 OA 
HETATM    8  H   UNL     1      -6.360   5.626  68.390  1.00  0.00     0.000 HD 
HETATM    9  N   UNL     1      -7.050   5.641  69.141  1.00  0.00    -0.063 N  
HETATM   10  C   UNL     1      -6.712   5.006  70.299  1.00  0.00    -0.036 C  
ENDROOT
BRANCH   4  11
HETATM   11  C   UNL     1     -10.387   7.059  69.714  1.00  0.00    -0.212 C  
HETATM   12  O   UNL     1     -10.336   8.289  70.476  1.00  0.00    -0.197 OA 
HETATM   13  C   UNL     1     -12.134   7.044  71.251  1.00  0.00    -0.403 C  
HETATM   14  C   UNL     1     -11.233   8.169  71.606  1.00  0.00    -0.261 C  
HETATM   15  C   UNL     1     -11.622   6.386  70.212  1.00  0.00    -0.451 C  
BRANCH  14  16
HETATM   16  C   UNL     1     -10.450   7.874  72.900  1.00  0.00    -0.355 C  
HETATM   17  O   UNL     1      -9.232   8.615  72.983  1.00  0.00    -0.257 OA 
HETATM   18  H   UNL     1      -8.749   8.433  73.781  1.00  0.00     0.000 HD 
ENDBRANCH  14  16
ENDBRANCH   4  11
TORSDOF 2
ENDMDL
MODEL      190
REMARK 921   NORMALIZED FREE ENERGY PREDICTED BY IDOCK:   -2.32 KCAL/MOL
REMARK 922        TOTAL FREE ENERGY PREDICTED BY IDOCK:   -2.94 KCAL/MOL
REMARK 923 INTER-LIGAND FREE ENERGY PREDICTED BY IDOCK:   -3.05 KCAL/MOL
REMARK 924 INTRA-LIGAND FREE ENERGY PREDICTED BY IDOCK:    0.12 KCAL/MOL
REMARK 927      BINDING AFFINITY PREDICTED BY RF-SCORE:    0.00 PKD
ROOT
HETATM    1  C   UNL     1     -11.155   6.626  66.935  1.00  0.00    -0.319 C  
HETATM    2  C   UNL     1      -9.948   7.281  67.524  1.00  0.00    -0.218 C  
HETATM    3  C   UNL     1      -9.944   8.502  68.069  1.00  0.00    -0.183 C  
HETATM    4  N   UNL     1      -8.810   9.101  68.594  1.00  0.00    -0.132 N  
HETATM    5  O   UNL     1      -8.600   5.388  67.064  1.00  0.00    -0.110 OA 
HETATM    6  C   UNL     1      -7.607   8.405  68.651  1.00  0.00    -0.102 C  
HETATM    7  O   UNL     1      -6.577   8.833  69.169  1.00  0.00    -0.046 OA 
HETATM    8  H   UNL     1      -6.729   6.645  68.093  1.00  0.00     0.000 HD 
HETATM    9  N   UNL     1      -7.613   7.154  68.089  1.00  0.00    -0.112 N  
HETATM   10  C   UNL     1      -8.682   6.522  67.526  1.00  0.00    -0.114 C  
ENDROOT
BRANCH   4  11
HETATM   11  C   UNL     1      -8.877  10.385  69.289  1.00  0.00    -0.154 C  
HETATM   12  O   UNL     1     -10.243  10.731  69.621  1.00  0.00    -0.180 OA 
HETATM   13  C   UNL     1      -9.418  12.367  68.197  1.00  0.00    -0.214 C  
HETATM   14  C   UNL     1     -10.675  11.795  68.741  1.00  0.00    -0.221 C  
HETATM   15  C   UNL     1      -8.411  11.537  68.465  1.00  0.00    -0.146 C  
BRANCH  14  16
HETATM   16  C   UNL     1     -11.574  11.246  67.617  1.00  0.00    -0.210 C  
HETATM   17  O   UNL     1     -12.054  12.274  66.750  1.00  0.00    -0.593 OA 
HETATM   18  H   UNL     1     -12.609  11.936  66.056  1.00  0.00     0.000 HD 
ENDBRANCH  14  16
ENDBRANCH   4  11
TORSDOF 2
ENDMDL
MODEL      191
REMARK 921   NORMALIZED FREE ENERGY PREDICTED BY IDOCK:   -2.30 KCAL/MOL
REMARK 922        TOTAL FREE ENERGY PREDICTED BY IDOCK:   -2.91 KCAL/MOL
REMARK 923 INTER-LIGAND FREE ENERGY PREDICTED BY IDOCK:   -2.60 KCAL/MOL
REMARK 924 INTRA-LIGAND FREE ENERGY PREDICTED BY IDOCK:   -0.30 KCAL/MOL
REMARK 927      BINDING AFFINITY PREDICTED BY RF-SCORE:    0.00 PKD
ROOT
HETATM    1  C   UNL     1     -10.347  11.845  68.554  1.00  0.00    -0.228 C  
HETATM    2  C   UNL     1     -10.234  10.483  67.949  1.00  0.00    -0.213 C  
HETATM    3  C   UNL     1      -9.774  10.243  66.716  1.00  0.00    -0.185 C  
HETATM    4  N   UNL     1      -9.696   8.974  66.164  1.00  0.00    -0.274 N  
HETATM    5  O   UNL     1     -11.049   9.454  69.920  1.00  0.00    -0.238 OA 
HETATM    6  C   UNL     1     -10.025   7.854  66.920  1.00  0.00    -0.262 C  
HETATM    7  O   UNL     1      -9.910   6.692  66.534  1.00  0.00    -0.166 OA 
HETATM    8  H   UNL     1     -10.777   7.294  68.737  1.00  0.00     0.000 HD 
HETATM    9  N   UNL     1     -10.499   8.104  68.183  1.00  0.00    -0.198 N  
HETATM   10  C   UNL     1     -10.635   9.326  68.772  1.00  0.00    -0.193 C  
ENDROOT
BRANCH   4  11
HETATM   11  C   UNL     1      -9.073   8.746  64.862  1.00  0.00     0.079 C  
HETATM   12  O   UNL     1      -7.674   8.404  65.001  1.00  0.00    -0.092 OA 
HETATM   13  C   UNL     1      -7.808  10.374  63.783  1.00  0.00    -0.065 C  
HETATM   14  C   UNL     1      -6.878   9.537  64.582  1.00  0.00    -0.101 C  
HETATM   15  C   UNL     1      -9.056   9.954  63.988  1.00  0.00    -0.300 C  
BRANCH  14  16
HETATM   16  C   UNL     1      -6.336  10.309  65.801  1.00  0.00    -0.111 C  
HETATM   17  O   UNL     1      -6.022   9.449  66.896  1.00  0.00    -0.057 OA 
HETATM   18  H   UNL     1      -5.688   9.924  67.648  1.00  0.00     0.000 HD 
ENDBRANCH  14  16
ENDBRANCH   4  11
TORSDOF 2
ENDMDL
MODEL      192
REMARK 921   NORMALIZED FREE ENERGY PREDICTED BY IDOCK:   -2.28 KCAL/MOL
REMARK 922        TOTAL FREE ENERGY PREDICTED BY IDOCK:   -2.89 KCAL/MOL
REMARK 923 INTER-LIGAND FREE ENERGY PREDICTED BY IDOCK:   -3.06 KCAL/MOL
REMARK 924 INTRA-LIGAND FREE ENERGY PREDICTED BY IDOCK:    0.17 KCAL/MOL
REMARK 927      BINDING AFFINITY PREDICTED BY RF-SCORE:    0.00 PKD
ROOT
HETATM    1  C   UNL     1      -7.351   8.824  71.649  1.00  0.00    -0.098 C  
HETATM    2  C   UNL     1      -8.623   8.248  71.119  1.00  0.00    -0.168 C  
HETATM    3  C   UNL     1      -8.879   8.056  69.820  1.00  0.00    -0.144 C  
HETATM    4  N   UNL     1     -10.075   7.538  69.346  1.00  0.00    -0.185 N  
HETATM    5  O   UNL     1      -9.498   7.969  73.302  1.00  0.00    -0.273 OA 
HETATM    6  C   UNL     1     -11.058   7.109  70.231  1.00  0.00    -0.274 C  
HETATM    7  O   UNL     1     -12.111   6.569  69.895  1.00  0.00    -0.229 OA 
HETATM    8  H   UNL     1     -11.521   7.032  72.220  1.00  0.00     0.000 HD 
HETATM    9  N   UNL     1     -10.794   7.310  71.561  1.00  0.00    -0.224 N  
HETATM   10  C   UNL     1      -9.657   7.845  72.091  1.00  0.00    -0.197 C  
ENDROOT
BRANCH   4  11
HETATM   11  C   UNL     1     -10.264   7.230  67.930  1.00  0.00    -0.191 C  
HETATM   12  O   UNL     1      -9.040   6.742  67.330  1.00  0.00    -0.118 OA 
HETATM   13  C   UNL     1      -9.637   8.701  66.240  1.00  0.00    -0.322 C  
HETATM   14  C   UNL     1      -8.498   7.780  66.479  1.00  0.00    -0.132 C  
HETATM   15  C   UNL     1     -10.614   8.420  67.101  1.00  0.00    -0.326 C  
BRANCH  14  16
HETATM   16  C   UNL     1      -7.327   8.503  67.173  1.00  0.00    -0.084 C  
HETATM   17  O   UNL     1      -7.302   9.902  66.886  1.00  0.00    -0.090 OA 
HETATM   18  H   UNL     1      -6.581  10.348  67.314  1.00  0.00     0.000 HD 
ENDBRANCH  14  16
ENDBRANCH   4  11
TORSDOF 2
ENDMDL
MODEL      193
REMARK 921   NORMALIZED FREE ENERGY PREDICTED BY IDOCK:   -2.28 KCAL/MOL
REMARK 922        TOTAL FREE ENERGY PREDICTED BY IDOCK:   -2.89 KCAL/MOL
REMARK 923 INTER-LIGAND FREE ENERGY PREDICTED BY IDOCK:   -3.04 KCAL/MOL
REMARK 924 INTRA-LIGAND FREE ENERGY PREDICTED BY IDOCK:    0.16 KCAL/MOL
REMARK 927      BINDING AFFINITY PREDICTED BY RF-SCORE:    0.00 PKD
ROOT
HETATM    1  C   UNL     1     -12.721  13.400  65.533  1.00  0.00    -0.469 C  
HETATM    2  C   UNL     1     -11.487  12.631  65.191  1.00  0.00    -0.363 C  
HETATM    3  C   UNL     1     -10.338  12.709  65.872  1.00  0.00    -0.276 C  
HETATM    4  N   UNL     1      -9.197  12.001  65.527  1.00  0.00    -0.034 N  
HETATM    5  O   UNL     1     -12.563  11.560  63.373  1.00  0.00    -0.362 OA 
HETATM    6  C   UNL     1      -9.221  11.092  64.475  1.00  0.00    -0.164 C  
HETATM    7  O   UNL     1      -8.278  10.370  64.155  1.00  0.00    -0.163 OA 
HETATM    8  H   UNL     1     -10.421  10.378  62.983  1.00  0.00     0.000 HD 
HETATM    9  N   UNL     1     -10.399  11.016  63.778  1.00  0.00    -0.363 N  
HETATM   10  C   UNL     1     -11.545  11.708  64.042  1.00  0.00    -0.280 C  
ENDROOT
BRANCH   4  11
HETATM   11  C   UNL     1      -8.003  12.023  66.370  1.00  0.00     0.201 C  
HETATM   12  O   UNL     1      -7.467  10.691  66.557  1.00  0.00    -0.120 OA 
HETATM   13  C   UNL     1      -8.070  11.516  68.640  1.00  0.00    -0.132 C  
HETATM   14  C   UNL     1      -7.757  10.263  67.908  1.00  0.00    -0.089 C  
HETATM   15  C   UNL     1      -8.261  12.498  67.760  1.00  0.00    -0.166 C  
BRANCH  14  16
HETATM   16  C   UNL     1      -8.950   9.288  67.930  1.00  0.00    -0.127 C  
HETATM   17  O   UNL     1      -8.731   8.176  68.798  1.00  0.00    -0.136 OA 
HETATM   18  H   UNL     1      -9.466   7.574  68.812  1.00  0.00     0.000 HD 
ENDBRANCH  14  16
ENDBRANCH   4  11
TORSDOF 2
ENDMDL
MODEL      194
REMARK 921   NORMALIZED FREE ENERGY PREDICTED BY IDOCK:   -2.27 KCAL/MOL
REMARK 922        TOTAL FREE ENERGY PREDICTED BY IDOCK:   -2.88 KCAL/MOL
REMARK 923 INTER-LIGAND FREE ENERGY PREDICTED BY IDOCK:   -2.58 KCAL/MOL
REMARK 924 INTRA-LIGAND FREE ENERGY PREDICTED BY IDOCK:   -0.30 KCAL/MOL
REMARK 927      BINDING AFFINITY PREDICTED BY RF-SCORE:    0.00 PKD
ROOT
HETATM    1  C   UNL     1      -9.010   2.392  65.394  1.00  0.00    -0.127 C  
HETATM    2  C   UNL     1      -8.753   3.864  65.405  1.00  0.00    -0.116 C  
HETATM    3  C   UNL     1      -9.429   4.741  66.155  1.00  0.00    -0.163 C  
HETATM    4  N   UNL     1      -9.189   6.106  66.136  1.00  0.00    -0.155 N  
HETATM    5  O   UNL     1      -6.985   3.645  63.844  1.00  0.00    -0.043 OA 
HETATM    6  C   UNL     1      -8.150   6.630  65.375  1.00  0.00    -0.129 C  
HETATM    7  O   UNL     1      -7.822   7.815  65.363  1.00  0.00    -0.099 OA 
HETATM    8  H   UNL     1      -6.717   6.103  64.015  1.00  0.00     0.000 HD 
HETATM    9  N   UNL     1      -7.460   5.728  64.605  1.00  0.00    -0.072 N  
HETATM   10  C   UNL     1      -7.668   4.382  64.550  1.00  0.00    -0.081 C  
ENDROOT
BRANCH   4  11
HETATM   11  C   UNL     1      -9.867   7.012  67.062  1.00  0.00    -0.183 C  
HETATM   12  O   UNL     1      -9.057   7.269  68.233  1.00  0.00    -0.135 OA 
HETATM   13  C   UNL     1     -11.020   6.248  68.933  1.00  0.00    -0.435 C  
HETATM   14  C   UNL     1      -9.631   6.558  69.355  1.00  0.00    -0.144 C  
HETATM   15  C   UNL     1     -11.133   6.456  67.622  1.00  0.00    -0.388 C  
BRANCH  14  16
HETATM   16  C   UNL     1      -8.836   5.272  69.655  1.00  0.00    -0.107 C  
HETATM   17  O   UNL     1      -9.668   4.112  69.694  1.00  0.00    -0.204 OA 
HETATM   18  H   UNL     1      -9.178   3.319  69.879  1.00  0.00     0.000 HD 
ENDBRANCH  14  16
ENDBRANCH   4  11
TORSDOF 2
ENDMDL
MODEL      195
REMARK 921   NORMALIZED FREE ENERGY PREDICTED BY IDOCK:   -2.25 KCAL/MOL
REMARK 922        TOTAL FREE ENERGY PREDICTED BY IDOCK:   -2.86 KCAL/MOL
REMARK 923 INTER-LIGAND FREE ENERGY PREDICTED BY IDOCK:   -2.94 KCAL/MOL
REMARK 924 INTRA-LIGAND FREE ENERGY PREDICTED BY IDOCK:    0.08 KCAL/MOL
REMARK 927      BINDING AFFINITY PREDICTED BY RF-SCORE:    0.00 PKD
ROOT
HETATM    1  C   UNL     1      -9.261   9.494  70.333  1.00  0.00    -0.305 C  
HETATM    2  C   UNL     1      -9.637   8.396  71.274  1.00  0.00    -0.239 C  
HETATM    3  C   UNL     1      -8.911   7.290  71.469  1.00  0.00    -0.129 C  
HETATM    4  N   UNL     1      -9.287   6.273  72.332  1.00  0.00    -0.142 N  
HETATM    5  O   UNL     1     -11.595   9.544  71.953  1.00  0.00    -0.371 OA 
HETATM    6  C   UNL     1     -10.429   6.398  73.116  1.00  0.00    -0.243 C  
HETATM    7  O   UNL     1     -10.789   5.580  73.961  1.00  0.00    -0.242 OA 
HETATM    8  H   UNL     1     -12.030   7.622  73.455  1.00  0.00     0.000 HD 
HETATM    9  N   UNL     1     -11.172   7.533  72.912  1.00  0.00    -0.356 N  
HETATM   10  C   UNL     1     -10.879   8.552  72.055  1.00  0.00    -0.335 C  
ENDROOT
BRANCH   4  11
HETATM   11  C   UNL     1      -8.404   5.141  72.607  1.00  0.00    -0.113 C  
HETATM   12  O   UNL     1      -7.128   5.297  71.943  1.00  0.00    -0.074 OA 
HETATM   13  C   UNL     1      -8.135   3.379  71.112  1.00  0.00    -0.067 C  
HETATM   14  C   UNL     1      -7.074   4.376  70.827  1.00  0.00    -0.037 C  
HETATM   15  C   UNL     1      -8.918   3.842  72.085  1.00  0.00    -0.143 C  
BRANCH  14  16
HETATM   16  C   UNL     1      -7.335   5.110  69.497  1.00  0.00    -0.057 C  
HETATM   17  O   UNL     1      -8.621   4.812  68.953  1.00  0.00    -0.084 OA 
HETATM   18  H   UNL     1      -8.782   5.264  68.133  1.00  0.00     0.000 HD 
ENDBRANCH  14  16
ENDBRANCH   4  11
TORSDOF 2
ENDMDL
MODEL      196
REMARK 921   NORMALIZED FREE ENERGY PREDICTED BY IDOCK:   -2.22 KCAL/MOL
REMARK 922        TOTAL FREE ENERGY PREDICTED BY IDOCK:   -2.82 KCAL/MOL
REMARK 923 INTER-LIGAND FREE ENERGY PREDICTED BY IDOCK:   -2.64 KCAL/MOL
REMARK 924 INTRA-LIGAND FREE ENERGY PREDICTED BY IDOCK:   -0.19 KCAL/MOL
REMARK 927      BINDING AFFINITY PREDICTED BY RF-SCORE:    0.00 PKD
ROOT
HETATM    1  C   UNL     1     -10.905   9.500  67.916  1.00  0.00    -0.240 C  
HETATM    2  C   UNL     1     -10.512   9.071  69.292  1.00  0.00    -0.238 C  
HETATM    3  C   UNL     1      -9.491   8.250  69.562  1.00  0.00    -0.162 C  
HETATM    4  N   UNL     1      -9.154   7.848  70.845  1.00  0.00    -0.150 N  
HETATM    5  O   UNL     1     -12.224  10.381  70.274  1.00  0.00    -0.284 OA 
HETATM    6  C   UNL     1      -9.831   8.360  71.946  1.00  0.00    -0.258 C  
HETATM    7  O   UNL     1      -9.544   8.116  73.117  1.00  0.00    -0.271 OA 
HETATM    8  H   UNL     1     -11.405   9.557  72.463  1.00  0.00     0.000 HD 
HETATM    9  N   UNL     1     -10.878   9.200  71.666  1.00  0.00    -0.360 N  
HETATM   10  C   UNL     1     -11.284   9.607  70.429  1.00  0.00    -0.283 C  
ENDROOT
BRANCH   4  11
HETATM   11  C   UNL     1      -7.957   7.049  71.103  1.00  0.00    -0.104 C  
HETATM   12  O   UNL     1      -6.793   7.889  71.284  1.00  0.00    -0.044 OA 
HETATM   13  C   UNL     1      -6.417   6.536  69.437  1.00  0.00    -0.043 C  
HETATM   14  C   UNL     1      -5.958   7.778  70.107  1.00  0.00    -0.023 C  
HETATM   15  C   UNL     1      -7.578   6.157  69.970  1.00  0.00    -0.095 C  
BRANCH  14  16
HETATM   16  C   UNL     1      -6.133   9.006  69.192  1.00  0.00    -0.042 C  
HETATM   17  O   UNL     1      -5.771  10.226  69.840  1.00  0.00    -0.041 OA 
HETATM   18  H   UNL     1      -5.879  10.983  69.277  1.00  0.00     0.000 HD 
ENDBRANCH  14  16
ENDBRANCH   4  11
TORSDOF 2
ENDMDL
MODEL      197
REMARK 921   NORMALIZED FREE ENERGY PREDICTED BY IDOCK:   -2.22 KCAL/MOL
REMARK 922        TOTAL FREE ENERGY PREDICTED BY IDOCK:   -2.82 KCAL/MOL
REMARK 923 INTER-LIGAND FREE ENERGY PREDICTED BY IDOCK:   -3.98 KCAL/MOL
REMARK 924 INTRA-LIGAND FREE ENERGY PREDICTED BY IDOCK:    1.16 KCAL/MOL
REMARK 927      BINDING AFFINITY PREDICTED BY RF-SCORE:    0.00 PKD
ROOT
HETATM    1  C   UNL     1     -12.387  12.202  70.547  1.00  0.00    -0.358 C  
HETATM    2  C   UNL     1     -11.711  11.001  69.971  1.00  0.00    -0.437 C  
HETATM    3  C   UNL     1     -11.216   9.994  70.699  1.00  0.00    -0.350 C  
HETATM    4  N   UNL     1     -10.573   8.897  70.147  1.00  0.00    -0.216 N  
HETATM    5  O   UNL     1     -12.043  11.778  67.758  1.00  0.00    -0.595 OA 
HETATM    6  C   UNL     1     -10.483   8.752  68.767  1.00  0.00    -0.191 C  
HETATM    7  O   UNL     1     -10.000   7.775  68.197  1.00  0.00    -0.165 OA 
HETATM    8  H   UNL     1     -10.900   9.711  67.010  1.00  0.00     0.000 HD 
HETATM    9  N   UNL     1     -10.989   9.788  68.023  1.00  0.00    -0.223 N  
HETATM   10  C   UNL     1     -11.600  10.909  68.503  1.00  0.00    -0.290 C  
ENDROOT
BRANCH   4  11
HETATM   11  C   UNL     1     -10.158   7.763  70.970  1.00  0.00    -0.185 C  
HETATM   12  O   UNL     1      -9.146   8.151  71.929  1.00  0.00    -0.138 OA 
HETATM   13  C   UNL     1      -8.226   6.544  70.531  1.00  0.00    -0.118 C  
HETATM   14  C   UNL     1      -7.873   7.613  71.498  1.00  0.00    -0.086 C  
HETATM   15  C   UNL     1      -9.509   6.667  70.194  1.00  0.00    -0.162 C  
BRANCH  14  16
HETATM   16  C   UNL     1      -7.011   8.706  70.836  1.00  0.00    -0.064 C  
HETATM   17  O   UNL     1      -7.665   9.974  70.805  1.00  0.00    -0.402 OA 
HETATM   18  H   UNL     1      -7.134  10.648  70.397  1.00  0.00     0.000 HD 
ENDBRANCH  14  16
ENDBRANCH   4  11
TORSDOF 2
ENDMDL
MODEL      198
REMARK 921   NORMALIZED FREE ENERGY PREDICTED BY IDOCK:   -2.21 KCAL/MOL
REMARK 922        TOTAL FREE ENERGY PREDICTED BY IDOCK:   -2.82 KCAL/MOL
REMARK 923 INTER-LIGAND FREE ENERGY PREDICTED BY IDOCK:   -2.90 KCAL/MOL
REMARK 924 INTRA-LIGAND FREE ENERGY PREDICTED BY IDOCK:    0.09 KCAL/MOL
REMARK 927      BINDING AFFINITY PREDICTED BY RF-SCORE:    0.00 PKD
ROOT
HETATM    1  C   UNL     1      -7.520   7.282  68.497  1.00  0.00    -0.105 C  
HETATM    2  C   UNL     1      -8.618   8.268  68.265  1.00  0.00    -0.133 C  
HETATM    3  C   UNL     1      -8.434   9.499  67.775  1.00  0.00    -0.119 C  
HETATM    4  N   UNL     1      -9.464  10.407  67.585  1.00  0.00    -0.148 N  
HETATM    5  O   UNL     1     -10.261   6.733  69.011  1.00  0.00    -0.164 OA 
HETATM    6  C   UNL     1     -10.783  10.040  67.827  1.00  0.00    -0.280 C  
HETATM    7  O   UNL     1     -11.758  10.757  67.611  1.00  0.00    -0.538 OA 
HETATM    8  H   UNL     1     -11.928   8.507  68.547  1.00  0.00     0.000 HD 
HETATM    9  N   UNL     1     -10.968   8.778  68.332  1.00  0.00     0.058 N  
HETATM   10  C   UNL     1      -9.999   7.850  68.575  1.00  0.00    -0.187 C  
ENDROOT
BRANCH   4  11
HETATM   11  C   UNL     1      -9.234  11.695  66.933  1.00  0.00    -0.184 C  
HETATM   12  O   UNL     1      -7.822  11.928  66.712  1.00  0.00    -0.146 OA 
HETATM   13  C   UNL     1      -8.610  13.598  68.116  1.00  0.00    -0.176 C  
HETATM   14  C   UNL     1      -7.369  12.931  67.651  1.00  0.00    -0.145 C  
HETATM   15  C   UNL     1      -9.662  12.865  67.752  1.00  0.00    -0.214 C  
BRANCH  14  16
HETATM   16  C   UNL     1      -6.608  12.282  68.824  1.00  0.00    -0.084 C  
HETATM   17  O   UNL     1      -6.868  12.929  70.069  1.00  0.00    -0.338 OA 
HETATM   18  H   UNL     1      -6.400  12.529  70.792  1.00  0.00     0.000 HD 
ENDBRANCH  14  16
ENDBRANCH   4  11
TORSDOF 2
ENDMDL
MODEL      199
REMARK 921   NORMALIZED FREE ENERGY PREDICTED BY IDOCK:   -2.14 KCAL/MOL
REMARK 922        TOTAL FREE ENERGY PREDICTED BY IDOCK:   -2.74 KCAL/MOL
REMARK 923 INTER-LIGAND FREE ENERGY PREDICTED BY IDOCK:   -2.49 KCAL/MOL
REMARK 924 INTRA-LIGAND FREE ENERGY PREDICTED BY IDOCK:   -0.25 KCAL/MOL
REMARK 927      BINDING AFFINITY PREDICTED BY RF-SCORE:    0.00 PKD
ROOT
HETATM    1  C   UNL     1      -7.512   5.322  63.731  1.00  0.00    -0.059 C  
HETATM    2  C   UNL     1      -8.392   5.893  64.794  1.00  0.00    -0.103 C  
HETATM    3  C   UNL     1      -8.254   7.120  65.309  1.00  0.00    -0.128 C  
HETATM    4  N   UNL     1      -9.069   7.624  66.310  1.00  0.00    -0.169 N  
HETATM    5  O   UNL     1      -9.711   3.926  64.866  1.00  0.00    -0.166 OA 
HETATM    6  C   UNL     1     -10.148   6.884  66.781  1.00  0.00    -0.194 C  
HETATM    7  O   UNL     1     -10.963   7.289  67.609  1.00  0.00    -0.194 OA 
HETATM    8  H   UNL     1     -11.053   5.059  66.615  1.00  0.00     0.000 HD 
HETATM    9  N   UNL     1     -10.286   5.626  66.254  1.00  0.00    -0.147 N  
HETATM   10  C   UNL     1      -9.500   5.057  65.296  1.00  0.00    -0.048 C  
ENDROOT
BRANCH   4  11
HETATM   11  C   UNL     1      -8.960   9.012  66.755  1.00  0.00    -0.135 C  
HETATM   12  O   UNL     1      -9.932   9.855  66.091  1.00  0.00    -0.236 OA 
HETATM   13  C   UNL     1      -7.818  10.627  65.530  1.00  0.00    -0.099 C  
HETATM   14  C   UNL     1      -9.243  10.676  65.119  1.00  0.00    -0.207 C  
HETATM   15  C   UNL     1      -7.653   9.647  66.418  1.00  0.00    -0.101 C  
BRANCH  14  16
HETATM   16  C   UNL     1      -9.435  10.120  63.695  1.00  0.00    -0.267 C  
HETATM   17  O   UNL     1      -8.714  10.866  62.715  1.00  0.00    -0.233 OA 
HETATM   18  H   UNL     1      -8.832  10.523  61.837  1.00  0.00     0.000 HD 
ENDBRANCH  14  16
ENDBRANCH   4  11
TORSDOF 2
ENDMDL
MODEL      200
REMARK 921   NORMALIZED FREE ENERGY PREDICTED BY IDOCK:   -2.13 KCAL/MOL
REMARK 922        TOTAL FREE ENERGY PREDICTED BY IDOCK:   -2.73 KCAL/MOL
REMARK 923 INTER-LIGAND FREE ENERGY PREDICTED BY IDOCK:   -2.49 KCAL/MOL
REMARK 924 INTRA-LIGAND FREE ENERGY PREDICTED BY IDOCK:   -0.24 KCAL/MOL
REMARK 927      BINDING AFFINITY PREDICTED BY RF-SCORE:    0.00 PKD
ROOT
HETATM    1  C   UNL     1     -10.544   4.854  66.077  1.00  0.00    -0.312 C  
HETATM    2  C   UNL     1     -10.360   5.513  67.405  1.00  0.00    -0.279 C  
HETATM    3  C   UNL     1     -10.128   4.856  68.546  1.00  0.00    -0.078 C  
HETATM    4  N   UNL     1      -9.979   5.485  69.773  1.00  0.00    -0.192 N  
HETATM    5  O   UNL     1     -10.605   7.670  66.455  1.00  0.00    -0.174 OA 
HETATM    6  C   UNL     1      -9.985   6.873  69.859  1.00  0.00    -0.176 C  
HETATM    7  O   UNL     1      -9.783   7.509  70.893  1.00  0.00    -0.173 OA 
HETATM    8  H   UNL     1     -10.267   8.561  68.742  1.00  0.00     0.000 HD 
HETATM    9  N   UNL     1     -10.226   7.544  68.688  1.00  0.00    -0.193 N  
HETATM   10  C   UNL     1     -10.416   6.987  67.457  1.00  0.00    -0.250 C  
ENDROOT
BRANCH   4  11
HETATM   11  C   UNL     1      -9.605   4.738  70.972  1.00  0.00    -0.175 C  
HETATM   12  O   UNL     1      -8.200   4.904  71.277  1.00  0.00    -0.105 OA 
HETATM   13  C   UNL     1      -8.581   2.651  70.872  1.00  0.00    -0.104 C  
HETATM   14  C   UNL     1      -7.509   3.676  70.949  1.00  0.00    -0.040 C  
HETATM   15  C   UNL     1      -9.765   3.262  70.831  1.00  0.00    -0.187 C  
BRANCH  14  16
HETATM   16  C   UNL     1      -6.761   3.807  69.609  1.00  0.00    -0.034 C  
HETATM   17  O   UNL     1      -5.713   4.775  69.660  1.00  0.00    -0.014 OA 
HETATM   18  H   UNL     1      -5.252   4.857  68.834  1.00  0.00     0.000 HD 
ENDBRANCH  14  16
ENDBRANCH   4  11
TORSDOF 2
ENDMDL
MODEL      201
REMARK 921   NORMALIZED FREE ENERGY PREDICTED BY IDOCK:   -2.10 KCAL/MOL
REMARK 922        TOTAL FREE ENERGY PREDICTED BY IDOCK:   -2.69 KCAL/MOL
REMARK 923 INTER-LIGAND FREE ENERGY PREDICTED BY IDOCK:   -3.87 KCAL/MOL
REMARK 924 INTRA-LIGAND FREE ENERGY PREDICTED BY IDOCK:    1.18 KCAL/MOL
REMARK 927      BINDING AFFINITY PREDICTED BY RF-SCORE:    0.00 PKD
ROOT
HETATM    1  C   UNL     1     -12.464  13.728  70.671  1.00  0.00    -0.429 C  
HETATM    2  C   UNL     1     -11.857  13.061  69.480  1.00  0.00    -0.385 C  
HETATM    3  C   UNL     1     -11.442  11.790  69.459  1.00  0.00    -0.295 C  
HETATM    4  N   UNL     1     -10.862  11.195  68.350  1.00  0.00    -0.190 N  
HETATM    5  O   UNL     1     -12.097  15.017  68.165  1.00  0.00    -0.231 OA 
HETATM    6  C   UNL     1     -10.756  11.889  67.150  1.00  0.00    -0.240 C  
HETATM    7  O   UNL     1     -10.327  11.410  66.101  1.00  0.00    -0.233 OA 
HETATM    8  H   UNL     1     -11.077  13.726  66.312  1.00  0.00     0.000 HD 
HETATM    9  N   UNL     1     -11.180  13.193  67.175  1.00  0.00    -0.283 N  
HETATM   10  C   UNL     1     -11.725  13.849  68.239  1.00  0.00    -0.361 C  
ENDROOT
BRANCH   4  11
HETATM   11  C   UNL     1     -10.537   9.769  68.332  1.00  0.00    -0.226 C  
HETATM   12  O   UNL     1      -9.263   9.513  68.970  1.00  0.00    -0.146 OA 
HETATM   13  C   UNL     1      -9.102   8.837  66.756  1.00  0.00    -0.180 C  
HETATM   14  C   UNL     1      -8.291   9.197  67.946  1.00  0.00    -0.117 C  
HETATM   15  C   UNL     1     -10.364   9.213  66.959  1.00  0.00    -0.333 C  
BRANCH  14  16
HETATM   16  C   UNL     1      -7.382  10.409  67.660  1.00  0.00    -0.088 C  
HETATM   17  O   UNL     1      -7.592  10.954  66.357  1.00  0.00    -0.139 OA 
HETATM   18  H   UNL     1      -7.032  11.701  66.180  1.00  0.00     0.000 HD 
ENDBRANCH  14  16
ENDBRANCH   4  11
TORSDOF 2
ENDMDL
MODEL      202
REMARK 921   NORMALIZED FREE ENERGY PREDICTED BY IDOCK:   -2.08 KCAL/MOL
REMARK 922        TOTAL FREE ENERGY PREDICTED BY IDOCK:   -2.66 KCAL/MOL
REMARK 923 INTER-LIGAND FREE ENERGY PREDICTED BY IDOCK:   -2.78 KCAL/MOL
REMARK 924 INTRA-LIGAND FREE ENERGY PREDICTED BY IDOCK:    0.12 KCAL/MOL
REMARK 927      BINDING AFFINITY PREDICTED BY RF-SCORE:    0.00 PKD
ROOT
HETATM    1  C   UNL     1      -8.349   8.792  66.414  1.00  0.00    -0.117 C  
HETATM    2  C   UNL     1      -7.890   9.058  67.811  1.00  0.00    -0.101 C  
HETATM    3  C   UNL     1      -8.204   8.296  68.864  1.00  0.00    -0.116 C  
HETATM    4  N   UNL     1      -7.785   8.571  70.157  1.00  0.00    -0.083 N  
HETATM    5  O   UNL     1      -6.664  10.966  67.128  1.00  0.00    -0.077 OA 
HETATM    6  C   UNL     1      -6.929   9.637  70.410  1.00  0.00    -0.128 C  
HETATM    7  O   UNL     1      -6.450   9.902  71.512  1.00  0.00    -0.317 OA 
HETATM    8  H   UNL     1      -6.011  11.223  69.504  1.00  0.00     0.000 HD 
HETATM    9  N   UNL     1      -6.611  10.418  69.328  1.00  0.00    -0.050 N  
HETATM   10  C   UNL     1      -7.017  10.225  68.040  1.00  0.00    -0.082 C  
ENDROOT
BRANCH   4  11
HETATM   11  C   UNL     1      -8.049   7.645  71.257  1.00  0.00    -0.095 C  
HETATM   12  O   UNL     1      -8.308   6.308  70.767  1.00  0.00    -0.123 OA 
HETATM   13  C   UNL     1     -10.205   7.038  71.886  1.00  0.00    -0.205 C  
HETATM   14  C   UNL     1      -9.722   6.032  70.908  1.00  0.00    -0.174 C  
HETATM   15  C   UNL     1      -9.273   7.979  72.039  1.00  0.00    -0.229 C  
BRANCH  14  16
HETATM   16  C   UNL     1     -10.446   6.171  69.556  1.00  0.00    -0.254 C  
HETATM   17  O   UNL     1     -11.826   6.508  69.707  1.00  0.00    -0.628 OA 
HETATM   18  H   UNL     1     -12.273   6.595  68.873  1.00  0.00     0.000 HD 
ENDBRANCH  14  16
ENDBRANCH   4  11
TORSDOF 2
ENDMDL
MODEL      203
REMARK 921   NORMALIZED FREE ENERGY PREDICTED BY IDOCK:   -2.07 KCAL/MOL
REMARK 922        TOTAL FREE ENERGY PREDICTED BY IDOCK:   -2.65 KCAL/MOL
REMARK 923 INTER-LIGAND FREE ENERGY PREDICTED BY IDOCK:   -2.67 KCAL/MOL
REMARK 924 INTRA-LIGAND FREE ENERGY PREDICTED BY IDOCK:    0.01 KCAL/MOL
REMARK 927      BINDING AFFINITY PREDICTED BY RF-SCORE:    0.00 PKD
ROOT
HETATM    1  C   UNL     1      -6.573   9.998  63.650  1.00  0.00    -0.130 C  
HETATM    2  C   UNL     1      -7.638   9.633  64.632  1.00  0.00    -0.126 C  
HETATM    3  C   UNL     1      -7.441   8.856  65.703  1.00  0.00    -0.086 C  
HETATM    4  N   UNL     1      -8.448   8.512  66.591  1.00  0.00    -0.111 N  
HETATM    5  O   UNL     1      -9.256  10.919  63.473  1.00  0.00    -0.218 OA 
HETATM    6  C   UNL     1      -9.726   9.040  66.449  1.00  0.00    -0.268 C  
HETATM    7  O   UNL     1     -10.652   8.848  67.236  1.00  0.00    -0.283 OA 
HETATM    8  H   UNL     1     -10.867  10.201  65.213  1.00  0.00     0.000 HD 
HETATM    9  N   UNL     1      -9.926   9.834  65.349  1.00  0.00    -0.304 N  
HETATM   10  C   UNL     1      -8.991  10.182  64.419  1.00  0.00    -0.233 C  
ENDROOT
BRANCH   4  11
HETATM   11  C   UNL     1      -8.162   7.763  67.814  1.00  0.00    -0.126 C  
HETATM   12  O   UNL     1      -8.949   8.252  68.926  1.00  0.00    -0.143 OA 
HETATM   13  C   UNL     1      -6.710   8.556  69.450  1.00  0.00    -0.045 C  
HETATM   14  C   UNL     1      -8.081   8.991  69.816  1.00  0.00    -0.109 C  
HETATM   15  C   UNL     1      -6.755   7.907  68.287  1.00  0.00    -0.063 C  
BRANCH  14  16
HETATM   16  C   UNL     1      -8.258  10.509  69.620  1.00  0.00    -0.015 C  
HETATM   17  O   UNL     1      -9.614  10.872  69.361  1.00  0.00    -0.407 OA 
HETATM   18  H   UNL     1      -9.724  11.808  69.241  1.00  0.00     0.000 HD 
ENDBRANCH  14  16
ENDBRANCH   4  11
TORSDOF 2
ENDMDL
MODEL      204
REMARK 921   NORMALIZED FREE ENERGY PREDICTED BY IDOCK:   -1.97 KCAL/MOL
REMARK 922        TOTAL FREE ENERGY PREDICTED BY IDOCK:   -2.55 KCAL/MOL
REMARK 923 INTER-LIGAND FREE ENERGY PREDICTED BY IDOCK:   -2.22 KCAL/MOL
REMARK 924 INTRA-LIGAND FREE ENERGY PREDICTED BY IDOCK:   -0.33 KCAL/MOL
REMARK 927      BINDING AFFINITY PREDICTED BY RF-SCORE:    0.00 PKD
ROOT
HETATM    1  C   UNL     1     -10.484  11.554  65.710  1.00  0.00    -0.308 C  
HETATM    2  C   UNL     1      -9.263  10.783  65.324  1.00  0.00    -0.233 C  
HETATM    3  C   UNL     1      -8.369  10.303  66.195  1.00  0.00    -0.140 C  
HETATM    4  N   UNL     1      -7.231   9.607  65.817  1.00  0.00    -0.096 N  
HETATM    5  O   UNL     1      -9.821  10.900  63.025  1.00  0.00    -0.319 OA 
HETATM    6  C   UNL     1      -7.006   9.298  64.480  1.00  0.00    -0.093 C  
HETATM    7  O   UNL     1      -6.065   8.620  64.070  1.00  0.00    -0.070 OA 
HETATM    8  H   UNL     1      -7.752   9.603  62.602  1.00  0.00     0.000 HD 
HETATM    9  N   UNL     1      -7.923   9.793  63.589  1.00  0.00    -0.136 N  
HETATM   10  C   UNL     1      -9.041  10.513  63.891  1.00  0.00    -0.233 C  
ENDROOT
BRANCH   4  11
HETATM   11  C   UNL     1      -6.347   8.996  66.807  1.00  0.00    -0.063 C  
HETATM   12  O   UNL     1      -6.539   7.563  66.870  1.00  0.00    -0.057 OA 
HETATM   13  C   UNL     1      -7.067   8.445  68.950  1.00  0.00    -0.066 C  
HETATM   14  C   UNL     1      -7.243   7.246  68.094  1.00  0.00    -0.091 C  
HETATM   15  C   UNL     1      -6.609   9.450  68.203  1.00  0.00    -0.059 C  
BRANCH  14  16
HETATM   16  C   UNL     1      -8.733   6.970  67.814  1.00  0.00    -0.121 C  
HETATM   17  O   UNL     1      -8.960   6.476  66.494  1.00  0.00    -0.134 OA 
HETATM   18  H   UNL     1      -9.878   6.306  66.322  1.00  0.00     0.000 HD 
ENDBRANCH  14  16
ENDBRANCH   4  11
TORSDOF 2
ENDMDL
MODEL      205
REMARK 921   NORMALIZED FREE ENERGY PREDICTED BY IDOCK:   -1.95 KCAL/MOL
REMARK 922        TOTAL FREE ENERGY PREDICTED BY IDOCK:   -2.52 KCAL/MOL
REMARK 923 INTER-LIGAND FREE ENERGY PREDICTED BY IDOCK:   -2.62 KCAL/MOL
REMARK 924 INTRA-LIGAND FREE ENERGY PREDICTED BY IDOCK:    0.10 KCAL/MOL
REMARK 927      BINDING AFFINITY PREDICTED BY RF-SCORE:    0.00 PKD
ROOT
HETATM    1  C   UNL     1      -6.123   7.090  67.592  1.00  0.00    -0.033 C  
HETATM    2  C   UNL     1      -7.039   7.837  66.679  1.00  0.00    -0.079 C  
HETATM    3  C   UNL     1      -7.812   8.861  67.059  1.00  0.00    -0.102 C  
HETATM    4  N   UNL     1      -8.671   9.528  66.201  1.00  0.00    -0.141 N  
HETATM    5  O   UNL     1      -6.390   6.518  64.821  1.00  0.00    -0.036 OA 
HETATM    6  C   UNL     1      -8.709   9.206  64.848  1.00  0.00    -0.182 C  
HETATM    7  O   UNL     1      -9.384   9.800  64.008  1.00  0.00    -0.264 OA 
HETATM    8  H   UNL     1      -7.961   7.885  63.480  1.00  0.00     0.000 HD 
HETATM    9  N   UNL     1      -7.918   8.155  64.462  1.00  0.00    -0.138 N  
HETATM   10  C   UNL     1      -7.079   7.434  65.260  1.00  0.00    -0.064 C  
ENDROOT
BRANCH   4  11
HETATM   11  C   UNL     1      -9.403  10.719  66.629  1.00  0.00    -0.166 C  
HETATM   12  O   UNL     1      -8.809  11.305  67.811  1.00  0.00    -0.135 OA 
HETATM   13  C   UNL     1     -10.974  10.665  68.345  1.00  0.00    -0.303 C  
HETATM   14  C   UNL     1      -9.665  11.028  68.944  1.00  0.00    -0.172 C  
HETATM   15  C   UNL     1     -10.809  10.439  67.042  1.00  0.00    -0.269 C  
BRANCH  14  16
HETATM   16  C   UNL     1      -9.098   9.873  69.792  1.00  0.00    -0.225 C  
HETATM   17  O   UNL     1      -7.809  10.171  70.328  1.00  0.00    -0.315 OA 
HETATM   18  H   UNL     1      -7.459   9.460  70.852  1.00  0.00     0.000 HD 
ENDBRANCH  14  16
ENDBRANCH   4  11
TORSDOF 2
ENDMDL
MODEL      206
REMARK 921   NORMALIZED FREE ENERGY PREDICTED BY IDOCK:   -1.93 KCAL/MOL
REMARK 922        TOTAL FREE ENERGY PREDICTED BY IDOCK:   -2.50 KCAL/MOL
REMARK 923 INTER-LIGAND FREE ENERGY PREDICTED BY IDOCK:   -2.29 KCAL/MOL
REMARK 924 INTRA-LIGAND FREE ENERGY PREDICTED BY IDOCK:   -0.21 KCAL/MOL
REMARK 927      BINDING AFFINITY PREDICTED BY RF-SCORE:    0.00 PKD
ROOT
HETATM    1  C   UNL     1      -6.413   7.817  70.549  1.00  0.00    -0.038 C  
HETATM    2  C   UNL     1      -7.852   7.419  70.510  1.00  0.00    -0.097 C  
HETATM    3  C   UNL     1      -8.302   6.271  69.990  1.00  0.00    -0.129 C  
HETATM    4  N   UNL     1      -9.644   5.929  69.945  1.00  0.00    -0.155 N  
HETATM    5  O   UNL     1      -8.513   9.406  71.618  1.00  0.00    -0.232 OA 
HETATM    6  C   UNL     1     -10.603   6.750  70.529  1.00  0.00    -0.225 C  
HETATM    7  O   UNL     1     -11.801   6.483  70.600  1.00  0.00    -0.384 OA 
HETATM    8  H   UNL     1     -10.834   8.556  71.459  1.00  0.00     0.000 HD 
HETATM    9  N   UNL     1     -10.139   7.927  71.058  1.00  0.00    -0.192 N  
HETATM   10  C   UNL     1      -8.840   8.341  71.103  1.00  0.00    -0.151 C  
ENDROOT
BRANCH   4  11
HETATM   11  C   UNL     1     -10.080   4.613  69.481  1.00  0.00    -0.142 C  
HETATM   12  O   UNL     1     -10.124   3.659  70.569  1.00  0.00    -0.007 OA 
HETATM   13  C   UNL     1      -8.580   2.896  69.014  1.00  0.00    -0.115 C  
HETATM   14  C   UNL     1      -9.011   2.746  70.427  1.00  0.00    -0.096 C  
HETATM   15  C   UNL     1      -9.147   3.987  68.500  1.00  0.00    -0.189 C  
BRANCH  14  16
HETATM   16  C   UNL     1      -7.874   3.110  71.402  1.00  0.00    -0.055 C  
HETATM   17  O   UNL     1      -8.316   3.171  72.758  1.00  0.00    -0.077 OA 
HETATM   18  H   UNL     1      -7.616   3.395  73.359  1.00  0.00     0.000 HD 
ENDBRANCH  14  16
ENDBRANCH   4  11
TORSDOF 2
ENDMDL
MODEL      207
REMARK 921   NORMALIZED FREE ENERGY PREDICTED BY IDOCK:   -1.91 KCAL/MOL
REMARK 922        TOTAL FREE ENERGY PREDICTED BY IDOCK:   -2.48 KCAL/MOL
REMARK 923 INTER-LIGAND FREE ENERGY PREDICTED BY IDOCK:   -2.56 KCAL/MOL
REMARK 924 INTRA-LIGAND FREE ENERGY PREDICTED BY IDOCK:    0.08 KCAL/MOL
REMARK 927      BINDING AFFINITY PREDICTED BY RF-SCORE:    0.00 PKD
ROOT
HETATM    1  C   UNL     1      -8.042   5.247  65.426  1.00  0.00    -0.121 C  
HETATM    2  C   UNL     1      -8.746   6.454  65.954  1.00  0.00    -0.152 C  
HETATM    3  C   UNL     1      -8.392   7.714  65.679  1.00  0.00    -0.140 C  
HETATM    4  N   UNL     1      -9.046   8.822  66.195  1.00  0.00    -0.188 N  
HETATM    5  O   UNL     1     -10.329   5.122  67.109  1.00  0.00    -0.209 OA 
HETATM    6  C   UNL     1     -10.182   8.667  66.982  1.00  0.00    -0.290 C  
HETATM    7  O   UNL     1     -10.864   9.596  67.413  1.00  0.00    -0.274 OA 
HETATM    8  H   UNL     1     -11.353   7.246  67.869  1.00  0.00     0.000 HD 
HETATM    9  N   UNL     1     -10.542   7.375  67.265  1.00  0.00    -0.308 N  
HETATM   10  C   UNL     1      -9.923   6.244  66.820  1.00  0.00    -0.170 C  
ENDROOT
BRANCH   4  11
HETATM   11  C   UNL     1      -8.702  10.177  65.769  1.00  0.00    -0.152 C  
HETATM   12  O   UNL     1      -7.758  10.160  64.672  1.00  0.00    -0.143 OA 
HETATM   13  C   UNL     1      -6.753  11.244  66.460  1.00  0.00    -0.105 C  
HETATM   14  C   UNL     1      -6.463  10.566  65.172  1.00  0.00    -0.052 C  
HETATM   15  C   UNL     1      -8.008  10.976  66.820  1.00  0.00    -0.152 C  
BRANCH  14  16
HETATM   16  C   UNL     1      -5.545   9.345  65.375  1.00  0.00    -0.052 C  
HETATM   17  O   UNL     1      -5.439   8.540  64.201  1.00  0.00    -0.057 OA 
HETATM   18  H   UNL     1      -4.873   7.787  64.326  1.00  0.00     0.000 HD 
ENDBRANCH  14  16
ENDBRANCH   4  11
TORSDOF 2
ENDMDL
MODEL      208
REMARK 921   NORMALIZED FREE ENERGY PREDICTED BY IDOCK:   -1.91 KCAL/MOL
REMARK 922        TOTAL FREE ENERGY PREDICTED BY IDOCK:   -2.47 KCAL/MOL
REMARK 923 INTER-LIGAND FREE ENERGY PREDICTED BY IDOCK:   -2.60 KCAL/MOL
REMARK 924 INTRA-LIGAND FREE ENERGY PREDICTED BY IDOCK:    0.13 KCAL/MOL
REMARK 927      BINDING AFFINITY PREDICTED BY RF-SCORE:    0.00 PKD
ROOT
HETATM    1  C   UNL     1      -5.657   9.650  71.318  1.00  0.00    -0.074 C  
HETATM    2  C   UNL     1      -6.737   9.003  72.123  1.00  0.00     0.098 C  
HETATM    3  C   UNL     1      -7.835   8.446  71.601  1.00  0.00    -0.120 C  
HETATM    4  N   UNL     1      -8.836   7.869  72.366  1.00  0.00    -0.138 N  
HETATM    5  O   UNL     1      -5.586   9.425  74.150  1.00  0.00    -0.223 OA 
HETATM    6  C   UNL     1      -8.700   7.768  73.746  1.00  0.00    -0.262 C  
HETATM    7  O   UNL     1      -9.503   7.202  74.487  1.00  0.00    -0.191 OA 
HETATM    8  H   UNL     1      -7.478   8.306  75.294  1.00  0.00     0.000 HD 
HETATM    9  N   UNL     1      -7.574   8.342  74.279  1.00  0.00    -0.207 N  
HETATM   10  C   UNL     1      -6.571   8.956  73.589  1.00  0.00     0.143 C  
ENDROOT
BRANCH   4  11
HETATM   11  C   UNL     1      -9.957   7.163  71.748  1.00  0.00    -0.175 C  
HETATM   12  O   UNL     1     -10.034   7.440  70.329  1.00  0.00    -0.187 OA 
HETATM   13  C   UNL     1     -11.994   8.201  71.311  1.00  0.00    -0.318 C  
HETATM   14  C   UNL     1     -11.156   8.322  70.092  1.00  0.00    -0.189 C  
HETATM   15  C   UNL     1     -11.290   7.591  72.264  1.00  0.00    -0.338 C  
BRANCH  14  16
HETATM   16  C   UNL     1     -10.680   9.772  69.880  1.00  0.00    -0.268 C  
HETATM   17  O   UNL     1      -9.723   9.885  68.827  1.00  0.00    -0.152 OA 
HETATM   18  H   UNL     1      -9.429  10.779  68.697  1.00  0.00     0.000 HD 
ENDBRANCH  14  16
ENDBRANCH   4  11
TORSDOF 2
ENDMDL
MODEL      209
REMARK 921   NORMALIZED FREE ENERGY PREDICTED BY IDOCK:   -1.87 KCAL/MOL
REMARK 922        TOTAL FREE ENERGY PREDICTED BY IDOCK:   -2.44 KCAL/MOL
REMARK 923 INTER-LIGAND FREE ENERGY PREDICTED BY IDOCK:   -2.65 KCAL/MOL
REMARK 924 INTRA-LIGAND FREE ENERGY PREDICTED BY IDOCK:    0.21 KCAL/MOL
REMARK 927      BINDING AFFINITY PREDICTED BY RF-SCORE:    0.00 PKD
ROOT
HETATM    1  C   UNL     1      -9.264   2.914  69.276  1.00  0.00    -0.212 C  
HETATM    2  C   UNL     1      -9.516   4.378  69.115  1.00  0.00    -0.240 C  
HETATM    3  C   UNL     1      -9.468   5.266  70.114  1.00  0.00    -0.160 C  
HETATM    4  N   UNL     1      -9.725   6.617  69.948  1.00  0.00    -0.158 N  
HETATM    5  O   UNL     1      -9.863   4.140  66.784  1.00  0.00    -0.216 OA 
HETATM    6  C   UNL     1      -9.973   7.138  68.682  1.00  0.00    -0.159 C  
HETATM    7  O   UNL     1     -10.133   8.333  68.439  1.00  0.00    -0.189 OA 
HETATM    8  H   UNL     1     -10.239   6.588  66.732  1.00  0.00     0.000 HD 
HETATM    9  N   UNL     1     -10.024   6.225  67.660  1.00  0.00    -0.123 N  
HETATM   10  C   UNL     1      -9.817   4.881  67.761  1.00  0.00    -0.147 C  
ENDROOT
BRANCH   4  11
HETATM   11  C   UNL     1      -9.540   7.569  71.042  1.00  0.00    -0.160 C  
HETATM   12  O   UNL     1      -8.206   7.479  71.596  1.00  0.00    -0.100 OA 
HETATM   13  C   UNL     1      -9.714   6.947  73.277  1.00  0.00    -0.213 C  
HETATM   14  C   UNL     1      -8.286   6.832  72.888  1.00  0.00    -0.116 C  
HETATM   15  C   UNL     1     -10.427   7.313  72.213  1.00  0.00    -0.246 C  
BRANCH  14  16
HETATM   16  C   UNL     1      -7.847   5.358  72.792  1.00  0.00    -0.099 C  
HETATM   17  O   UNL     1      -8.846   4.459  73.273  1.00  0.00    -0.106 OA 
HETATM   18  H   UNL     1      -8.576   3.550  73.214  1.00  0.00     0.000 HD 
ENDBRANCH  14  16
ENDBRANCH   4  11
TORSDOF 2
ENDMDL
MODEL      210
REMARK 921   NORMALIZED FREE ENERGY PREDICTED BY IDOCK:   -1.87 KCAL/MOL
REMARK 922        TOTAL FREE ENERGY PREDICTED BY IDOCK:   -2.44 KCAL/MOL
REMARK 923 INTER-LIGAND FREE ENERGY PREDICTED BY IDOCK:   -3.90 KCAL/MOL
REMARK 924 INTRA-LIGAND FREE ENERGY PREDICTED BY IDOCK:    1.46 KCAL/MOL
REMARK 927      BINDING AFFINITY PREDICTED BY RF-SCORE:    0.00 PKD
ROOT
HETATM    1  C   UNL     1      -9.339   6.921  66.107  1.00  0.00    -0.089 C  
HETATM    2  C   UNL     1      -9.681   7.593  67.397  1.00  0.00    -0.208 C  
HETATM    3  C   UNL     1      -9.877   6.949  68.553  1.00  0.00    -0.144 C  
HETATM    4  N   UNL     1     -10.214   7.588  69.735  1.00  0.00    -0.206 N  
HETATM    5  O   UNL     1      -9.609   9.736  66.391  1.00  0.00    -0.174 OA 
HETATM    6  C   UNL     1     -10.288   8.976  69.792  1.00  0.00    -0.211 C  
HETATM    7  O   UNL     1     -10.503   9.622  70.816  1.00  0.00    -0.290 OA 
HETATM    8  H   UNL     1     -10.174  10.649  68.624  1.00  0.00     0.000 HD 
HETATM    9  N   UNL     1     -10.089   9.633  68.605  1.00  0.00    -0.172 N  
HETATM   10  C   UNL     1      -9.791   9.064  67.402  1.00  0.00    -0.190 C  
ENDROOT
BRANCH   4  11
HETATM   11  C   UNL     1     -10.297   6.858  71.000  1.00  0.00    -0.205 C  
HETATM   12  O   UNL     1     -11.605   6.265  71.180  1.00  0.00    -0.318 OA 
HETATM   13  C   UNL     1     -11.263   7.776  72.907  1.00  0.00    -0.434 C  
HETATM   14  C   UNL     1     -12.318   7.019  72.188  1.00  0.00    -0.191 C  
HETATM   15  C   UNL     1     -10.133   7.726  72.202  1.00  0.00    -0.265 C  
BRANCH  14  16
HETATM   16  C   UNL     1     -13.345   7.968  71.540  1.00  0.00    -0.290 C  
HETATM   17  O   UNL     1     -14.407   7.265  70.894  1.00  0.00    -0.512 OA 
HETATM   18  H   UNL     1     -15.040   7.850  70.495  1.00  0.00     0.000 HD 
ENDBRANCH  14  16
ENDBRANCH   4  11
TORSDOF 2
ENDMDL
MODEL      211
REMARK 921   NORMALIZED FREE ENERGY PREDICTED BY IDOCK:   -1.84 KCAL/MOL
REMARK 922        TOTAL FREE ENERGY PREDICTED BY IDOCK:   -2.40 KCAL/MOL
REMARK 923 INTER-LIGAND FREE ENERGY PREDICTED BY IDOCK:   -2.88 KCAL/MOL
REMARK 924 INTRA-LIGAND FREE ENERGY PREDICTED BY IDOCK:    0.49 KCAL/MOL
REMARK 927      BINDING AFFINITY PREDICTED BY RF-SCORE:    0.00 PKD
ROOT
HETATM    1  C   UNL     1      -7.364  15.473  68.865  1.00  0.00    -0.150 C  
HETATM    2  C   UNL     1      -8.634  14.692  68.762  1.00  0.00    -0.160 C  
HETATM    3  C   UNL     1      -8.782  13.591  68.017  1.00  0.00    -0.181 C  
HETATM    4  N   UNL     1      -9.975  12.891  67.918  1.00  0.00    -0.226 N  
HETATM    5  O   UNL     1      -9.741  16.143  70.272  1.00  0.00     0.313 OA 
HETATM    6  C   UNL     1     -11.079  13.268  68.674  1.00  0.00    -0.268 C  
HETATM    7  O   UNL     1     -12.146  12.657  68.703  1.00  0.00    -0.269 OA 
HETATM    8  H   UNL     1     -11.738  14.708  69.967  1.00  0.00     0.000 HD 
HETATM    9  N   UNL     1     -10.925  14.399  69.434  1.00  0.00    -0.250 N  
HETATM   10  C   UNL     1      -9.794  15.153  69.548  1.00  0.00    -0.184 C  
ENDROOT
BRANCH   4  11
HETATM   11  C   UNL     1     -10.057  11.625  67.192  1.00  0.00    -0.204 C  
HETATM   12  O   UNL     1      -9.178  11.620  66.042  1.00  0.00    -0.217 OA 
HETATM   13  C   UNL     1     -11.354  11.369  65.278  1.00  0.00    -0.069 C  
HETATM   14  C   UNL     1      -9.984  11.740  64.846  1.00  0.00    -0.247 C  
HETATM   15  C   UNL     1     -11.404  11.357  66.609  1.00  0.00    -0.230 C  
BRANCH  14  16
HETATM   16  C   UNL     1      -9.940  13.179  64.297  1.00  0.00     0.022 C  
HETATM   17  O   UNL     1     -11.208  13.618  63.811  1.00  0.00    -0.564 OA 
HETATM   18  H   UNL     1     -11.181  14.505  63.472  1.00  0.00     0.000 HD 
ENDBRANCH  14  16
ENDBRANCH   4  11
TORSDOF 2
ENDMDL
MODEL      212
REMARK 921   NORMALIZED FREE ENERGY PREDICTED BY IDOCK:   -1.81 KCAL/MOL
REMARK 922        TOTAL FREE ENERGY PREDICTED BY IDOCK:   -2.37 KCAL/MOL
REMARK 923 INTER-LIGAND FREE ENERGY PREDICTED BY IDOCK:   -3.12 KCAL/MOL
REMARK 924 INTRA-LIGAND FREE ENERGY PREDICTED BY IDOCK:    0.75 KCAL/MOL
REMARK 927      BINDING AFFINITY PREDICTED BY RF-SCORE:    0.00 PKD
ROOT
HETATM    1  C   UNL     1     -10.905   9.500  67.916  1.00  0.00    -0.240 C  
HETATM    2  C   UNL     1     -10.512   9.071  69.292  1.00  0.00    -0.238 C  
HETATM    3  C   UNL     1      -9.491   8.250  69.562  1.00  0.00    -0.162 C  
HETATM    4  N   UNL     1      -9.154   7.848  70.845  1.00  0.00    -0.150 N  
HETATM    5  O   UNL     1     -12.224  10.381  70.274  1.00  0.00    -0.284 OA 
HETATM    6  C   UNL     1      -9.831   8.360  71.946  1.00  0.00    -0.258 C  
HETATM    7  O   UNL     1      -9.544   8.116  73.117  1.00  0.00    -0.271 OA 
HETATM    8  H   UNL     1     -11.405   9.557  72.463  1.00  0.00     0.000 HD 
HETATM    9  N   UNL     1     -10.878   9.200  71.666  1.00  0.00    -0.360 N  
HETATM   10  C   UNL     1     -11.284   9.607  70.429  1.00  0.00    -0.283 C  
ENDROOT
BRANCH   4  11
HETATM   11  C   UNL     1      -7.957   7.049  71.103  1.00  0.00    -0.104 C  
HETATM   12  O   UNL     1      -7.848   5.949  70.169  1.00  0.00    -0.096 OA 
HETATM   13  C   UNL     1      -8.024   5.056  72.303  1.00  0.00    -0.108 C  
HETATM   14  C   UNL     1      -8.164   4.720  70.865  1.00  0.00    -0.087 C  
HETATM   15  C   UNL     1      -7.961   6.381  72.437  1.00  0.00    -0.102 C  
BRANCH  14  16
HETATM   16  C   UNL     1      -9.596   4.255  70.534  1.00  0.00    -0.197 C  
HETATM   17  O   UNL     1      -9.779   3.999  69.142  1.00  0.00    -0.181 OA 
HETATM   18  H   UNL     1     -10.662   3.712  68.937  1.00  0.00     0.000 HD 
ENDBRANCH  14  16
ENDBRANCH   4  11
TORSDOF 2
ENDMDL
MODEL      213
REMARK 921   NORMALIZED FREE ENERGY PREDICTED BY IDOCK:   -1.79 KCAL/MOL
REMARK 922        TOTAL FREE ENERGY PREDICTED BY IDOCK:   -2.35 KCAL/MOL
REMARK 923 INTER-LIGAND FREE ENERGY PREDICTED BY IDOCK:   -2.15 KCAL/MOL
REMARK 924 INTRA-LIGAND FREE ENERGY PREDICTED BY IDOCK:   -0.19 KCAL/MOL
REMARK 927      BINDING AFFINITY PREDICTED BY RF-SCORE:    0.00 PKD
ROOT
HETATM    1  C   UNL     1     -10.196   5.843  66.539  1.00  0.00    -0.217 C  
HETATM    2  C   UNL     1      -9.367   5.107  67.540  1.00  0.00    -0.131 C  
HETATM    3  C   UNL     1      -8.959   5.622  68.705  1.00  0.00    -0.111 C  
HETATM    4  N   UNL     1      -8.173   4.930  69.612  1.00  0.00    -0.079 N  
HETATM    5  O   UNL     1      -9.340   3.154  66.199  1.00  0.00    -0.155 OA 
HETATM    6  C   UNL     1      -7.831   3.602  69.382  1.00  0.00    -0.051 C  
HETATM    7  O   UNL     1      -7.205   2.895  70.170  1.00  0.00    -0.040 OA 
HETATM    8  H   UNL     1      -7.977   2.114  67.988  1.00  0.00     0.000 HD 
HETATM    9  N   UNL     1      -8.249   3.077  68.186  1.00  0.00    -0.075 N  
HETATM   10  C   UNL     1      -8.992   3.712  67.235  1.00  0.00    -0.141 C  
ENDROOT
BRANCH   4  11
HETATM   11  C   UNL     1      -7.853   5.488  70.925  1.00  0.00    -0.104 C  
HETATM   12  O   UNL     1      -8.734   4.964  71.947  1.00  0.00    -0.125 OA 
HETATM   13  C   UNL     1      -9.043   7.261  71.849  1.00  0.00    -0.146 C  
HETATM   14  C   UNL     1      -9.666   6.003  72.329  1.00  0.00    -0.156 C  
HETATM   15  C   UNL     1      -8.050   6.964  71.011  1.00  0.00    -0.106 C  
BRANCH  14  16
HETATM   16  C   UNL     1     -11.042   5.773  71.675  1.00  0.00    -0.226 C  
HETATM   17  O   UNL     1     -11.341   6.747  70.675  1.00  0.00    -0.290 OA 
HETATM   18  H   UNL     1     -12.189   6.606  70.271  1.00  0.00     0.000 HD 
ENDBRANCH  14  16
ENDBRANCH   4  11
TORSDOF 2
ENDMDL
MODEL      214
REMARK 921   NORMALIZED FREE ENERGY PREDICTED BY IDOCK:   -1.75 KCAL/MOL
REMARK 922        TOTAL FREE ENERGY PREDICTED BY IDOCK:   -2.30 KCAL/MOL
REMARK 923 INTER-LIGAND FREE ENERGY PREDICTED BY IDOCK:   -2.07 KCAL/MOL
REMARK 924 INTRA-LIGAND FREE ENERGY PREDICTED BY IDOCK:   -0.23 KCAL/MOL
REMARK 927      BINDING AFFINITY PREDICTED BY RF-SCORE:    0.00 PKD
ROOT
HETATM    1  C   UNL     1      -8.702   4.164  65.035  1.00  0.00    -0.124 C  
HETATM    2  C   UNL     1      -8.524   5.647  65.062  1.00  0.00    -0.135 C  
HETATM    3  C   UNL     1      -9.031   6.450  66.005  1.00  0.00    -0.130 C  
HETATM    4  N   UNL     1      -8.871   7.827  66.001  1.00  0.00    -0.164 N  
HETATM    5  O   UNL     1      -7.202   5.602  63.097  1.00  0.00    -0.046 OA 
HETATM    6  C   UNL     1      -8.086   8.444  65.033  1.00  0.00    -0.147 C  
HETATM    7  O   UNL     1      -7.831   9.647  65.004  1.00  0.00    -0.109 OA 
HETATM    8  H   UNL     1      -7.022   8.062  63.331  1.00  0.00     0.000 HD 
HETATM    9  N   UNL     1      -7.571   7.619  64.067  1.00  0.00    -0.107 N  
HETATM   10  C   UNL     1      -7.719   6.265  63.991  1.00  0.00    -0.104 C  
ENDROOT
BRANCH   4  11
HETATM   11  C   UNL     1      -9.336   8.651  67.116  1.00  0.00    -0.151 C  
HETATM   12  O   UNL     1      -8.272   8.900  68.065  1.00  0.00    -0.109 OA 
HETATM   13  C   UNL     1      -9.953   7.741  69.166  1.00  0.00    -0.182 C  
HETATM   14  C   UNL     1      -8.518   8.108  69.251  1.00  0.00    -0.134 C  
HETATM   15  C   UNL     1     -10.398   8.001  67.937  1.00  0.00    -0.282 C  
BRANCH  14  16
HETATM   16  C   UNL     1      -7.619   6.856  69.271  1.00  0.00    -0.096 C  
HETATM   17  O   UNL     1      -6.610   6.924  70.279  1.00  0.00    -0.045 OA 
HETATM   18  H   UNL     1      -6.056   6.153  70.292  1.00  0.00     0.000 HD 
ENDBRANCH  14  16
ENDBRANCH   4  11
TORSDOF 2
ENDMDL
MODEL      215
REMARK 921   NORMALIZED FREE ENERGY PREDICTED BY IDOCK:   -1.73 KCAL/MOL
REMARK 922        TOTAL FREE ENERGY PREDICTED BY IDOCK:   -2.28 KCAL/MOL
REMARK 923 INTER-LIGAND FREE ENERGY PREDICTED BY IDOCK:   -2.20 KCAL/MOL
REMARK 924 INTRA-LIGAND FREE ENERGY PREDICTED BY IDOCK:   -0.08 KCAL/MOL
REMARK 927      BINDING AFFINITY PREDICTED BY RF-SCORE:    0.00 PKD
ROOT
HETATM    1  C   UNL     1     -10.695   6.024  71.364  1.00  0.00    -0.314 C  
HETATM    2  C   UNL     1      -9.444   5.604  70.663  1.00  0.00    -0.203 C  
HETATM    3  C   UNL     1      -9.322   5.505  69.335  1.00  0.00    -0.118 C  
HETATM    4  N   UNL     1      -8.158   5.094  68.704  1.00  0.00    -0.086 N  
HETATM    5  O   UNL     1      -8.277   5.384  72.713  1.00  0.00    -0.109 OA 
HETATM    6  C   UNL     1      -7.008   4.837  69.442  1.00  0.00    -0.051 C  
HETATM    7  O   UNL     1      -5.917   4.545  68.955  1.00  0.00    -0.023 OA 
HETATM    8  H   UNL     1      -6.311   4.719  71.360  1.00  0.00     0.000 HD 
HETATM    9  N   UNL     1      -7.137   4.937  70.804  1.00  0.00    -0.047 N  
HETATM   10  C   UNL     1      -8.259   5.300  71.488  1.00  0.00    -0.117 C  
ENDROOT
BRANCH   4  11
HETATM   11  C   UNL     1      -8.031   5.118  67.248  1.00  0.00    -0.100 C  
HETATM   12  O   UNL     1      -7.878   6.471  66.756  1.00  0.00    -0.101 OA 
HETATM   13  C   UNL     1      -9.827   5.598  65.848  1.00  0.00     0.015 C  
HETATM   14  C   UNL     1      -9.114   6.871  66.118  1.00  0.00    -0.113 C  
HETATM   15  C   UNL     1      -9.241   4.617  66.534  1.00  0.00    -0.132 C  
BRANCH  14  16
HETATM   16  C   UNL     1      -9.936   7.791  67.041  1.00  0.00    -0.244 C  
HETATM   17  O   UNL     1     -11.310   7.410  67.108  1.00  0.00    -0.456 OA 
HETATM   18  H   UNL     1     -11.818   7.976  67.677  1.00  0.00     0.000 HD 
ENDBRANCH  14  16
ENDBRANCH   4  11
TORSDOF 2
ENDMDL
MODEL      216
REMARK 921   NORMALIZED FREE ENERGY PREDICTED BY IDOCK:   -1.70 KCAL/MOL
REMARK 922        TOTAL FREE ENERGY PREDICTED BY IDOCK:   -2.25 KCAL/MOL
REMARK 923 INTER-LIGAND FREE ENERGY PREDICTED BY IDOCK:   -2.36 KCAL/MOL
REMARK 924 INTRA-LIGAND FREE ENERGY PREDICTED BY IDOCK:    0.11 KCAL/MOL
REMARK 927      BINDING AFFINITY PREDICTED BY RF-SCORE:    0.00 PKD
ROOT
HETATM    1  C   UNL     1     -12.273   6.668  70.947  1.00  0.00    -0.324 C  
HETATM    2  C   UNL     1     -10.931   6.181  70.508  1.00  0.00    -0.384 C  
HETATM    3  C   UNL     1     -10.334   6.542  69.367  1.00  0.00    -0.205 C  
HETATM    4  N   UNL     1      -9.096   6.063  68.968  1.00  0.00    -0.123 N  
HETATM    5  O   UNL     1     -10.670   4.888  72.477  1.00  0.00    -0.210 OA 
HETATM    6  C   UNL     1      -8.363   5.223  69.799  1.00  0.00    -0.098 C  
HETATM    7  O   UNL     1      -7.227   4.818  69.555  1.00  0.00    -0.053 OA 
HETATM    8  H   UNL     1      -8.467   4.209  71.571  1.00  0.00     0.000 HD 
HETATM    9  N   UNL     1      -8.978   4.852  70.967  1.00  0.00    -0.131 N  
HETATM   10  C   UNL     1     -10.206   5.257  71.402  1.00  0.00    -0.213 C  
ENDROOT
BRANCH   4  11
HETATM   11  C   UNL     1      -8.428   6.580  67.775  1.00  0.00    -0.118 C  
HETATM   12  O   UNL     1      -7.047   6.916  68.050  1.00  0.00    -0.080 OA 
HETATM   13  C   UNL     1      -8.137   8.857  67.396  1.00  0.00    -0.108 C  
HETATM   14  C   UNL     1      -6.922   8.357  68.087  1.00  0.00    -0.081 C  
HETATM   15  C   UNL     1      -9.009   7.857  67.270  1.00  0.00    -0.137 C  
BRANCH  14  16
HETATM   16  C   UNL     1      -6.854   8.865  69.540  1.00  0.00    -0.048 C  
HETATM   17  O   UNL     1      -6.343  10.195  69.630  1.00  0.00    -0.046 OA 
HETATM   18  H   UNL     1      -6.301  10.508  70.526  1.00  0.00     0.000 HD 
ENDBRANCH  14  16
ENDBRANCH   4  11
TORSDOF 2
ENDMDL
MODEL      217
REMARK 921   NORMALIZED FREE ENERGY PREDICTED BY IDOCK:   -1.69 KCAL/MOL
REMARK 922        TOTAL FREE ENERGY PREDICTED BY IDOCK:   -2.23 KCAL/MOL
REMARK 923 INTER-LIGAND FREE ENERGY PREDICTED BY IDOCK:   -1.95 KCAL/MOL
REMARK 924 INTRA-LIGAND FREE ENERGY PREDICTED BY IDOCK:   -0.28 KCAL/MOL
REMARK 927      BINDING AFFINITY PREDICTED BY RF-SCORE:    0.00 PKD
ROOT
HETATM    1  C   UNL     1      -8.868   2.635  65.471  1.00  0.00    -0.133 C  
HETATM    2  C   UNL     1      -8.241   3.700  66.311  1.00  0.00    -0.100 C  
HETATM    3  C   UNL     1      -8.928   4.571  67.059  1.00  0.00    -0.116 C  
HETATM    4  N   UNL     1      -8.328   5.565  67.816  1.00  0.00    -0.100 N  
HETATM    5  O   UNL     1      -6.060   3.012  65.692  1.00  0.00    -0.022 OA 
HETATM    6  C   UNL     1      -6.943   5.652  67.896  1.00  0.00    -0.066 C  
HETATM    7  O   UNL     1      -6.334   6.453  68.604  1.00  0.00    -0.034 OA 
HETATM    8  H   UNL     1      -5.225   4.834  67.149  1.00  0.00     0.000 HD 
HETATM    9  N   UNL     1      -6.242   4.760  67.126  1.00  0.00    -0.034 N  
HETATM   10  C   UNL     1      -6.768   3.783  66.334  1.00  0.00    -0.049 C  
ENDROOT
BRANCH   4  11
HETATM   11  C   UNL     1      -9.109   6.415  68.713  1.00  0.00    -0.125 C  
HETATM   12  O   UNL     1      -8.776   6.162  70.099  1.00  0.00    -0.137 OA 
HETATM   13  C   UNL     1     -11.020   5.654  69.801  1.00  0.00    -0.301 C  
HETATM   14  C   UNL     1      -9.867   5.435  70.710  1.00  0.00    -0.190 C  
HETATM   15  C   UNL     1     -10.577   6.160  68.650  1.00  0.00    -0.324 C  
BRANCH  14  16
HETATM   16  C   UNL     1      -9.528   3.937  70.834  1.00  0.00    -0.166 C  
HETATM   17  O   UNL     1      -8.134   3.676  70.668  1.00  0.00    -0.053 OA 
HETATM   18  H   UNL     1      -7.925   2.753  70.744  1.00  0.00     0.000 HD 
ENDBRANCH  14  16
ENDBRANCH   4  11
TORSDOF 2
ENDMDL
MODEL      218
REMARK 921   NORMALIZED FREE ENERGY PREDICTED BY IDOCK:   -1.66 KCAL/MOL
REMARK 922        TOTAL FREE ENERGY PREDICTED BY IDOCK:   -2.20 KCAL/MOL
REMARK 923 INTER-LIGAND FREE ENERGY PREDICTED BY IDOCK:   -2.43 KCAL/MOL
REMARK 924 INTRA-LIGAND FREE ENERGY PREDICTED BY IDOCK:    0.23 KCAL/MOL
REMARK 927      BINDING AFFINITY PREDICTED BY RF-SCORE:    0.00 PKD
ROOT
HETATM    1  C   UNL     1      -9.858   6.518  66.878  1.00  0.00    -0.211 C  
HETATM    2  C   UNL     1      -8.957   6.409  68.065  1.00  0.00    -0.115 C  
HETATM    3  C   UNL     1      -8.929   7.287  69.073  1.00  0.00    -0.134 C  
HETATM    4  N   UNL     1      -8.072   7.179  70.157  1.00  0.00    -0.127 N  
HETATM    5  O   UNL     1      -8.028   4.379  67.271  1.00  0.00    -0.099 OA 
HETATM    6  C   UNL     1      -7.235   6.076  70.287  1.00  0.00    -0.076 C  
HETATM    7  O   UNL     1      -6.503   5.865  71.253  1.00  0.00    -0.042 OA 
HETATM    8  H   UNL     1      -6.630   4.382  69.316  1.00  0.00     0.000 HD 
HETATM    9  N   UNL     1      -7.264   5.178  69.251  1.00  0.00    -0.056 N  
HETATM   10  C   UNL     1      -8.055   5.243  68.142  1.00  0.00    -0.095 C  
ENDROOT
BRANCH   4  11
HETATM   11  C   UNL     1      -8.161   8.093  71.294  1.00  0.00    -0.116 C  
HETATM   12  O   UNL     1      -7.997   7.389  72.548  1.00  0.00    -0.096 OA 
HETATM   13  C   UNL     1     -10.110   8.347  72.539  1.00  0.00    -0.362 C  
HETATM   14  C   UNL     1      -9.285   7.307  73.202  1.00  0.00    -0.159 C  
HETATM   15  C   UNL     1      -9.493   8.750  71.429  1.00  0.00    -0.330 C  
BRANCH  14  16
HETATM   16  C   UNL     1      -9.901   5.905  73.026  1.00  0.00    -0.167 C  
HETATM   17  O   UNL     1     -10.381   5.361  74.255  1.00  0.00    -0.249 OA 
HETATM   18  H   UNL     1     -10.761   4.497  74.147  1.00  0.00     0.000 HD 
ENDBRANCH  14  16
ENDBRANCH   4  11
TORSDOF 2
ENDMDL
MODEL      219
REMARK 921   NORMALIZED FREE ENERGY PREDICTED BY IDOCK:   -1.64 KCAL/MOL
REMARK 922        TOTAL FREE ENERGY PREDICTED BY IDOCK:   -2.17 KCAL/MOL
REMARK 923 INTER-LIGAND FREE ENERGY PREDICTED BY IDOCK:   -3.45 KCAL/MOL
REMARK 924 INTRA-LIGAND FREE ENERGY PREDICTED BY IDOCK:    1.28 KCAL/MOL
REMARK 927      BINDING AFFINITY PREDICTED BY RF-SCORE:    0.00 PKD
ROOT
HETATM    1  C   UNL     1     -10.669   6.416  66.622  1.00  0.00    -0.271 C  
HETATM    2  C   UNL     1     -10.447   5.823  67.975  1.00  0.00    -0.286 C  
HETATM    3  C   UNL     1     -10.808   6.406  69.123  1.00  0.00    -0.322 C  
HETATM    4  N   UNL     1     -10.575   5.848  70.370  1.00  0.00    -0.263 N  
HETATM    5  O   UNL     1      -9.459   3.880  67.046  1.00  0.00    -0.178 OA 
HETATM    6  C   UNL     1     -10.010   4.583  70.482  1.00  0.00    -0.208 C  
HETATM    7  O   UNL     1      -9.842   3.985  71.544  1.00  0.00    -0.176 OA 
HETATM    8  H   UNL     1      -9.191   3.074  69.373  1.00  0.00     0.000 HD 
HETATM    9  N   UNL     1      -9.638   3.988  69.304  1.00  0.00    -0.189 N  
HETATM   10  C   UNL     1      -9.806   4.496  68.050  1.00  0.00    -0.092 C  
ENDROOT
BRANCH   4  11
HETATM   11  C   UNL     1     -11.097   6.462  71.589  1.00  0.00    -0.267 C  
HETATM   12  O   UNL     1     -10.162   7.422  72.136  1.00  0.00    -0.186 OA 
HETATM   13  C   UNL     1     -10.469   5.748  73.712  1.00  0.00    -0.291 C  
HETATM   14  C   UNL     1      -9.559   6.854  73.322  1.00  0.00    -0.166 C  
HETATM   15  C   UNL     1     -11.303   5.494  72.705  1.00  0.00    -0.346 C  
BRANCH  14  16
HETATM   16  C   UNL     1      -8.140   6.334  73.022  1.00  0.00    -0.107 C  
HETATM   17  O   UNL     1      -7.929   5.009  73.509  1.00  0.00    -0.105 OA 
HETATM   18  H   UNL     1      -7.054   4.688  73.324  1.00  0.00     0.000 HD 
ENDBRANCH  14  16
ENDBRANCH   4  11
TORSDOF 2
ENDMDL
MODEL      220
REMARK 921   NORMALIZED FREE ENERGY PREDICTED BY IDOCK:   -1.58 KCAL/MOL
REMARK 922        TOTAL FREE ENERGY PREDICTED BY IDOCK:   -2.10 KCAL/MOL
REMARK 923 INTER-LIGAND FREE ENERGY PREDICTED BY IDOCK:   -2.19 KCAL/MOL
REMARK 924 INTRA-LIGAND FREE ENERGY PREDICTED BY IDOCK:    0.08 KCAL/MOL
REMARK 927      BINDING AFFINITY PREDICTED BY RF-SCORE:    0.00 PKD
ROOT
HETATM    1  C   UNL     1     -11.065  10.206  67.742  1.00  0.00    -0.293 C  
HETATM    2  C   UNL     1     -10.274   8.965  68.000  1.00  0.00    -0.262 C  
HETATM    3  C   UNL     1      -9.529   8.341  67.080  1.00  0.00    -0.160 C  
HETATM    4  N   UNL     1      -8.819   7.179  67.333  1.00  0.00    -0.119 N  
HETATM    5  O   UNL     1     -10.942   8.918  70.272  1.00  0.00    -0.238 OA 
HETATM    6  C   UNL     1      -8.784   6.637  68.614  1.00  0.00    -0.124 C  
HETATM    7  O   UNL     1      -8.118   5.656  68.939  1.00  0.00    -0.098 OA 
HETATM    8  H   UNL     1      -9.562   6.871  70.489  1.00  0.00     0.000 HD 
HETATM    9  N   UNL     1      -9.551   7.277  69.554  1.00  0.00    -0.155 N  
HETATM   10  C   UNL     1     -10.300   8.400  69.363  1.00  0.00    -0.215 C  
ENDROOT
BRANCH   4  11
HETATM   11  C   UNL     1      -7.921   6.601  66.335  1.00  0.00    -0.106 C  
HETATM   12  O   UNL     1      -6.805   7.481  66.060  1.00  0.00    -0.055 OA 
HETATM   13  C   UNL     1      -7.999   7.208  64.090  1.00  0.00    -0.085 C  
HETATM   14  C   UNL     1      -6.999   8.078  64.757  1.00  0.00    -0.070 C  
HETATM   15  C   UNL     1      -8.557   6.409  64.999  1.00  0.00     0.030 C  
BRANCH  14  16
HETATM   16  C   UNL     1      -7.513   9.525  64.886  1.00  0.00    -0.111 C  
HETATM   17  O   UNL     1      -6.568  10.386  65.522  1.00  0.00    -0.121 OA 
HETATM   18  H   UNL     1      -6.884  11.278  65.602  1.00  0.00     0.000 HD 
ENDBRANCH  14  16
ENDBRANCH   4  11
TORSDOF 2
ENDMDL
MODEL      221
REMARK 921   NORMALIZED FREE ENERGY PREDICTED BY IDOCK:   -1.47 KCAL/MOL
REMARK 922        TOTAL FREE ENERGY PREDICTED BY IDOCK:   -1.99 KCAL/MOL
REMARK 923 INTER-LIGAND FREE ENERGY PREDICTED BY IDOCK:   -2.13 KCAL/MOL
REMARK 924 INTRA-LIGAND FREE ENERGY PREDICTED BY IDOCK:    0.15 KCAL/MOL
REMARK 927      BINDING AFFINITY PREDICTED BY RF-SCORE:    0.00 PKD
ROOT
HETATM    1  C   UNL     1     -10.410   5.090  66.477  1.00  0.00    -0.325 C  
HETATM    2  C   UNL     1      -9.780   5.942  67.529  1.00  0.00    -0.123 C  
HETATM    3  C   UNL     1      -8.963   5.481  68.483  1.00  0.00    -0.110 C  
HETATM    4  N   UNL     1      -8.403   6.285  69.463  1.00  0.00    -0.117 N  
HETATM    5  O   UNL     1     -10.781   7.902  66.653  1.00  0.00    -0.223 OA 
HETATM    6  C   UNL     1      -8.609   7.660  69.451  1.00  0.00    -0.136 C  
HETATM    7  O   UNL     1      -8.087   8.451  70.236  1.00  0.00    -0.098 OA 
HETATM    8  H   UNL     1      -9.636   9.132  68.473  1.00  0.00     0.000 HD 
HETATM    9  N   UNL     1      -9.449   8.130  68.474  1.00  0.00    -0.142 N  
HETATM   10  C   UNL     1     -10.059   7.391  67.504  1.00  0.00    -0.192 C  
ENDROOT
BRANCH   4  11
HETATM   11  C   UNL     1      -7.420   5.761  70.410  1.00  0.00    -0.088 C  
HETATM   12  O   UNL     1      -7.384   4.314  70.383  1.00  0.00    -0.044 OA 
HETATM   13  C   UNL     1      -8.014   4.973  72.517  1.00  0.00    -0.101 C  
HETATM   14  C   UNL     1      -8.013   3.816  71.588  1.00  0.00    -0.062 C  
HETATM   15  C   UNL     1      -7.730   6.081  71.833  1.00  0.00    -0.098 C  
BRANCH  14  16
HETATM   16  C   UNL     1      -9.445   3.327  71.298  1.00  0.00    -0.152 C  
HETATM   17  O   UNL     1      -9.469   2.160  70.476  1.00  0.00    -0.124 OA 
HETATM   18  H   UNL     1     -10.352   1.858  70.298  1.00  0.00     0.000 HD 
ENDBRANCH  14  16
ENDBRANCH   4  11
TORSDOF 2
ENDMDL
MODEL      222
REMARK 921   NORMALIZED FREE ENERGY PREDICTED BY IDOCK:   -1.37 KCAL/MOL
REMARK 922        TOTAL FREE ENERGY PREDICTED BY IDOCK:   -1.88 KCAL/MOL
REMARK 923 INTER-LIGAND FREE ENERGY PREDICTED BY IDOCK:   -2.83 KCAL/MOL
REMARK 924 INTRA-LIGAND FREE ENERGY PREDICTED BY IDOCK:    0.95 KCAL/MOL
REMARK 927      BINDING AFFINITY PREDICTED BY RF-SCORE:    0.00 PKD
ROOT
HETATM    1  C   UNL     1     -11.405  16.161  67.825  1.00  0.00    -0.126 C  
HETATM    2  C   UNL     1     -10.262  15.200  67.869  1.00  0.00    -0.232 C  
HETATM    3  C   UNL     1     -10.316  13.943  67.413  1.00  0.00    -0.252 C  
HETATM    4  N   UNL     1      -9.250  13.060  67.481  1.00  0.00    -0.187 N  
HETATM    5  O   UNL     1      -8.839  16.816  68.856  1.00  0.00    -0.258 OA 
HETATM    6  C   UNL     1      -8.016  13.479  67.967  1.00  0.00    -0.151 C  
HETATM    7  O   UNL     1      -7.002  12.783  67.988  1.00  0.00    -0.083 OA 
HETATM    8  H   UNL     1      -7.075  15.076  68.827  1.00  0.00     0.000 HD 
HETATM    9  N   UNL     1      -7.965  14.766  68.436  1.00  0.00    -0.130 N  
HETATM   10  C   UNL     1      -8.983  15.673  68.432  1.00  0.00    -0.185 C  
ENDROOT
BRANCH   4  11
HETATM   11  C   UNL     1      -9.315  11.738  66.859  1.00  0.00    -0.192 C  
HETATM   12  O   UNL     1     -10.433  10.973  67.368  1.00  0.00    -0.197 OA 
HETATM   13  C   UNL     1      -8.485   9.830  67.900  1.00  0.00    -0.125 C  
HETATM   14  C   UNL     1      -9.924   9.942  68.247  1.00  0.00    -0.151 C  
HETATM   15  C   UNL     1      -8.133  10.879  67.158  1.00  0.00    -0.127 C  
BRANCH  14  16
HETATM   16  C   UNL     1     -10.116  10.336  69.724  1.00  0.00    -0.203 C  
HETATM   17  O   UNL     1      -8.882  10.388  70.440  1.00  0.00    -0.230 OA 
HETATM   18  H   UNL     1      -9.000  10.631  71.351  1.00  0.00     0.000 HD 
ENDBRANCH  14  16
ENDBRANCH   4  11
TORSDOF 2
ENDMDL
MODEL      223
REMARK 921   NORMALIZED FREE ENERGY PREDICTED BY IDOCK:   -1.27 KCAL/MOL
REMARK 922        TOTAL FREE ENERGY PREDICTED BY IDOCK:   -1.76 KCAL/MOL
REMARK 923 INTER-LIGAND FREE ENERGY PREDICTED BY IDOCK:   -2.44 KCAL/MOL
REMARK 924 INTRA-LIGAND FREE ENERGY PREDICTED BY IDOCK:    0.68 KCAL/MOL
REMARK 927      BINDING AFFINITY PREDICTED BY RF-SCORE:    0.00 PKD
ROOT
HETATM    1  C   UNL     1      -9.513   3.077  65.023  1.00  0.00    -0.121 C  
HETATM    2  C   UNL     1      -8.920   3.667  66.261  1.00  0.00    -0.144 C  
HETATM    3  C   UNL     1      -9.633   4.211  67.252  1.00  0.00    -0.190 C  
HETATM    4  N   UNL     1      -9.063   4.772  68.384  1.00  0.00    -0.112 N  
HETATM    5  O   UNL     1      -6.722   3.128  65.558  1.00  0.00    -0.042 OA 
HETATM    6  C   UNL     1      -7.688   4.718  68.583  1.00  0.00    -0.076 C  
HETATM    7  O   UNL     1      -7.112   5.121  69.592  1.00  0.00    -0.052 OA 
HETATM    8  H   UNL     1      -5.946   4.147  67.679  1.00  0.00     0.000 HD 
HETATM    9  N   UNL     1      -6.959   4.162  67.563  1.00  0.00    -0.055 N  
HETATM   10  C   UNL     1      -7.452   3.626  66.410  1.00  0.00    -0.077 C  
ENDROOT
BRANCH   4  11
HETATM   11  C   UNL     1      -9.885   5.244  69.498  1.00  0.00    -0.200 C  
HETATM   12  O   UNL     1     -11.053   5.955  69.024  1.00  0.00    -0.336 OA 
HETATM   13  C   UNL     1      -9.781   7.431  70.284  1.00  0.00    -0.172 C  
HETATM   14  C   UNL     1     -10.862   7.368  69.269  1.00  0.00    -0.137 C  
HETATM   15  C   UNL     1      -9.195   6.237  70.370  1.00  0.00    -0.160 C  
BRANCH  14  16
HETATM   16  C   UNL     1     -10.459   8.101  67.974  1.00  0.00    -0.183 C  
HETATM   17  O   UNL     1     -10.869   9.468  67.970  1.00  0.00    -0.378 OA 
HETATM   18  H   UNL     1     -10.621   9.920  67.172  1.00  0.00     0.000 HD 
ENDBRANCH  14  16
ENDBRANCH   4  11
TORSDOF 2
ENDMDL
MODEL      224
REMARK 921   NORMALIZED FREE ENERGY PREDICTED BY IDOCK:   -0.82 KCAL/MOL
REMARK 922        TOTAL FREE ENERGY PREDICTED BY IDOCK:   -1.26 KCAL/MOL
REMARK 923 INTER-LIGAND FREE ENERGY PREDICTED BY IDOCK:   -1.40 KCAL/MOL
REMARK 924 INTRA-LIGAND FREE ENERGY PREDICTED BY IDOCK:    0.14 KCAL/MOL
REMARK 927      BINDING AFFINITY PREDICTED BY RF-SCORE:    0.00 PKD
ROOT
HETATM    1  C   UNL     1      -9.897   5.207  65.981  1.00  0.00    -0.184 C  
HETATM    2  C   UNL     1      -8.870   5.339  67.058  1.00  0.00    -0.109 C  
HETATM    3  C   UNL     1      -8.279   6.490  67.399  1.00  0.00    -0.121 C  
HETATM    4  N   UNL     1      -7.313   6.589  68.388  1.00  0.00    -0.085 N  
HETATM    5  O   UNL     1      -9.005   3.032  67.578  1.00  0.00    -0.130 OA 
HETATM    6  C   UNL     1      -6.965   5.477  69.148  1.00  0.00    -0.063 C  
HETATM    7  O   UNL     1      -6.177   5.497  70.092  1.00  0.00    -0.024 OA 
HETATM    8  H   UNL     1      -7.299   3.468  69.321  1.00  0.00     0.000 HD 
HETATM    9  N   UNL     1      -7.570   4.299  68.795  1.00  0.00    -0.059 N  
HETATM   10  C   UNL     1      -8.499   4.126  67.811  1.00  0.00    -0.098 C  
ENDROOT
BRANCH   4  11
HETATM   11  C   UNL     1      -6.785   7.885  68.811  1.00  0.00    -0.057 C  
HETATM   12  O   UNL     1      -7.778   8.928  68.672  1.00  0.00    -0.094 OA 
HETATM   13  C   UNL     1      -5.988   9.460  67.295  1.00  0.00    -0.049 C  
HETATM   14  C   UNL     1      -7.422   9.756  67.540  1.00  0.00    -0.091 C  
HETATM   15  C   UNL     1      -5.647   8.367  67.976  1.00  0.00    -0.035 C  
BRANCH  14  16
HETATM   16  C   UNL     1      -8.284   9.408  66.312  1.00  0.00    -0.111 C  
HETATM   17  O   UNL     1      -7.499   9.154  65.147  1.00  0.00    -0.094 OA 
HETATM   18  H   UNL     1      -8.030   8.940  64.389  1.00  0.00     0.000 HD 
ENDBRANCH  14  16
ENDBRANCH   4  11
TORSDOF 2
ENDMDL
MODEL      225
REMARK 921   NORMALIZED FREE ENERGY PREDICTED BY IDOCK:    0.20 KCAL/MOL
REMARK 922        TOTAL FREE ENERGY PREDICTED BY IDOCK:   -0.12 KCAL/MOL
REMARK 923 INTER-LIGAND FREE ENERGY PREDICTED BY IDOCK:   -1.07 KCAL/MOL
REMARK 924 INTRA-LIGAND FREE ENERGY PREDICTED BY IDOCK:    0.95 KCAL/MOL
REMARK 927      BINDING AFFINITY PREDICTED BY RF-SCORE:    0.00 PKD
ROOT
HETATM    1  C   UNL     1      -9.925  13.406  69.102  1.00  0.00     0.287 C  
HETATM    2  C   UNL     1      -9.310  12.481  68.102  1.00  0.00    -0.210 C  
HETATM    3  C   UNL     1      -9.208  11.158  68.263  1.00  0.00    -0.169 C  
HETATM    4  N   UNL     1      -8.616  10.319  67.332  1.00  0.00    -0.125 N  
HETATM    5  O   UNL     1      -8.874  14.265  66.605  1.00  0.00    -0.223 OA 
HETATM    6  C   UNL     1      -8.162  10.821  66.117  1.00  0.00    -0.163 C  
HETATM    7  O   UNL     1      -7.697  10.135  65.209  1.00  0.00    -0.135 OA 
HETATM    8  H   UNL     1      -7.905  12.566  65.084  1.00  0.00     0.000 HD 
HETATM    9  N   UNL     1      -8.266  12.179  65.956  1.00  0.00     0.391 N  
HETATM   10  C   UNL     1      -8.803  13.063  66.844  1.00  0.00    -0.180 C  
ENDROOT
BRANCH   4  11
HETATM   11  C   UNL     1      -8.636   8.866  67.494  1.00  0.00    -0.120 C  
HETATM   12  O   UNL     1      -8.114   8.473  68.785  1.00  0.00    -0.116 OA 
HETATM   13  C   UNL     1      -6.749   7.548  67.153  1.00  0.00    -0.067 C  
HETATM   14  C   UNL     1      -6.802   7.895  68.595  1.00  0.00    -0.063 C  
HETATM   15  C   UNL     1      -7.761   8.145  66.524  1.00  0.00    -0.093 C  
BRANCH  14  16
HETATM   16  C   UNL     1      -5.698   8.903  68.970  1.00  0.00    -0.040 C  
HETATM   17  O   UNL     1      -6.226  10.120  69.497  1.00  0.00    -0.043 OA 
HETATM   18  H   UNL     1      -5.545  10.742  69.728  1.00  0.00     0.000 HD 
ENDBRANCH  14  16
ENDBRANCH   4  11
TORSDOF 2
ENDMDL
MODEL      226
REMARK 921   NORMALIZED FREE ENERGY PREDICTED BY IDOCK:    0.87 KCAL/MOL
REMARK 922        TOTAL FREE ENERGY PREDICTED BY IDOCK:    0.63 KCAL/MOL
REMARK 923 INTER-LIGAND FREE ENERGY PREDICTED BY IDOCK:    0.35 KCAL/MOL
REMARK 924 INTRA-LIGAND FREE ENERGY PREDICTED BY IDOCK:    0.27 KCAL/MOL
REMARK 927      BINDING AFFINITY PREDICTED BY RF-SCORE:    0.00 PKD
ROOT
HETATM    1  C   UNL     1      -7.599  19.822  69.078  1.00  0.00    -0.259 C  
HETATM    2  C   UNL     1      -8.691  19.072  68.386  1.00  0.00    -0.381 C  
HETATM    3  C   UNL     1      -9.546  18.248  69.001  1.00  0.00    -0.160 C  
HETATM    4  N   UNL     1     -10.540  17.545  68.338  1.00  0.00    -0.365 N  
HETATM    5  O   UNL     1      -8.122  20.022  66.292  1.00  0.00    -0.316 OA 
HETATM    6  C   UNL     1     -10.749  17.734  66.977  1.00  0.00    -0.187 C  
HETATM    7  O   UNL     1     -11.656  17.210  66.331  1.00  0.00     1.022 OA 
HETATM    8  H   UNL     1      -9.989  18.699  65.343  1.00  0.00     0.000 HD 
HETATM    9  N   UNL     1      -9.869  18.577  66.348  1.00  0.00    -0.351 N  
HETATM   10  C   UNL     1      -8.850  19.270  66.932  1.00  0.00    -0.303 C  
ENDROOT
BRANCH   4  11
HETATM   11  C   UNL     1     -11.528  16.753  69.067  1.00  0.00     0.157 C  
HETATM   12  O   UNL     1     -11.032  16.361  70.369  1.00  0.00    -0.322 OA 
HETATM   13  C   UNL     1     -11.445  14.429  69.153  1.00  0.00    -0.328 C  
HETATM   14  C   UNL     1     -10.716  14.950  70.337  1.00  0.00    -0.019 C  
HETATM   15  C   UNL     1     -11.857  15.455  68.409  1.00  0.00    -0.264 C  
BRANCH  14  16
HETATM   16  C   UNL     1      -9.197  14.730  70.202  1.00  0.00     0.806 C  
HETATM   17  O   UNL     1      -8.438  15.717  70.900  1.00  0.00     1.623 OA 
HETATM   18  H   UNL     1      -7.501  15.581  70.817  1.00  0.00     0.000 HD 
ENDBRANCH  14  16
ENDBRANCH   4  11
TORSDOF 2
ENDMDL
MODEL      227
REMARK 921   NORMALIZED FREE ENERGY PREDICTED BY IDOCK:   19.62 KCAL/MOL
REMARK 922        TOTAL FREE ENERGY PREDICTED BY IDOCK:   21.57 KCAL/MOL
REMARK 923 INTER-LIGAND FREE ENERGY PREDICTED BY IDOCK:   19.28 KCAL/MOL
REMARK 924 INTRA-LIGAND FREE ENERGY PREDICTED BY IDOCK:    2.29 KCAL/MOL
REMARK 927      BINDING AFFINITY PREDICTED BY RF-SCORE:    0.00 PKD
ROOT
HETATM    1  C   UNL     1      -7.418  19.760  68.588  1.00  0.00    -0.329 C  
HETATM    2  C   UNL     1      -7.172  19.386  67.162  1.00  0.00    -0.231 C  
HETATM    3  C   UNL     1      -8.003  18.642  66.424  1.00  0.00    -0.277 C  
HETATM    4  N   UNL     1      -7.748  18.289  65.109  1.00  0.00     1.175 N  
HETATM    5  O   UNL     1      -5.133  20.592  67.117  1.00  0.00    -0.157 OA 
HETATM    6  C   UNL     1      -6.621  18.774  64.454  1.00  0.00     1.076 C  
HETATM    7  O   UNL     1      -6.362  18.573  63.268  1.00  0.00     1.651 OA 
HETATM    8  H   UNL     1      -4.921  19.868  64.757  1.00  0.00     0.000 HD 
HETATM    9  N   UNL     1      -5.769  19.534  65.214  1.00  0.00    -0.171 N  
HETATM   10  C   UNL     1      -5.942  19.888  66.519  1.00  0.00    -0.170 C  
ENDROOT
BRANCH   4  11
HETATM   11  C   UNL     1      -8.740  17.580  64.303  1.00  0.00     9.257 C  
HETATM   12  O   UNL     1     -10.087  17.947  64.686  1.00  0.00     1.458 OA 
HETATM   13  C   UNL     1      -9.831  15.672  65.065  1.00  0.00     0.156 C  
HETATM   14  C   UNL     1     -10.676  16.842  65.412  1.00  0.00    -0.189 C  
HETATM   15  C   UNL     1      -8.711  16.100  64.485  1.00  0.00     6.462 C  
BRANCH  14  16
HETATM   16  C   UNL     1     -10.664  17.113  66.929  1.00  0.00    -0.121 C  
HETATM   17  O   UNL     1     -10.032  18.350  67.258  1.00  0.00    -0.309 OA 
HETATM   18  H   UNL     1     -10.024  18.517  68.193  1.00  0.00     0.000 HD 
ENDBRANCH  14  16
ENDBRANCH   4  11
TORSDOF 2
ENDMDL
