MODEL        1
REMARK 921   NORMALIZED FREE ENERGY PREDICTED BY IDOCK:   -4.65 KCAL/MOL
REMARK 922        TOTAL FREE ENERGY PREDICTED BY IDOCK:  -10.53 KCAL/MOL
REMARK 923 INTER-LIGAND FREE ENERGY PREDICTED BY IDOCK:   -8.74 KCAL/MOL
REMARK 924 INTRA-LIGAND FREE ENERGY PREDICTED BY IDOCK:   -1.80 KCAL/MOL
REMARK 927      BINDING AFFINITY PREDICTED BY RF-SCORE:    0.00 PKD
ROOT
HETATM    1  C   UNL     1      -8.081   9.236  70.670  1.00  0.00    -0.207 C  
HETATM    2  C   UNL     1      -9.597   9.272  70.602  1.00  0.00    -0.334 C  
ENDROOT
BRANCH   2   3
HETATM    3  C   UNL     1     -10.080  10.379  69.668  1.00  0.00    -0.226 C  
BRANCH   3   4
HETATM    4  C   UNL     1     -11.535  10.740  69.951  1.00  0.00    -0.398 C  
BRANCH   4   5
HETATM    5  C   UNL     1     -12.056   9.977  71.165  1.00  0.00    -0.475 C  
BRANCH   5   6
HETATM    6  C   UNL     1     -13.115  10.789  71.903  1.00  0.00    -0.557 C  
BRANCH   6   7
HETATM    7  C   UNL     1     -13.052  12.255  71.495  1.00  0.00    -0.356 C  
BRANCH   7   8
HETATM    8  C   UNL     1     -13.847  13.121  72.465  1.00  0.00    -0.495 C  
BRANCH   8   9
HETATM    9  C   UNL     1     -14.083  14.507  71.878  1.00  0.00    -0.595 C  
BRANCH   9  10
HETATM   10  C   UNL     1     -13.215  15.544  72.581  1.00  0.00    -0.579 C  
BRANCH  10  11
HETATM   11  C   UNL     1     -11.969  15.852  71.758  1.00  0.00    -0.573 C  
BRANCH  11  12
HETATM   12  C   UNL     1     -12.217  15.570  70.282  1.00  0.00    -0.432 C  
BRANCH  12  13
HETATM   13  C   UNL     1     -11.108  14.700  69.702  1.00  0.00    -0.284 C  
BRANCH  13  14
HETATM   14  C   UNL     1     -11.551  14.075  68.384  1.00  0.00    -0.366 C  
BRANCH  14  15
HETATM   15  C   UNL     1     -10.349  13.659  67.540  1.00  0.00    -0.241 C  
BRANCH  15  16
HETATM   16  C   UNL     1     -10.794  12.819  66.345  1.00  0.00    -0.294 C  
BRANCH  16  17
HETATM   17  C   UNL     1     -11.077  13.693  65.127  1.00  0.00    -0.324 C  
HETATM   18  C   UNL     1     -12.374  13.311  64.454  1.00  0.00    -0.348 C  
HETATM   19  O   UNL     1     -13.125  12.419  64.814  1.00  0.00    -0.806 OA 
HETATM   20  O   UNL     1     -12.634  14.082  63.372  1.00  0.00    -0.845 OA 
ENDBRANCH  16  17
ENDBRANCH  15  16
ENDBRANCH  14  15
ENDBRANCH  13  14
ENDBRANCH  12  13
ENDBRANCH  11  12
ENDBRANCH  10  11
ENDBRANCH   9  10
ENDBRANCH   8   9
ENDBRANCH   7   8
ENDBRANCH   6   7
ENDBRANCH   5   6
ENDBRANCH   4   5
ENDBRANCH   3   4
ENDBRANCH   2   3
TORSDOF 15
ENDMDL
MODEL        2
REMARK 921   NORMALIZED FREE ENERGY PREDICTED BY IDOCK:   -4.64 KCAL/MOL
REMARK 922        TOTAL FREE ENERGY PREDICTED BY IDOCK:  -10.51 KCAL/MOL
REMARK 923 INTER-LIGAND FREE ENERGY PREDICTED BY IDOCK:   -8.11 KCAL/MOL
REMARK 924 INTRA-LIGAND FREE ENERGY PREDICTED BY IDOCK:   -2.40 KCAL/MOL
REMARK 927      BINDING AFFINITY PREDICTED BY RF-SCORE:    0.00 PKD
ROOT
HETATM    1  C   UNL     1     -12.442  16.288  74.328  1.00  0.00    -0.631 C  
HETATM    2  C   UNL     1     -12.580  15.040  73.475  1.00  0.00    -0.664 C  
ENDROOT
BRANCH   2   3
HETATM    3  C   UNL     1     -12.934  15.395  72.033  1.00  0.00    -0.485 C  
BRANCH   3   4
HETATM    4  C   UNL     1     -13.309  14.150  71.237  1.00  0.00    -0.370 C  
BRANCH   4   5
HETATM    5  C   UNL     1     -13.617  12.983  72.170  1.00  0.00    -0.618 C  
BRANCH   5   6
HETATM    6  C   UNL     1     -12.918  11.712  71.700  1.00  0.00    -0.483 C  
BRANCH   6   7
HETATM    7  C   UNL     1     -11.984  12.010  70.534  1.00  0.00    -0.338 C  
BRANCH   7   8
HETATM    8  C   UNL     1     -12.219  11.033  69.389  1.00  0.00    -0.329 C  
BRANCH   8   9
HETATM    9  C   UNL     1     -10.895  10.485  68.870  1.00  0.00    -0.275 C  
BRANCH   9  10
HETATM   10  C   UNL     1     -10.680  10.884  67.415  1.00  0.00    -0.305 C  
BRANCH  10  11
HETATM   11  C   UNL     1      -9.275  11.443  67.212  1.00  0.00    -0.167 C  
BRANCH  11  12
HETATM   12  C   UNL     1      -8.998  12.571  68.195  1.00  0.00    -0.199 C  
BRANCH  12  13
HETATM   13  C   UNL     1      -9.426  13.913  67.616  1.00  0.00    -0.212 C  
BRANCH  13  14
HETATM   14  C   UNL     1     -10.545  14.526  68.451  1.00  0.00    -0.244 C  
BRANCH  14  15
HETATM   15  C   UNL     1     -11.828  14.665  67.636  1.00  0.00    -0.366 C  
BRANCH  15  16
HETATM   16  C   UNL     1     -11.556  14.411  66.155  1.00  0.00    -0.372 C  
BRANCH  16  17
HETATM   17  C   UNL     1     -12.720  13.676  65.497  1.00  0.00    -0.514 C  
HETATM   18  C   UNL     1     -12.250  12.777  64.377  1.00  0.00    -0.428 C  
HETATM   19  O   UNL     1     -11.092  12.635  64.019  1.00  0.00    -0.349 OA 
HETATM   20  O   UNL     1     -13.276  12.120  63.786  1.00  0.00    -0.763 OA 
ENDBRANCH  16  17
ENDBRANCH  15  16
ENDBRANCH  14  15
ENDBRANCH  13  14
ENDBRANCH  12  13
ENDBRANCH  11  12
ENDBRANCH  10  11
ENDBRANCH   9  10
ENDBRANCH   8   9
ENDBRANCH   7   8
ENDBRANCH   6   7
ENDBRANCH   5   6
ENDBRANCH   4   5
ENDBRANCH   3   4
ENDBRANCH   2   3
TORSDOF 15
ENDMDL
MODEL        3
REMARK 921   NORMALIZED FREE ENERGY PREDICTED BY IDOCK:   -4.62 KCAL/MOL
REMARK 922        TOTAL FREE ENERGY PREDICTED BY IDOCK:  -10.48 KCAL/MOL
REMARK 923 INTER-LIGAND FREE ENERGY PREDICTED BY IDOCK:   -8.31 KCAL/MOL
REMARK 924 INTRA-LIGAND FREE ENERGY PREDICTED BY IDOCK:   -2.17 KCAL/MOL
REMARK 927      BINDING AFFINITY PREDICTED BY RF-SCORE:    0.00 PKD
ROOT
HETATM    1  C   UNL     1     -10.604  19.510  66.184  1.00  0.00    -0.585 C  
HETATM    2  C   UNL     1     -10.226  19.586  67.652  1.00  0.00    -0.556 C  
ENDROOT
BRANCH   2   3
HETATM    3  C   UNL     1     -10.145  18.193  68.272  1.00  0.00    -0.398 C  
BRANCH   3   4
HETATM    4  C   UNL     1     -10.700  17.136  67.323  1.00  0.00    -0.208 C  
BRANCH   4   5
HETATM    5  C   UNL     1      -9.653  16.065  67.033  1.00  0.00    -0.229 C  
BRANCH   5   6
HETATM    6  C   UNL     1      -9.823  15.506  65.624  1.00  0.00    -0.377 C  
BRANCH   6   7
HETATM    7  C   UNL     1     -11.192  15.869  65.062  1.00  0.00    -0.296 C  
BRANCH   7   8
HETATM    8  C   UNL     1     -11.815  14.677  64.346  1.00  0.00    -0.405 C  
BRANCH   8   9
HETATM    9  C   UNL     1     -12.494  13.747  65.343  1.00  0.00    -0.532 C  
BRANCH   9  10
HETATM   10  C   UNL     1     -11.901  12.345  65.262  1.00  0.00    -0.451 C  
BRANCH  10  11
HETATM   11  C   UNL     1     -11.286  11.941  66.598  1.00  0.00    -0.400 C  
BRANCH  11  12
HETATM   12  C   UNL     1     -11.755  12.872  67.708  1.00  0.00    -0.412 C  
BRANCH  12  13
HETATM   13  C   UNL     1     -11.783  12.149  69.048  1.00  0.00    -0.377 C  
BRANCH  13  14
HETATM   14  C   UNL     1     -12.044  13.132  70.184  1.00  0.00    -0.392 C  
BRANCH  14  15
HETATM   15  C   UNL     1     -12.021  14.573  69.681  1.00  0.00    -0.375 C  
BRANCH  15  16
HETATM   16  C   UNL     1     -12.918  15.459  70.543  1.00  0.00    -0.379 C  
BRANCH  16  17
HETATM   17  C   UNL     1     -13.132  14.852  71.926  1.00  0.00    -0.425 C  
HETATM   18  C   UNL     1     -12.442  15.658  73.002  1.00  0.00    -0.457 C  
HETATM   19  O   UNL     1     -11.787  16.671  72.820  1.00  0.00    -0.519 OA 
HETATM   20  O   UNL     1     -12.626  15.126  74.234  1.00  0.00    -0.535 OA 
ENDBRANCH  16  17
ENDBRANCH  15  16
ENDBRANCH  14  15
ENDBRANCH  13  14
ENDBRANCH  12  13
ENDBRANCH  11  12
ENDBRANCH  10  11
ENDBRANCH   9  10
ENDBRANCH   8   9
ENDBRANCH   7   8
ENDBRANCH   6   7
ENDBRANCH   5   6
ENDBRANCH   4   5
ENDBRANCH   3   4
ENDBRANCH   2   3
TORSDOF 15
ENDMDL
MODEL        4
REMARK 921   NORMALIZED FREE ENERGY PREDICTED BY IDOCK:   -4.57 KCAL/MOL
REMARK 922        TOTAL FREE ENERGY PREDICTED BY IDOCK:  -10.37 KCAL/MOL
REMARK 923 INTER-LIGAND FREE ENERGY PREDICTED BY IDOCK:   -8.33 KCAL/MOL
REMARK 924 INTRA-LIGAND FREE ENERGY PREDICTED BY IDOCK:   -2.03 KCAL/MOL
REMARK 927      BINDING AFFINITY PREDICTED BY RF-SCORE:    0.00 PKD
ROOT
HETATM    1  C   UNL     1     -12.413  15.756  73.557  1.00  0.00    -0.666 C  
HETATM    2  C   UNL     1     -13.778  15.780  72.893  1.00  0.00    -0.631 C  
ENDROOT
BRANCH   2   3
HETATM    3  C   UNL     1     -13.824  14.837  71.693  1.00  0.00    -0.535 C  
BRANCH   3   4
HETATM    4  C   UNL     1     -13.635  13.387  72.126  1.00  0.00    -0.660 C  
BRANCH   4   5
HETATM    5  C   UNL     1     -12.758  12.635  71.130  1.00  0.00    -0.347 C  
BRANCH   5   6
HETATM    6  C   UNL     1     -11.972  13.606  70.256  1.00  0.00    -0.397 C  
BRANCH   6   7
HETATM    7  C   UNL     1     -11.800  13.047  68.850  1.00  0.00    -0.358 C  
BRANCH   7   8
HETATM    8  C   UNL     1     -11.872  11.524  68.861  1.00  0.00    -0.406 C  
BRANCH   8   9
HETATM    9  C   UNL     1     -10.813  10.929  67.942  1.00  0.00    -0.295 C  
BRANCH   9  10
HETATM   10  C   UNL     1      -9.743  11.964  67.612  1.00  0.00    -0.186 C  
BRANCH  10  11
HETATM   11  C   UNL     1      -9.356  11.888  66.138  1.00  0.00    -0.228 C  
BRANCH  11  12
HETATM   12  C   UNL     1     -10.198  10.847  65.414  1.00  0.00    -0.339 C  
BRANCH  12  13
HETATM   13  C   UNL     1     -10.773  11.416  64.123  1.00  0.00    -0.434 C  
BRANCH  13  14
HETATM   14  C   UNL     1     -12.112  12.096  64.385  1.00  0.00    -0.443 C  
BRANCH  14  15
HETATM   15  C   UNL     1     -12.070  13.569  63.987  1.00  0.00    -0.494 C  
BRANCH  15  16
HETATM   16  C   UNL     1     -11.840  14.452  65.211  1.00  0.00    -0.373 C  
BRANCH  16  17
HETATM   17  C   UNL     1     -11.034  15.697  64.852  1.00  0.00    -0.447 C  
HETATM   18  C   UNL     1     -10.057  16.064  65.946  1.00  0.00    -0.353 C  
HETATM   19  O   UNL     1      -9.909  15.461  66.996  1.00  0.00    -0.227 OA 
HETATM   20  O   UNL     1      -9.337  17.168  65.637  1.00  0.00    -0.515 OA 
ENDBRANCH  16  17
ENDBRANCH  15  16
ENDBRANCH  14  15
ENDBRANCH  13  14
ENDBRANCH  12  13
ENDBRANCH  11  12
ENDBRANCH  10  11
ENDBRANCH   9  10
ENDBRANCH   8   9
ENDBRANCH   7   8
ENDBRANCH   6   7
ENDBRANCH   5   6
ENDBRANCH   4   5
ENDBRANCH   3   4
ENDBRANCH   2   3
TORSDOF 15
ENDMDL
MODEL        5
REMARK 921   NORMALIZED FREE ENERGY PREDICTED BY IDOCK:   -4.56 KCAL/MOL
REMARK 922        TOTAL FREE ENERGY PREDICTED BY IDOCK:  -10.35 KCAL/MOL
REMARK 923 INTER-LIGAND FREE ENERGY PREDICTED BY IDOCK:   -8.61 KCAL/MOL
REMARK 924 INTRA-LIGAND FREE ENERGY PREDICTED BY IDOCK:   -1.74 KCAL/MOL
REMARK 927      BINDING AFFINITY PREDICTED BY RF-SCORE:    0.00 PKD
ROOT
HETATM    1  C   UNL     1     -10.125  17.280  66.541  1.00  0.00    -0.311 C  
HETATM    2  C   UNL     1     -10.253  18.320  67.640  1.00  0.00    -0.397 C  
ENDROOT
BRANCH   2   3
HETATM    3  C   UNL     1     -10.406  17.659  69.008  1.00  0.00    -0.272 C  
BRANCH   3   4
HETATM    4  C   UNL     1     -10.876  16.215  68.871  1.00  0.00    -0.305 C  
BRANCH   4   5
HETATM    5  C   UNL     1     -10.696  15.461  70.185  1.00  0.00    -0.326 C  
BRANCH   5   6
HETATM    6  C   UNL     1     -11.686  15.954  71.235  1.00  0.00    -0.504 C  
BRANCH   6   7
HETATM    7  C   UNL     1     -13.104  15.522  70.883  1.00  0.00    -0.508 C  
BRANCH   7   8
HETATM    8  C   UNL     1     -13.905  15.221  72.144  1.00  0.00    -0.625 C  
BRANCH   8   9
HETATM    9  C   UNL     1     -14.242  13.738  72.224  1.00  0.00    -0.563 C  
BRANCH   9  10
HETATM   10  C   UNL     1     -12.975  12.893  72.171  1.00  0.00    -0.350 C  
BRANCH  10  11
HETATM   11  C   UNL     1     -13.309  11.437  71.862  1.00  0.00    -0.409 C  
BRANCH  11  12
HETATM   12  C   UNL     1     -12.460  10.925  70.707  1.00  0.00    -0.489 C  
BRANCH  12  13
HETATM   13  C   UNL     1     -11.937  12.081  69.863  1.00  0.00    -0.391 C  
BRANCH  13  14
HETATM   14  C   UNL     1     -11.675  11.626  68.432  1.00  0.00    -0.374 C  
BRANCH  14  15
HETATM   15  C   UNL     1     -10.426  12.291  67.862  1.00  0.00    -0.227 C  
BRANCH  15  16
HETATM   16  C   UNL     1     -10.752  13.032  66.567  1.00  0.00    -0.290 C  
BRANCH  16  17
HETATM   17  C   UNL     1     -11.425  12.109  65.555  1.00  0.00    -0.394 C  
HETATM   18  C   UNL     1     -12.656  12.744  64.952  1.00  0.00    -0.470 C  
HETATM   19  O   UNL     1     -13.086  13.854  65.219  1.00  0.00    -0.777 OA 
HETATM   20  O   UNL     1     -13.260  11.932  64.052  1.00  0.00    -0.632 OA 
ENDBRANCH  16  17
ENDBRANCH  15  16
ENDBRANCH  14  15
ENDBRANCH  13  14
ENDBRANCH  12  13
ENDBRANCH  11  12
ENDBRANCH  10  11
ENDBRANCH   9  10
ENDBRANCH   8   9
ENDBRANCH   7   8
ENDBRANCH   6   7
ENDBRANCH   5   6
ENDBRANCH   4   5
ENDBRANCH   3   4
ENDBRANCH   2   3
TORSDOF 15
ENDMDL
MODEL        6
REMARK 921   NORMALIZED FREE ENERGY PREDICTED BY IDOCK:   -4.50 KCAL/MOL
REMARK 922        TOTAL FREE ENERGY PREDICTED BY IDOCK:  -10.25 KCAL/MOL
REMARK 923 INTER-LIGAND FREE ENERGY PREDICTED BY IDOCK:   -7.72 KCAL/MOL
REMARK 924 INTRA-LIGAND FREE ENERGY PREDICTED BY IDOCK:   -2.53 KCAL/MOL
REMARK 927      BINDING AFFINITY PREDICTED BY RF-SCORE:    0.00 PKD
ROOT
HETATM    1  C   UNL     1      -6.890  20.640  67.579  1.00  0.00    -0.389 C  
HETATM    2  C   UNL     1      -7.263  19.699  66.448  1.00  0.00    -0.257 C  
ENDROOT
BRANCH   2   3
HETATM    3  C   UNL     1      -8.745  19.815  66.102  1.00  0.00    -0.368 C  
BRANCH   3   4
HETATM    4  C   UNL     1      -9.512  20.539  67.204  1.00  0.00    -0.544 C  
BRANCH   4   5
HETATM    5  C   UNL     1     -10.654  19.674  67.726  1.00  0.00    -0.530 C  
BRANCH   5   6
HETATM    6  C   UNL     1     -10.136  18.621  68.702  1.00  0.00    -0.412 C  
BRANCH   6   7
HETATM    7  C   UNL     1     -10.425  17.218  68.183  1.00  0.00    -0.382 C  
BRANCH   7   8
HETATM    8  C   UNL     1      -9.142  16.540  67.716  1.00  0.00    -0.204 C  
BRANCH   8   9
HETATM    9  C   UNL     1      -9.350  15.871  66.364  1.00  0.00    -0.329 C  
BRANCH   9  10
HETATM   10  C   UNL     1     -10.537  16.488  65.634  1.00  0.00    -0.317 C  
BRANCH  10  11
HETATM   11  C   UNL     1     -11.248  15.443  64.779  1.00  0.00    -0.404 C  
BRANCH  11  12
HETATM   12  C   UNL     1     -10.780  14.042  65.146  1.00  0.00    -0.393 C  
BRANCH  12  13
HETATM   13  C   UNL     1     -11.922  13.226  65.738  1.00  0.00    -0.463 C  
BRANCH  13  14
HETATM   14  C   UNL     1     -11.630  12.873  67.193  1.00  0.00    -0.421 C  
BRANCH  14  15
HETATM   15  C   UNL     1     -12.155  13.951  68.138  1.00  0.00    -0.317 C  
BRANCH  15  16
HETATM   16  C   UNL     1     -11.439  13.882  69.485  1.00  0.00    -0.332 C  
BRANCH  16  17
HETATM   17  C   UNL     1     -12.369  14.279  70.627  1.00  0.00    -0.431 C  
HETATM   18  C   UNL     1     -12.902  13.069  71.359  1.00  0.00    -0.292 C  
HETATM   19  O   UNL     1     -12.642  11.907  71.094  1.00  0.00    -0.372 OA 
HETATM   20  O   UNL     1     -13.729  13.412  72.375  1.00  0.00    -0.562 OA 
ENDBRANCH  16  17
ENDBRANCH  15  16
ENDBRANCH  14  15
ENDBRANCH  13  14
ENDBRANCH  12  13
ENDBRANCH  11  12
ENDBRANCH  10  11
ENDBRANCH   9  10
ENDBRANCH   8   9
ENDBRANCH   7   8
ENDBRANCH   6   7
ENDBRANCH   5   6
ENDBRANCH   4   5
ENDBRANCH   3   4
ENDBRANCH   2   3
TORSDOF 15
ENDMDL
MODEL        7
REMARK 921   NORMALIZED FREE ENERGY PREDICTED BY IDOCK:   -4.43 KCAL/MOL
REMARK 922        TOTAL FREE ENERGY PREDICTED BY IDOCK:  -10.12 KCAL/MOL
REMARK 923 INTER-LIGAND FREE ENERGY PREDICTED BY IDOCK:   -7.71 KCAL/MOL
REMARK 924 INTRA-LIGAND FREE ENERGY PREDICTED BY IDOCK:   -2.41 KCAL/MOL
REMARK 927      BINDING AFFINITY PREDICTED BY RF-SCORE:    0.00 PKD
ROOT
HETATM    1  C   UNL     1     -13.631  13.501  72.005  1.00  0.00    -0.589 C  
HETATM    2  C   UNL     1     -12.449  13.555  71.054  1.00  0.00    -0.451 C  
ENDROOT
BRANCH   2   3
HETATM    3  C   UNL     1     -12.243  12.214  70.355  1.00  0.00    -0.378 C  
BRANCH   3   4
HETATM    4  C   UNL     1     -12.745  11.061  71.218  1.00  0.00    -0.537 C  
BRANCH   4   5
HETATM    5  C   UNL     1     -12.047   9.758  70.841  1.00  0.00    -0.407 C  
BRANCH   5   6
HETATM    6  C   UNL     1     -10.779  10.034  70.039  1.00  0.00    -0.348 C  
BRANCH   6   7
HETATM    7  C   UNL     1     -10.371   8.804  69.238  1.00  0.00    -0.221 C  
BRANCH   7   8
HETATM    8  C   UNL     1     -10.518   9.060  67.742  1.00  0.00    -0.305 C  
BRANCH   8   9
HETATM    9  C   UNL     1     -10.721  10.545  67.469  1.00  0.00    -0.326 C  
BRANCH   9  10
HETATM   10  C   UNL     1      -9.827  11.008  66.324  1.00  0.00    -0.257 C  
BRANCH  10  11
HETATM   11  C   UNL     1      -8.888  12.117  66.787  1.00  0.00    -0.198 C  
BRANCH  11  12
HETATM   12  C   UNL     1      -9.360  12.702  68.111  1.00  0.00    -0.210 C  
BRANCH  12  13
HETATM   13  C   UNL     1      -9.631  14.195  67.980  1.00  0.00    -0.218 C  
BRANCH  13  14
HETATM   14  C   UNL     1     -10.999  14.439  67.352  1.00  0.00    -0.303 C  
BRANCH  14  15
HETATM   15  C   UNL     1     -10.893  15.363  66.142  1.00  0.00    -0.313 C  
BRANCH  15  16
HETATM   16  C   UNL     1     -10.783  14.553  64.852  1.00  0.00    -0.448 C  
BRANCH  16  17
HETATM   17  C   UNL     1     -12.093  13.840  64.532  1.00  0.00    -0.463 C  
HETATM   18  C   UNL     1     -11.872  12.636  63.646  1.00  0.00    -0.530 C  
HETATM   19  O   UNL     1     -10.793  12.255  63.222  1.00  0.00    -0.435 OA 
HETATM   20  O   UNL     1     -13.030  11.997  63.356  1.00  0.00    -0.772 OA 
ENDBRANCH  16  17
ENDBRANCH  15  16
ENDBRANCH  14  15
ENDBRANCH  13  14
ENDBRANCH  12  13
ENDBRANCH  11  12
ENDBRANCH  10  11
ENDBRANCH   9  10
ENDBRANCH   8   9
ENDBRANCH   7   8
ENDBRANCH   6   7
ENDBRANCH   5   6
ENDBRANCH   4   5
ENDBRANCH   3   4
ENDBRANCH   2   3
TORSDOF 15
ENDMDL
MODEL        8
REMARK 921   NORMALIZED FREE ENERGY PREDICTED BY IDOCK:   -4.42 KCAL/MOL
REMARK 922        TOTAL FREE ENERGY PREDICTED BY IDOCK:  -10.10 KCAL/MOL
REMARK 923 INTER-LIGAND FREE ENERGY PREDICTED BY IDOCK:   -7.92 KCAL/MOL
REMARK 924 INTRA-LIGAND FREE ENERGY PREDICTED BY IDOCK:   -2.17 KCAL/MOL
REMARK 927      BINDING AFFINITY PREDICTED BY RF-SCORE:    0.00 PKD
ROOT
HETATM    1  C   UNL     1     -10.938   9.530  71.026  1.00  0.00    -0.424 C  
HETATM    2  C   UNL     1     -12.149  10.422  70.822  1.00  0.00    -0.463 C  
ENDROOT
BRANCH   2   3
HETATM    3  C   UNL     1     -12.036  11.215  69.522  1.00  0.00    -0.425 C  
BRANCH   3   4
HETATM    4  C   UNL     1     -10.731  10.898  68.798  1.00  0.00    -0.243 C  
BRANCH   4   5
HETATM    5  C   UNL     1     -11.006  10.400  67.382  1.00  0.00    -0.335 C  
BRANCH   5   6
HETATM    6  C   UNL     1      -9.828  10.704  66.461  1.00  0.00    -0.250 C  
BRANCH   6   7
HETATM    7  C   UNL     1     -10.247  10.603  65.000  1.00  0.00    -0.380 C  
BRANCH   7   8
HETATM    8  C   UNL     1     -10.092  11.947  64.299  1.00  0.00    -0.325 C  
BRANCH   8   9
HETATM    9  C   UNL     1     -11.355  12.295  63.521  1.00  0.00    -0.549 C  
BRANCH   9  10
HETATM   10  C   UNL     1     -12.519  12.551  64.471  1.00  0.00    -0.539 C  
BRANCH  10  11
HETATM   11  C   UNL     1     -12.370  13.905  65.157  1.00  0.00    -0.471 C  
BRANCH  11  12
HETATM   12  C   UNL     1     -12.237  13.731  66.663  1.00  0.00    -0.454 C  
BRANCH  12  13
HETATM   13  C   UNL     1     -10.902  14.275  67.157  1.00  0.00    -0.296 C  
BRANCH  13  14
HETATM   14  C   UNL     1     -11.026  14.783  68.589  1.00  0.00    -0.262 C  
BRANCH  14  15
HETATM   15  C   UNL     1     -11.247  16.292  68.622  1.00  0.00    -0.354 C  
BRANCH  15  16
HETATM   16  C   UNL     1     -10.015  17.029  68.102  1.00  0.00    -0.287 C  
BRANCH  16  17
HETATM   17  C   UNL     1     -10.380  18.412  67.571  1.00  0.00    -0.416 C  
HETATM   18  C   UNL     1     -10.472  18.425  66.063  1.00  0.00    -0.374 C  
HETATM   19  O   UNL     1     -10.283  17.467  65.332  1.00  0.00    -0.603 OA 
HETATM   20  O   UNL     1     -10.795  19.649  65.582  1.00  0.00    -0.473 OA 
ENDBRANCH  16  17
ENDBRANCH  15  16
ENDBRANCH  14  15
ENDBRANCH  13  14
ENDBRANCH  12  13
ENDBRANCH  11  12
ENDBRANCH  10  11
ENDBRANCH   9  10
ENDBRANCH   8   9
ENDBRANCH   7   8
ENDBRANCH   6   7
ENDBRANCH   5   6
ENDBRANCH   4   5
ENDBRANCH   3   4
ENDBRANCH   2   3
TORSDOF 15
ENDMDL
MODEL        9
REMARK 921   NORMALIZED FREE ENERGY PREDICTED BY IDOCK:   -4.39 KCAL/MOL
REMARK 922        TOTAL FREE ENERGY PREDICTED BY IDOCK:  -10.03 KCAL/MOL
REMARK 923 INTER-LIGAND FREE ENERGY PREDICTED BY IDOCK:   -8.09 KCAL/MOL
REMARK 924 INTRA-LIGAND FREE ENERGY PREDICTED BY IDOCK:   -1.94 KCAL/MOL
REMARK 927      BINDING AFFINITY PREDICTED BY RF-SCORE:    0.00 PKD
ROOT
HETATM    1  C   UNL     1     -13.470  13.332  72.240  1.00  0.00    -0.679 C  
HETATM    2  C   UNL     1     -14.027  14.734  72.410  1.00  0.00    -0.575 C  
ENDROOT
BRANCH   2   3
HETATM    3  C   UNL     1     -12.927  15.784  72.271  1.00  0.00    -0.523 C  
BRANCH   3   4
HETATM    4  C   UNL     1     -11.760  15.252  71.446  1.00  0.00    -0.444 C  
BRANCH   4   5
HETATM    5  C   UNL     1     -11.414  16.214  70.314  1.00  0.00    -0.319 C  
BRANCH   5   6
HETATM    6  C   UNL     1     -11.811  15.629  68.963  1.00  0.00    -0.379 C  
BRANCH   6   7
HETATM    7  C   UNL     1     -11.856  14.108  69.027  1.00  0.00    -0.384 C  
BRANCH   7   8
HETATM    8  C   UNL     1     -11.904  13.508  67.627  1.00  0.00    -0.399 C  
BRANCH   8   9
HETATM    9  C   UNL     1     -11.654  14.580  66.574  1.00  0.00    -0.379 C  
BRANCH   9  10
HETATM   10  C   UNL     1     -12.299  14.195  65.248  1.00  0.00    -0.469 C  
BRANCH  10  11
HETATM   11  C   UNL     1     -12.487  12.684  65.159  1.00  0.00    -0.531 C  
BRANCH  11  12
HETATM   12  C   UNL     1     -12.051  12.168  63.795  1.00  0.00    -0.620 C  
BRANCH  12  13
HETATM   13  C   UNL     1     -10.531  12.117  63.694  1.00  0.00    -0.495 C  
BRANCH  13  14
HETATM   14  C   UNL     1      -9.923  11.630  65.005  1.00  0.00    -0.297 C  
BRANCH  14  15
HETATM   15  C   UNL     1      -9.921  10.106  65.080  1.00  0.00    -0.375 C  
BRANCH  15  16
HETATM   16  C   UNL     1      -9.677   9.637  66.512  1.00  0.00    -0.272 C  
BRANCH  16  17
HETATM   17  C   UNL     1     -10.911   9.849  67.383  1.00  0.00    -0.293 C  
HETATM   18  C   UNL     1     -10.540  10.316  68.772  1.00  0.00    -0.209 C  
HETATM   19  O   UNL     1      -9.406  10.509  69.177  1.00  0.00    -0.194 OA 
HETATM   20  O   UNL     1     -11.630  10.507  69.553  1.00  0.00    -0.255 OA 
ENDBRANCH  16  17
ENDBRANCH  15  16
ENDBRANCH  14  15
ENDBRANCH  13  14
ENDBRANCH  12  13
ENDBRANCH  11  12
ENDBRANCH  10  11
ENDBRANCH   9  10
ENDBRANCH   8   9
ENDBRANCH   7   8
ENDBRANCH   6   7
ENDBRANCH   5   6
ENDBRANCH   4   5
ENDBRANCH   3   4
ENDBRANCH   2   3
TORSDOF 15
ENDMDL
MODEL       10
REMARK 921   NORMALIZED FREE ENERGY PREDICTED BY IDOCK:   -4.38 KCAL/MOL
REMARK 922        TOTAL FREE ENERGY PREDICTED BY IDOCK:  -10.01 KCAL/MOL
REMARK 923 INTER-LIGAND FREE ENERGY PREDICTED BY IDOCK:   -8.09 KCAL/MOL
REMARK 924 INTRA-LIGAND FREE ENERGY PREDICTED BY IDOCK:   -1.93 KCAL/MOL
REMARK 927      BINDING AFFINITY PREDICTED BY RF-SCORE:    0.00 PKD
ROOT
HETATM    1  C   UNL     1      -8.763   9.329  64.532  1.00  0.00    -0.218 C  
HETATM    2  C   UNL     1      -9.109  10.772  64.854  1.00  0.00    -0.221 C  
ENDROOT
BRANCH   2   3
HETATM    3  C   UNL     1     -10.565  11.078  64.511  1.00  0.00    -0.383 C  
BRANCH   3   4
HETATM    4  C   UNL     1     -10.661  12.054  63.343  1.00  0.00    -0.478 C  
BRANCH   4   5
HETATM    5  C   UNL     1     -11.933  12.891  63.439  1.00  0.00    -0.612 C  
BRANCH   5   6
HETATM    6  C   UNL     1     -12.661  12.623  64.752  1.00  0.00    -0.530 C  
BRANCH   6   7
HETATM    7  C   UNL     1     -12.853  13.915  65.535  1.00  0.00    -0.471 C  
BRANCH   7   8
HETATM    8  C   UNL     1     -11.958  13.938  66.769  1.00  0.00    -0.472 C  
BRANCH   8   9
HETATM    9  C   UNL     1     -10.513  14.219  66.379  1.00  0.00    -0.282 C  
BRANCH   9  10
HETATM   10  C   UNL     1     -10.415  15.503  65.564  1.00  0.00    -0.407 C  
BRANCH  10  11
HETATM   11  C   UNL     1      -9.415  16.468  66.194  1.00  0.00    -0.347 C  
BRANCH  11  12
HETATM   12  C   UNL     1     -10.130  17.684  66.766  1.00  0.00    -0.334 C  
BRANCH  12  13
HETATM   13  C   UNL     1     -10.716  17.374  68.138  1.00  0.00    -0.343 C  
BRANCH  13  14
HETATM   14  C   UNL     1      -9.686  16.672  69.016  1.00  0.00    -0.260 C  
BRANCH  14  15
HETATM   15  C   UNL     1     -10.317  15.518  69.790  1.00  0.00    -0.316 C  
BRANCH  15  16
HETATM   16  C   UNL     1     -11.532  15.999  70.580  1.00  0.00    -0.409 C  
BRANCH  16  17
HETATM   17  C   UNL     1     -11.953  14.974  71.629  1.00  0.00    -0.429 C  
HETATM   18  C   UNL     1     -13.453  14.941  71.806  1.00  0.00    -0.388 C  
HETATM   19  O   UNL     1     -14.255  15.634  71.202  1.00  0.00    -0.514 OA 
HETATM   20  O   UNL     1     -13.836  14.034  72.736  1.00  0.00    -0.674 OA 
ENDBRANCH  16  17
ENDBRANCH  15  16
ENDBRANCH  14  15
ENDBRANCH  13  14
ENDBRANCH  12  13
ENDBRANCH  11  12
ENDBRANCH  10  11
ENDBRANCH   9  10
ENDBRANCH   8   9
ENDBRANCH   7   8
ENDBRANCH   6   7
ENDBRANCH   5   6
ENDBRANCH   4   5
ENDBRANCH   3   4
ENDBRANCH   2   3
TORSDOF 15
ENDMDL
MODEL       11
REMARK 921   NORMALIZED FREE ENERGY PREDICTED BY IDOCK:   -4.37 KCAL/MOL
REMARK 922        TOTAL FREE ENERGY PREDICTED BY IDOCK:  -10.00 KCAL/MOL
REMARK 923 INTER-LIGAND FREE ENERGY PREDICTED BY IDOCK:   -8.04 KCAL/MOL
REMARK 924 INTRA-LIGAND FREE ENERGY PREDICTED BY IDOCK:   -1.96 KCAL/MOL
REMARK 927      BINDING AFFINITY PREDICTED BY RF-SCORE:    0.00 PKD
ROOT
HETATM    1  C   UNL     1      -9.142   8.975  71.012  1.00  0.00    -0.322 C  
HETATM    2  C   UNL     1      -9.727   7.581  71.146  1.00  0.00    -0.168 C  
ENDROOT
BRANCH   2   3
HETATM    3  C   UNL     1     -11.055   7.467  70.400  1.00  0.00    -0.284 C  
BRANCH   3   4
HETATM    4  C   UNL     1     -12.209   7.222  71.367  1.00  0.00    -0.384 C  
BRANCH   4   5
HETATM    5  C   UNL     1     -12.303   8.346  72.393  1.00  0.00    -0.412 C  
BRANCH   5   6
HETATM    6  C   UNL     1     -13.474   9.271  72.080  1.00  0.00    -0.539 C  
BRANCH   6   7
HETATM    7  C   UNL     1     -12.977  10.666  71.723  1.00  0.00    -0.577 C  
BRANCH   7   8
HETATM    8  C   UNL     1     -12.580  10.739  70.253  1.00  0.00    -0.350 C  
BRANCH   8   9
HETATM    9  C   UNL     1     -11.787  12.008  69.972  1.00  0.00    -0.392 C  
BRANCH   9  10
HETATM   10  C   UNL     1     -10.836  11.802  68.800  1.00  0.00    -0.268 C  
BRANCH  10  11
HETATM   11  C   UNL     1     -11.284  10.622  67.943  1.00  0.00    -0.376 C  
BRANCH  11  12
HETATM   12  C   UNL     1     -10.104   9.717  67.616  1.00  0.00    -0.236 C  
BRANCH  12  13
HETATM   13  C   UNL     1     -10.057   9.403  66.126  1.00  0.00    -0.324 C  
BRANCH  13  14
HETATM   14  C   UNL     1      -9.421  10.554  65.354  1.00  0.00    -0.273 C  
BRANCH  14  15
HETATM   15  C   UNL     1      -9.978  10.641  63.936  1.00  0.00    -0.390 C  
BRANCH  15  16
HETATM   16  C   UNL     1     -10.450  12.060  63.628  1.00  0.00    -0.494 C  
BRANCH  16  17
HETATM   17  C   UNL     1     -11.267  12.635  64.782  1.00  0.00    -0.337 C  
HETATM   18  C   UNL     1     -12.394  13.511  64.286  1.00  0.00    -0.335 C  
HETATM   19  O   UNL     1     -12.645  13.750  63.116  1.00  0.00    -0.793 OA 
HETATM   20  O   UNL     1     -13.124  14.026  65.303  1.00  0.00    -0.782 OA 
ENDBRANCH  16  17
ENDBRANCH  15  16
ENDBRANCH  14  15
ENDBRANCH  13  14
ENDBRANCH  12  13
ENDBRANCH  11  12
ENDBRANCH  10  11
ENDBRANCH   9  10
ENDBRANCH   8   9
ENDBRANCH   7   8
ENDBRANCH   6   7
ENDBRANCH   5   6
ENDBRANCH   4   5
ENDBRANCH   3   4
ENDBRANCH   2   3
TORSDOF 15
ENDMDL
MODEL       12
REMARK 921   NORMALIZED FREE ENERGY PREDICTED BY IDOCK:   -4.36 KCAL/MOL
REMARK 922        TOTAL FREE ENERGY PREDICTED BY IDOCK:   -9.99 KCAL/MOL
REMARK 923 INTER-LIGAND FREE ENERGY PREDICTED BY IDOCK:   -7.09 KCAL/MOL
REMARK 924 INTRA-LIGAND FREE ENERGY PREDICTED BY IDOCK:   -2.90 KCAL/MOL
REMARK 927      BINDING AFFINITY PREDICTED BY RF-SCORE:    0.00 PKD
ROOT
HETATM    1  C   UNL     1     -11.295  15.963  64.556  1.00  0.00    -0.316 C  
HETATM    2  C   UNL     1     -11.126  14.650  65.300  1.00  0.00    -0.363 C  
ENDROOT
BRANCH   2   3
HETATM    3  C   UNL     1     -12.453  13.905  65.409  1.00  0.00    -0.528 C  
BRANCH   3   4
HETATM    4  C   UNL     1     -12.332  12.484  64.868  1.00  0.00    -0.539 C  
BRANCH   4   5
HETATM    5  C   UNL     1     -11.722  12.489  63.469  1.00  0.00    -0.595 C  
BRANCH   5   6
HETATM    6  C   UNL     1     -10.486  11.597  63.413  1.00  0.00    -0.482 C  
BRANCH   6   7
HETATM    7  C   UNL     1     -10.410  10.703  64.643  1.00  0.00    -0.353 C  
BRANCH   7   8
HETATM    8  C   UNL     1      -9.020  10.757  65.265  1.00  0.00    -0.211 C  
BRANCH   8   9
HETATM    9  C   UNL     1      -9.110  11.040  66.759  1.00  0.00    -0.172 C  
BRANCH   9  10
HETATM   10  C   UNL     1      -8.679  12.470  67.064  1.00  0.00    -0.205 C  
BRANCH  10  11
HETATM   11  C   UNL     1      -9.510  13.052  68.203  1.00  0.00    -0.218 C  
BRANCH  11  12
HETATM   12  C   UNL     1     -10.824  12.299  68.349  1.00  0.00    -0.257 C  
BRANCH  12  13
HETATM   13  C   UNL     1     -11.886  13.179  68.997  1.00  0.00    -0.358 C  
BRANCH  13  14
HETATM   14  C   UNL     1     -11.261  14.458  69.545  1.00  0.00    -0.294 C  
BRANCH  14  15
HETATM   15  C   UNL     1     -11.735  15.681  68.765  1.00  0.00    -0.382 C  
BRANCH  15  16
HETATM   16  C   UNL     1     -10.822  16.876  69.029  1.00  0.00    -0.255 C  
BRANCH  16  17
HETATM   17  C   UNL     1      -9.839  17.086  67.882  1.00  0.00    -0.269 C  
HETATM   18  C   UNL     1     -10.103  18.382  67.150  1.00  0.00    -0.353 C  
HETATM   19  O   UNL     1     -10.985  19.181  67.418  1.00  0.00    -0.475 OA 
HETATM   20  O   UNL     1      -9.235  18.577  66.130  1.00  0.00    -0.461 OA 
ENDBRANCH  16  17
ENDBRANCH  15  16
ENDBRANCH  14  15
ENDBRANCH  13  14
ENDBRANCH  12  13
ENDBRANCH  11  12
ENDBRANCH  10  11
ENDBRANCH   9  10
ENDBRANCH   8   9
ENDBRANCH   7   8
ENDBRANCH   6   7
ENDBRANCH   5   6
ENDBRANCH   4   5
ENDBRANCH   3   4
ENDBRANCH   2   3
TORSDOF 15
ENDMDL
MODEL       13
REMARK 921   NORMALIZED FREE ENERGY PREDICTED BY IDOCK:   -4.36 KCAL/MOL
REMARK 922        TOTAL FREE ENERGY PREDICTED BY IDOCK:   -9.98 KCAL/MOL
REMARK 923 INTER-LIGAND FREE ENERGY PREDICTED BY IDOCK:   -8.12 KCAL/MOL
REMARK 924 INTRA-LIGAND FREE ENERGY PREDICTED BY IDOCK:   -1.86 KCAL/MOL
REMARK 927      BINDING AFFINITY PREDICTED BY RF-SCORE:    0.00 PKD
ROOT
HETATM    1  C   UNL     1      -8.219   9.068  70.526  1.00  0.00    -0.187 C  
HETATM    2  C   UNL     1      -9.721   9.252  70.657  1.00  0.00    -0.334 C  
ENDROOT
BRANCH   2   3
HETATM    3  C   UNL     1     -10.227  10.334  69.706  1.00  0.00    -0.262 C  
BRANCH   3   4
HETATM    4  C   UNL     1     -11.702  10.636  69.954  1.00  0.00    -0.395 C  
BRANCH   4   5
HETATM    5  C   UNL     1     -12.158  10.049  71.285  1.00  0.00    -0.487 C  
BRANCH   5   6
HETATM    6  C   UNL     1     -13.188  10.953  71.954  1.00  0.00    -0.508 C  
BRANCH   6   7
HETATM    7  C   UNL     1     -12.922  12.414  71.616  1.00  0.00    -0.409 C  
BRANCH   7   8
HETATM    8  C   UNL     1     -13.876  13.328  72.376  1.00  0.00    -0.630 C  
BRANCH   8   9
HETATM    9  C   UNL     1     -13.925  14.708  71.734  1.00  0.00    -0.564 C  
BRANCH   9  10
HETATM   10  C   UNL     1     -13.039  15.687  72.494  1.00  0.00    -0.559 C  
BRANCH  10  11
HETATM   11  C   UNL     1     -11.762  15.978  71.712  1.00  0.00    -0.593 C  
BRANCH  11  12
HETATM   12  C   UNL     1     -12.009  15.855  70.215  1.00  0.00    -0.324 C  
BRANCH  12  13
HETATM   13  C   UNL     1     -11.101  14.798  69.600  1.00  0.00    -0.299 C  
BRANCH  13  14
HETATM   14  C   UNL     1     -11.840  14.022  68.514  1.00  0.00    -0.399 C  
BRANCH  14  15
HETATM   15  C   UNL     1     -10.943  13.779  67.304  1.00  0.00    -0.302 C  
BRANCH  15  16
HETATM   16  C   UNL     1     -11.213  14.816  66.216  1.00  0.00    -0.343 C  
BRANCH  16  17
HETATM   17  C   UNL     1      -9.927  15.516  65.787  1.00  0.00    -0.391 C  
HETATM   18  C   UNL     1      -9.798  16.883  66.418  1.00  0.00    -0.305 C  
HETATM   19  O   UNL     1     -10.604  17.392  67.179  1.00  0.00    -0.331 OA 
HETATM   20  O   UNL     1      -8.660  17.512  66.043  1.00  0.00    -0.497 OA 
ENDBRANCH  16  17
ENDBRANCH  15  16
ENDBRANCH  14  15
ENDBRANCH  13  14
ENDBRANCH  12  13
ENDBRANCH  11  12
ENDBRANCH  10  11
ENDBRANCH   9  10
ENDBRANCH   8   9
ENDBRANCH   7   8
ENDBRANCH   6   7
ENDBRANCH   5   6
ENDBRANCH   4   5
ENDBRANCH   3   4
ENDBRANCH   2   3
TORSDOF 15
ENDMDL
MODEL       14
REMARK 921   NORMALIZED FREE ENERGY PREDICTED BY IDOCK:   -4.36 KCAL/MOL
REMARK 922        TOTAL FREE ENERGY PREDICTED BY IDOCK:   -9.98 KCAL/MOL
REMARK 923 INTER-LIGAND FREE ENERGY PREDICTED BY IDOCK:   -7.84 KCAL/MOL
REMARK 924 INTRA-LIGAND FREE ENERGY PREDICTED BY IDOCK:   -2.13 KCAL/MOL
REMARK 927      BINDING AFFINITY PREDICTED BY RF-SCORE:    0.00 PKD
ROOT
HETATM    1  C   UNL     1     -10.076   6.098  69.621  1.00  0.00    -0.226 C  
HETATM    2  C   UNL     1     -11.547   6.393  69.855  1.00  0.00    -0.422 C  
ENDROOT
BRANCH   2   3
HETATM    3  C   UNL     1     -11.822   6.690  71.327  1.00  0.00    -0.403 C  
BRANCH   3   4
HETATM    4  C   UNL     1     -12.884   7.773  71.480  1.00  0.00    -0.357 C  
BRANCH   4   5
HETATM    5  C   UNL     1     -12.259   9.083  71.949  1.00  0.00    -0.451 C  
BRANCH   5   6
HETATM    6  C   UNL     1     -12.888  10.273  71.233  1.00  0.00    -0.522 C  
BRANCH   6   7
HETATM    7  C   UNL     1     -11.937  10.837  70.185  1.00  0.00    -0.432 C  
BRANCH   7   8
HETATM    8  C   UNL     1     -10.583  10.141  70.254  1.00  0.00    -0.324 C  
BRANCH   8   9
HETATM    9  C   UNL     1      -9.902  10.155  68.892  1.00  0.00    -0.194 C  
BRANCH   9  10
HETATM   10  C   UNL     1     -10.934  10.099  67.772  1.00  0.00    -0.338 C  
BRANCH  10  11
HETATM   11  C   UNL     1     -10.636  11.154  66.711  1.00  0.00    -0.311 C  
BRANCH  11  12
HETATM   12  C   UNL     1     -11.598  12.327  66.836  1.00  0.00    -0.427 C  
BRANCH  12  13
HETATM   13  C   UNL     1     -10.946  13.488  67.576  1.00  0.00    -0.283 C  
BRANCH  13  14
HETATM   14  C   UNL     1     -11.920  14.104  68.574  1.00  0.00    -0.367 C  
BRANCH  14  15
HETATM   15  C   UNL     1     -11.204  15.053  69.530  1.00  0.00    -0.294 C  
BRANCH  15  16
HETATM   16  C   UNL     1     -12.163  15.565  70.602  1.00  0.00    -0.445 C  
BRANCH  16  17
HETATM   17  C   UNL     1     -13.259  14.546  70.898  1.00  0.00    -0.373 C  
HETATM   18  C   UNL     1     -13.430  14.324  72.382  1.00  0.00    -0.489 C  
HETATM   19  O   UNL     1     -12.787  14.875  73.261  1.00  0.00    -0.478 OA 
HETATM   20  O   UNL     1     -14.401  13.421  72.654  1.00  0.00    -0.709 OA 
ENDBRANCH  16  17
ENDBRANCH  15  16
ENDBRANCH  14  15
ENDBRANCH  13  14
ENDBRANCH  12  13
ENDBRANCH  11  12
ENDBRANCH  10  11
ENDBRANCH   9  10
ENDBRANCH   8   9
ENDBRANCH   7   8
ENDBRANCH   6   7
ENDBRANCH   5   6
ENDBRANCH   4   5
ENDBRANCH   3   4
ENDBRANCH   2   3
TORSDOF 15
ENDMDL
MODEL       15
REMARK 921   NORMALIZED FREE ENERGY PREDICTED BY IDOCK:   -4.36 KCAL/MOL
REMARK 922        TOTAL FREE ENERGY PREDICTED BY IDOCK:   -9.97 KCAL/MOL
REMARK 923 INTER-LIGAND FREE ENERGY PREDICTED BY IDOCK:   -7.97 KCAL/MOL
REMARK 924 INTRA-LIGAND FREE ENERGY PREDICTED BY IDOCK:   -2.00 KCAL/MOL
REMARK 927      BINDING AFFINITY PREDICTED BY RF-SCORE:    0.00 PKD
ROOT
HETATM    1  C   UNL     1     -12.590  15.437  73.736  1.00  0.00    -0.747 C  
HETATM    2  C   UNL     1     -13.247  14.571  72.677  1.00  0.00    -0.571 C  
ENDROOT
BRANCH   2   3
HETATM    3  C   UNL     1     -13.352  15.312  71.347  1.00  0.00    -0.573 C  
BRANCH   3   4
HETATM    4  C   UNL     1     -11.988  15.824  70.894  1.00  0.00    -0.453 C  
BRANCH   4   5
HETATM    5  C   UNL     1     -11.895  15.841  69.371  1.00  0.00    -0.361 C  
BRANCH   5   6
HETATM    6  C   UNL     1     -11.592  14.448  68.829  1.00  0.00    -0.348 C  
BRANCH   6   7
HETATM    7  C   UNL     1     -10.502  14.510  67.767  1.00  0.00    -0.242 C  
BRANCH   7   8
HETATM    8  C   UNL     1     -10.725  15.691  66.830  1.00  0.00    -0.307 C  
BRANCH   8   9
HETATM    9  C   UNL     1     -10.811  15.222  65.384  1.00  0.00    -0.399 C  
BRANCH   9  10
HETATM   10  C   UNL     1     -12.034  14.336  65.177  1.00  0.00    -0.395 C  
BRANCH  10  11
HETATM   11  C   UNL     1     -11.710  13.181  64.235  1.00  0.00    -0.447 C  
BRANCH  11  12
HETATM   12  C   UNL     1     -11.561  11.880  65.012  1.00  0.00    -0.277 C  
BRANCH  12  13
HETATM   13  C   UNL     1     -10.092  11.542  65.229  1.00  0.00    -0.314 C  
BRANCH  13  14
HETATM   14  C   UNL     1      -9.842  11.136  66.677  1.00  0.00    -0.231 C  
BRANCH  14  15
HETATM   15  C   UNL     1     -11.154  10.857  67.405  1.00  0.00    -0.373 C  
BRANCH  15  16
HETATM   16  C   UNL     1     -10.904  10.599  68.889  1.00  0.00    -0.272 C  
BRANCH  16  17
HETATM   17  C   UNL     1     -12.112  10.994  69.732  1.00  0.00    -0.424 C  
HETATM   18  C   UNL     1     -12.092  10.324  71.086  1.00  0.00    -0.395 C  
HETATM   19  O   UNL     1     -11.231   9.557  71.486  1.00  0.00    -0.372 OA 
HETATM   20  O   UNL     1     -13.161  10.669  71.842  1.00  0.00    -0.469 OA 
ENDBRANCH  16  17
ENDBRANCH  15  16
ENDBRANCH  14  15
ENDBRANCH  13  14
ENDBRANCH  12  13
ENDBRANCH  11  12
ENDBRANCH  10  11
ENDBRANCH   9  10
ENDBRANCH   8   9
ENDBRANCH   7   8
ENDBRANCH   6   7
ENDBRANCH   5   6
ENDBRANCH   4   5
ENDBRANCH   3   4
ENDBRANCH   2   3
TORSDOF 15
ENDMDL
MODEL       16
REMARK 921   NORMALIZED FREE ENERGY PREDICTED BY IDOCK:   -4.35 KCAL/MOL
REMARK 922        TOTAL FREE ENERGY PREDICTED BY IDOCK:   -9.96 KCAL/MOL
REMARK 923 INTER-LIGAND FREE ENERGY PREDICTED BY IDOCK:   -7.33 KCAL/MOL
REMARK 924 INTRA-LIGAND FREE ENERGY PREDICTED BY IDOCK:   -2.63 KCAL/MOL
REMARK 927      BINDING AFFINITY PREDICTED BY RF-SCORE:    0.00 PKD
ROOT
HETATM    1  C   UNL     1     -13.769  15.219  71.775  1.00  0.00    -0.605 C  
HETATM    2  C   UNL     1     -13.768  13.856  72.443  1.00  0.00    -0.678 C  
ENDROOT
BRANCH   2   3
HETATM    3  C   UNL     1     -13.047  12.822  71.581  1.00  0.00    -0.428 C  
BRANCH   3   4
HETATM    4  C   UNL     1     -12.442  13.468  70.339  1.00  0.00    -0.345 C  
BRANCH   4   5
HETATM    5  C   UNL     1     -11.604  12.460  69.558  1.00  0.00    -0.353 C  
BRANCH   5   6
HETATM    6  C   UNL     1     -11.876  12.570  68.062  1.00  0.00    -0.382 C  
BRANCH   6   7
HETATM    7  C   UNL     1     -11.219  11.420  67.309  1.00  0.00    -0.370 C  
BRANCH   7   8
HETATM    8  C   UNL     1      -9.898  11.863  66.692  1.00  0.00    -0.219 C  
BRANCH   8   9
HETATM    9  C   UNL     1      -8.722  11.252  67.444  1.00  0.00    -0.139 C  
BRANCH   9  10
HETATM   10  C   UNL     1      -8.025  12.303  68.299  1.00  0.00    -0.163 C  
BRANCH  10  11
HETATM   11  C   UNL     1      -8.194  13.692  67.692  1.00  0.00    -0.178 C  
BRANCH  11  12
HETATM   12  C   UNL     1      -8.696  14.677  68.738  1.00  0.00    -0.166 C  
BRANCH  12  13
HETATM   13  C   UNL     1      -9.873  15.484  68.205  1.00  0.00    -0.216 C  
BRANCH  13  14
HETATM   14  C   UNL     1      -9.702  15.761  66.715  1.00  0.00    -0.251 C  
BRANCH  14  15
HETATM   15  C   UNL     1     -11.026  15.614  65.971  1.00  0.00    -0.213 C  
BRANCH  15  16
HETATM   16  C   UNL     1     -10.850  14.757  64.719  1.00  0.00    -0.395 C  
BRANCH  16  17
HETATM   17  C   UNL     1     -12.130  14.001  64.380  1.00  0.00    -0.486 C  
HETATM   18  C   UNL     1     -11.840  12.710  63.650  1.00  0.00    -0.530 C  
HETATM   19  O   UNL     1     -10.731  12.296  63.353  1.00  0.00    -0.446 OA 
HETATM   20  O   UNL     1     -12.971  12.032  63.344  1.00  0.00    -0.772 OA 
ENDBRANCH  16  17
ENDBRANCH  15  16
ENDBRANCH  14  15
ENDBRANCH  13  14
ENDBRANCH  12  13
ENDBRANCH  11  12
ENDBRANCH  10  11
ENDBRANCH   9  10
ENDBRANCH   8   9
ENDBRANCH   7   8
ENDBRANCH   6   7
ENDBRANCH   5   6
ENDBRANCH   4   5
ENDBRANCH   3   4
ENDBRANCH   2   3
TORSDOF 15
ENDMDL
MODEL       17
REMARK 921   NORMALIZED FREE ENERGY PREDICTED BY IDOCK:   -4.35 KCAL/MOL
REMARK 922        TOTAL FREE ENERGY PREDICTED BY IDOCK:   -9.96 KCAL/MOL
REMARK 923 INTER-LIGAND FREE ENERGY PREDICTED BY IDOCK:   -7.93 KCAL/MOL
REMARK 924 INTRA-LIGAND FREE ENERGY PREDICTED BY IDOCK:   -2.03 KCAL/MOL
REMARK 927      BINDING AFFINITY PREDICTED BY RF-SCORE:    0.00 PKD
ROOT
HETATM    1  C   UNL     1     -13.418  12.378  71.959  1.00  0.00    -0.460 C  
HETATM    2  C   UNL     1     -12.547  11.217  71.514  1.00  0.00    -0.431 C  
ENDROOT
BRANCH   2   3
HETATM    3  C   UNL     1     -13.398  10.021  71.092  1.00  0.00    -0.379 C  
BRANCH   3   4
HETATM    4  C   UNL     1     -13.262   8.872  72.085  1.00  0.00    -0.478 C  
BRANCH   4   5
HETATM    5  C   UNL     1     -13.121   7.540  71.355  1.00  0.00    -0.373 C  
BRANCH   5   6
HETATM    6  C   UNL     1     -11.936   6.747  71.896  1.00  0.00    -0.374 C  
BRANCH   6   7
HETATM    7  C   UNL     1     -11.096   7.605  72.833  1.00  0.00    -0.448 C  
BRANCH   7   8
HETATM    8  C   UNL     1      -9.676   7.756  72.301  1.00  0.00    -0.241 C  
BRANCH   8   9
HETATM    9  C   UNL     1      -9.547   9.023  71.466  1.00  0.00    -0.340 C  
BRANCH   9  10
HETATM   10  C   UNL     1      -9.694   8.708  69.982  1.00  0.00    -0.176 C  
BRANCH  10  11
HETATM   11  C   UNL     1     -10.067   9.962  69.198  1.00  0.00    -0.210 C  
BRANCH  11  12
HETATM   12  C   UNL     1     -10.742   9.593  67.885  1.00  0.00    -0.302 C  
BRANCH  12  13
HETATM   13  C   UNL     1     -11.108  10.841  67.092  1.00  0.00    -0.297 C  
BRANCH  13  14
HETATM   14  C   UNL     1     -11.408  12.004  68.032  1.00  0.00    -0.358 C  
BRANCH  14  15
HETATM   15  C   UNL     1     -11.965  13.202  67.267  1.00  0.00    -0.389 C  
BRANCH  15  16
HETATM   16  C   UNL     1     -11.190  13.420  65.969  1.00  0.00    -0.310 C  
BRANCH  16  17
HETATM   17  C   UNL     1     -11.918  14.391  65.045  1.00  0.00    -0.413 C  
HETATM   18  C   UNL     1     -11.116  15.650  64.813  1.00  0.00    -0.412 C  
HETATM   19  O   UNL     1     -10.019  15.891  65.291  1.00  0.00    -0.424 OA 
HETATM   20  O   UNL     1     -11.755  16.519  63.994  1.00  0.00    -1.111 OA 
ENDBRANCH  16  17
ENDBRANCH  15  16
ENDBRANCH  14  15
ENDBRANCH  13  14
ENDBRANCH  12  13
ENDBRANCH  11  12
ENDBRANCH  10  11
ENDBRANCH   9  10
ENDBRANCH   8   9
ENDBRANCH   7   8
ENDBRANCH   6   7
ENDBRANCH   5   6
ENDBRANCH   4   5
ENDBRANCH   3   4
ENDBRANCH   2   3
TORSDOF 15
ENDMDL
MODEL       18
REMARK 921   NORMALIZED FREE ENERGY PREDICTED BY IDOCK:   -4.34 KCAL/MOL
REMARK 922        TOTAL FREE ENERGY PREDICTED BY IDOCK:   -9.94 KCAL/MOL
REMARK 923 INTER-LIGAND FREE ENERGY PREDICTED BY IDOCK:   -7.94 KCAL/MOL
REMARK 924 INTRA-LIGAND FREE ENERGY PREDICTED BY IDOCK:   -1.99 KCAL/MOL
REMARK 927      BINDING AFFINITY PREDICTED BY RF-SCORE:    0.00 PKD
ROOT
HETATM    1  C   UNL     1     -13.161   9.342  72.013  1.00  0.00    -0.512 C  
HETATM    2  C   UNL     1     -12.217  10.166  71.156  1.00  0.00    -0.490 C  
ENDROOT
BRANCH   2   3
HETATM    3  C   UNL     1     -10.850   9.495  71.041  1.00  0.00    -0.423 C  
BRANCH   3   4
HETATM    4  C   UNL     1     -10.149   9.894  69.747  1.00  0.00    -0.274 C  
BRANCH   4   5
HETATM    5  C   UNL     1     -10.933  10.983  69.021  1.00  0.00    -0.284 C  
BRANCH   5   6
HETATM    6  C   UNL     1     -11.219  10.578  67.579  1.00  0.00    -0.299 C  
BRANCH   6   7
HETATM    7  C   UNL     1     -10.057  10.961  66.671  1.00  0.00    -0.264 C  
BRANCH   7   8
HETATM    8  C   UNL     1     -10.382  10.648  65.215  1.00  0.00    -0.321 C  
BRANCH   8   9
HETATM    9  C   UNL     1     -10.558  11.933  64.416  1.00  0.00    -0.366 C  
BRANCH   9  10
HETATM   10  C   UNL     1     -12.036  12.226  64.187  1.00  0.00    -0.518 C  
BRANCH  10  11
HETATM   11  C   UNL     1     -12.530  13.297  65.154  1.00  0.00    -0.525 C  
BRANCH  11  12
HETATM   12  C   UNL     1     -11.674  14.552  65.049  1.00  0.00    -0.392 C  
BRANCH  12  13
HETATM   13  C   UNL     1     -11.070  14.912  66.400  1.00  0.00    -0.342 C  
BRANCH  13  14
HETATM   14  C   UNL     1     -11.803  14.190  67.526  1.00  0.00    -0.437 C  
BRANCH  14  15
HETATM   15  C   UNL     1     -11.160  14.481  68.879  1.00  0.00    -0.273 C  
BRANCH  15  16
HETATM   16  C   UNL     1     -12.184  15.067  69.848  1.00  0.00    -0.351 C  
BRANCH  16  17
HETATM   17  C   UNL     1     -12.740  13.995  70.780  1.00  0.00    -0.396 C  
HETATM   18  C   UNL     1     -13.330  14.597  72.035  1.00  0.00    -0.365 C  
HETATM   19  O   UNL     1     -13.370  15.788  72.299  1.00  0.00    -0.453 OA 
HETATM   20  O   UNL     1     -13.827  13.653  72.869  1.00  0.00    -0.659 OA 
ENDBRANCH  16  17
ENDBRANCH  15  16
ENDBRANCH  14  15
ENDBRANCH  13  14
ENDBRANCH  12  13
ENDBRANCH  11  12
ENDBRANCH  10  11
ENDBRANCH   9  10
ENDBRANCH   8   9
ENDBRANCH   7   8
ENDBRANCH   6   7
ENDBRANCH   5   6
ENDBRANCH   4   5
ENDBRANCH   3   4
ENDBRANCH   2   3
TORSDOF 15
ENDMDL
MODEL       19
REMARK 921   NORMALIZED FREE ENERGY PREDICTED BY IDOCK:   -4.32 KCAL/MOL
REMARK 922        TOTAL FREE ENERGY PREDICTED BY IDOCK:   -9.91 KCAL/MOL
REMARK 923 INTER-LIGAND FREE ENERGY PREDICTED BY IDOCK:   -8.01 KCAL/MOL
REMARK 924 INTRA-LIGAND FREE ENERGY PREDICTED BY IDOCK:   -1.91 KCAL/MOL
REMARK 927      BINDING AFFINITY PREDICTED BY RF-SCORE:    0.00 PKD
ROOT
HETATM    1  C   UNL     1     -13.635  14.368  72.769  1.00  0.00    -0.531 C  
HETATM    2  C   UNL     1     -13.422  12.935  72.314  1.00  0.00    -0.631 C  
ENDROOT
BRANCH   2   3
HETATM    3  C   UNL     1     -12.541  12.877  71.069  1.00  0.00    -0.376 C  
BRANCH   3   4
HETATM    4  C   UNL     1     -12.219  11.435  70.690  1.00  0.00    -0.484 C  
BRANCH   4   5
HETATM    5  C   UNL     1     -13.000  10.459  71.564  1.00  0.00    -0.562 C  
BRANCH   5   6
HETATM    6  C   UNL     1     -12.334   9.087  71.574  1.00  0.00    -0.397 C  
BRANCH   6   7
HETATM    7  C   UNL     1     -10.828   9.217  71.387  1.00  0.00    -0.434 C  
BRANCH   7   8
HETATM    8  C   UNL     1     -10.163   7.846  71.387  1.00  0.00    -0.226 C  
BRANCH   8   9
HETATM    9  C   UNL     1     -11.139   6.775  70.921  1.00  0.00    -0.322 C  
BRANCH   9  10
HETATM   10  C   UNL     1     -10.602   6.053  69.691  1.00  0.00    -0.367 C  
BRANCH  10  11
HETATM   11  C   UNL     1     -11.030   6.770  68.415  1.00  0.00    -0.257 C  
BRANCH  11  12
HETATM   12  C   UNL     1      -9.853   7.507  67.792  1.00  0.00    -0.191 C  
BRANCH  12  13
HETATM   13  C   UNL     1     -10.335   8.602  66.849  1.00  0.00    -0.355 C  
BRANCH  13  14
HETATM   14  C   UNL     1     -11.034   9.712  67.628  1.00  0.00    -0.190 C  
BRANCH  14  15
HETATM   15  C   UNL     1     -10.273  11.029  67.514  1.00  0.00    -0.219 C  
BRANCH  15  16
HETATM   16  C   UNL     1     -11.163  12.117  66.916  1.00  0.00    -0.375 C  
BRANCH  16  17
HETATM   17  C   UNL     1     -11.464  11.841  65.446  1.00  0.00    -0.239 C  
HETATM   18  C   UNL     1     -12.422  12.858  64.872  1.00  0.00    -0.478 C  
HETATM   19  O   UNL     1     -12.913  13.795  65.482  1.00  0.00    -0.651 OA 
HETATM   20  O   UNL     1     -12.696  12.622  63.567  1.00  0.00    -0.719 OA 
ENDBRANCH  16  17
ENDBRANCH  15  16
ENDBRANCH  14  15
ENDBRANCH  13  14
ENDBRANCH  12  13
ENDBRANCH  11  12
ENDBRANCH  10  11
ENDBRANCH   9  10
ENDBRANCH   8   9
ENDBRANCH   7   8
ENDBRANCH   6   7
ENDBRANCH   5   6
ENDBRANCH   4   5
ENDBRANCH   3   4
ENDBRANCH   2   3
TORSDOF 15
ENDMDL
MODEL       20
REMARK 921   NORMALIZED FREE ENERGY PREDICTED BY IDOCK:   -4.32 KCAL/MOL
REMARK 922        TOTAL FREE ENERGY PREDICTED BY IDOCK:   -9.90 KCAL/MOL
REMARK 923 INTER-LIGAND FREE ENERGY PREDICTED BY IDOCK:   -8.07 KCAL/MOL
REMARK 924 INTRA-LIGAND FREE ENERGY PREDICTED BY IDOCK:   -1.83 KCAL/MOL
REMARK 927      BINDING AFFINITY PREDICTED BY RF-SCORE:    0.00 PKD
ROOT
HETATM    1  C   UNL     1     -10.888  11.602  63.666  1.00  0.00    -0.503 C  
HETATM    2  C   UNL     1     -11.064  12.149  65.071  1.00  0.00    -0.368 C  
ENDROOT
BRANCH   2   3
HETATM    3  C   UNL     1     -12.348  12.967  65.186  1.00  0.00    -0.536 C  
BRANCH   3   4
HETATM    4  C   UNL     1     -12.388  13.746  66.496  1.00  0.00    -0.432 C  
BRANCH   4   5
HETATM    5  C   UNL     1     -11.785  12.925  67.632  1.00  0.00    -0.422 C  
BRANCH   5   6
HETATM    6  C   UNL     1     -11.144  13.832  68.677  1.00  0.00    -0.293 C  
BRANCH   6   7
HETATM    7  C   UNL     1     -11.579  15.277  68.476  1.00  0.00    -0.368 C  
BRANCH   7   8
HETATM    8  C   UNL     1     -11.150  16.141  69.657  1.00  0.00    -0.344 C  
BRANCH   8   9
HETATM    9  C   UNL     1     -11.149  15.328  70.945  1.00  0.00    -0.343 C  
BRANCH   9  10
HETATM   10  C   UNL     1     -11.978  16.020  72.020  1.00  0.00    -0.622 C  
BRANCH  10  11
HETATM   11  C   UNL     1     -12.951  15.039  72.667  1.00  0.00    -0.493 C  
BRANCH  11  12
HETATM   12  C   UNL     1     -13.496  14.063  71.633  1.00  0.00    -0.438 C  
BRANCH  12  13
HETATM   13  C   UNL     1     -13.566  12.652  72.203  1.00  0.00    -0.510 C  
BRANCH  13  14
HETATM   14  C   UNL     1     -12.927  11.653  71.245  1.00  0.00    -0.368 C  
BRANCH  14  15
HETATM   15  C   UNL     1     -13.023  10.230  71.786  1.00  0.00    -0.574 C  
BRANCH  15  16
HETATM   16  C   UNL     1     -11.717   9.474  71.552  1.00  0.00    -0.472 C  
BRANCH  16  17
HETATM   17  C   UNL     1     -10.938  10.064  70.381  1.00  0.00    -0.384 C  
HETATM   18  C   UNL     1     -10.554   9.004  69.375  1.00  0.00    -0.221 C  
HETATM   19  O   UNL     1     -10.818   7.815  69.461  1.00  0.00    -0.230 OA 
HETATM   20  O   UNL     1      -9.861   9.518  68.331  1.00  0.00    -0.152 OA 
ENDBRANCH  16  17
ENDBRANCH  15  16
ENDBRANCH  14  15
ENDBRANCH  13  14
ENDBRANCH  12  13
ENDBRANCH  11  12
ENDBRANCH  10  11
ENDBRANCH   9  10
ENDBRANCH   8   9
ENDBRANCH   7   8
ENDBRANCH   6   7
ENDBRANCH   5   6
ENDBRANCH   4   5
ENDBRANCH   3   4
ENDBRANCH   2   3
TORSDOF 15
ENDMDL
MODEL       21
REMARK 921   NORMALIZED FREE ENERGY PREDICTED BY IDOCK:   -4.32 KCAL/MOL
REMARK 922        TOTAL FREE ENERGY PREDICTED BY IDOCK:   -9.90 KCAL/MOL
REMARK 923 INTER-LIGAND FREE ENERGY PREDICTED BY IDOCK:   -8.48 KCAL/MOL
REMARK 924 INTRA-LIGAND FREE ENERGY PREDICTED BY IDOCK:   -1.42 KCAL/MOL
REMARK 927      BINDING AFFINITY PREDICTED BY RF-SCORE:    0.00 PKD
ROOT
HETATM    1  C   UNL     1     -14.396   7.342  71.580  1.00  0.00    -0.614 C  
HETATM    2  C   UNL     1     -13.098   8.029  71.965  1.00  0.00    -0.289 C  
ENDROOT
BRANCH   2   3
HETATM    3  C   UNL     1     -13.313   9.523  72.197  1.00  0.00    -0.545 C  
BRANCH   3   4
HETATM    4  C   UNL     1     -13.034  10.322  70.928  1.00  0.00    -0.456 C  
BRANCH   4   5
HETATM    5  C   UNL     1     -12.634  11.754  71.268  1.00  0.00    -0.401 C  
BRANCH   5   6
HETATM    6  C   UNL     1     -13.653  12.396  72.204  1.00  0.00    -0.405 C  
BRANCH   6   7
HETATM    7  C   UNL     1     -13.859  13.863  71.851  1.00  0.00    -0.519 C  
BRANCH   7   8
HETATM    8  C   UNL     1     -13.239  14.766  72.912  1.00  0.00    -0.597 C  
BRANCH   8   9
HETATM    9  C   UNL     1     -12.494  15.925  72.262  1.00  0.00    -0.543 C  
BRANCH   9  10
HETATM   10  C   UNL     1     -11.507  15.415  71.219  1.00  0.00    -0.444 C  
BRANCH  10  11
HETATM   11  C   UNL     1     -11.592  16.247  69.943  1.00  0.00    -0.140 C  
BRANCH  11  12
HETATM   12  C   UNL     1     -11.425  15.364  68.714  1.00  0.00    -0.352 C  
BRANCH  12  13
HETATM   13  C   UNL     1     -11.353  13.894  69.108  1.00  0.00    -0.331 C  
BRANCH  13  14
HETATM   14  C   UNL     1     -11.803  13.006  67.953  1.00  0.00    -0.389 C  
BRANCH  14  15
HETATM   15  C   UNL     1     -10.652  12.148  67.435  1.00  0.00    -0.253 C  
BRANCH  15  16
HETATM   16  C   UNL     1     -10.457  12.355  65.935  1.00  0.00    -0.284 C  
BRANCH  16  17
HETATM   17  C   UNL     1     -11.795  12.399  65.203  1.00  0.00    -0.437 C  
HETATM   18  C   UNL     1     -11.648  12.021  63.748  1.00  0.00    -0.476 C  
HETATM   19  O   UNL     1     -10.604  11.714  63.196  1.00  0.00    -0.347 OA 
HETATM   20  O   UNL     1     -12.831  12.057  63.089  1.00  0.00    -0.661 OA 
ENDBRANCH  16  17
ENDBRANCH  15  16
ENDBRANCH  14  15
ENDBRANCH  13  14
ENDBRANCH  12  13
ENDBRANCH  11  12
ENDBRANCH  10  11
ENDBRANCH   9  10
ENDBRANCH   8   9
ENDBRANCH   7   8
ENDBRANCH   6   7
ENDBRANCH   5   6
ENDBRANCH   4   5
ENDBRANCH   3   4
ENDBRANCH   2   3
TORSDOF 15
ENDMDL
MODEL       22
REMARK 921   NORMALIZED FREE ENERGY PREDICTED BY IDOCK:   -4.31 KCAL/MOL
REMARK 922        TOTAL FREE ENERGY PREDICTED BY IDOCK:   -9.89 KCAL/MOL
REMARK 923 INTER-LIGAND FREE ENERGY PREDICTED BY IDOCK:   -7.81 KCAL/MOL
REMARK 924 INTRA-LIGAND FREE ENERGY PREDICTED BY IDOCK:   -2.08 KCAL/MOL
REMARK 927      BINDING AFFINITY PREDICTED BY RF-SCORE:    0.00 PKD
ROOT
HETATM    1  C   UNL     1     -12.473   9.673  71.058  1.00  0.00    -0.382 C  
HETATM    2  C   UNL     1     -13.184  10.754  71.851  1.00  0.00    -0.524 C  
ENDROOT
BRANCH   2   3
HETATM    3  C   UNL     1     -12.860  12.142  71.303  1.00  0.00    -0.349 C  
BRANCH   3   4
HETATM    4  C   UNL     1     -13.596  13.226  72.083  1.00  0.00    -0.655 C  
BRANCH   4   5
HETATM    5  C   UNL     1     -13.183  14.614  71.602  1.00  0.00    -0.428 C  
BRANCH   5   6
HETATM    6  C   UNL     1     -12.187  14.515  70.451  1.00  0.00    -0.394 C  
BRANCH   6   7
HETATM    7  C   UNL     1     -11.064  15.530  70.624  1.00  0.00    -0.378 C  
BRANCH   7   8
HETATM    8  C   UNL     1     -10.775  16.245  69.309  1.00  0.00    -0.307 C  
BRANCH   8   9
HETATM    9  C   UNL     1      -9.278  16.276  69.032  1.00  0.00    -0.253 C  
BRANCH   9  10
HETATM   10  C   UNL     1      -9.009  16.469  67.544  1.00  0.00    -0.201 C  
BRANCH  10  11
HETATM   11  C   UNL     1      -9.267  15.175  66.777  1.00  0.00    -0.277 C  
BRANCH  11  12
HETATM   12  C   UNL     1      -8.441  14.035  67.355  1.00  0.00    -0.209 C  
BRANCH  12  13
HETATM   13  C   UNL     1      -9.149  12.700  67.163  1.00  0.00    -0.210 C  
BRANCH  13  14
HETATM   14  C   UNL     1     -10.142  12.452  68.294  1.00  0.00    -0.227 C  
BRANCH  14  15
HETATM   15  C   UNL     1     -11.560  12.282  67.755  1.00  0.00    -0.416 C  
BRANCH  15  16
HETATM   16  C   UNL     1     -11.546  12.145  66.234  1.00  0.00    -0.424 C  
BRANCH  16  17
HETATM   17  C   UNL     1     -12.318  13.281  65.569  1.00  0.00    -0.533 C  
HETATM   18  C   UNL     1     -11.992  13.392  64.098  1.00  0.00    -0.450 C  
HETATM   19  O   UNL     1     -11.212  12.678  63.488  1.00  0.00    -0.453 OA 
HETATM   20  O   UNL     1     -12.672  14.398  63.499  1.00  0.00    -0.742 OA 
ENDBRANCH  16  17
ENDBRANCH  15  16
ENDBRANCH  14  15
ENDBRANCH  13  14
ENDBRANCH  12  13
ENDBRANCH  11  12
ENDBRANCH  10  11
ENDBRANCH   9  10
ENDBRANCH   8   9
ENDBRANCH   7   8
ENDBRANCH   6   7
ENDBRANCH   5   6
ENDBRANCH   4   5
ENDBRANCH   3   4
ENDBRANCH   2   3
TORSDOF 15
ENDMDL
MODEL       23
REMARK 921   NORMALIZED FREE ENERGY PREDICTED BY IDOCK:   -4.29 KCAL/MOL
REMARK 922        TOTAL FREE ENERGY PREDICTED BY IDOCK:   -9.86 KCAL/MOL
REMARK 923 INTER-LIGAND FREE ENERGY PREDICTED BY IDOCK:   -7.50 KCAL/MOL
REMARK 924 INTRA-LIGAND FREE ENERGY PREDICTED BY IDOCK:   -2.36 KCAL/MOL
REMARK 927      BINDING AFFINITY PREDICTED BY RF-SCORE:    0.00 PKD
ROOT
HETATM    1  C   UNL     1     -10.784  11.557  63.580  1.00  0.00    -0.483 C  
HETATM    2  C   UNL     1     -12.214  12.061  63.514  1.00  0.00    -0.653 C  
ENDROOT
BRANCH   2   3
HETATM    3  C   UNL     1     -12.571  12.870  64.759  1.00  0.00    -0.493 C  
BRANCH   3   4
HETATM    4  C   UNL     1     -12.285  14.353  64.551  1.00  0.00    -0.483 C  
BRANCH   4   5
HETATM    5  C   UNL     1     -11.240  14.847  65.545  1.00  0.00    -0.348 C  
BRANCH   5   6
HETATM    6  C   UNL     1     -11.283  14.028  66.831  1.00  0.00    -0.323 C  
BRANCH   6   7
HETATM    7  C   UNL     1      -9.954  13.321  67.064  1.00  0.00    -0.238 C  
BRANCH   7   8
HETATM    8  C   UNL     1     -10.133  12.124  67.990  1.00  0.00    -0.204 C  
BRANCH   8   9
HETATM    9  C   UNL     1     -11.571  12.037  68.483  1.00  0.00    -0.363 C  
BRANCH   9  10
HETATM   10  C   UNL     1     -11.633  11.365  69.850  1.00  0.00    -0.402 C  
BRANCH  10  11
HETATM   11  C   UNL     1     -12.506  12.169  70.808  1.00  0.00    -0.362 C  
BRANCH  11  12
HETATM   12  C   UNL     1     -12.646  13.607  70.328  1.00  0.00    -0.253 C  
BRANCH  12  13
HETATM   13  C   UNL     1     -12.108  14.581  71.367  1.00  0.00    -0.420 C  
BRANCH  13  14
HETATM   14  C   UNL     1     -11.875  15.955  70.746  1.00  0.00    -0.423 C  
BRANCH  14  15
HETATM   15  C   UNL     1     -10.620  15.962  69.879  1.00  0.00    -0.327 C  
BRANCH  15  16
HETATM   16  C   UNL     1     -10.600  17.188  68.969  1.00  0.00    -0.282 C  
BRANCH  16  17
HETATM   17  C   UNL     1      -9.462  17.108  67.956  1.00  0.00    -0.262 C  
HETATM   18  C   UNL     1      -9.591  18.167  66.886  1.00  0.00    -0.299 C  
HETATM   19  O   UNL     1     -10.483  18.996  66.811  1.00  0.00    -0.383 OA 
HETATM   20  O   UNL     1      -8.585  18.103  65.982  1.00  0.00    -0.496 OA 
ENDBRANCH  16  17
ENDBRANCH  15  16
ENDBRANCH  14  15
ENDBRANCH  13  14
ENDBRANCH  12  13
ENDBRANCH  11  12
ENDBRANCH  10  11
ENDBRANCH   9  10
ENDBRANCH   8   9
ENDBRANCH   7   8
ENDBRANCH   6   7
ENDBRANCH   5   6
ENDBRANCH   4   5
ENDBRANCH   3   4
ENDBRANCH   2   3
TORSDOF 15
ENDMDL
MODEL       24
REMARK 921   NORMALIZED FREE ENERGY PREDICTED BY IDOCK:   -4.29 KCAL/MOL
REMARK 922        TOTAL FREE ENERGY PREDICTED BY IDOCK:   -9.84 KCAL/MOL
REMARK 923 INTER-LIGAND FREE ENERGY PREDICTED BY IDOCK:   -8.39 KCAL/MOL
REMARK 924 INTRA-LIGAND FREE ENERGY PREDICTED BY IDOCK:   -1.45 KCAL/MOL
REMARK 927      BINDING AFFINITY PREDICTED BY RF-SCORE:    0.00 PKD
ROOT
HETATM    1  C   UNL     1     -10.440  19.235  66.179  1.00  0.00    -0.577 C  
HETATM    2  C   UNL     1     -10.456  18.373  67.428  1.00  0.00    -0.443 C  
ENDROOT
BRANCH   2   3
HETATM    3  C   UNL     1     -10.196  16.907  67.090  1.00  0.00    -0.297 C  
BRANCH   3   4
HETATM    4  C   UNL     1     -10.357  16.652  65.595  1.00  0.00    -0.310 C  
BRANCH   4   5
HETATM    5  C   UNL     1     -10.442  15.156  65.307  1.00  0.00    -0.434 C  
BRANCH   5   6
HETATM    6  C   UNL     1     -11.804  14.791  64.726  1.00  0.00    -0.425 C  
BRANCH   6   7
HETATM    7  C   UNL     1     -12.412  13.615  65.479  1.00  0.00    -0.544 C  
BRANCH   7   8
HETATM    8  C   UNL     1     -12.166  13.745  66.977  1.00  0.00    -0.381 C  
BRANCH   8   9
HETATM    9  C   UNL     1     -11.845  12.388  67.589  1.00  0.00    -0.363 C  
BRANCH   9  10
HETATM   10  C   UNL     1     -10.392  12.331  68.044  1.00  0.00    -0.220 C  
BRANCH  10  11
HETATM   11  C   UNL     1     -10.161  11.137  68.965  1.00  0.00    -0.194 C  
BRANCH  11  12
HETATM   12  C   UNL     1     -11.482  10.468  69.318  1.00  0.00    -0.323 C  
BRANCH  12  13
HETATM   13  C   UNL     1     -11.655  10.369  70.828  1.00  0.00    -0.450 C  
BRANCH  13  14
HETATM   14  C   UNL     1     -12.864  11.178  71.284  1.00  0.00    -0.515 C  
BRANCH  14  15
HETATM   15  C   UNL     1     -12.591  12.677  71.191  1.00  0.00    -0.354 C  
BRANCH  15  16
HETATM   16  C   UNL     1     -13.640  13.466  71.972  1.00  0.00    -0.577 C  
BRANCH  16  17
HETATM   17  C   UNL     1     -12.988  14.484  72.902  1.00  0.00    -0.582 C  
HETATM   18  C   UNL     1     -12.562  15.728  72.157  1.00  0.00    -0.453 C  
HETATM   19  O   UNL     1     -12.705  15.924  70.962  1.00  0.00    -0.446 OA 
HETATM   20  O   UNL     1     -11.982  16.638  72.975  1.00  0.00    -0.506 OA 
ENDBRANCH  16  17
ENDBRANCH  15  16
ENDBRANCH  14  15
ENDBRANCH  13  14
ENDBRANCH  12  13
ENDBRANCH  11  12
ENDBRANCH  10  11
ENDBRANCH   9  10
ENDBRANCH   8   9
ENDBRANCH   7   8
ENDBRANCH   6   7
ENDBRANCH   5   6
ENDBRANCH   4   5
ENDBRANCH   3   4
ENDBRANCH   2   3
TORSDOF 15
ENDMDL
MODEL       25
REMARK 921   NORMALIZED FREE ENERGY PREDICTED BY IDOCK:   -4.29 KCAL/MOL
REMARK 922        TOTAL FREE ENERGY PREDICTED BY IDOCK:   -9.84 KCAL/MOL
REMARK 923 INTER-LIGAND FREE ENERGY PREDICTED BY IDOCK:   -8.02 KCAL/MOL
REMARK 924 INTRA-LIGAND FREE ENERGY PREDICTED BY IDOCK:   -1.82 KCAL/MOL
REMARK 927      BINDING AFFINITY PREDICTED BY RF-SCORE:    0.00 PKD
ROOT
HETATM    1  C   UNL     1     -10.247   9.461  66.889  1.00  0.00    -0.318 C  
HETATM    2  C   UNL     1      -9.926   8.895  68.260  1.00  0.00    -0.201 C  
ENDROOT
BRANCH   2   3
HETATM    3  C   UNL     1     -10.459   7.471  68.407  1.00  0.00    -0.212 C  
BRANCH   3   4
HETATM    4  C   UNL     1     -10.333   6.983  69.846  1.00  0.00    -0.225 C  
BRANCH   4   5
HETATM    5  C   UNL     1     -11.703   6.648  70.426  1.00  0.00    -0.446 C  
BRANCH   5   6
HETATM    6  C   UNL     1     -11.703   6.799  71.944  1.00  0.00    -0.349 C  
BRANCH   6   7
HETATM    7  C   UNL     1     -11.643   8.269  72.339  1.00  0.00    -0.464 C  
BRANCH   7   8
HETATM    8  C   UNL     1     -13.040   8.879  72.368  1.00  0.00    -0.476 C  
BRANCH   8   9
HETATM    9  C   UNL     1     -13.020  10.295  71.808  1.00  0.00    -0.574 C  
BRANCH   9  10
HETATM   10  C   UNL     1     -11.847  10.480  70.853  1.00  0.00    -0.455 C  
BRANCH  10  11
HETATM   11  C   UNL     1     -12.129  11.606  69.863  1.00  0.00    -0.373 C  
BRANCH  11  12
HETATM   12  C   UNL     1     -12.524  12.880  70.598  1.00  0.00    -0.333 C  
BRANCH  12  13
HETATM   13  C   UNL     1     -12.216  14.110  69.755  1.00  0.00    -0.397 C  
BRANCH  13  14
HETATM   14  C   UNL     1     -11.206  13.774  68.663  1.00  0.00    -0.308 C  
BRANCH  14  15
HETATM   15  C   UNL     1     -11.508  14.539  67.377  1.00  0.00    -0.385 C  
BRANCH  15  16
HETATM   16  C   UNL     1     -10.934  13.807  66.166  1.00  0.00    -0.292 C  
BRANCH  16  17
HETATM   17  C   UNL     1     -11.834  12.652  65.739  1.00  0.00    -0.497 C  
HETATM   18  C   UNL     1     -12.547  12.951  64.440  1.00  0.00    -0.317 C  
HETATM   19  O   UNL     1     -12.439  13.979  63.791  1.00  0.00    -0.753 OA 
HETATM   20  O   UNL     1     -13.350  11.932  64.052  1.00  0.00    -0.646 OA 
ENDBRANCH  16  17
ENDBRANCH  15  16
ENDBRANCH  14  15
ENDBRANCH  13  14
ENDBRANCH  12  13
ENDBRANCH  11  12
ENDBRANCH  10  11
ENDBRANCH   9  10
ENDBRANCH   8   9
ENDBRANCH   7   8
ENDBRANCH   6   7
ENDBRANCH   5   6
ENDBRANCH   4   5
ENDBRANCH   3   4
ENDBRANCH   2   3
TORSDOF 15
ENDMDL
MODEL       26
REMARK 921   NORMALIZED FREE ENERGY PREDICTED BY IDOCK:   -4.27 KCAL/MOL
REMARK 922        TOTAL FREE ENERGY PREDICTED BY IDOCK:   -9.81 KCAL/MOL
REMARK 923 INTER-LIGAND FREE ENERGY PREDICTED BY IDOCK:   -8.30 KCAL/MOL
REMARK 924 INTRA-LIGAND FREE ENERGY PREDICTED BY IDOCK:   -1.52 KCAL/MOL
REMARK 927      BINDING AFFINITY PREDICTED BY RF-SCORE:    0.00 PKD
ROOT
HETATM    1  C   UNL     1     -11.362  14.891  64.639  1.00  0.00    -0.362 C  
HETATM    2  C   UNL     1     -12.468  14.212  65.427  1.00  0.00    -0.488 C  
ENDROOT
BRANCH   2   3
HETATM    3  C   UNL     1     -12.457  12.702  65.199  1.00  0.00    -0.531 C  
BRANCH   3   4
HETATM    4  C   UNL     1     -11.385  12.026  66.048  1.00  0.00    -0.398 C  
BRANCH   4   5
HETATM    5  C   UNL     1     -11.767  12.052  67.524  1.00  0.00    -0.351 C  
BRANCH   5   6
HETATM    6  C   UNL     1     -11.104  10.904  68.278  1.00  0.00    -0.324 C  
BRANCH   6   7
HETATM    7  C   UNL     1     -11.131  11.159  69.780  1.00  0.00    -0.271 C  
BRANCH   7   8
HETATM    8  C   UNL     1     -12.029  10.148  70.483  1.00  0.00    -0.400 C  
BRANCH   8   9
HETATM    9  C   UNL     1     -12.832  10.820  71.589  1.00  0.00    -0.562 C  
BRANCH   9  10
HETATM   10  C   UNL     1     -12.790  12.336  71.440  1.00  0.00    -0.373 C  
BRANCH  10  11
HETATM   11  C   UNL     1     -13.752  13.002  72.419  1.00  0.00    -0.593 C  
BRANCH  11  12
HETATM   12  C   UNL     1     -13.970  14.462  72.049  1.00  0.00    -0.592 C  
BRANCH  12  13
HETATM   13  C   UNL     1     -13.177  15.380  72.971  1.00  0.00    -0.638 C  
BRANCH  13  14
HETATM   14  C   UNL     1     -11.896  15.849  72.290  1.00  0.00    -0.617 C  
BRANCH  14  15
HETATM   15  C   UNL     1     -12.039  15.824  70.770  1.00  0.00    -0.448 C  
BRANCH  15  16
HETATM   16  C   UNL     1     -10.678  15.641  70.103  1.00  0.00    -0.355 C  
BRANCH  16  17
HETATM   17  C   UNL     1     -10.421  16.725  69.061  1.00  0.00    -0.336 C  
HETATM   18  C   UNL     1      -9.715  16.173  67.844  1.00  0.00    -0.225 C  
HETATM   19  O   UNL     1      -9.378  15.012  67.685  1.00  0.00    -0.191 OA 
HETATM   20  O   UNL     1      -9.482  17.129  66.913  1.00  0.00    -0.243 OA 
ENDBRANCH  16  17
ENDBRANCH  15  16
ENDBRANCH  14  15
ENDBRANCH  13  14
ENDBRANCH  12  13
ENDBRANCH  11  12
ENDBRANCH  10  11
ENDBRANCH   9  10
ENDBRANCH   8   9
ENDBRANCH   7   8
ENDBRANCH   6   7
ENDBRANCH   5   6
ENDBRANCH   4   5
ENDBRANCH   3   4
ENDBRANCH   2   3
TORSDOF 15
ENDMDL
MODEL       27
REMARK 921   NORMALIZED FREE ENERGY PREDICTED BY IDOCK:   -4.27 KCAL/MOL
REMARK 922        TOTAL FREE ENERGY PREDICTED BY IDOCK:   -9.80 KCAL/MOL
REMARK 923 INTER-LIGAND FREE ENERGY PREDICTED BY IDOCK:   -8.01 KCAL/MOL
REMARK 924 INTRA-LIGAND FREE ENERGY PREDICTED BY IDOCK:   -1.79 KCAL/MOL
REMARK 927      BINDING AFFINITY PREDICTED BY RF-SCORE:    0.00 PKD
ROOT
HETATM    1  C   UNL     1     -11.179   6.561  69.619  1.00  0.00    -0.446 C  
HETATM    2  C   UNL     1     -11.947   6.647  70.926  1.00  0.00    -0.413 C  
ENDROOT
BRANCH   2   3
HETATM    3  C   UNL     1     -11.185   7.473  71.959  1.00  0.00    -0.298 C  
BRANCH   3   4
HETATM    4  C   UNL     1     -11.894   8.794  72.237  1.00  0.00    -0.403 C  
BRANCH   4   5
HETATM    5  C   UNL     1     -11.664   9.782  71.097  1.00  0.00    -0.465 C  
BRANCH   5   6
HETATM    6  C   UNL     1     -12.906  10.633  70.857  1.00  0.00    -0.473 C  
BRANCH   6   7
HETATM    7  C   UNL     1     -12.614  12.103  71.132  1.00  0.00    -0.360 C  
BRANCH   7   8
HETATM    8  C   UNL     1     -13.479  12.622  72.274  1.00  0.00    -0.541 C  
BRANCH   8   9
HETATM    9  C   UNL     1     -14.061  13.987  71.929  1.00  0.00    -0.537 C  
BRANCH   9  10
HETATM   10  C   UNL     1     -13.458  15.070  72.815  1.00  0.00    -0.574 C  
BRANCH  10  11
HETATM   11  C   UNL     1     -12.506  15.954  72.015  1.00  0.00    -0.534 C  
BRANCH  11  12
HETATM   12  C   UNL     1     -11.174  15.251  71.800  1.00  0.00    -0.364 C  
BRANCH  12  13
HETATM   13  C   UNL     1     -10.598  15.586  70.429  1.00  0.00    -0.294 C  
BRANCH  13  14
HETATM   14  C   UNL     1     -11.717  15.810  69.418  1.00  0.00    -0.379 C  
BRANCH  14  15
HETATM   15  C   UNL     1     -12.046  14.523  68.665  1.00  0.00    -0.253 C  
BRANCH  15  16
HETATM   16  C   UNL     1     -10.800  13.965  67.982  1.00  0.00    -0.259 C  
BRANCH  16  17
HETATM   17  C   UNL     1     -10.636  12.474  68.261  1.00  0.00    -0.245 C  
HETATM   18  C   UNL     1     -11.327  11.631  67.214  1.00  0.00    -0.305 C  
HETATM   19  O   UNL     1     -11.948  12.059  66.255  1.00  0.00    -0.596 OA 
HETATM   20  O   UNL     1     -11.187  10.306  67.454  1.00  0.00    -0.274 OA 
ENDBRANCH  16  17
ENDBRANCH  15  16
ENDBRANCH  14  15
ENDBRANCH  13  14
ENDBRANCH  12  13
ENDBRANCH  11  12
ENDBRANCH  10  11
ENDBRANCH   9  10
ENDBRANCH   8   9
ENDBRANCH   7   8
ENDBRANCH   6   7
ENDBRANCH   5   6
ENDBRANCH   4   5
ENDBRANCH   3   4
ENDBRANCH   2   3
TORSDOF 15
ENDMDL
MODEL       28
REMARK 921   NORMALIZED FREE ENERGY PREDICTED BY IDOCK:   -4.26 KCAL/MOL
REMARK 922        TOTAL FREE ENERGY PREDICTED BY IDOCK:   -9.80 KCAL/MOL
REMARK 923 INTER-LIGAND FREE ENERGY PREDICTED BY IDOCK:   -8.09 KCAL/MOL
REMARK 924 INTRA-LIGAND FREE ENERGY PREDICTED BY IDOCK:   -1.71 KCAL/MOL
REMARK 927      BINDING AFFINITY PREDICTED BY RF-SCORE:    0.00 PKD
ROOT
HETATM    1  C   UNL     1     -10.801   5.822  66.769  1.00  0.00    -0.327 C  
HETATM    2  C   UNL     1     -10.729   7.245  67.294  1.00  0.00    -0.391 C  
ENDROOT
BRANCH   2   3
HETATM    3  C   UNL     1     -10.426   7.264  68.791  1.00  0.00    -0.214 C  
BRANCH   3   4
HETATM    4  C   UNL     1     -11.304   6.269  69.542  1.00  0.00    -0.475 C  
BRANCH   4   5
HETATM    5  C   UNL     1     -10.866   6.153  70.999  1.00  0.00    -0.338 C  
BRANCH   5   6
HETATM    6  C   UNL     1     -11.720   7.043  71.896  1.00  0.00    -0.333 C  
BRANCH   6   7
HETATM    7  C   UNL     1     -13.178   7.008  71.456  1.00  0.00    -0.382 C  
BRANCH   7   8
HETATM    8  C   UNL     1     -13.831   8.373  71.641  1.00  0.00    -0.428 C  
BRANCH   8   9
HETATM    9  C   UNL     1     -12.790   9.421  72.010  1.00  0.00    -0.496 C  
BRANCH   9  10
HETATM   10  C   UNL     1     -13.364  10.826  71.867  1.00  0.00    -0.445 C  
BRANCH  10  11
HETATM   11  C   UNL     1     -12.482  11.680  70.962  1.00  0.00    -0.436 C  
BRANCH  11  12
HETATM   12  C   UNL     1     -11.576  10.802  70.110  1.00  0.00    -0.424 C  
BRANCH  12  13
HETATM   13  C   UNL     1     -11.499  11.325  68.682  1.00  0.00    -0.362 C  
BRANCH  13  14
HETATM   14  C   UNL     1     -10.214  10.856  68.007  1.00  0.00    -0.202 C  
BRANCH  14  15
HETATM   15  C   UNL     1     -10.183  11.266  66.537  1.00  0.00    -0.269 C  
BRANCH  15  16
HETATM   16  C   UNL     1     -11.378  12.154  66.199  1.00  0.00    -0.414 C  
BRANCH  16  17
HETATM   17  C   UNL     1     -11.470  12.410  64.698  1.00  0.00    -0.384 C  
HETATM   18  C   UNL     1     -12.521  13.446  64.371  1.00  0.00    -0.277 C  
HETATM   19  O   UNL     1     -13.225  14.022  65.184  1.00  0.00    -0.768 OA 
HETATM   20  O   UNL     1     -12.610  13.680  63.041  1.00  0.00    -0.729 OA 
ENDBRANCH  16  17
ENDBRANCH  15  16
ENDBRANCH  14  15
ENDBRANCH  13  14
ENDBRANCH  12  13
ENDBRANCH  11  12
ENDBRANCH  10  11
ENDBRANCH   9  10
ENDBRANCH   8   9
ENDBRANCH   7   8
ENDBRANCH   6   7
ENDBRANCH   5   6
ENDBRANCH   4   5
ENDBRANCH   3   4
ENDBRANCH   2   3
TORSDOF 15
ENDMDL
MODEL       29
REMARK 921   NORMALIZED FREE ENERGY PREDICTED BY IDOCK:   -4.25 KCAL/MOL
REMARK 922        TOTAL FREE ENERGY PREDICTED BY IDOCK:   -9.77 KCAL/MOL
REMARK 923 INTER-LIGAND FREE ENERGY PREDICTED BY IDOCK:   -7.76 KCAL/MOL
REMARK 924 INTRA-LIGAND FREE ENERGY PREDICTED BY IDOCK:   -2.01 KCAL/MOL
REMARK 927      BINDING AFFINITY PREDICTED BY RF-SCORE:    0.00 PKD
ROOT
HETATM    1  C   UNL     1     -13.125  10.677  71.646  1.00  0.00    -0.555 C  
HETATM    2  C   UNL     1     -12.078  11.242  70.703  1.00  0.00    -0.480 C  
ENDROOT
BRANCH   2   3
HETATM    3  C   UNL     1     -11.643  10.200  69.675  1.00  0.00    -0.216 C  
BRANCH   3   4
HETATM    4  C   UNL     1     -10.896  10.850  68.515  1.00  0.00    -0.262 C  
BRANCH   4   5
HETATM    5  C   UNL     1     -10.975  12.371  68.606  1.00  0.00    -0.283 C  
BRANCH   5   6
HETATM    6  C   UNL     1     -11.864  12.936  67.503  1.00  0.00    -0.407 C  
BRANCH   6   7
HETATM    7  C   UNL     1     -11.692  12.144  66.214  1.00  0.00    -0.389 C  
BRANCH   7   8
HETATM    8  C   UNL     1     -11.554  13.079  65.018  1.00  0.00    -0.359 C  
BRANCH   8   9
HETATM    9  C   UNL     1     -11.622  14.534  65.464  1.00  0.00    -0.350 C  
BRANCH   9  10
HETATM   10  C   UNL     1     -10.351  15.278  65.072  1.00  0.00    -0.375 C  
BRANCH  10  11
HETATM   11  C   UNL     1      -9.628  15.800  66.310  1.00  0.00    -0.343 C  
BRANCH  11  12
HETATM   12  C   UNL     1      -9.937  17.274  66.530  1.00  0.00    -0.310 C  
BRANCH  12  13
HETATM   13  C   UNL     1     -10.550  17.500  67.906  1.00  0.00    -0.390 C  
BRANCH  13  14
HETATM   14  C   UNL     1     -10.478  16.227  68.742  1.00  0.00    -0.282 C  
BRANCH  14  15
HETATM   15  C   UNL     1     -11.842  15.873  69.327  1.00  0.00    -0.328 C  
BRANCH  15  16
HETATM   16  C   UNL     1     -11.850  16.075  70.840  1.00  0.00    -0.409 C  
BRANCH  16  17
HETATM   17  C   UNL     1     -12.119  14.764  71.573  1.00  0.00    -0.411 C  
HETATM   18  C   UNL     1     -13.456  14.782  72.276  1.00  0.00    -0.409 C  
HETATM   19  O   UNL     1     -14.245  15.713  72.279  1.00  0.00    -0.531 OA 
HETATM   20  O   UNL     1     -13.704  13.622  72.930  1.00  0.00    -0.672 OA 
ENDBRANCH  16  17
ENDBRANCH  15  16
ENDBRANCH  14  15
ENDBRANCH  13  14
ENDBRANCH  12  13
ENDBRANCH  11  12
ENDBRANCH  10  11
ENDBRANCH   9  10
ENDBRANCH   8   9
ENDBRANCH   7   8
ENDBRANCH   6   7
ENDBRANCH   5   6
ENDBRANCH   4   5
ENDBRANCH   3   4
ENDBRANCH   2   3
TORSDOF 15
ENDMDL
MODEL       30
REMARK 921   NORMALIZED FREE ENERGY PREDICTED BY IDOCK:   -4.25 KCAL/MOL
REMARK 922        TOTAL FREE ENERGY PREDICTED BY IDOCK:   -9.77 KCAL/MOL
REMARK 923 INTER-LIGAND FREE ENERGY PREDICTED BY IDOCK:   -8.17 KCAL/MOL
REMARK 924 INTRA-LIGAND FREE ENERGY PREDICTED BY IDOCK:   -1.60 KCAL/MOL
REMARK 927      BINDING AFFINITY PREDICTED BY RF-SCORE:    0.00 PKD
ROOT
HETATM    1  C   UNL     1     -12.685  13.738  65.802  1.00  0.00    -0.494 C  
HETATM    2  C   UNL     1     -12.146  13.782  64.383  1.00  0.00    -0.474 C  
ENDROOT
BRANCH   2   3
HETATM    3  C   UNL     1     -12.082  12.382  63.776  1.00  0.00    -0.618 C  
BRANCH   3   4
HETATM    4  C   UNL     1     -10.655  12.024  63.371  1.00  0.00    -0.478 C  
BRANCH   4   5
HETATM    5  C   UNL     1     -10.175  10.786  64.121  1.00  0.00    -0.412 C  
BRANCH   5   6
HETATM    6  C   UNL     1      -9.725  11.146  65.533  1.00  0.00    -0.271 C  
BRANCH   6   7
HETATM    7  C   UNL     1     -10.269  10.144  66.544  1.00  0.00    -0.288 C  
BRANCH   7   8
HETATM    8  C   UNL     1     -11.101  10.848  67.609  1.00  0.00    -0.376 C  
BRANCH   8   9
HETATM    9  C   UNL     1     -11.134  10.030  68.893  1.00  0.00    -0.219 C  
BRANCH   9  10
HETATM   10  C   UNL     1     -11.412  10.924  70.095  1.00  0.00    -0.405 C  
BRANCH  10  11
HETATM   11  C   UNL     1     -12.153  10.152  71.183  1.00  0.00    -0.485 C  
BRANCH  11  12
HETATM   12  C   UNL     1     -13.157  11.051  71.890  1.00  0.00    -0.525 C  
BRANCH  12  13
HETATM   13  C   UNL     1     -13.033  12.490  71.407  1.00  0.00    -0.347 C  
BRANCH  13  14
HETATM   14  C   UNL     1     -13.783  13.436  72.339  1.00  0.00    -0.698 C  
BRANCH  14  15
HETATM   15  C   UNL     1     -13.441  14.892  72.038  1.00  0.00    -0.487 C  
BRANCH  15  16
HETATM   16  C   UNL     1     -12.035  15.007  71.453  1.00  0.00    -0.397 C  
BRANCH  16  17
HETATM   17  C   UNL     1     -12.008  15.952  70.257  1.00  0.00    -0.324 C  
HETATM   18  C   UNL     1     -11.342  15.318  69.058  1.00  0.00    -0.300 C  
HETATM   19  O   UNL     1     -10.874  14.192  69.019  1.00  0.00    -0.249 OA 
HETATM   20  O   UNL     1     -11.313  16.150  67.990  1.00  0.00    -0.326 OA 
ENDBRANCH  16  17
ENDBRANCH  15  16
ENDBRANCH  14  15
ENDBRANCH  13  14
ENDBRANCH  12  13
ENDBRANCH  11  12
ENDBRANCH  10  11
ENDBRANCH   9  10
ENDBRANCH   8   9
ENDBRANCH   7   8
ENDBRANCH   6   7
ENDBRANCH   5   6
ENDBRANCH   4   5
ENDBRANCH   3   4
ENDBRANCH   2   3
TORSDOF 15
ENDMDL
MODEL       31
REMARK 921   NORMALIZED FREE ENERGY PREDICTED BY IDOCK:   -4.25 KCAL/MOL
REMARK 922        TOTAL FREE ENERGY PREDICTED BY IDOCK:   -9.77 KCAL/MOL
REMARK 923 INTER-LIGAND FREE ENERGY PREDICTED BY IDOCK:   -8.03 KCAL/MOL
REMARK 924 INTRA-LIGAND FREE ENERGY PREDICTED BY IDOCK:   -1.74 KCAL/MOL
REMARK 927      BINDING AFFINITY PREDICTED BY RF-SCORE:    0.00 PKD
ROOT
HETATM    1  C   UNL     1     -12.654  12.764  64.919  1.00  0.00    -0.541 C  
HETATM    2  C   UNL     1     -11.988  12.375  63.612  1.00  0.00    -0.626 C  
ENDROOT
BRANCH   2   3
HETATM    3  C   UNL     1     -10.467  12.433  63.731  1.00  0.00    -0.475 C  
BRANCH   3   4
HETATM    4  C   UNL     1      -9.818  11.224  63.067  1.00  0.00    -0.370 C  
BRANCH   4   5
HETATM    5  C   UNL     1      -9.138  10.336  64.105  1.00  0.00    -0.284 C  
BRANCH   5   6
HETATM    6  C   UNL     1      -9.355  10.883  65.512  1.00  0.00    -0.237 C  
BRANCH   6   7
HETATM    7  C   UNL     1     -10.012   9.835  66.401  1.00  0.00    -0.314 C  
BRANCH   7   8
HETATM    8  C   UNL     1     -10.809  10.497  67.519  1.00  0.00    -0.357 C  
BRANCH   8   9
HETATM    9  C   UNL     1     -10.672   9.710  68.816  1.00  0.00    -0.234 C  
BRANCH   9  10
HETATM   10  C   UNL     1     -11.522  10.332  69.917  1.00  0.00    -0.340 C  
BRANCH  10  11
HETATM   11  C   UNL     1     -12.150  11.639  69.441  1.00  0.00    -0.328 C  
BRANCH  11  12
HETATM   12  C   UNL     1     -12.286  12.621  70.596  1.00  0.00    -0.373 C  
BRANCH  12  13
HETATM   13  C   UNL     1     -12.401  14.051  70.082  1.00  0.00    -0.409 C  
BRANCH  13  14
HETATM   14  C   UNL     1     -11.779  14.175  68.695  1.00  0.00    -0.385 C  
BRANCH  14  15
HETATM   15  C   UNL     1     -11.005  15.482  68.553  1.00  0.00    -0.288 C  
BRANCH  15  16
HETATM   16  C   UNL     1     -10.045  15.415  67.367  1.00  0.00    -0.233 C  
BRANCH  16  17
HETATM   17  C   UNL     1     -10.803  15.360  66.044  1.00  0.00    -0.315 C  
HETATM   18  C   UNL     1     -10.677  16.654  65.275  1.00  0.00    -0.204 C  
HETATM   19  O   UNL     1     -10.056  17.639  65.639  1.00  0.00    -0.575 OA 
HETATM   20  O   UNL     1     -11.347  16.615  64.098  1.00  0.00    -1.141 OA 
ENDBRANCH  16  17
ENDBRANCH  15  16
ENDBRANCH  14  15
ENDBRANCH  13  14
ENDBRANCH  12  13
ENDBRANCH  11  12
ENDBRANCH  10  11
ENDBRANCH   9  10
ENDBRANCH   8   9
ENDBRANCH   7   8
ENDBRANCH   6   7
ENDBRANCH   5   6
ENDBRANCH   4   5
ENDBRANCH   3   4
ENDBRANCH   2   3
TORSDOF 15
ENDMDL
MODEL       32
REMARK 921   NORMALIZED FREE ENERGY PREDICTED BY IDOCK:   -4.24 KCAL/MOL
REMARK 922        TOTAL FREE ENERGY PREDICTED BY IDOCK:   -9.76 KCAL/MOL
REMARK 923 INTER-LIGAND FREE ENERGY PREDICTED BY IDOCK:   -7.43 KCAL/MOL
REMARK 924 INTRA-LIGAND FREE ENERGY PREDICTED BY IDOCK:   -2.33 KCAL/MOL
REMARK 927      BINDING AFFINITY PREDICTED BY RF-SCORE:    0.00 PKD
ROOT
HETATM    1  C   UNL     1     -13.659  13.119  72.176  1.00  0.00    -0.637 C  
HETATM    2  C   UNL     1     -13.170  14.433  72.759  1.00  0.00    -0.611 C  
ENDROOT
BRANCH   2   3
HETATM    3  C   UNL     1     -13.102  15.519  71.688  1.00  0.00    -0.561 C  
BRANCH   3   4
HETATM    4  C   UNL     1     -11.666  15.982  71.466  1.00  0.00    -0.554 C  
BRANCH   4   5
HETATM    5  C   UNL     1     -11.108  15.410  70.166  1.00  0.00    -0.324 C  
BRANCH   5   6
HETATM    6  C   UNL     1     -12.233  14.930  69.256  1.00  0.00    -0.221 C  
BRANCH   6   7
HETATM    7  C   UNL     1     -11.994  13.491  68.817  1.00  0.00    -0.374 C  
BRANCH   7   8
HETATM    8  C   UNL     1     -10.503  13.185  68.758  1.00  0.00    -0.187 C  
BRANCH   8   9
HETATM    9  C   UNL     1     -10.165  12.399  67.498  1.00  0.00    -0.214 C  
BRANCH   9  10
HETATM   10  C   UNL     1      -9.300  13.232  66.559  1.00  0.00    -0.221 C  
BRANCH  10  11
HETATM   11  C   UNL     1      -9.851  14.649  66.432  1.00  0.00    -0.302 C  
BRANCH  11  12
HETATM   12  C   UNL     1     -10.300  14.924  65.004  1.00  0.00    -0.401 C  
BRANCH  12  13
HETATM   13  C   UNL     1     -11.814  15.071  64.929  1.00  0.00    -0.298 C  
BRANCH  13  14
HETATM   14  C   UNL     1     -12.483  13.703  64.841  1.00  0.00    -0.423 C  
BRANCH  14  15
HETATM   15  C   UNL     1     -11.929  12.893  63.672  1.00  0.00    -0.613 C  
BRANCH  15  16
HETATM   16  C   UNL     1     -11.504  11.501  64.135  1.00  0.00    -0.299 C  
BRANCH  16  17
HETATM   17  C   UNL     1     -10.173  11.092  63.511  1.00  0.00    -0.446 C  
HETATM   18  C   UNL     1      -9.418  10.124  64.391  1.00  0.00    -0.308 C  
HETATM   19  O   UNL     1      -9.797   9.702  65.472  1.00  0.00    -0.302 OA 
HETATM   20  O   UNL     1      -8.234   9.755  63.846  1.00  0.00    -0.137 OA 
ENDBRANCH  16  17
ENDBRANCH  15  16
ENDBRANCH  14  15
ENDBRANCH  13  14
ENDBRANCH  12  13
ENDBRANCH  11  12
ENDBRANCH  10  11
ENDBRANCH   9  10
ENDBRANCH   8   9
ENDBRANCH   7   8
ENDBRANCH   6   7
ENDBRANCH   5   6
ENDBRANCH   4   5
ENDBRANCH   3   4
ENDBRANCH   2   3
TORSDOF 15
ENDMDL
MODEL       33
REMARK 921   NORMALIZED FREE ENERGY PREDICTED BY IDOCK:   -4.24 KCAL/MOL
REMARK 922        TOTAL FREE ENERGY PREDICTED BY IDOCK:   -9.75 KCAL/MOL
REMARK 923 INTER-LIGAND FREE ENERGY PREDICTED BY IDOCK:   -7.73 KCAL/MOL
REMARK 924 INTRA-LIGAND FREE ENERGY PREDICTED BY IDOCK:   -2.02 KCAL/MOL
REMARK 927      BINDING AFFINITY PREDICTED BY RF-SCORE:    0.00 PKD
ROOT
HETATM    1  C   UNL     1     -10.118  11.120  64.482  1.00  0.00    -0.364 C  
HETATM    2  C   UNL     1     -10.795  11.679  63.243  1.00  0.00    -0.380 C  
ENDROOT
BRANCH   2   3
HETATM    3  C   UNL     1     -12.166  12.259  63.579  1.00  0.00    -0.669 C  
BRANCH   3   4
HETATM    4  C   UNL     1     -12.313  12.490  65.079  1.00  0.00    -0.522 C  
BRANCH   4   5
HETATM    5  C   UNL     1     -12.691  13.939  65.369  1.00  0.00    -0.525 C  
BRANCH   5   6
HETATM    6  C   UNL     1     -11.545  14.672  66.059  1.00  0.00    -0.328 C  
BRANCH   6   7
HETATM    7  C   UNL     1     -11.282  14.082  67.439  1.00  0.00    -0.328 C  
BRANCH   7   8
HETATM    8  C   UNL     1      -9.789  13.871  67.660  1.00  0.00    -0.236 C  
BRANCH   8   9
HETATM    9  C   UNL     1      -9.486  12.399  67.909  1.00  0.00    -0.198 C  
BRANCH   9  10
HETATM   10  C   UNL     1     -10.676  11.707  68.564  1.00  0.00    -0.250 C  
BRANCH  10  11
HETATM   11  C   UNL     1     -10.786  10.261  68.092  1.00  0.00    -0.287 C  
BRANCH  11  12
HETATM   12  C   UNL     1     -10.489   9.299  69.234  1.00  0.00    -0.228 C  
BRANCH  12  13
HETATM   13  C   UNL     1     -10.822   9.934  70.579  1.00  0.00    -0.391 C  
BRANCH  13  14
HETATM   14  C   UNL     1     -12.019   9.240  71.219  1.00  0.00    -0.414 C  
BRANCH  14  15
HETATM   15  C   UNL     1     -12.938  10.246  71.905  1.00  0.00    -0.554 C  
BRANCH  15  16
HETATM   16  C   UNL     1     -12.808  11.623  71.259  1.00  0.00    -0.430 C  
BRANCH  16  17
HETATM   17  C   UNL     1     -13.520  12.692  72.083  1.00  0.00    -0.561 C  
HETATM   18  C   UNL     1     -13.143  14.085  71.636  1.00  0.00    -0.359 C  
HETATM   19  O   UNL     1     -12.368  14.356  70.734  1.00  0.00    -0.300 OA 
HETATM   20  O   UNL     1     -13.771  15.040  72.362  1.00  0.00    -0.403 OA 
ENDBRANCH  16  17
ENDBRANCH  15  16
ENDBRANCH  14  15
ENDBRANCH  13  14
ENDBRANCH  12  13
ENDBRANCH  11  12
ENDBRANCH  10  11
ENDBRANCH   9  10
ENDBRANCH   8   9
ENDBRANCH   7   8
ENDBRANCH   6   7
ENDBRANCH   5   6
ENDBRANCH   4   5
ENDBRANCH   3   4
ENDBRANCH   2   3
TORSDOF 15
ENDMDL
MODEL       34
REMARK 921   NORMALIZED FREE ENERGY PREDICTED BY IDOCK:   -4.24 KCAL/MOL
REMARK 922        TOTAL FREE ENERGY PREDICTED BY IDOCK:   -9.75 KCAL/MOL
REMARK 923 INTER-LIGAND FREE ENERGY PREDICTED BY IDOCK:   -8.20 KCAL/MOL
REMARK 924 INTRA-LIGAND FREE ENERGY PREDICTED BY IDOCK:   -1.55 KCAL/MOL
REMARK 927      BINDING AFFINITY PREDICTED BY RF-SCORE:    0.00 PKD
ROOT
HETATM    1  C   UNL     1     -11.337   6.469  69.521  1.00  0.00    -0.419 C  
HETATM    2  C   UNL     1     -10.945   6.453  70.987  1.00  0.00    -0.328 C  
ENDROOT
BRANCH   2   3
HETATM    3  C   UNL     1     -11.964   7.208  71.838  1.00  0.00    -0.343 C  
BRANCH   3   4
HETATM    4  C   UNL     1     -11.531   8.653  72.060  1.00  0.00    -0.437 C  
BRANCH   4   5
HETATM    5  C   UNL     1     -12.743   9.575  72.140  1.00  0.00    -0.442 C  
BRANCH   5   6
HETATM    6  C   UNL     1     -12.823  10.476  70.912  1.00  0.00    -0.485 C  
BRANCH   6   7
HETATM    7  C   UNL     1     -11.428  10.817  70.403  1.00  0.00    -0.397 C  
BRANCH   7   8
HETATM    8  C   UNL     1     -11.362  10.696  68.885  1.00  0.00    -0.337 C  
BRANCH   8   9
HETATM    9  C   UNL     1     -10.184   9.826  68.467  1.00  0.00    -0.209 C  
BRANCH   9  10
HETATM   10  C   UNL     1     -10.467   9.140  67.135  1.00  0.00    -0.325 C  
BRANCH  10  11
HETATM   11  C   UNL     1      -9.468   9.589  66.074  1.00  0.00    -0.294 C  
BRANCH  11  12
HETATM   12  C   UNL     1     -10.161  10.417  65.001  1.00  0.00    -0.379 C  
BRANCH  12  13
HETATM   13  C   UNL     1      -9.752  11.881  65.096  1.00  0.00    -0.197 C  
BRANCH  13  14
HETATM   14  C   UNL     1     -10.753  12.767  64.362  1.00  0.00    -0.398 C  
BRANCH  14  15
HETATM   15  C   UNL     1     -12.097  12.795  65.084  1.00  0.00    -0.498 C  
BRANCH  15  16
HETATM   16  C   UNL     1     -12.511  14.230  65.399  1.00  0.00    -0.434 C  
BRANCH  16  17
HETATM   17  C   UNL     1     -11.318  15.064  65.855  1.00  0.00    -0.273 C  
HETATM   18  C   UNL     1     -11.045  16.212  64.912  1.00  0.00    -0.325 C  
HETATM   19  O   UNL     1     -11.681  16.468  63.903  1.00  0.00    -1.148 OA 
HETATM   20  O   UNL     1      -9.987  16.958  65.309  1.00  0.00    -0.526 OA 
ENDBRANCH  16  17
ENDBRANCH  15  16
ENDBRANCH  14  15
ENDBRANCH  13  14
ENDBRANCH  12  13
ENDBRANCH  11  12
ENDBRANCH  10  11
ENDBRANCH   9  10
ENDBRANCH   8   9
ENDBRANCH   7   8
ENDBRANCH   6   7
ENDBRANCH   5   6
ENDBRANCH   4   5
ENDBRANCH   3   4
ENDBRANCH   2   3
TORSDOF 15
ENDMDL
MODEL       35
REMARK 921   NORMALIZED FREE ENERGY PREDICTED BY IDOCK:   -4.23 KCAL/MOL
REMARK 922        TOTAL FREE ENERGY PREDICTED BY IDOCK:   -9.74 KCAL/MOL
REMARK 923 INTER-LIGAND FREE ENERGY PREDICTED BY IDOCK:   -8.18 KCAL/MOL
REMARK 924 INTRA-LIGAND FREE ENERGY PREDICTED BY IDOCK:   -1.56 KCAL/MOL
REMARK 927      BINDING AFFINITY PREDICTED BY RF-SCORE:    0.00 PKD
ROOT
HETATM    1  C   UNL     1      -9.703   5.656  69.413  1.00  0.00    -0.208 C  
HETATM    2  C   UNL     1     -11.128   6.076  69.728  1.00  0.00    -0.476 C  
ENDROOT
BRANCH   2   3
HETATM    3  C   UNL     1     -11.152   7.306  70.632  1.00  0.00    -0.287 C  
BRANCH   3   4
HETATM    4  C   UNL     1     -12.405   7.325  71.501  1.00  0.00    -0.397 C  
BRANCH   4   5
HETATM    5  C   UNL     1     -12.641   8.716  72.080  1.00  0.00    -0.451 C  
BRANCH   5   6
HETATM    6  C   UNL     1     -11.767   9.752  71.381  1.00  0.00    -0.475 C  
BRANCH   6   7
HETATM    7  C   UNL     1     -12.607  10.643  70.476  1.00  0.00    -0.433 C  
BRANCH   7   8
HETATM    8  C   UNL     1     -12.529  12.097  70.926  1.00  0.00    -0.374 C  
BRANCH   8   9
HETATM    9  C   UNL     1     -13.478  12.351  72.090  1.00  0.00    -0.481 C  
BRANCH   9  10
HETATM   10  C   UNL     1     -13.545  13.839  72.416  1.00  0.00    -0.690 C  
BRANCH  10  11
HETATM   11  C   UNL     1     -13.418  14.675  71.147  1.00  0.00    -0.425 C  
BRANCH  11  12
HETATM   12  C   UNL     1     -12.441  15.823  71.356  1.00  0.00    -0.513 C  
BRANCH  12  13
HETATM   13  C   UNL     1     -11.098  15.518  70.703  1.00  0.00    -0.378 C  
BRANCH  13  14
HETATM   14  C   UNL     1     -10.876  16.413  69.488  1.00  0.00    -0.338 C  
BRANCH  14  15
HETATM   15  C   UNL     1     -11.354  15.732  68.209  1.00  0.00    -0.354 C  
BRANCH  15  16
HETATM   16  C   UNL     1     -10.992  14.249  68.219  1.00  0.00    -0.261 C  
BRANCH  16  17
HETATM   17  C   UNL     1     -12.041  13.418  67.487  1.00  0.00    -0.323 C  
HETATM   18  C   UNL     1     -11.720  13.282  66.017  1.00  0.00    -0.368 C  
HETATM   19  O   UNL     1     -10.750  13.765  65.455  1.00  0.00    -0.293 OA 
HETATM   20  O   UNL     1     -12.646  12.545  65.358  1.00  0.00    -0.656 OA 
ENDBRANCH  16  17
ENDBRANCH  15  16
ENDBRANCH  14  15
ENDBRANCH  13  14
ENDBRANCH  12  13
ENDBRANCH  11  12
ENDBRANCH  10  11
ENDBRANCH   9  10
ENDBRANCH   8   9
ENDBRANCH   7   8
ENDBRANCH   6   7
ENDBRANCH   5   6
ENDBRANCH   4   5
ENDBRANCH   3   4
ENDBRANCH   2   3
TORSDOF 15
ENDMDL
MODEL       36
REMARK 921   NORMALIZED FREE ENERGY PREDICTED BY IDOCK:   -4.23 KCAL/MOL
REMARK 922        TOTAL FREE ENERGY PREDICTED BY IDOCK:   -9.74 KCAL/MOL
REMARK 923 INTER-LIGAND FREE ENERGY PREDICTED BY IDOCK:   -7.45 KCAL/MOL
REMARK 924 INTRA-LIGAND FREE ENERGY PREDICTED BY IDOCK:   -2.29 KCAL/MOL
REMARK 927      BINDING AFFINITY PREDICTED BY RF-SCORE:    0.00 PKD
ROOT
HETATM    1  C   UNL     1      -9.832  17.243  67.170  1.00  0.00    -0.269 C  
HETATM    2  C   UNL     1      -8.906  16.042  67.233  1.00  0.00    -0.207 C  
ENDROOT
BRANCH   2   3
HETATM    3  C   UNL     1      -9.682  14.739  67.050  1.00  0.00    -0.242 C  
BRANCH   3   4
HETATM    4  C   UNL     1     -10.870  14.934  66.114  1.00  0.00    -0.327 C  
BRANCH   4   5
HETATM    5  C   UNL     1     -12.102  14.208  66.645  1.00  0.00    -0.480 C  
BRANCH   5   6
HETATM    6  C   UNL     1     -12.893  13.575  65.504  1.00  0.00    -0.406 C  
BRANCH   6   7
HETATM    7  C   UNL     1     -12.050  13.505  64.238  1.00  0.00    -0.482 C  
BRANCH   7   8
HETATM    8  C   UNL     1     -12.144  12.124  63.601  1.00  0.00    -0.648 C  
BRANCH   8   9
HETATM    9  C   UNL     1     -10.757  11.530  63.396  1.00  0.00    -0.444 C  
BRANCH   9  10
HETATM   10  C   UNL     1      -9.916  11.678  64.659  1.00  0.00    -0.291 C  
BRANCH  10  11
HETATM   11  C   UNL     1     -10.326  10.646  65.705  1.00  0.00    -0.285 C  
BRANCH  11  12
HETATM   12  C   UNL     1     -10.005  11.146  67.106  1.00  0.00    -0.215 C  
BRANCH  12  13
HETATM   13  C   UNL     1     -11.165  10.879  68.056  1.00  0.00    -0.378 C  
BRANCH  13  14
HETATM   14  C   UNL     1     -10.854  11.418  69.449  1.00  0.00    -0.214 C  
BRANCH  14  15
HETATM   15  C   UNL     1     -12.128  11.835  70.177  1.00  0.00    -0.398 C  
BRANCH  15  16
HETATM   16  C   UNL     1     -12.220  13.357  70.273  1.00  0.00    -0.405 C  
BRANCH  16  17
HETATM   17  C   UNL     1     -13.091  13.785  71.450  1.00  0.00    -0.413 C  
HETATM   18  C   UNL     1     -12.893  15.245  71.789  1.00  0.00    -0.380 C  
HETATM   19  O   UNL     1     -12.139  16.011  71.212  1.00  0.00    -0.417 OA 
HETATM   20  O   UNL     1     -13.662  15.635  72.833  1.00  0.00    -0.548 OA 
ENDBRANCH  16  17
ENDBRANCH  15  16
ENDBRANCH  14  15
ENDBRANCH  13  14
ENDBRANCH  12  13
ENDBRANCH  11  12
ENDBRANCH  10  11
ENDBRANCH   9  10
ENDBRANCH   8   9
ENDBRANCH   7   8
ENDBRANCH   6   7
ENDBRANCH   5   6
ENDBRANCH   4   5
ENDBRANCH   3   4
ENDBRANCH   2   3
TORSDOF 15
ENDMDL
MODEL       37
REMARK 921   NORMALIZED FREE ENERGY PREDICTED BY IDOCK:   -4.23 KCAL/MOL
REMARK 922        TOTAL FREE ENERGY PREDICTED BY IDOCK:   -9.73 KCAL/MOL
REMARK 923 INTER-LIGAND FREE ENERGY PREDICTED BY IDOCK:   -7.76 KCAL/MOL
REMARK 924 INTRA-LIGAND FREE ENERGY PREDICTED BY IDOCK:   -1.97 KCAL/MOL
REMARK 927      BINDING AFFINITY PREDICTED BY RF-SCORE:    0.00 PKD
ROOT
HETATM    1  C   UNL     1     -14.068  14.290  72.012  1.00  0.00    -0.618 C  
HETATM    2  C   UNL     1     -12.769  14.470  71.247  1.00  0.00    -0.413 C  
ENDROOT
BRANCH   2   3
HETATM    3  C   UNL     1     -12.226  13.128  70.761  1.00  0.00    -0.375 C  
BRANCH   3   4
HETATM    4  C   UNL     1     -12.858  11.970  71.527  1.00  0.00    -0.403 C  
BRANCH   4   5
HETATM    5  C   UNL     1     -13.012  10.747  70.629  1.00  0.00    -0.313 C  
BRANCH   5   6
HETATM    6  C   UNL     1     -13.605   9.575  71.404  1.00  0.00    -0.353 C  
BRANCH   6   7
HETATM    7  C   UNL     1     -12.539   8.899  72.257  1.00  0.00    -0.455 C  
BRANCH   7   8
HETATM    8  C   UNL     1     -12.216   7.510  71.720  1.00  0.00    -0.345 C  
BRANCH   8   9
HETATM    9  C   UNL     1     -11.110   7.583  70.675  1.00  0.00    -0.280 C  
BRANCH   9  10
HETATM   10  C   UNL     1      -9.981   8.491  71.148  1.00  0.00    -0.265 C  
BRANCH  10  11
HETATM   11  C   UNL     1      -9.510   9.400  70.017  1.00  0.00    -0.257 C  
BRANCH  11  12
HETATM   12  C   UNL     1     -10.336   9.165  68.760  1.00  0.00    -0.235 C  
BRANCH  12  13
HETATM   13  C   UNL     1      -9.527   9.489  67.510  1.00  0.00    -0.155 C  
BRANCH  13  14
HETATM   14  C   UNL     1     -10.313  10.415  66.588  1.00  0.00    -0.292 C  
BRANCH  14  15
HETATM   15  C   UNL     1     -10.263  11.857  67.082  1.00  0.00    -0.230 C  
BRANCH  15  16
HETATM   16  C   UNL     1     -11.662  12.470  67.100  1.00  0.00    -0.425 C  
BRANCH  16  17
HETATM   17  C   UNL     1     -11.723  13.737  66.253  1.00  0.00    -0.400 C  
HETATM   18  C   UNL     1     -12.508  13.520  64.980  1.00  0.00    -0.417 C  
HETATM   19  O   UNL     1     -13.038  12.474  64.643  1.00  0.00    -0.845 OA 
HETATM   20  O   UNL     1     -12.568  14.639  64.220  1.00  0.00    -0.688 OA 
ENDBRANCH  16  17
ENDBRANCH  15  16
ENDBRANCH  14  15
ENDBRANCH  13  14
ENDBRANCH  12  13
ENDBRANCH  11  12
ENDBRANCH  10  11
ENDBRANCH   9  10
ENDBRANCH   8   9
ENDBRANCH   7   8
ENDBRANCH   6   7
ENDBRANCH   5   6
ENDBRANCH   4   5
ENDBRANCH   3   4
ENDBRANCH   2   3
TORSDOF 15
ENDMDL
MODEL       38
REMARK 921   NORMALIZED FREE ENERGY PREDICTED BY IDOCK:   -4.23 KCAL/MOL
REMARK 922        TOTAL FREE ENERGY PREDICTED BY IDOCK:   -9.73 KCAL/MOL
REMARK 923 INTER-LIGAND FREE ENERGY PREDICTED BY IDOCK:   -7.96 KCAL/MOL
REMARK 924 INTRA-LIGAND FREE ENERGY PREDICTED BY IDOCK:   -1.77 KCAL/MOL
REMARK 927      BINDING AFFINITY PREDICTED BY RF-SCORE:    0.00 PKD
ROOT
HETATM    1  C   UNL     1     -12.479  16.256  74.289  1.00  0.00    -0.631 C  
HETATM    2  C   UNL     1     -12.947  15.079  73.453  1.00  0.00    -0.622 C  
ENDROOT
BRANCH   2   3
HETATM    3  C   UNL     1     -13.892  15.533  72.343  1.00  0.00    -0.662 C  
BRANCH   3   4
HETATM    4  C   UNL     1     -13.803  14.610  71.133  1.00  0.00    -0.340 C  
BRANCH   4   5
HETATM    5  C   UNL     1     -13.151  13.283  71.512  1.00  0.00    -0.414 C  
BRANCH   5   6
HETATM    6  C   UNL     1     -12.155  12.843  70.444  1.00  0.00    -0.385 C  
BRANCH   6   7
HETATM    7  C   UNL     1     -11.901  13.966  69.448  1.00  0.00    -0.384 C  
BRANCH   7   8
HETATM    8  C   UNL     1     -11.916  13.436  68.019  1.00  0.00    -0.357 C  
BRANCH   8   9
HETATM    9  C   UNL     1     -11.687  14.566  67.024  1.00  0.00    -0.412 C  
BRANCH   9  10
HETATM   10  C   UNL     1     -10.409  14.332  66.227  1.00  0.00    -0.297 C  
BRANCH  10  11
HETATM   11  C   UNL     1     -10.700  14.325  64.730  1.00  0.00    -0.435 C  
BRANCH  11  12
HETATM   12  C   UNL     1     -12.075  13.732  64.453  1.00  0.00    -0.474 C  
BRANCH  12  13
HETATM   13  C   UNL     1     -11.956  12.404  63.717  1.00  0.00    -0.600 C  
BRANCH  13  14
HETATM   14  C   UNL     1     -10.491  12.050  63.482  1.00  0.00    -0.505 C  
BRANCH  14  15
HETATM   15  C   UNL     1     -10.143  10.702  64.107  1.00  0.00    -0.402 C  
BRANCH  15  16
HETATM   16  C   UNL     1      -9.642  10.884  65.538  1.00  0.00    -0.266 C  
BRANCH  16  17
HETATM   17  C   UNL     1     -10.526  10.140  66.534  1.00  0.00    -0.236 C  
HETATM   18  C   UNL     1     -10.106  10.405  67.961  1.00  0.00    -0.163 C  
HETATM   19  O   UNL     1      -9.179  11.119  68.307  1.00  0.00    -0.155 OA 
HETATM   20  O   UNL     1     -10.885   9.748  68.852  1.00  0.00    -0.220 OA 
ENDBRANCH  16  17
ENDBRANCH  15  16
ENDBRANCH  14  15
ENDBRANCH  13  14
ENDBRANCH  12  13
ENDBRANCH  11  12
ENDBRANCH  10  11
ENDBRANCH   9  10
ENDBRANCH   8   9
ENDBRANCH   7   8
ENDBRANCH   6   7
ENDBRANCH   5   6
ENDBRANCH   4   5
ENDBRANCH   3   4
ENDBRANCH   2   3
TORSDOF 15
ENDMDL
MODEL       39
REMARK 921   NORMALIZED FREE ENERGY PREDICTED BY IDOCK:   -4.23 KCAL/MOL
REMARK 922        TOTAL FREE ENERGY PREDICTED BY IDOCK:   -9.73 KCAL/MOL
REMARK 923 INTER-LIGAND FREE ENERGY PREDICTED BY IDOCK:   -6.88 KCAL/MOL
REMARK 924 INTRA-LIGAND FREE ENERGY PREDICTED BY IDOCK:   -2.85 KCAL/MOL
REMARK 927      BINDING AFFINITY PREDICTED BY RF-SCORE:    0.00 PKD
ROOT
HETATM    1  C   UNL     1     -12.642  15.815  73.226  1.00  0.00    -0.627 C  
HETATM    2  C   UNL     1     -13.859  15.556  72.357  1.00  0.00    -0.662 C  
ENDROOT
BRANCH   2   3
HETATM    3  C   UNL     1     -13.628  14.368  71.426  1.00  0.00    -0.431 C  
BRANCH   3   4
HETATM    4  C   UNL     1     -12.178  14.311  70.958  1.00  0.00    -0.428 C  
BRANCH   4   5
HETATM    5  C   UNL     1     -12.102  14.303  69.434  1.00  0.00    -0.361 C  
BRANCH   5   6
HETATM    6  C   UNL     1     -11.780  15.694  68.898  1.00  0.00    -0.396 C  
BRANCH   6   7
HETATM    7  C   UNL     1     -10.733  16.377  69.767  1.00  0.00    -0.324 C  
BRANCH   7   8
HETATM    8  C   UNL     1     -10.186  17.621  69.078  1.00  0.00    -0.314 C  
BRANCH   8   9
HETATM    9  C   UNL     1     -10.617  17.659  67.617  1.00  0.00    -0.364 C  
BRANCH   9  10
HETATM   10  C   UNL     1      -9.442  18.028  66.718  1.00  0.00    -0.293 C  
BRANCH  10  11
HETATM   11  C   UNL     1      -8.142  18.063  67.516  1.00  0.00    -0.231 C  
BRANCH  11  12
HETATM   12  C   UNL     1      -7.137  17.072  66.948  1.00  0.00    -0.251 C  
BRANCH  12  13
HETATM   13  C   UNL     1      -6.989  15.863  67.864  1.00  0.00    -0.155 C  
BRANCH  13  14
HETATM   14  C   UNL     1      -7.467  14.596  67.163  1.00  0.00    -0.035 C  
BRANCH  14  15
HETATM   15  C   UNL     1      -8.748  14.064  67.798  1.00  0.00    -0.185 C  
BRANCH  15  16
HETATM   16  C   UNL     1      -9.663  13.454  66.739  1.00  0.00    -0.262 C  
BRANCH  16  17
HETATM   17  C   UNL     1     -10.001  14.467  65.649  1.00  0.00    -0.365 C  
HETATM   18  C   UNL     1     -11.491  14.559  65.415  1.00  0.00    -0.348 C  
HETATM   19  O   UNL     1     -12.343  13.917  66.006  1.00  0.00    -0.443 OA 
HETATM   20  O   UNL     1     -11.800  15.456  64.449  1.00  0.00    -0.402 OA 
ENDBRANCH  16  17
ENDBRANCH  15  16
ENDBRANCH  14  15
ENDBRANCH  13  14
ENDBRANCH  12  13
ENDBRANCH  11  12
ENDBRANCH  10  11
ENDBRANCH   9  10
ENDBRANCH   8   9
ENDBRANCH   7   8
ENDBRANCH   6   7
ENDBRANCH   5   6
ENDBRANCH   4   5
ENDBRANCH   3   4
ENDBRANCH   2   3
TORSDOF 15
ENDMDL
MODEL       40
REMARK 921   NORMALIZED FREE ENERGY PREDICTED BY IDOCK:   -4.21 KCAL/MOL
REMARK 922        TOTAL FREE ENERGY PREDICTED BY IDOCK:   -9.71 KCAL/MOL
REMARK 923 INTER-LIGAND FREE ENERGY PREDICTED BY IDOCK:   -6.78 KCAL/MOL
REMARK 924 INTRA-LIGAND FREE ENERGY PREDICTED BY IDOCK:   -2.93 KCAL/MOL
REMARK 927      BINDING AFFINITY PREDICTED BY RF-SCORE:    0.00 PKD
ROOT
HETATM    1  C   UNL     1     -12.584  12.102  63.500  1.00  0.00    -0.621 C  
HETATM    2  C   UNL     1     -11.082  11.941  63.644  1.00  0.00    -0.517 C  
ENDROOT
BRANCH   2   3
HETATM    3  C   UNL     1     -10.464  13.145  64.351  1.00  0.00    -0.427 C  
BRANCH   3   4
HETATM    4  C   UNL     1     -11.469  14.286  64.472  1.00  0.00    -0.363 C  
BRANCH   4   5
HETATM    5  C   UNL     1     -11.571  14.766  65.916  1.00  0.00    -0.286 C  
BRANCH   5   6
HETATM    6  C   UNL     1     -12.277  13.730  66.785  1.00  0.00    -0.440 C  
BRANCH   6   7
HETATM    7  C   UNL     1     -11.956  13.953  68.257  1.00  0.00    -0.392 C  
BRANCH   7   8
HETATM    8  C   UNL     1     -11.191  12.765  68.829  1.00  0.00    -0.327 C  
BRANCH   8   9
HETATM    9  C   UNL     1     -11.127  11.629  67.816  1.00  0.00    -0.309 C  
BRANCH   9  10
HETATM   10  C   UNL     1      -9.681  11.231  67.543  1.00  0.00    -0.192 C  
BRANCH  10  11
HETATM   11  C   UNL     1      -8.717  12.223  68.187  1.00  0.00    -0.186 C  
BRANCH  11  12
HETATM   12  C   UNL     1      -8.048  13.086  67.127  1.00  0.00    -0.114 C  
BRANCH  12  13
HETATM   13  C   UNL     1      -7.554  14.397  67.726  1.00  0.00    -0.175 C  
BRANCH  13  14
HETATM   14  C   UNL     1      -8.500  15.539  67.371  1.00  0.00    -0.199 C  
BRANCH  14  15
HETATM   15  C   UNL     1      -9.026  16.230  68.626  1.00  0.00    -0.232 C  
BRANCH  15  16
HETATM   16  C   UNL     1     -10.124  17.231  68.271  1.00  0.00    -0.321 C  
BRANCH  16  17
HETATM   17  C   UNL     1      -9.533  18.560  67.809  1.00  0.00    -0.308 C  
HETATM   18  C   UNL     1      -9.903  18.866  66.376  1.00  0.00    -0.375 C  
HETATM   19  O   UNL     1     -10.586  18.160  65.652  1.00  0.00    -0.611 OA 
HETATM   20  O   UNL     1      -9.383  20.044  65.956  1.00  0.00    -0.383 OA 
ENDBRANCH  16  17
ENDBRANCH  15  16
ENDBRANCH  14  15
ENDBRANCH  13  14
ENDBRANCH  12  13
ENDBRANCH  11  12
ENDBRANCH  10  11
ENDBRANCH   9  10
ENDBRANCH   8   9
ENDBRANCH   7   8
ENDBRANCH   6   7
ENDBRANCH   5   6
ENDBRANCH   4   5
ENDBRANCH   3   4
ENDBRANCH   2   3
TORSDOF 15
ENDMDL
MODEL       41
REMARK 921   NORMALIZED FREE ENERGY PREDICTED BY IDOCK:   -4.21 KCAL/MOL
REMARK 922        TOTAL FREE ENERGY PREDICTED BY IDOCK:   -9.69 KCAL/MOL
REMARK 923 INTER-LIGAND FREE ENERGY PREDICTED BY IDOCK:   -7.45 KCAL/MOL
REMARK 924 INTRA-LIGAND FREE ENERGY PREDICTED BY IDOCK:   -2.25 KCAL/MOL
REMARK 927      BINDING AFFINITY PREDICTED BY RF-SCORE:    0.00 PKD
ROOT
HETATM    1  C   UNL     1      -6.655  19.545  68.553  1.00  0.00    -0.306 C  
HETATM    2  C   UNL     1      -6.451  18.832  67.228  1.00  0.00    -0.195 C  
ENDROOT
BRANCH   2   3
HETATM    3  C   UNL     1      -7.294  19.468  66.125  1.00  0.00    -0.292 C  
BRANCH   3   4
HETATM    4  C   UNL     1      -8.446  20.277  66.711  1.00  0.00    -0.326 C  
BRANCH   4   5
HETATM    5  C   UNL     1      -9.762  19.917  66.029  1.00  0.00    -0.469 C  
BRANCH   5   6
HETATM    6  C   UNL     1     -10.727  19.271  67.017  1.00  0.00    -0.565 C  
BRANCH   6   7
HETATM    7  C   UNL     1     -10.182  19.355  68.437  1.00  0.00    -0.516 C  
BRANCH   7   8
HETATM    8  C   UNL     1     -10.110  17.971  69.071  1.00  0.00    -0.301 C  
BRANCH   8   9
HETATM    9  C   UNL     1      -9.609  16.944  68.065  1.00  0.00    -0.247 C  
BRANCH   9  10
HETATM   10  C   UNL     1      -8.508  16.084  68.674  1.00  0.00    -0.208 C  
BRANCH  10  11
HETATM   11  C   UNL     1      -7.905  15.156  67.625  1.00  0.00    -0.178 C  
BRANCH  11  12
HETATM   12  C   UNL     1      -8.989  14.320  66.961  1.00  0.00    -0.251 C  
BRANCH  12  13
HETATM   13  C   UNL     1      -9.390  13.147  67.847  1.00  0.00    -0.215 C  
BRANCH  13  14
HETATM   14  C   UNL     1     -10.853  12.782  67.625  1.00  0.00    -0.252 C  
BRANCH  14  15
HETATM   15  C   UNL     1     -11.724  14.031  67.519  1.00  0.00    -0.421 C  
BRANCH  15  16
HETATM   16  C   UNL     1     -12.429  14.084  66.166  1.00  0.00    -0.467 C  
BRANCH  16  17
HETATM   17  C   UNL     1     -12.298  12.759  65.420  1.00  0.00    -0.528 C  
HETATM   18  C   UNL     1     -12.340  12.954  63.923  1.00  0.00    -0.396 C  
HETATM   19  O   UNL     1     -12.462  14.024  63.350  1.00  0.00    -0.826 OA 
HETATM   20  O   UNL     1     -12.224  11.783  63.252  1.00  0.00    -0.489 OA 
ENDBRANCH  16  17
ENDBRANCH  15  16
ENDBRANCH  14  15
ENDBRANCH  13  14
ENDBRANCH  12  13
ENDBRANCH  11  12
ENDBRANCH  10  11
ENDBRANCH   9  10
ENDBRANCH   8   9
ENDBRANCH   7   8
ENDBRANCH   6   7
ENDBRANCH   5   6
ENDBRANCH   4   5
ENDBRANCH   3   4
ENDBRANCH   2   3
TORSDOF 15
ENDMDL
MODEL       42
REMARK 921   NORMALIZED FREE ENERGY PREDICTED BY IDOCK:   -4.21 KCAL/MOL
REMARK 922        TOTAL FREE ENERGY PREDICTED BY IDOCK:   -9.69 KCAL/MOL
REMARK 923 INTER-LIGAND FREE ENERGY PREDICTED BY IDOCK:   -7.66 KCAL/MOL
REMARK 924 INTRA-LIGAND FREE ENERGY PREDICTED BY IDOCK:   -2.04 KCAL/MOL
REMARK 927      BINDING AFFINITY PREDICTED BY RF-SCORE:    0.00 PKD
ROOT
HETATM    1  C   UNL     1     -10.538   6.254  69.662  1.00  0.00    -0.323 C  
HETATM    2  C   UNL     1     -11.873   6.638  70.276  1.00  0.00    -0.378 C  
ENDROOT
BRANCH   2   3
HETATM    3  C   UNL     1     -11.699   7.122  71.714  1.00  0.00    -0.324 C  
BRANCH   3   4
HETATM    4  C   UNL     1     -10.993   8.474  71.756  1.00  0.00    -0.376 C  
BRANCH   4   5
HETATM    5  C   UNL     1     -11.952   9.596  71.373  1.00  0.00    -0.480 C  
BRANCH   5   6
HETATM    6  C   UNL     1     -11.398  10.409  70.207  1.00  0.00    -0.406 C  
BRANCH   6   7
HETATM    7  C   UNL     1      -9.975   9.978  69.877  1.00  0.00    -0.280 C  
BRANCH   7   8
HETATM    8  C   UNL     1      -9.748   9.969  68.370  1.00  0.00    -0.157 C  
BRANCH   8   9
HETATM    9  C   UNL     1     -11.024  10.351  67.632  1.00  0.00    -0.374 C  
BRANCH   9  10
HETATM   10  C   UNL     1     -10.708  11.226  66.425  1.00  0.00    -0.320 C  
BRANCH  10  11
HETATM   11  C   UNL     1      -9.572  12.194  66.743  1.00  0.00    -0.216 C  
BRANCH  11  12
HETATM   12  C   UNL     1     -10.119  13.582  67.046  1.00  0.00    -0.244 C  
BRANCH  12  13
HETATM   13  C   UNL     1      -9.976  13.910  68.527  1.00  0.00    -0.221 C  
BRANCH  13  14
HETATM   14  C   UNL     1     -11.346  14.106  69.167  1.00  0.00    -0.318 C  
BRANCH  14  15
HETATM   15  C   UNL     1     -11.471  15.494  69.789  1.00  0.00    -0.339 C  
BRANCH  15  16
HETATM   16  C   UNL     1     -12.620  15.534  70.794  1.00  0.00    -0.505 C  
BRANCH  16  17
HETATM   17  C   UNL     1     -12.122  15.881  72.193  1.00  0.00    -0.596 C  
HETATM   18  C   UNL     1     -12.692  14.949  73.236  1.00  0.00    -0.509 C  
HETATM   19  O   UNL     1     -13.459  14.025  73.019  1.00  0.00    -0.655 OA 
HETATM   20  O   UNL     1     -12.255  15.249  74.482  1.00  0.00    -0.634 OA 
ENDBRANCH  16  17
ENDBRANCH  15  16
ENDBRANCH  14  15
ENDBRANCH  13  14
ENDBRANCH  12  13
ENDBRANCH  11  12
ENDBRANCH  10  11
ENDBRANCH   9  10
ENDBRANCH   8   9
ENDBRANCH   7   8
ENDBRANCH   6   7
ENDBRANCH   5   6
ENDBRANCH   4   5
ENDBRANCH   3   4
ENDBRANCH   2   3
TORSDOF 15
ENDMDL
MODEL       43
REMARK 921   NORMALIZED FREE ENERGY PREDICTED BY IDOCK:   -4.21 KCAL/MOL
REMARK 922        TOTAL FREE ENERGY PREDICTED BY IDOCK:   -9.69 KCAL/MOL
REMARK 923 INTER-LIGAND FREE ENERGY PREDICTED BY IDOCK:   -7.74 KCAL/MOL
REMARK 924 INTRA-LIGAND FREE ENERGY PREDICTED BY IDOCK:   -1.94 KCAL/MOL
REMARK 927      BINDING AFFINITY PREDICTED BY RF-SCORE:    0.00 PKD
ROOT
HETATM    1  C   UNL     1     -13.435  15.178  72.699  1.00  0.00    -0.578 C  
HETATM    2  C   UNL     1     -13.614  14.684  71.275  1.00  0.00    -0.449 C  
ENDROOT
BRANCH   2   3
HETATM    3  C   UNL     1     -12.271  14.574  70.557  1.00  0.00    -0.399 C  
BRANCH   3   4
HETATM    4  C   UNL     1     -12.363  13.633  69.361  1.00  0.00    -0.199 C  
BRANCH   4   5
HETATM    5  C   UNL     1     -11.462  12.418  69.558  1.00  0.00    -0.309 C  
BRANCH   5   6
HETATM    6  C   UNL     1     -12.267  11.125  69.481  1.00  0.00    -0.347 C  
BRANCH   6   7
HETATM    7  C   UNL     1     -12.030  10.268  70.717  1.00  0.00    -0.456 C  
BRANCH   7   8
HETATM    8  C   UNL     1     -10.626   9.676  70.703  1.00  0.00    -0.386 C  
BRANCH   8   9
HETATM    9  C   UNL     1     -10.384   8.897  69.417  1.00  0.00    -0.217 C  
BRANCH   9  10
HETATM   10  C   UNL     1      -8.908   8.927  69.038  1.00  0.00    -0.136 C  
BRANCH  10  11
HETATM   11  C   UNL     1      -8.740   9.051  67.527  1.00  0.00    -0.121 C  
BRANCH  11  12
HETATM   12  C   UNL     1      -9.969   9.696  66.902  1.00  0.00    -0.272 C  
BRANCH  12  13
HETATM   13  C   UNL     1      -9.816   9.805  65.390  1.00  0.00    -0.365 C  
BRANCH  13  14
HETATM   14  C   UNL     1     -10.359  11.139  64.890  1.00  0.00    -0.375 C  
BRANCH  14  15
HETATM   15  C   UNL     1     -10.682  12.073  66.053  1.00  0.00    -0.317 C  
BRANCH  15  16
HETATM   16  C   UNL     1     -12.087  12.654  65.904  1.00  0.00    -0.459 C  
BRANCH  16  17
HETATM   17  C   UNL     1     -12.043  14.164  65.693  1.00  0.00    -0.425 C  
HETATM   18  C   UNL     1     -12.330  14.536  64.257  1.00  0.00    -0.369 C  
HETATM   19  O   UNL     1     -12.570  13.750  63.355  1.00  0.00    -0.842 OA 
HETATM   20  O   UNL     1     -12.293  15.875  64.060  1.00  0.00    -0.724 OA 
ENDBRANCH  16  17
ENDBRANCH  15  16
ENDBRANCH  14  15
ENDBRANCH  13  14
ENDBRANCH  12  13
ENDBRANCH  11  12
ENDBRANCH  10  11
ENDBRANCH   9  10
ENDBRANCH   8   9
ENDBRANCH   7   8
ENDBRANCH   6   7
ENDBRANCH   5   6
ENDBRANCH   4   5
ENDBRANCH   3   4
ENDBRANCH   2   3
TORSDOF 15
ENDMDL
MODEL       44
REMARK 921   NORMALIZED FREE ENERGY PREDICTED BY IDOCK:   -4.20 KCAL/MOL
REMARK 922        TOTAL FREE ENERGY PREDICTED BY IDOCK:   -9.69 KCAL/MOL
REMARK 923 INTER-LIGAND FREE ENERGY PREDICTED BY IDOCK:   -7.36 KCAL/MOL
REMARK 924 INTRA-LIGAND FREE ENERGY PREDICTED BY IDOCK:   -2.33 KCAL/MOL
REMARK 927      BINDING AFFINITY PREDICTED BY RF-SCORE:    0.00 PKD
ROOT
HETATM    1  C   UNL     1      -8.741  12.240  68.360  1.00  0.00    -0.139 C  
HETATM    2  C   UNL     1      -9.085  11.963  66.908  1.00  0.00    -0.196 C  
ENDROOT
BRANCH   2   3
HETATM    3  C   UNL     1     -10.175  10.900  66.793  1.00  0.00    -0.277 C  
BRANCH   3   4
HETATM    4  C   UNL     1     -10.261  10.353  65.372  1.00  0.00    -0.329 C  
BRANCH   4   5
HETATM    5  C   UNL     1      -9.433  11.203  64.414  1.00  0.00    -0.251 C  
BRANCH   5   6
HETATM    6  C   UNL     1     -10.226  11.531  63.154  1.00  0.00    -0.389 C  
BRANCH   6   7
HETATM    7  C   UNL     1     -11.715  11.619  63.463  1.00  0.00    -0.384 C  
BRANCH   7   8
HETATM    8  C   UNL     1     -12.137  13.067  63.684  1.00  0.00    -0.604 C  
BRANCH   8   9
HETATM    9  C   UNL     1     -12.692  13.256  65.090  1.00  0.00    -0.464 C  
BRANCH   9  10
HETATM   10  C   UNL     1     -11.831  14.231  65.883  1.00  0.00    -0.386 C  
BRANCH  10  11
HETATM   11  C   UNL     1     -11.039  15.138  64.947  1.00  0.00    -0.425 C  
BRANCH  11  12
HETATM   12  C   UNL     1     -10.290  16.202  65.736  1.00  0.00    -0.398 C  
BRANCH  12  13
HETATM   13  C   UNL     1      -9.568  15.587  66.928  1.00  0.00    -0.241 C  
BRANCH  13  14
HETATM   14  C   UNL     1      -9.799  16.420  68.184  1.00  0.00    -0.238 C  
BRANCH  14  15
HETATM   15  C   UNL     1     -11.205  16.207  68.737  1.00  0.00    -0.365 C  
BRANCH  15  16
HETATM   16  C   UNL     1     -11.154  15.442  70.058  1.00  0.00    -0.317 C  
BRANCH  16  17
HETATM   17  C   UNL     1     -12.550  15.261  70.647  1.00  0.00    -0.471 C  
HETATM   18  C   UNL     1     -12.653  15.860  72.031  1.00  0.00    -0.452 C  
HETATM   19  O   UNL     1     -11.752  16.423  72.630  1.00  0.00    -0.501 OA 
HETATM   20  O   UNL     1     -13.889  15.704  72.562  1.00  0.00    -0.534 OA 
ENDBRANCH  16  17
ENDBRANCH  15  16
ENDBRANCH  14  15
ENDBRANCH  13  14
ENDBRANCH  12  13
ENDBRANCH  11  12
ENDBRANCH  10  11
ENDBRANCH   9  10
ENDBRANCH   8   9
ENDBRANCH   7   8
ENDBRANCH   6   7
ENDBRANCH   5   6
ENDBRANCH   4   5
ENDBRANCH   3   4
ENDBRANCH   2   3
TORSDOF 15
ENDMDL
MODEL       45
REMARK 921   NORMALIZED FREE ENERGY PREDICTED BY IDOCK:   -4.20 KCAL/MOL
REMARK 922        TOTAL FREE ENERGY PREDICTED BY IDOCK:   -9.69 KCAL/MOL
REMARK 923 INTER-LIGAND FREE ENERGY PREDICTED BY IDOCK:   -7.16 KCAL/MOL
REMARK 924 INTRA-LIGAND FREE ENERGY PREDICTED BY IDOCK:   -2.52 KCAL/MOL
REMARK 927      BINDING AFFINITY PREDICTED BY RF-SCORE:    0.00 PKD
ROOT
HETATM    1  C   UNL     1     -11.091  11.985  63.642  1.00  0.00    -0.525 C  
HETATM    2  C   UNL     1     -12.280  12.877  63.332  1.00  0.00    -0.574 C  
ENDROOT
BRANCH   2   3
HETATM    3  C   UNL     1     -12.348  14.058  64.296  1.00  0.00    -0.393 C  
BRANCH   3   4
HETATM    4  C   UNL     1     -11.439  13.838  65.501  1.00  0.00    -0.319 C  
BRANCH   4   5
HETATM    5  C   UNL     1     -12.258  13.719  66.782  1.00  0.00    -0.440 C  
BRANCH   5   6
HETATM    6  C   UNL     1     -11.835  12.493  67.586  1.00  0.00    -0.381 C  
BRANCH   6   7
HETATM    7  C   UNL     1     -10.421  12.067  67.213  1.00  0.00    -0.241 C  
BRANCH   7   8
HETATM    8  C   UNL     1      -9.432  12.468  68.301  1.00  0.00    -0.201 C  
BRANCH   8   9
HETATM    9  C   UNL     1      -8.562  13.628  67.835  1.00  0.00    -0.181 C  
BRANCH   9  10
HETATM   10  C   UNL     1      -8.745  14.838  68.743  1.00  0.00    -0.178 C  
BRANCH  10  11
HETATM   11  C   UNL     1      -9.562  15.919  68.044  1.00  0.00    -0.211 C  
BRANCH  11  12
HETATM   12  C   UNL     1     -10.681  16.416  68.948  1.00  0.00    -0.319 C  
BRANCH  12  13
HETATM   13  C   UNL     1     -10.857  15.495  70.149  1.00  0.00    -0.346 C  
BRANCH  13  14
HETATM   14  C   UNL     1     -12.310  15.490  70.613  1.00  0.00    -0.462 C  
BRANCH  14  15
HETATM   15  C   UNL     1     -12.549  14.413  71.667  1.00  0.00    -0.429 C  
BRANCH  15  16
HETATM   16  C   UNL     1     -12.423  13.020  71.052  1.00  0.00    -0.385 C  
BRANCH  16  17
HETATM   17  C   UNL     1     -13.145  11.975  71.896  1.00  0.00    -0.475 C  
HETATM   18  C   UNL     1     -12.998  10.588  71.313  1.00  0.00    -0.433 C  
HETATM   19  O   UNL     1     -12.386  10.307  70.297  1.00  0.00    -0.259 OA 
HETATM   20  O   UNL     1     -13.637   9.653  72.056  1.00  0.00    -0.408 OA 
ENDBRANCH  16  17
ENDBRANCH  15  16
ENDBRANCH  14  15
ENDBRANCH  13  14
ENDBRANCH  12  13
ENDBRANCH  11  12
ENDBRANCH  10  11
ENDBRANCH   9  10
ENDBRANCH   8   9
ENDBRANCH   7   8
ENDBRANCH   6   7
ENDBRANCH   5   6
ENDBRANCH   4   5
ENDBRANCH   3   4
ENDBRANCH   2   3
TORSDOF 15
ENDMDL
MODEL       46
REMARK 921   NORMALIZED FREE ENERGY PREDICTED BY IDOCK:   -4.20 KCAL/MOL
REMARK 922        TOTAL FREE ENERGY PREDICTED BY IDOCK:   -9.68 KCAL/MOL
REMARK 923 INTER-LIGAND FREE ENERGY PREDICTED BY IDOCK:   -8.05 KCAL/MOL
REMARK 924 INTRA-LIGAND FREE ENERGY PREDICTED BY IDOCK:   -1.62 KCAL/MOL
REMARK 927      BINDING AFFINITY PREDICTED BY RF-SCORE:    0.00 PKD
ROOT
HETATM    1  C   UNL     1      -8.838  10.287  63.752  1.00  0.00    -0.234 C  
HETATM    2  C   UNL     1      -9.612  11.592  63.784  1.00  0.00    -0.210 C  
ENDROOT
BRANCH   2   3
HETATM    3  C   UNL     1     -11.113  11.339  63.908  1.00  0.00    -0.317 C  
BRANCH   3   4
HETATM    4  C   UNL     1     -11.914  12.554  63.451  1.00  0.00    -0.602 C  
BRANCH   4   5
HETATM    5  C   UNL     1     -11.659  13.747  64.367  1.00  0.00    -0.418 C  
BRANCH   5   6
HETATM    6  C   UNL     1     -12.740  13.851  65.438  1.00  0.00    -0.525 C  
BRANCH   6   7
HETATM    7  C   UNL     1     -12.143  14.309  66.763  1.00  0.00    -0.446 C  
BRANCH   7   8
HETATM    8  C   UNL     1     -11.056  13.347  67.226  1.00  0.00    -0.300 C  
BRANCH   8   9
HETATM    9  C   UNL     1     -10.359  13.883  68.470  1.00  0.00    -0.244 C  
BRANCH   9  10
HETATM   10  C   UNL     1     -11.158  15.027  69.084  1.00  0.00    -0.278 C  
BRANCH  10  11
HETATM   11  C   UNL     1     -10.792  15.213  70.553  1.00  0.00    -0.230 C  
BRANCH  11  12
HETATM   12  C   UNL     1     -11.731  16.209  71.219  1.00  0.00    -0.480 C  
BRANCH  12  13
HETATM   13  C   UNL     1     -12.257  15.661  72.539  1.00  0.00    -0.539 C  
BRANCH  13  14
HETATM   14  C   UNL     1     -13.771  15.485  72.483  1.00  0.00    -0.668 C  
BRANCH  14  15
HETATM   15  C   UNL     1     -14.153  14.252  71.669  1.00  0.00    -0.471 C  
BRANCH  15  16
HETATM   16  C   UNL     1     -13.511  12.998  72.257  1.00  0.00    -0.645 C  
BRANCH  16  17
HETATM   17  C   UNL     1     -12.711  12.238  71.203  1.00  0.00    -0.340 C  
HETATM   18  C   UNL     1     -12.851  10.743  71.366  1.00  0.00    -0.452 C  
HETATM   19  O   UNL     1     -13.512  10.181  72.224  1.00  0.00    -0.398 OA 
HETATM   20  O   UNL     1     -12.145  10.060  70.434  1.00  0.00    -0.258 OA 
ENDBRANCH  16  17
ENDBRANCH  15  16
ENDBRANCH  14  15
ENDBRANCH  13  14
ENDBRANCH  12  13
ENDBRANCH  11  12
ENDBRANCH  10  11
ENDBRANCH   9  10
ENDBRANCH   8   9
ENDBRANCH   7   8
ENDBRANCH   6   7
ENDBRANCH   5   6
ENDBRANCH   4   5
ENDBRANCH   3   4
ENDBRANCH   2   3
TORSDOF 15
ENDMDL
MODEL       47
REMARK 921   NORMALIZED FREE ENERGY PREDICTED BY IDOCK:   -4.19 KCAL/MOL
REMARK 922        TOTAL FREE ENERGY PREDICTED BY IDOCK:   -9.67 KCAL/MOL
REMARK 923 INTER-LIGAND FREE ENERGY PREDICTED BY IDOCK:   -7.48 KCAL/MOL
REMARK 924 INTRA-LIGAND FREE ENERGY PREDICTED BY IDOCK:   -2.19 KCAL/MOL
REMARK 927      BINDING AFFINITY PREDICTED BY RF-SCORE:    0.00 PKD
ROOT
HETATM    1  C   UNL     1     -10.484   7.887  67.113  1.00  0.00    -0.414 C  
HETATM    2  C   UNL     1     -10.567   9.240  67.796  1.00  0.00    -0.307 C  
ENDROOT
BRANCH   2   3
HETATM    3  C   UNL     1      -9.219   9.641  68.390  1.00  0.00    -0.133 C  
BRANCH   3   4
HETATM    4  C   UNL     1      -9.219   9.486  69.907  1.00  0.00    -0.242 C  
BRANCH   4   5
HETATM    5  C   UNL     1      -8.808   8.071  70.305  1.00  0.00    -0.145 C  
BRANCH   5   6
HETATM    6  C   UNL     1      -9.987   7.313  70.907  1.00  0.00    -0.186 C  
BRANCH   6   7
HETATM    7  C   UNL     1     -10.168   7.678  72.375  1.00  0.00    -0.282 C  
BRANCH   7   8
HETATM    8  C   UNL     1     -11.591   8.157  72.641  1.00  0.00    -0.441 C  
BRANCH   8   9
HETATM    9  C   UNL     1     -12.406   8.159  71.355  1.00  0.00    -0.323 C  
BRANCH   9  10
HETATM   10  C   UNL     1     -13.247   9.426  71.253  1.00  0.00    -0.364 C  
BRANCH  10  11
HETATM   11  C   UNL     1     -12.402  10.597  70.761  1.00  0.00    -0.472 C  
BRANCH  11  12
HETATM   12  C   UNL     1     -12.733  11.862  71.539  1.00  0.00    -0.379 C  
BRANCH  12  13
HETATM   13  C   UNL     1     -12.425  13.104  70.713  1.00  0.00    -0.389 C  
BRANCH  13  14
HETATM   14  C   UNL     1     -11.555  12.748  69.512  1.00  0.00    -0.342 C  
BRANCH  14  15
HETATM   15  C   UNL     1     -12.022  13.479  68.256  1.00  0.00    -0.377 C  
BRANCH  15  16
HETATM   16  C   UNL     1     -11.091  13.184  67.083  1.00  0.00    -0.305 C  
BRANCH  16  17
HETATM   17  C   UNL     1     -11.749  12.245  66.076  1.00  0.00    -0.451 C  
HETATM   18  C   UNL     1     -12.656  12.992  65.126  1.00  0.00    -0.469 C  
HETATM   19  O   UNL     1     -12.859  14.195  65.137  1.00  0.00    -0.686 OA 
HETATM   20  O   UNL     1     -13.245  12.167  64.228  1.00  0.00    -0.768 OA 
ENDBRANCH  16  17
ENDBRANCH  15  16
ENDBRANCH  14  15
ENDBRANCH  13  14
ENDBRANCH  12  13
ENDBRANCH  11  12
ENDBRANCH  10  11
ENDBRANCH   9  10
ENDBRANCH   8   9
ENDBRANCH   7   8
ENDBRANCH   6   7
ENDBRANCH   5   6
ENDBRANCH   4   5
ENDBRANCH   3   4
ENDBRANCH   2   3
TORSDOF 15
ENDMDL
MODEL       48
REMARK 921   NORMALIZED FREE ENERGY PREDICTED BY IDOCK:   -4.19 KCAL/MOL
REMARK 922        TOTAL FREE ENERGY PREDICTED BY IDOCK:   -9.65 KCAL/MOL
REMARK 923 INTER-LIGAND FREE ENERGY PREDICTED BY IDOCK:   -8.15 KCAL/MOL
REMARK 924 INTRA-LIGAND FREE ENERGY PREDICTED BY IDOCK:   -1.51 KCAL/MOL
REMARK 927      BINDING AFFINITY PREDICTED BY RF-SCORE:    0.00 PKD
ROOT
HETATM    1  C   UNL     1     -11.047   6.121  69.531  1.00  0.00    -0.490 C  
HETATM    2  C   UNL     1     -11.468   6.519  70.934  1.00  0.00    -0.408 C  
ENDROOT
BRANCH   2   3
HETATM    3  C   UNL     1     -10.323   7.201  71.679  1.00  0.00    -0.215 C  
BRANCH   3   4
HETATM    4  C   UNL     1     -10.772   8.529  72.279  1.00  0.00    -0.411 C  
BRANCH   4   5
HETATM    5  C   UNL     1     -11.032   9.558  71.183  1.00  0.00    -0.438 C  
BRANCH   5   6
HETATM    6  C   UNL     1     -12.420  10.171  71.331  1.00  0.00    -0.524 C  
BRANCH   6   7
HETATM    7  C   UNL     1     -12.390  11.659  71.006  1.00  0.00    -0.405 C  
BRANCH   7   8
HETATM    8  C   UNL     1     -12.900  12.480  72.184  1.00  0.00    -0.189 C  
BRANCH   8   9
HETATM    9  C   UNL     1     -13.293  13.881  71.732  1.00  0.00    -0.461 C  
BRANCH   9  10
HETATM   10  C   UNL     1     -12.055  14.744  71.516  1.00  0.00    -0.411 C  
BRANCH  10  11
HETATM   11  C   UNL     1     -12.116  15.444  70.162  1.00  0.00    -0.400 C  
BRANCH  11  12
HETATM   12  C   UNL     1     -11.302  14.681  69.126  1.00  0.00    -0.305 C  
BRANCH  12  13
HETATM   13  C   UNL     1     -12.215  13.961  68.142  1.00  0.00    -0.185 C  
BRANCH  13  14
HETATM   14  C   UNL     1     -11.500  12.764  67.523  1.00  0.00    -0.390 C  
BRANCH  14  15
HETATM   15  C   UNL     1     -10.168  13.178  66.902  1.00  0.00    -0.245 C  
BRANCH  15  16
HETATM   16  C   UNL     1     -10.291  13.282  65.384  1.00  0.00    -0.316 C  
BRANCH  16  17
HETATM   17  C   UNL     1     -10.490  14.729  64.942  1.00  0.00    -0.398 C  
HETATM   18  C   UNL     1     -11.887  14.965  64.417  1.00  0.00    -0.360 C  
HETATM   19  O   UNL     1     -12.769  14.125  64.342  1.00  0.00    -0.667 OA 
HETATM   20  O   UNL     1     -12.073  16.247  64.022  1.00  0.00    -0.928 OA 
ENDBRANCH  16  17
ENDBRANCH  15  16
ENDBRANCH  14  15
ENDBRANCH  13  14
ENDBRANCH  12  13
ENDBRANCH  11  12
ENDBRANCH  10  11
ENDBRANCH   9  10
ENDBRANCH   8   9
ENDBRANCH   7   8
ENDBRANCH   6   7
ENDBRANCH   5   6
ENDBRANCH   4   5
ENDBRANCH   3   4
ENDBRANCH   2   3
TORSDOF 15
ENDMDL
MODEL       49
REMARK 921   NORMALIZED FREE ENERGY PREDICTED BY IDOCK:   -4.18 KCAL/MOL
REMARK 922        TOTAL FREE ENERGY PREDICTED BY IDOCK:   -9.65 KCAL/MOL
REMARK 923 INTER-LIGAND FREE ENERGY PREDICTED BY IDOCK:   -8.03 KCAL/MOL
REMARK 924 INTRA-LIGAND FREE ENERGY PREDICTED BY IDOCK:   -1.62 KCAL/MOL
REMARK 927      BINDING AFFINITY PREDICTED BY RF-SCORE:    0.00 PKD
ROOT
HETATM    1  C   UNL     1     -12.039  14.892  64.487  1.00  0.00    -0.420 C  
HETATM    2  C   UNL     1     -12.687  13.950  65.485  1.00  0.00    -0.536 C  
ENDROOT
BRANCH   2   3
HETATM    3  C   UNL     1     -12.467  12.492  65.090  1.00  0.00    -0.451 C  
BRANCH   3   4
HETATM    4  C   UNL     1     -11.769  12.389  63.738  1.00  0.00    -0.566 C  
BRANCH   4   5
HETATM    5  C   UNL     1     -10.532  11.501  63.834  1.00  0.00    -0.439 C  
BRANCH   5   6
HETATM    6  C   UNL     1     -10.240  11.131  65.285  1.00  0.00    -0.337 C  
BRANCH   6   7
HETATM    7  C   UNL     1      -9.320   9.920  65.357  1.00  0.00    -0.297 C  
BRANCH   7   8
HETATM    8  C   UNL     1      -9.910   8.845  66.263  1.00  0.00    -0.355 C  
BRANCH   8   9
HETATM    9  C   UNL     1     -10.764   9.474  67.356  1.00  0.00    -0.297 C  
BRANCH   9  10
HETATM   10  C   UNL     1     -10.139   9.244  68.727  1.00  0.00    -0.210 C  
BRANCH  10  11
HETATM   11  C   UNL     1     -10.415  10.426  69.650  1.00  0.00    -0.279 C  
BRANCH  11  12
HETATM   12  C   UNL     1     -11.628  11.211  69.170  1.00  0.00    -0.393 C  
BRANCH  12  13
HETATM   13  C   UNL     1     -11.692  12.577  69.842  1.00  0.00    -0.327 C  
BRANCH  13  14
HETATM   14  C   UNL     1     -12.035  13.660  68.825  1.00  0.00    -0.394 C  
BRANCH  14  15
HETATM   15  C   UNL     1     -11.948  15.050  69.449  1.00  0.00    -0.336 C  
BRANCH  15  16
HETATM   16  C   UNL     1     -13.097  15.274  70.430  1.00  0.00    -0.240 C  
BRANCH  16  17
HETATM   17  C   UNL     1     -12.578  15.573  71.833  1.00  0.00    -0.478 C  
HETATM   18  C   UNL     1     -13.186  14.648  72.862  1.00  0.00    -0.512 C  
HETATM   19  O   UNL     1     -13.994  13.764  72.632  1.00  0.00    -0.710 OA 
HETATM   20  O   UNL     1     -12.731  14.906  74.111  1.00  0.00    -0.457 OA 
ENDBRANCH  16  17
ENDBRANCH  15  16
ENDBRANCH  14  15
ENDBRANCH  13  14
ENDBRANCH  12  13
ENDBRANCH  11  12
ENDBRANCH  10  11
ENDBRANCH   9  10
ENDBRANCH   8   9
ENDBRANCH   7   8
ENDBRANCH   6   7
ENDBRANCH   5   6
ENDBRANCH   4   5
ENDBRANCH   3   4
ENDBRANCH   2   3
TORSDOF 15
ENDMDL
MODEL       50
REMARK 921   NORMALIZED FREE ENERGY PREDICTED BY IDOCK:   -4.18 KCAL/MOL
REMARK 922        TOTAL FREE ENERGY PREDICTED BY IDOCK:   -9.65 KCAL/MOL
REMARK 923 INTER-LIGAND FREE ENERGY PREDICTED BY IDOCK:   -8.00 KCAL/MOL
REMARK 924 INTRA-LIGAND FREE ENERGY PREDICTED BY IDOCK:   -1.65 KCAL/MOL
REMARK 927      BINDING AFFINITY PREDICTED BY RF-SCORE:    0.00 PKD
ROOT
HETATM    1  C   UNL     1     -12.531  15.712  74.441  1.00  0.00    -0.790 C  
HETATM    2  C   UNL     1     -12.786  14.762  73.285  1.00  0.00    -0.621 C  
ENDROOT
BRANCH   2   3
HETATM    3  C   UNL     1     -13.753  15.374  72.274  1.00  0.00    -0.629 C  
BRANCH   3   4
HETATM    4  C   UNL     1     -13.297  15.104  70.844  1.00  0.00    -0.463 C  
BRANCH   4   5
HETATM    5  C   UNL     1     -12.395  13.875  70.787  1.00  0.00    -0.449 C  
BRANCH   5   6
HETATM    6  C   UNL     1     -12.024  13.540  69.347  1.00  0.00    -0.383 C  
BRANCH   6   7
HETATM    7  C   UNL     1     -11.714  14.807  68.561  1.00  0.00    -0.347 C  
BRANCH   7   8
HETATM    8  C   UNL     1     -11.683  14.522  67.064  1.00  0.00    -0.412 C  
BRANCH   8   9
HETATM    9  C   UNL     1     -11.471  13.036  66.805  1.00  0.00    -0.392 C  
BRANCH   9  10
HETATM   10  C   UNL     1     -10.121  12.792  66.142  1.00  0.00    -0.274 C  
BRANCH  10  11
HETATM   11  C   UNL     1      -9.467  11.531  66.696  1.00  0.00    -0.208 C  
BRANCH  11  12
HETATM   12  C   UNL     1     -10.344  10.898  67.767  1.00  0.00    -0.218 C  
BRANCH  12  13
HETATM   13  C   UNL     1      -9.568  10.712  69.065  1.00  0.00    -0.207 C  
BRANCH  13  14
HETATM   14  C   UNL     1     -10.299   9.748  69.994  1.00  0.00    -0.307 C  
BRANCH  14  15
HETATM   15  C   UNL     1     -11.716  10.233  70.288  1.00  0.00    -0.388 C  
BRANCH  15  16
HETATM   16  C   UNL     1     -12.204   9.693  71.630  1.00  0.00    -0.484 C  
BRANCH  16  17
HETATM   17  C   UNL     1     -11.544   8.359  71.963  1.00  0.00    -0.418 C  
HETATM   18  C   UNL     1     -12.523   7.212  71.864  1.00  0.00    -0.306 C  
HETATM   19  O   UNL     1     -13.701   7.308  71.559  1.00  0.00    -0.390 OA 
HETATM   20  O   UNL     1     -11.946   6.022  72.158  1.00  0.00    -0.309 OA 
ENDBRANCH  16  17
ENDBRANCH  15  16
ENDBRANCH  14  15
ENDBRANCH  13  14
ENDBRANCH  12  13
ENDBRANCH  11  12
ENDBRANCH  10  11
ENDBRANCH   9  10
ENDBRANCH   8   9
ENDBRANCH   7   8
ENDBRANCH   6   7
ENDBRANCH   5   6
ENDBRANCH   4   5
ENDBRANCH   3   4
ENDBRANCH   2   3
TORSDOF 15
ENDMDL
MODEL       51
REMARK 921   NORMALIZED FREE ENERGY PREDICTED BY IDOCK:   -4.17 KCAL/MOL
REMARK 922        TOTAL FREE ENERGY PREDICTED BY IDOCK:   -9.63 KCAL/MOL
REMARK 923 INTER-LIGAND FREE ENERGY PREDICTED BY IDOCK:   -7.93 KCAL/MOL
REMARK 924 INTRA-LIGAND FREE ENERGY PREDICTED BY IDOCK:   -1.69 KCAL/MOL
REMARK 927      BINDING AFFINITY PREDICTED BY RF-SCORE:    0.00 PKD
ROOT
HETATM    1  C   UNL     1     -11.974  13.260  63.953  1.00  0.00    -0.541 C  
HETATM    2  C   UNL     1     -12.655  12.635  65.158  1.00  0.00    -0.459 C  
ENDROOT
BRANCH   2   3
HETATM    3  C   UNL     1     -11.638  12.275  66.239  1.00  0.00    -0.446 C  
BRANCH   3   4
HETATM    4  C   UNL     1     -11.781  13.188  67.452  1.00  0.00    -0.419 C  
BRANCH   4   5
HETATM    5  C   UNL     1     -10.412  13.539  68.029  1.00  0.00    -0.245 C  
BRANCH   5   6
HETATM    6  C   UNL     1     -10.550  14.480  69.221  1.00  0.00    -0.224 C  
BRANCH   6   7
HETATM    7  C   UNL     1     -11.771  15.377  69.061  1.00  0.00    -0.380 C  
BRANCH   7   8
HETATM    8  C   UNL     1     -12.453  15.605  70.405  1.00  0.00    -0.409 C  
BRANCH   8   9
HETATM    9  C   UNL     1     -12.145  14.463  71.365  1.00  0.00    -0.397 C  
BRANCH   9  10
HETATM   10  C   UNL     1     -13.426  13.929  71.996  1.00  0.00    -0.543 C  
BRANCH  10  11
HETATM   11  C   UNL     1     -13.398  12.406  72.068  1.00  0.00    -0.511 C  
BRANCH  11  12
HETATM   12  C   UNL     1     -12.483  11.835  70.993  1.00  0.00    -0.411 C  
BRANCH  12  13
HETATM   13  C   UNL     1     -12.781  10.360  70.755  1.00  0.00    -0.460 C  
BRANCH  13  14
HETATM   14  C   UNL     1     -13.337   9.713  72.019  1.00  0.00    -0.547 C  
BRANCH  14  15
HETATM   15  C   UNL     1     -13.458   8.200  71.858  1.00  0.00    -0.354 C  
BRANCH  15  16
HETATM   16  C   UNL     1     -12.125   7.596  71.422  1.00  0.00    -0.342 C  
BRANCH  16  17
HETATM   17  C   UNL     1     -11.084   7.693  72.532  1.00  0.00    -0.388 C  
HETATM   18  C   UNL     1      -9.883   8.504  72.102  1.00  0.00    -0.318 C  
HETATM   19  O   UNL     1      -9.735   9.029  71.011  1.00  0.00    -0.229 OA 
HETATM   20  O   UNL     1      -8.953   8.595  73.081  1.00  0.00    -0.310 OA 
ENDBRANCH  16  17
ENDBRANCH  15  16
ENDBRANCH  14  15
ENDBRANCH  13  14
ENDBRANCH  12  13
ENDBRANCH  11  12
ENDBRANCH  10  11
ENDBRANCH   9  10
ENDBRANCH   8   9
ENDBRANCH   7   8
ENDBRANCH   6   7
ENDBRANCH   5   6
ENDBRANCH   4   5
ENDBRANCH   3   4
ENDBRANCH   2   3
TORSDOF 15
ENDMDL
MODEL       52
REMARK 921   NORMALIZED FREE ENERGY PREDICTED BY IDOCK:   -4.17 KCAL/MOL
REMARK 922        TOTAL FREE ENERGY PREDICTED BY IDOCK:   -9.62 KCAL/MOL
REMARK 923 INTER-LIGAND FREE ENERGY PREDICTED BY IDOCK:   -7.11 KCAL/MOL
REMARK 924 INTRA-LIGAND FREE ENERGY PREDICTED BY IDOCK:   -2.51 KCAL/MOL
REMARK 927      BINDING AFFINITY PREDICTED BY RF-SCORE:    0.00 PKD
ROOT
HETATM    1  C   UNL     1     -11.872  13.101  63.962  1.00  0.00    -0.514 C  
HETATM    2  C   UNL     1     -12.768  13.682  65.041  1.00  0.00    -0.384 C  
ENDROOT
BRANCH   2   3
HETATM    3  C   UNL     1     -12.177  13.453  66.430  1.00  0.00    -0.435 C  
BRANCH   3   4
HETATM    4  C   UNL     1     -11.055  12.420  66.385  1.00  0.00    -0.343 C  
BRANCH   4   5
HETATM    5  C   UNL     1     -10.711  11.935  67.790  1.00  0.00    -0.243 C  
BRANCH   5   6
HETATM    6  C   UNL     1     -11.974  11.571  68.564  1.00  0.00    -0.293 C  
BRANCH   6   7
HETATM    7  C   UNL     1     -11.835  11.952  70.032  1.00  0.00    -0.407 C  
BRANCH   7   8
HETATM    8  C   UNL     1     -12.862  11.214  70.882  1.00  0.00    -0.374 C  
BRANCH   8   9
HETATM    9  C   UNL     1     -13.196  12.012  72.135  1.00  0.00    -0.400 C  
BRANCH   9  10
HETATM   10  C   UNL     1     -13.654  13.419  71.772  1.00  0.00    -0.407 C  
BRANCH  10  11
HETATM   11  C   UNL     1     -12.933  14.459  72.625  1.00  0.00    -0.533 C  
BRANCH  11  12
HETATM   12  C   UNL     1     -12.413  15.597  71.758  1.00  0.00    -0.507 C  
BRANCH  12  13
HETATM   13  C   UNL     1     -12.951  15.486  70.337  1.00  0.00    -0.252 C  
BRANCH  13  14
HETATM   14  C   UNL     1     -11.821  15.632  69.323  1.00  0.00    -0.378 C  
BRANCH  14  15
HETATM   15  C   UNL     1     -10.460  15.423  69.980  1.00  0.00    -0.301 C  
BRANCH  15  16
HETATM   16  C   UNL     1      -9.399  15.096  68.932  1.00  0.00    -0.207 C  
BRANCH  16  17
HETATM   17  C   UNL     1      -9.676  15.819  67.618  1.00  0.00    -0.222 C  
HETATM   18  C   UNL     1      -8.397  16.200  66.909  1.00  0.00    -0.236 C  
HETATM   19  O   UNL     1      -7.268  15.972  67.312  1.00  0.00    -0.166 OA 
HETATM   20  O   UNL     1      -8.633  16.843  65.741  1.00  0.00    -0.505 OA 
ENDBRANCH  16  17
ENDBRANCH  15  16
ENDBRANCH  14  15
ENDBRANCH  13  14
ENDBRANCH  12  13
ENDBRANCH  11  12
ENDBRANCH  10  11
ENDBRANCH   9  10
ENDBRANCH   8   9
ENDBRANCH   7   8
ENDBRANCH   6   7
ENDBRANCH   5   6
ENDBRANCH   4   5
ENDBRANCH   3   4
ENDBRANCH   2   3
TORSDOF 15
ENDMDL
MODEL       53
REMARK 921   NORMALIZED FREE ENERGY PREDICTED BY IDOCK:   -4.17 KCAL/MOL
REMARK 922        TOTAL FREE ENERGY PREDICTED BY IDOCK:   -9.62 KCAL/MOL
REMARK 923 INTER-LIGAND FREE ENERGY PREDICTED BY IDOCK:   -6.54 KCAL/MOL
REMARK 924 INTRA-LIGAND FREE ENERGY PREDICTED BY IDOCK:   -3.08 KCAL/MOL
REMARK 927      BINDING AFFINITY PREDICTED BY RF-SCORE:    0.00 PKD
ROOT
HETATM    1  C   UNL     1     -10.645  11.343  63.588  1.00  0.00    -0.476 C  
HETATM    2  C   UNL     1     -11.653  12.475  63.496  1.00  0.00    -0.584 C  
ENDROOT
BRANCH   2   3
HETATM    3  C   UNL     1     -12.518  12.545  64.752  1.00  0.00    -0.532 C  
BRANCH   3   4
HETATM    4  C   UNL     1     -12.498  13.946  65.354  1.00  0.00    -0.528 C  
BRANCH   4   5
HETATM    5  C   UNL     1     -11.253  14.708  64.912  1.00  0.00    -0.400 C  
BRANCH   5   6
HETATM    6  C   UNL     1     -10.421  15.136  66.117  1.00  0.00    -0.320 C  
BRANCH   6   7
HETATM    7  C   UNL     1     -11.286  15.211  67.369  1.00  0.00    -0.309 C  
BRANCH   7   8
HETATM    8  C   UNL     1     -10.434  15.504  68.598  1.00  0.00    -0.237 C  
BRANCH   8   9
HETATM    9  C   UNL     1     -11.041  14.862  69.839  1.00  0.00    -0.288 C  
BRANCH   9  10
HETATM   10  C   UNL     1     -12.100  13.837  69.451  1.00  0.00    -0.377 C  
BRANCH  10  11
HETATM   11  C   UNL     1     -12.095  12.662  70.425  1.00  0.00    -0.381 C  
BRANCH  11  12
HETATM   12  C   UNL     1     -11.753  11.367  69.703  1.00  0.00    -0.415 C  
BRANCH  12  13
HETATM   13  C   UNL     1     -11.768  11.567  68.193  1.00  0.00    -0.357 C  
BRANCH  13  14
HETATM   14  C   UNL     1     -10.643  10.776  67.535  1.00  0.00    -0.280 C  
BRANCH  14  15
HETATM   15  C   UNL     1      -9.595  11.707  66.930  1.00  0.00    -0.199 C  
BRANCH  15  16
HETATM   16  C   UNL     1      -8.657  12.238  68.011  1.00  0.00    -0.176 C  
BRANCH  16  17
HETATM   17  C   UNL     1      -7.383  12.816  67.403  1.00  0.00    -0.135 C  
HETATM   18  C   UNL     1      -6.337  11.750  67.178  1.00  0.00    -0.145 C  
HETATM   19  O   UNL     1      -6.463  10.565  67.440  1.00  0.00    -0.060 OA 
HETATM   20  O   UNL     1      -5.202  12.254  66.639  1.00  0.00    -0.338 OA 
ENDBRANCH  16  17
ENDBRANCH  15  16
ENDBRANCH  14  15
ENDBRANCH  13  14
ENDBRANCH  12  13
ENDBRANCH  11  12
ENDBRANCH  10  11
ENDBRANCH   9  10
ENDBRANCH   8   9
ENDBRANCH   7   8
ENDBRANCH   6   7
ENDBRANCH   5   6
ENDBRANCH   4   5
ENDBRANCH   3   4
ENDBRANCH   2   3
TORSDOF 15
ENDMDL
MODEL       54
REMARK 921   NORMALIZED FREE ENERGY PREDICTED BY IDOCK:   -4.17 KCAL/MOL
REMARK 922        TOTAL FREE ENERGY PREDICTED BY IDOCK:   -9.61 KCAL/MOL
REMARK 923 INTER-LIGAND FREE ENERGY PREDICTED BY IDOCK:   -7.40 KCAL/MOL
REMARK 924 INTRA-LIGAND FREE ENERGY PREDICTED BY IDOCK:   -2.21 KCAL/MOL
REMARK 927      BINDING AFFINITY PREDICTED BY RF-SCORE:    0.00 PKD
ROOT
HETATM    1  C   UNL     1      -8.468   8.785  67.723  1.00  0.00    -0.125 C  
HETATM    2  C   UNL     1      -9.496   8.573  66.627  1.00  0.00    -0.268 C  
ENDROOT
BRANCH   2   3
HETATM    3  C   UNL     1     -10.555   7.559  67.054  1.00  0.00    -0.409 C  
BRANCH   3   4
HETATM    4  C   UNL     1     -10.562   7.377  68.568  1.00  0.00    -0.188 C  
BRANCH   4   5
HETATM    5  C   UNL     1     -10.812   5.918  68.937  1.00  0.00    -0.373 C  
BRANCH   5   6
HETATM    6  C   UNL     1     -10.336   5.627  70.356  1.00  0.00    -0.330 C  
BRANCH   6   7
HETATM    7  C   UNL     1      -9.310   6.660  70.803  1.00  0.00    -0.159 C  
BRANCH   7   8
HETATM    8  C   UNL     1      -9.653   7.199  72.187  1.00  0.00    -0.160 C  
BRANCH   8   9
HETATM    9  C   UNL     1     -10.342   8.553  72.081  1.00  0.00    -0.409 C  
BRANCH   9  10
HETATM   10  C   UNL     1     -11.835   8.421  72.359  1.00  0.00    -0.452 C  
BRANCH  10  11
HETATM   11  C   UNL     1     -12.623   9.476  71.589  1.00  0.00    -0.476 C  
BRANCH  11  12
HETATM   12  C   UNL     1     -11.701  10.279  70.682  1.00  0.00    -0.438 C  
BRANCH  12  13
HETATM   13  C   UNL     1     -12.179  11.720  70.561  1.00  0.00    -0.438 C  
BRANCH  13  14
HETATM   14  C   UNL     1     -11.780  12.306  69.211  1.00  0.00    -0.388 C  
BRANCH  14  15
HETATM   15  C   UNL     1     -11.364  11.210  68.235  1.00  0.00    -0.365 C  
BRANCH  15  16
HETATM   16  C   UNL     1     -11.106  11.792  66.847  1.00  0.00    -0.361 C  
BRANCH  16  17
HETATM   17  C   UNL     1     -11.947  13.042  66.605  1.00  0.00    -0.453 C  
HETATM   18  C   UNL     1     -12.507  13.075  65.203  1.00  0.00    -0.496 C  
HETATM   19  O   UNL     1     -12.328  12.225  64.346  1.00  0.00    -0.425 OA 
HETATM   20  O   UNL     1     -13.255  14.181  64.979  1.00  0.00    -0.691 OA 
ENDBRANCH  16  17
ENDBRANCH  15  16
ENDBRANCH  14  15
ENDBRANCH  13  14
ENDBRANCH  12  13
ENDBRANCH  11  12
ENDBRANCH  10  11
ENDBRANCH   9  10
ENDBRANCH   8   9
ENDBRANCH   7   8
ENDBRANCH   6   7
ENDBRANCH   5   6
ENDBRANCH   4   5
ENDBRANCH   3   4
ENDBRANCH   2   3
TORSDOF 15
ENDMDL
MODEL       55
REMARK 921   NORMALIZED FREE ENERGY PREDICTED BY IDOCK:   -4.15 KCAL/MOL
REMARK 922        TOTAL FREE ENERGY PREDICTED BY IDOCK:   -9.59 KCAL/MOL
REMARK 923 INTER-LIGAND FREE ENERGY PREDICTED BY IDOCK:   -7.52 KCAL/MOL
REMARK 924 INTRA-LIGAND FREE ENERGY PREDICTED BY IDOCK:   -2.07 KCAL/MOL
REMARK 927      BINDING AFFINITY PREDICTED BY RF-SCORE:    0.00 PKD
ROOT
HETATM    1  C   UNL     1     -12.158  14.326  64.503  1.00  0.00    -0.499 C  
HETATM    2  C   UNL     1     -12.615  12.897  64.735  1.00  0.00    -0.493 C  
ENDROOT
BRANCH   2   3
HETATM    3  C   UNL     1     -12.075  11.964  63.654  1.00  0.00    -0.580 C  
BRANCH   3   4
HETATM    4  C   UNL     1     -10.551  11.903  63.692  1.00  0.00    -0.500 C  
BRANCH   4   5
HETATM    5  C   UNL     1     -10.078  10.637  64.400  1.00  0.00    -0.418 C  
BRANCH   5   6
HETATM    6  C   UNL     1      -9.623  10.948  65.822  1.00  0.00    -0.259 C  
BRANCH   6   7
HETATM    7  C   UNL     1     -10.515  10.247  66.838  1.00  0.00    -0.291 C  
BRANCH   7   8
HETATM    8  C   UNL     1     -10.552  11.022  68.151  1.00  0.00    -0.226 C  
BRANCH   8   9
HETATM    9  C   UNL     1     -11.070  12.436  67.925  1.00  0.00    -0.283 C  
BRANCH   9  10
HETATM   10  C   UNL     1     -10.064  13.465  68.428  1.00  0.00    -0.244 C  
BRANCH  10  11
HETATM   11  C   UNL     1     -10.723  14.832  68.586  1.00  0.00    -0.253 C  
BRANCH  11  12
HETATM   12  C   UNL     1     -12.185  14.680  68.985  1.00  0.00    -0.199 C  
BRANCH  12  13
HETATM   13  C   UNL     1     -12.451  15.343  70.331  1.00  0.00    -0.447 C  
BRANCH  13  14
HETATM   14  C   UNL     1     -11.932  14.473  71.470  1.00  0.00    -0.362 C  
BRANCH  14  15
HETATM   15  C   UNL     1     -13.059  14.075  72.418  1.00  0.00    -0.536 C  
BRANCH  15  16
HETATM   16  C   UNL     1     -13.516  12.644  72.143  1.00  0.00    -0.561 C  
BRANCH  16  17
HETATM   17  C   UNL     1     -12.412  11.829  71.477  1.00  0.00    -0.208 C  
HETATM   18  C   UNL     1     -12.621  10.345  71.669  1.00  0.00    -0.417 C  
HETATM   19  O   UNL     1     -13.546   9.831  72.276  1.00  0.00    -0.425 OA 
HETATM   20  O   UNL     1     -11.645   9.613  71.081  1.00  0.00    -0.319 OA 
ENDBRANCH  16  17
ENDBRANCH  15  16
ENDBRANCH  14  15
ENDBRANCH  13  14
ENDBRANCH  12  13
ENDBRANCH  11  12
ENDBRANCH  10  11
ENDBRANCH   9  10
ENDBRANCH   8   9
ENDBRANCH   7   8
ENDBRANCH   6   7
ENDBRANCH   5   6
ENDBRANCH   4   5
ENDBRANCH   3   4
ENDBRANCH   2   3
TORSDOF 15
ENDMDL
MODEL       56
REMARK 921   NORMALIZED FREE ENERGY PREDICTED BY IDOCK:   -4.15 KCAL/MOL
REMARK 922        TOTAL FREE ENERGY PREDICTED BY IDOCK:   -9.59 KCAL/MOL
REMARK 923 INTER-LIGAND FREE ENERGY PREDICTED BY IDOCK:   -8.43 KCAL/MOL
REMARK 924 INTRA-LIGAND FREE ENERGY PREDICTED BY IDOCK:   -1.16 KCAL/MOL
REMARK 927      BINDING AFFINITY PREDICTED BY RF-SCORE:    0.00 PKD
ROOT
HETATM    1  C   UNL     1     -12.260  15.973  72.443  1.00  0.00    -0.603 C  
HETATM    2  C   UNL     1     -13.702  15.625  72.767  1.00  0.00    -0.662 C  
ENDROOT
BRANCH   2   3
HETATM    3  C   UNL     1     -14.093  14.281  72.158  1.00  0.00    -0.634 C  
BRANCH   3   4
HETATM    4  C   UNL     1     -12.902  13.622  71.469  1.00  0.00    -0.445 C  
BRANCH   4   5
HETATM    5  C   UNL     1     -12.963  12.105  71.618  1.00  0.00    -0.427 C  
BRANCH   5   6
HETATM    6  C   UNL     1     -12.237  11.417  70.467  1.00  0.00    -0.478 C  
BRANCH   6   7
HETATM    7  C   UNL     1     -11.778  12.437  69.433  1.00  0.00    -0.384 C  
BRANCH   7   8
HETATM    8  C   UNL     1     -11.535  11.768  68.085  1.00  0.00    -0.382 C  
BRANCH   8   9
HETATM    9  C   UNL     1     -11.895  12.712  66.945  1.00  0.00    -0.425 C  
BRANCH   9  10
HETATM   10  C   UNL     1     -10.731  12.848  65.970  1.00  0.00    -0.296 C  
BRANCH  10  11
HETATM   11  C   UNL     1     -10.484  14.314  65.626  1.00  0.00    -0.336 C  
BRANCH  11  12
HETATM   12  C   UNL     1     -10.875  15.212  66.791  1.00  0.00    -0.322 C  
BRANCH  12  13
HETATM   13  C   UNL     1     -10.522  16.665  66.498  1.00  0.00    -0.262 C  
BRANCH  13  14
HETATM   14  C   UNL     1     -10.607  17.504  67.769  1.00  0.00    -0.375 C  
BRANCH  14  15
HETATM   15  C   UNL     1     -10.878  18.971  67.444  1.00  0.00    -0.496 C  
BRANCH  15  16
HETATM   16  C   UNL     1     -10.095  19.402  66.206  1.00  0.00    -0.539 C  
BRANCH  16  17
HETATM   17  C   UNL     1      -8.856  20.207  66.586  1.00  0.00    -0.382 C  
HETATM   18  C   UNL     1      -7.584  19.454  66.276  1.00  0.00    -0.288 C  
HETATM   19  O   UNL     1      -7.521  18.339  65.783  1.00  0.00    -0.497 OA 
HETATM   20  O   UNL     1      -6.479  20.161  66.610  1.00  0.00    -0.194 OA 
ENDBRANCH  16  17
ENDBRANCH  15  16
ENDBRANCH  14  15
ENDBRANCH  13  14
ENDBRANCH  12  13
ENDBRANCH  11  12
ENDBRANCH  10  11
ENDBRANCH   9  10
ENDBRANCH   8   9
ENDBRANCH   7   8
ENDBRANCH   6   7
ENDBRANCH   5   6
ENDBRANCH   4   5
ENDBRANCH   3   4
ENDBRANCH   2   3
TORSDOF 15
ENDMDL
MODEL       57
REMARK 921   NORMALIZED FREE ENERGY PREDICTED BY IDOCK:   -4.15 KCAL/MOL
REMARK 922        TOTAL FREE ENERGY PREDICTED BY IDOCK:   -9.58 KCAL/MOL
REMARK 923 INTER-LIGAND FREE ENERGY PREDICTED BY IDOCK:   -7.61 KCAL/MOL
REMARK 924 INTRA-LIGAND FREE ENERGY PREDICTED BY IDOCK:   -1.97 KCAL/MOL
REMARK 927      BINDING AFFINITY PREDICTED BY RF-SCORE:    0.00 PKD
ROOT
HETATM    1  C   UNL     1     -12.501  15.747  74.087  1.00  0.00    -0.793 C  
HETATM    2  C   UNL     1     -12.985  14.596  73.224  1.00  0.00    -0.569 C  
ENDROOT
BRANCH   2   3
HETATM    3  C   UNL     1     -13.999  15.075  72.187  1.00  0.00    -0.610 C  
BRANCH   3   4
HETATM    4  C   UNL     1     -13.330  15.328  70.841  1.00  0.00    -0.475 C  
BRANCH   4   5
HETATM    5  C   UNL     1     -12.159  14.374  70.631  1.00  0.00    -0.404 C  
BRANCH   5   6
HETATM    6  C   UNL     1     -11.761  14.317  69.159  1.00  0.00    -0.360 C  
BRANCH   6   7
HETATM    7  C   UNL     1     -10.288  14.665  68.986  1.00  0.00    -0.237 C  
BRANCH   7   8
HETATM    8  C   UNL     1     -10.107  16.166  68.789  1.00  0.00    -0.237 C  
BRANCH   8   9
HETATM    9  C   UNL     1     -10.565  16.584  67.398  1.00  0.00    -0.300 C  
BRANCH   9  10
HETATM   10  C   UNL     1      -9.495  16.265  66.360  1.00  0.00    -0.322 C  
BRANCH  10  11
HETATM   11  C   UNL     1     -10.042  15.320  65.295  1.00  0.00    -0.362 C  
BRANCH  11  12
HETATM   12  C   UNL     1     -11.284  15.909  64.640  1.00  0.00    -0.361 C  
BRANCH  12  13
HETATM   13  C   UNL     1     -12.323  14.827  64.376  1.00  0.00    -0.389 C  
BRANCH  13  14
HETATM   14  C   UNL     1     -12.485  13.928  65.597  1.00  0.00    -0.538 C  
BRANCH  14  15
HETATM   15  C   UNL     1     -12.132  12.481  65.267  1.00  0.00    -0.500 C  
BRANCH  15  16
HETATM   16  C   UNL     1     -11.574  11.768  66.497  1.00  0.00    -0.256 C  
BRANCH  16  17
HETATM   17  C   UNL     1     -10.051  11.843  66.537  1.00  0.00    -0.229 C  
HETATM   18  C   UNL     1      -9.415  10.710  65.766  1.00  0.00    -0.200 C  
HETATM   19  O   UNL     1     -10.016   9.829  65.174  1.00  0.00    -0.309 OA 
HETATM   20  O   UNL     1      -8.062  10.769  65.796  1.00  0.00    -0.162 OA 
ENDBRANCH  16  17
ENDBRANCH  15  16
ENDBRANCH  14  15
ENDBRANCH  13  14
ENDBRANCH  12  13
ENDBRANCH  11  12
ENDBRANCH  10  11
ENDBRANCH   9  10
ENDBRANCH   8   9
ENDBRANCH   7   8
ENDBRANCH   6   7
ENDBRANCH   5   6
ENDBRANCH   4   5
ENDBRANCH   3   4
ENDBRANCH   2   3
TORSDOF 15
ENDMDL
MODEL       58
REMARK 921   NORMALIZED FREE ENERGY PREDICTED BY IDOCK:   -4.15 KCAL/MOL
REMARK 922        TOTAL FREE ENERGY PREDICTED BY IDOCK:   -9.58 KCAL/MOL
REMARK 923 INTER-LIGAND FREE ENERGY PREDICTED BY IDOCK:   -7.95 KCAL/MOL
REMARK 924 INTRA-LIGAND FREE ENERGY PREDICTED BY IDOCK:   -1.63 KCAL/MOL
REMARK 927      BINDING AFFINITY PREDICTED BY RF-SCORE:    0.00 PKD
ROOT
HETATM    1  C   UNL     1      -9.663   7.071  66.589  1.00  0.00    -0.226 C  
HETATM    2  C   UNL     1     -10.873   6.518  67.319  1.00  0.00    -0.463 C  
ENDROOT
BRANCH   2   3
HETATM    3  C   UNL     1     -10.971   7.087  68.732  1.00  0.00    -0.150 C  
BRANCH   3   4
HETATM    4  C   UNL     1     -11.114   5.974  69.765  1.00  0.00    -0.476 C  
BRANCH   4   5
HETATM    5  C   UNL     1     -11.418   6.550  71.144  1.00  0.00    -0.380 C  
BRANCH   5   6
HETATM    6  C   UNL     1     -10.345   7.550  71.564  1.00  0.00    -0.216 C  
BRANCH   6   7
HETATM    7  C   UNL     1     -10.979   8.843  72.062  1.00  0.00    -0.412 C  
BRANCH   7   8
HETATM    8  C   UNL     1     -12.496   8.793  71.915  1.00  0.00    -0.434 C  
BRANCH   8   9
HETATM    9  C   UNL     1     -13.001  10.004  71.142  1.00  0.00    -0.478 C  
BRANCH   9  10
HETATM   10  C   UNL     1     -11.835  10.826  70.605  1.00  0.00    -0.460 C  
BRANCH  10  11
HETATM   11  C   UNL     1     -11.876  10.890  69.082  1.00  0.00    -0.389 C  
BRANCH  11  12
HETATM   12  C   UNL     1     -11.050  12.063  68.572  1.00  0.00    -0.289 C  
BRANCH  12  13
HETATM   13  C   UNL     1     -11.910  13.018  67.755  1.00  0.00    -0.395 C  
BRANCH  13  14
HETATM   14  C   UNL     1     -11.685  14.459  68.202  1.00  0.00    -0.377 C  
BRANCH  14  15
HETATM   15  C   UNL     1     -11.271  14.523  69.670  1.00  0.00    -0.292 C  
BRANCH  15  16
HETATM   16  C   UNL     1     -12.479  14.806  70.559  1.00  0.00    -0.411 C  
BRANCH  16  17
HETATM   17  C   UNL     1     -12.139  15.815  71.652  1.00  0.00    -0.522 C  
HETATM   18  C   UNL     1     -12.606  15.346  73.010  1.00  0.00    -0.434 C  
HETATM   19  O   UNL     1     -13.186  14.297  73.238  1.00  0.00    -0.614 OA 
HETATM   20  O   UNL     1     -12.308  16.235  73.987  1.00  0.00    -0.528 OA 
ENDBRANCH  16  17
ENDBRANCH  15  16
ENDBRANCH  14  15
ENDBRANCH  13  14
ENDBRANCH  12  13
ENDBRANCH  11  12
ENDBRANCH  10  11
ENDBRANCH   9  10
ENDBRANCH   8   9
ENDBRANCH   7   8
ENDBRANCH   6   7
ENDBRANCH   5   6
ENDBRANCH   4   5
ENDBRANCH   3   4
ENDBRANCH   2   3
TORSDOF 15
ENDMDL
MODEL       59
REMARK 921   NORMALIZED FREE ENERGY PREDICTED BY IDOCK:   -4.14 KCAL/MOL
REMARK 922        TOTAL FREE ENERGY PREDICTED BY IDOCK:   -9.56 KCAL/MOL
REMARK 923 INTER-LIGAND FREE ENERGY PREDICTED BY IDOCK:   -7.60 KCAL/MOL
REMARK 924 INTRA-LIGAND FREE ENERGY PREDICTED BY IDOCK:   -1.96 KCAL/MOL
REMARK 927      BINDING AFFINITY PREDICTED BY RF-SCORE:    0.00 PKD
ROOT
HETATM    1  C   UNL     1     -12.098  13.572  69.912  1.00  0.00    -0.408 C  
HETATM    2  C   UNL     1     -12.540  13.681  71.361  1.00  0.00    -0.415 C  
ENDROOT
BRANCH   2   3
HETATM    3  C   UNL     1     -13.246  12.407  71.818  1.00  0.00    -0.435 C  
BRANCH   3   4
HETATM    4  C   UNL     1     -12.638  11.175  71.157  1.00  0.00    -0.513 C  
BRANCH   4   5
HETATM    5  C   UNL     1     -13.350   9.907  71.618  1.00  0.00    -0.481 C  
BRANCH   5   6
HETATM    6  C   UNL     1     -12.419   8.701  71.537  1.00  0.00    -0.364 C  
BRANCH   6   7
HETATM    7  C   UNL     1     -10.964   9.134  71.661  1.00  0.00    -0.445 C  
BRANCH   7   8
HETATM    8  C   UNL     1     -10.063   8.256  70.801  1.00  0.00    -0.218 C  
BRANCH   8   9
HETATM    9  C   UNL     1     -10.746   7.912  69.484  1.00  0.00    -0.195 C  
BRANCH   9  10
HETATM   10  C   UNL     1     -10.153   8.727  68.340  1.00  0.00    -0.217 C  
BRANCH  10  11
HETATM   11  C   UNL     1     -10.890  10.053  68.183  1.00  0.00    -0.303 C  
BRANCH  11  12
HETATM   12  C   UNL     1      -9.935  11.224  68.366  1.00  0.00    -0.201 C  
BRANCH  12  13
HETATM   13  C   UNL     1     -10.078  12.224  67.226  1.00  0.00    -0.212 C  
BRANCH  13  14
HETATM   14  C   UNL     1      -9.743  11.568  65.891  1.00  0.00    -0.260 C  
BRANCH  14  15
HETATM   15  C   UNL     1     -10.635  12.102  64.774  1.00  0.00    -0.335 C  
BRANCH  15  16
HETATM   16  C   UNL     1     -11.788  12.922  65.350  1.00  0.00    -0.444 C  
BRANCH  16  17
HETATM   17  C   UNL     1     -12.205  14.038  64.398  1.00  0.00    -0.457 C  
HETATM   18  C   UNL     1     -11.526  15.345  64.738  1.00  0.00    -0.336 C  
HETATM   19  O   UNL     1     -10.740  15.518  65.654  1.00  0.00    -0.330 OA 
HETATM   20  O   UNL     1     -11.891  16.342  63.898  1.00  0.00    -1.034 OA 
ENDBRANCH  16  17
ENDBRANCH  15  16
ENDBRANCH  14  15
ENDBRANCH  13  14
ENDBRANCH  12  13
ENDBRANCH  11  12
ENDBRANCH  10  11
ENDBRANCH   9  10
ENDBRANCH   8   9
ENDBRANCH   7   8
ENDBRANCH   6   7
ENDBRANCH   5   6
ENDBRANCH   4   5
ENDBRANCH   3   4
ENDBRANCH   2   3
TORSDOF 15
ENDMDL
MODEL       60
REMARK 921   NORMALIZED FREE ENERGY PREDICTED BY IDOCK:   -4.14 KCAL/MOL
REMARK 922        TOTAL FREE ENERGY PREDICTED BY IDOCK:   -9.56 KCAL/MOL
REMARK 923 INTER-LIGAND FREE ENERGY PREDICTED BY IDOCK:   -7.14 KCAL/MOL
REMARK 924 INTRA-LIGAND FREE ENERGY PREDICTED BY IDOCK:   -2.42 KCAL/MOL
REMARK 927      BINDING AFFINITY PREDICTED BY RF-SCORE:    0.00 PKD
ROOT
HETATM    1  C   UNL     1     -11.812  13.901  69.531  1.00  0.00    -0.383 C  
HETATM    2  C   UNL     1     -11.764  14.275  68.060  1.00  0.00    -0.386 C  
ENDROOT
BRANCH   2   3
HETATM    3  C   UNL     1     -12.159  13.092  67.179  1.00  0.00    -0.343 C  
BRANCH   3   4
HETATM    4  C   UNL     1     -11.835  13.366  65.714  1.00  0.00    -0.412 C  
BRANCH   4   5
HETATM    5  C   UNL     1     -12.884  12.740  64.801  1.00  0.00    -0.374 C  
BRANCH   5   6
HETATM    6  C   UNL     1     -12.236  12.143  63.557  1.00  0.00    -0.670 C  
BRANCH   6   7
HETATM    7  C   UNL     1     -10.722  12.303  63.609  1.00  0.00    -0.513 C  
BRANCH   7   8
HETATM    8  C   UNL     1     -10.032  10.945  63.570  1.00  0.00    -0.419 C  
BRANCH   8   9
HETATM    9  C   UNL     1      -9.977  10.330  64.962  1.00  0.00    -0.393 C  
BRANCH   9  10
HETATM   10  C   UNL     1      -8.660  10.669  65.649  1.00  0.00    -0.187 C  
BRANCH  10  11
HETATM   11  C   UNL     1      -8.911  11.327  67.002  1.00  0.00    -0.154 C  
BRANCH  11  12
HETATM   12  C   UNL     1      -7.663  12.049  67.488  1.00  0.00    -0.155 C  
BRANCH  12  13
HETATM   13  C   UNL     1      -8.019  13.395  68.105  1.00  0.00    -0.150 C  
BRANCH  13  14
HETATM   14  C   UNL     1      -8.367  14.408  67.019  1.00  0.00    -0.172 C  
BRANCH  14  15
HETATM   15  C   UNL     1      -8.104  15.835  67.491  1.00  0.00    -0.179 C  
BRANCH  15  16
HETATM   16  C   UNL     1      -9.067  16.812  66.821  1.00  0.00    -0.263 C  
BRANCH  16  17
HETATM   17  C   UNL     1      -9.860  16.132  65.708  1.00  0.00    -0.354 C  
HETATM   18  C   UNL     1     -10.797  17.097  65.020  1.00  0.00     0.073 C  
HETATM   19  O   UNL     1     -10.928  18.278  65.297  1.00  0.00    -0.571 OA 
HETATM   20  O   UNL     1     -11.505  16.503  64.031  1.00  0.00    -1.137 OA 
ENDBRANCH  16  17
ENDBRANCH  15  16
ENDBRANCH  14  15
ENDBRANCH  13  14
ENDBRANCH  12  13
ENDBRANCH  11  12
ENDBRANCH  10  11
ENDBRANCH   9  10
ENDBRANCH   8   9
ENDBRANCH   7   8
ENDBRANCH   6   7
ENDBRANCH   5   6
ENDBRANCH   4   5
ENDBRANCH   3   4
ENDBRANCH   2   3
TORSDOF 15
ENDMDL
MODEL       61
REMARK 921   NORMALIZED FREE ENERGY PREDICTED BY IDOCK:   -4.13 KCAL/MOL
REMARK 922        TOTAL FREE ENERGY PREDICTED BY IDOCK:   -9.55 KCAL/MOL
REMARK 923 INTER-LIGAND FREE ENERGY PREDICTED BY IDOCK:   -8.06 KCAL/MOL
REMARK 924 INTRA-LIGAND FREE ENERGY PREDICTED BY IDOCK:   -1.49 KCAL/MOL
REMARK 927      BINDING AFFINITY PREDICTED BY RF-SCORE:    0.00 PKD
ROOT
HETATM    1  C   UNL     1      -8.592   6.756  74.089  1.00  0.00    -0.169 C  
HETATM    2  C   UNL     1     -10.055   6.999  73.761  1.00  0.00    -0.390 C  
ENDROOT
BRANCH   2   3
HETATM    3  C   UNL     1     -10.384   6.545  72.341  1.00  0.00    -0.210 C  
BRANCH   3   4
HETATM    4  C   UNL     1     -11.868   6.228  72.196  1.00  0.00    -0.365 C  
BRANCH   4   5
HETATM    5  C   UNL     1     -12.499   7.081  71.100  1.00  0.00    -0.407 C  
BRANCH   5   6
HETATM    6  C   UNL     1     -13.987   7.290  71.363  1.00  0.00    -0.429 C  
BRANCH   6   7
HETATM    7  C   UNL     1     -14.228   8.622  72.062  1.00  0.00    -0.524 C  
BRANCH   7   8
HETATM    8  C   UNL     1     -12.941   9.435  72.135  1.00  0.00    -0.503 C  
BRANCH   8   9
HETATM    9  C   UNL     1     -13.188  10.872  71.696  1.00  0.00    -0.471 C  
BRANCH   9  10
HETATM   10  C   UNL     1     -12.164  11.302  70.652  1.00  0.00    -0.489 C  
BRANCH  10  11
HETATM   11  C   UNL     1     -11.038  10.278  70.549  1.00  0.00    -0.381 C  
BRANCH  11  12
HETATM   12  C   UNL     1     -10.197  10.528  69.305  1.00  0.00    -0.245 C  
BRANCH  12  13
HETATM   13  C   UNL     1     -10.871   9.947  68.068  1.00  0.00    -0.294 C  
BRANCH  13  14
HETATM   14  C   UNL     1     -10.908  10.975  66.943  1.00  0.00    -0.324 C  
BRANCH  14  15
HETATM   15  C   UNL     1     -10.695  12.388  67.480  1.00  0.00    -0.256 C  
BRANCH  15  16
HETATM   16  C   UNL     1     -11.724  13.350  66.891  1.00  0.00    -0.434 C  
BRANCH  16  17
HETATM   17  C   UNL     1     -12.205  12.877  65.522  1.00  0.00    -0.527 C  
HETATM   18  C   UNL     1     -12.113  13.975  64.488  1.00  0.00    -0.459 C  
HETATM   19  O   UNL     1     -11.710  15.109  64.690  1.00  0.00    -0.408 OA 
HETATM   20  O   UNL     1     -12.538  13.565  63.270  1.00  0.00    -0.773 OA 
ENDBRANCH  16  17
ENDBRANCH  15  16
ENDBRANCH  14  15
ENDBRANCH  13  14
ENDBRANCH  12  13
ENDBRANCH  11  12
ENDBRANCH  10  11
ENDBRANCH   9  10
ENDBRANCH   8   9
ENDBRANCH   7   8
ENDBRANCH   6   7
ENDBRANCH   5   6
ENDBRANCH   4   5
ENDBRANCH   3   4
ENDBRANCH   2   3
TORSDOF 15
ENDMDL
MODEL       62
REMARK 921   NORMALIZED FREE ENERGY PREDICTED BY IDOCK:   -4.13 KCAL/MOL
REMARK 922        TOTAL FREE ENERGY PREDICTED BY IDOCK:   -9.55 KCAL/MOL
REMARK 923 INTER-LIGAND FREE ENERGY PREDICTED BY IDOCK:   -7.65 KCAL/MOL
REMARK 924 INTRA-LIGAND FREE ENERGY PREDICTED BY IDOCK:   -1.89 KCAL/MOL
REMARK 927      BINDING AFFINITY PREDICTED BY RF-SCORE:    0.00 PKD
ROOT
HETATM    1  C   UNL     1     -12.655   6.809  71.503  1.00  0.00    -0.371 C  
HETATM    2  C   UNL     1     -14.119   7.212  71.465  1.00  0.00    -0.467 C  
ENDROOT
BRANCH   2   3
HETATM    3  C   UNL     1     -14.325   8.595  72.078  1.00  0.00    -0.512 C  
BRANCH   3   4
HETATM    4  C   UNL     1     -12.996   9.323  72.249  1.00  0.00    -0.488 C  
BRANCH   4   5
HETATM    5  C   UNL     1     -13.072  10.732  71.668  1.00  0.00    -0.551 C  
BRANCH   5   6
HETATM    6  C   UNL     1     -12.125  10.882  70.483  1.00  0.00    -0.464 C  
BRANCH   6   7
HETATM    7  C   UNL     1     -10.912   9.975  70.643  1.00  0.00    -0.392 C  
BRANCH   7   8
HETATM    8  C   UNL     1     -10.537   9.333  69.312  1.00  0.00    -0.234 C  
BRANCH   8   9
HETATM    9  C   UNL     1     -11.158  10.100  68.152  1.00  0.00    -0.290 C  
BRANCH   9  10
HETATM   10  C   UNL     1     -10.475   9.736  66.839  1.00  0.00    -0.281 C  
BRANCH  10  11
HETATM   11  C   UNL     1     -10.343  10.962  65.941  1.00  0.00    -0.310 C  
BRANCH  11  12
HETATM   12  C   UNL     1     -10.046  12.204  66.770  1.00  0.00    -0.218 C  
BRANCH  12  13
HETATM   13  C   UNL     1     -11.102  13.277  66.538  1.00  0.00    -0.313 C  
BRANCH  13  14
HETATM   14  C   UNL     1     -10.915  14.435  67.513  1.00  0.00    -0.299 C  
BRANCH  14  15
HETATM   15  C   UNL     1     -11.141  13.985  68.954  1.00  0.00    -0.296 C  
BRANCH  15  16
HETATM   16  C   UNL     1     -11.994  15.002  69.709  1.00  0.00    -0.366 C  
BRANCH  16  17
HETATM   17  C   UNL     1     -12.889  14.319  70.738  1.00  0.00    -0.404 C  
HETATM   18  C   UNL     1     -12.857  15.035  72.068  1.00  0.00    -0.333 C  
HETATM   19  O   UNL     1     -12.206  16.036  72.320  1.00  0.00    -0.447 OA 
HETATM   20  O   UNL     1     -13.649  14.436  72.989  1.00  0.00    -0.619 OA 
ENDBRANCH  16  17
ENDBRANCH  15  16
ENDBRANCH  14  15
ENDBRANCH  13  14
ENDBRANCH  12  13
ENDBRANCH  11  12
ENDBRANCH  10  11
ENDBRANCH   9  10
ENDBRANCH   8   9
ENDBRANCH   7   8
ENDBRANCH   6   7
ENDBRANCH   5   6
ENDBRANCH   4   5
ENDBRANCH   3   4
ENDBRANCH   2   3
TORSDOF 15
ENDMDL
MODEL       63
REMARK 921   NORMALIZED FREE ENERGY PREDICTED BY IDOCK:   -4.13 KCAL/MOL
REMARK 922        TOTAL FREE ENERGY PREDICTED BY IDOCK:   -9.54 KCAL/MOL
REMARK 923 INTER-LIGAND FREE ENERGY PREDICTED BY IDOCK:   -7.77 KCAL/MOL
REMARK 924 INTRA-LIGAND FREE ENERGY PREDICTED BY IDOCK:   -1.77 KCAL/MOL
REMARK 927      BINDING AFFINITY PREDICTED BY RF-SCORE:    0.00 PKD
ROOT
HETATM    1  C   UNL     1      -9.419   3.379  69.353  1.00  0.00    -0.221 C  
HETATM    2  C   UNL     1      -9.950   4.592  70.096  1.00  0.00    -0.304 C  
ENDROOT
BRANCH   2   3
HETATM    3  C   UNL     1     -10.396   5.681  69.124  1.00  0.00    -0.328 C  
BRANCH   3   4
HETATM    4  C   UNL     1     -11.397   6.627  69.780  1.00  0.00    -0.412 C  
BRANCH   4   5
HETATM    5  C   UNL     1     -10.929   7.025  71.176  1.00  0.00    -0.275 C  
BRANCH   5   6
HETATM    6  C   UNL     1     -12.112   7.142  72.132  1.00  0.00    -0.284 C  
BRANCH   6   7
HETATM    7  C   UNL     1     -13.428   7.112  71.367  1.00  0.00    -0.374 C  
BRANCH   7   8
HETATM    8  C   UNL     1     -14.287   8.321  71.721  1.00  0.00    -0.574 C  
BRANCH   8   9
HETATM    9  C   UNL     1     -13.453   9.384  72.426  1.00  0.00    -0.506 C  
BRANCH   9  10
HETATM   10  C   UNL     1     -13.253  10.597  71.526  1.00  0.00    -0.460 C  
BRANCH  10  11
HETATM   11  C   UNL     1     -11.871  10.569  70.882  1.00  0.00    -0.455 C  
BRANCH  11  12
HETATM   12  C   UNL     1     -11.982  10.357  69.379  1.00  0.00    -0.151 C  
BRANCH  12  13
HETATM   13  C   UNL     1     -10.610  10.410  68.720  1.00  0.00    -0.232 C  
BRANCH  13  14
HETATM   14  C   UNL     1     -10.469  11.672  67.875  1.00  0.00    -0.217 C  
BRANCH  14  15
HETATM   15  C   UNL     1     -11.779  12.453  67.827  1.00  0.00    -0.413 C  
BRANCH  15  16
HETATM   16  C   UNL     1     -11.580  13.799  67.135  1.00  0.00    -0.392 C  
BRANCH  16  17
HETATM   17  C   UNL     1     -12.531  13.960  65.952  1.00  0.00    -0.519 C  
HETATM   18  C   UNL     1     -11.781  14.105  64.649  1.00  0.00    -0.417 C  
HETATM   19  O   UNL     1     -10.567  14.099  64.524  1.00  0.00    -0.406 OA 
HETATM   20  O   UNL     1     -12.616  14.249  63.593  1.00  0.00    -0.831 OA 
ENDBRANCH  16  17
ENDBRANCH  15  16
ENDBRANCH  14  15
ENDBRANCH  13  14
ENDBRANCH  12  13
ENDBRANCH  11  12
ENDBRANCH  10  11
ENDBRANCH   9  10
ENDBRANCH   8   9
ENDBRANCH   7   8
ENDBRANCH   6   7
ENDBRANCH   5   6
ENDBRANCH   4   5
ENDBRANCH   3   4
ENDBRANCH   2   3
TORSDOF 15
ENDMDL
MODEL       64
REMARK 921   NORMALIZED FREE ENERGY PREDICTED BY IDOCK:   -4.12 KCAL/MOL
REMARK 922        TOTAL FREE ENERGY PREDICTED BY IDOCK:   -9.53 KCAL/MOL
REMARK 923 INTER-LIGAND FREE ENERGY PREDICTED BY IDOCK:   -7.24 KCAL/MOL
REMARK 924 INTRA-LIGAND FREE ENERGY PREDICTED BY IDOCK:   -2.29 KCAL/MOL
REMARK 927      BINDING AFFINITY PREDICTED BY RF-SCORE:    0.00 PKD
ROOT
HETATM    1  C   UNL     1     -12.607  11.896  63.552  1.00  0.00    -0.579 C  
HETATM    2  C   UNL     1     -11.165  11.694  63.982  1.00  0.00    -0.448 C  
ENDROOT
BRANCH   2   3
HETATM    3  C   UNL     1     -10.589  12.970  64.592  1.00  0.00    -0.397 C  
BRANCH   3   4
HETATM    4  C   UNL     1     -11.699  13.920  65.027  1.00  0.00    -0.365 C  
BRANCH   4   5
HETATM    5  C   UNL     1     -11.291  15.372  64.793  1.00  0.00    -0.381 C  
BRANCH   5   6
HETATM    6  C   UNL     1      -9.956  15.676  65.466  1.00  0.00    -0.364 C  
BRANCH   6   7
HETATM    7  C   UNL     1     -10.114  16.782  66.500  1.00  0.00    -0.322 C  
BRANCH   7   8
HETATM    8  C   UNL     1      -9.068  16.647  67.601  1.00  0.00    -0.207 C  
BRANCH   8   9
HETATM    9  C   UNL     1      -7.797  16.007  67.058  1.00  0.00    -0.263 C  
BRANCH   9  10
HETATM   10  C   UNL     1      -7.385  14.816  67.916  1.00  0.00    -0.162 C  
BRANCH  10  11
HETATM   11  C   UNL     1      -8.583  14.263  68.683  1.00  0.00    -0.149 C  
BRANCH  11  12
HETATM   12  C   UNL     1      -9.095  12.987  68.030  1.00  0.00    -0.210 C  
BRANCH  12  13
HETATM   13  C   UNL     1     -10.485  12.634  68.546  1.00  0.00    -0.249 C  
BRANCH  13  14
HETATM   14  C   UNL     1     -11.342  13.889  68.680  1.00  0.00    -0.310 C  
BRANCH  14  15
HETATM   15  C   UNL     1     -12.062  13.923  70.025  1.00  0.00    -0.411 C  
BRANCH  15  16
HETATM   16  C   UNL     1     -12.501  15.345  70.366  1.00  0.00    -0.447 C  
BRANCH  16  17
HETATM   17  C   UNL     1     -13.352  15.374  71.632  1.00  0.00    -0.578 C  
HETATM   18  C   UNL     1     -12.656  16.106  72.756  1.00  0.00    -0.432 C  
HETATM   19  O   UNL     1     -11.551  16.620  72.692  1.00  0.00    -0.366 OA 
HETATM   20  O   UNL     1     -13.404  16.136  73.885  1.00  0.00    -0.602 OA 
ENDBRANCH  16  17
ENDBRANCH  15  16
ENDBRANCH  14  15
ENDBRANCH  13  14
ENDBRANCH  12  13
ENDBRANCH  11  12
ENDBRANCH  10  11
ENDBRANCH   9  10
ENDBRANCH   8   9
ENDBRANCH   7   8
ENDBRANCH   6   7
ENDBRANCH   5   6
ENDBRANCH   4   5
ENDBRANCH   3   4
ENDBRANCH   2   3
TORSDOF 15
ENDMDL
MODEL       65
REMARK 921   NORMALIZED FREE ENERGY PREDICTED BY IDOCK:   -4.12 KCAL/MOL
REMARK 922        TOTAL FREE ENERGY PREDICTED BY IDOCK:   -9.53 KCAL/MOL
REMARK 923 INTER-LIGAND FREE ENERGY PREDICTED BY IDOCK:   -7.42 KCAL/MOL
REMARK 924 INTRA-LIGAND FREE ENERGY PREDICTED BY IDOCK:   -2.11 KCAL/MOL
REMARK 927      BINDING AFFINITY PREDICTED BY RF-SCORE:    0.00 PKD
ROOT
HETATM    1  C   UNL     1     -13.027  10.405  71.916  1.00  0.00    -0.555 C  
HETATM    2  C   UNL     1     -12.884  11.430  70.805  1.00  0.00    -0.255 C  
ENDROOT
BRANCH   2   3
HETATM    3  C   UNL     1     -11.662  11.135  69.939  1.00  0.00    -0.433 C  
BRANCH   3   4
HETATM    4  C   UNL     1     -11.794  11.784  68.565  1.00  0.00    -0.365 C  
BRANCH   4   5
HETATM    5  C   UNL     1     -11.032  13.105  68.514  1.00  0.00    -0.289 C  
BRANCH   5   6
HETATM    6  C   UNL     1     -11.993  14.288  68.535  1.00  0.00    -0.352 C  
BRANCH   6   7
HETATM    7  C   UNL     1     -11.397  15.454  69.313  1.00  0.00    -0.323 C  
BRANCH   7   8
HETATM    8  C   UNL     1      -9.881  15.320  69.409  1.00  0.00    -0.253 C  
BRANCH   8   9
HETATM    9  C   UNL     1      -9.196  16.555  68.840  1.00  0.00    -0.258 C  
BRANCH   9  10
HETATM   10  C   UNL     1     -10.205  17.456  68.137  1.00  0.00    -0.350 C  
BRANCH  10  11
HETATM   11  C   UNL     1      -9.791  17.701  66.689  1.00  0.00    -0.309 C  
BRANCH  11  12
HETATM   12  C   UNL     1      -9.619  16.382  65.949  1.00  0.00    -0.309 C  
BRANCH  12  13
HETATM   13  C   UNL     1     -10.886  16.020  65.183  1.00  0.00    -0.411 C  
BRANCH  13  14
HETATM   14  C   UNL     1     -10.913  14.529  64.865  1.00  0.00    -0.421 C  
BRANCH  14  15
HETATM   15  C   UNL     1     -12.314  13.952  65.048  1.00  0.00    -0.452 C  
BRANCH  15  16
HETATM   16  C   UNL     1     -12.364  12.499  64.579  1.00  0.00    -0.545 C  
BRANCH  16  17
HETATM   17  C   UNL     1     -11.329  12.232  63.490  1.00  0.00    -0.549 C  
HETATM   18  C   UNL     1     -10.351  11.156  63.901  1.00  0.00    -0.380 C  
HETATM   19  O   UNL     1     -10.362  10.556  64.964  1.00  0.00    -0.316 OA 
HETATM   20  O   UNL     1      -9.428  10.912  62.942  1.00  0.00    -0.295 OA 
ENDBRANCH  16  17
ENDBRANCH  15  16
ENDBRANCH  14  15
ENDBRANCH  13  14
ENDBRANCH  12  13
ENDBRANCH  11  12
ENDBRANCH  10  11
ENDBRANCH   9  10
ENDBRANCH   8   9
ENDBRANCH   7   8
ENDBRANCH   6   7
ENDBRANCH   5   6
ENDBRANCH   4   5
ENDBRANCH   3   4
ENDBRANCH   2   3
TORSDOF 15
ENDMDL
MODEL       66
REMARK 921   NORMALIZED FREE ENERGY PREDICTED BY IDOCK:   -4.12 KCAL/MOL
REMARK 922        TOTAL FREE ENERGY PREDICTED BY IDOCK:   -9.52 KCAL/MOL
REMARK 923 INTER-LIGAND FREE ENERGY PREDICTED BY IDOCK:   -7.52 KCAL/MOL
REMARK 924 INTRA-LIGAND FREE ENERGY PREDICTED BY IDOCK:   -2.00 KCAL/MOL
REMARK 927      BINDING AFFINITY PREDICTED BY RF-SCORE:    0.00 PKD
ROOT
HETATM    1  C   UNL     1     -13.934   7.635  71.379  1.00  0.00    -0.447 C  
HETATM    2  C   UNL     1     -13.871   8.961  72.116  1.00  0.00    -0.531 C  
ENDROOT
BRANCH   2   3
HETATM    3  C   UNL     1     -12.650   9.772  71.687  1.00  0.00    -0.509 C  
BRANCH   3   4
HETATM    4  C   UNL     1     -11.641   8.897  70.952  1.00  0.00    -0.331 C  
BRANCH   4   5
HETATM    5  C   UNL     1     -10.219   9.396  71.188  1.00  0.00    -0.361 C  
BRANCH   5   6
HETATM    6  C   UNL     1      -9.314   9.035  70.015  1.00  0.00    -0.198 C  
BRANCH   6   7
HETATM    7  C   UNL     1     -10.075   8.218  68.979  1.00  0.00    -0.208 C  
BRANCH   7   8
HETATM    8  C   UNL     1      -9.823   8.756  67.575  1.00  0.00    -0.232 C  
BRANCH   8   9
HETATM    9  C   UNL     1     -10.716   9.957  67.291  1.00  0.00    -0.304 C  
BRANCH   9  10
HETATM   10  C   UNL     1      -9.878  11.183  66.950  1.00  0.00    -0.223 C  
BRANCH  10  11
HETATM   11  C   UNL     1     -10.329  12.390  67.766  1.00  0.00    -0.222 C  
BRANCH  11  12
HETATM   12  C   UNL     1     -11.324  11.971  68.839  1.00  0.00    -0.333 C  
BRANCH  12  13
HETATM   13  C   UNL     1     -11.889  13.188  69.561  1.00  0.00    -0.383 C  
BRANCH  13  14
HETATM   14  C   UNL     1     -11.272  14.471  69.015  1.00  0.00    -0.289 C  
BRANCH  14  15
HETATM   15  C   UNL     1     -11.647  15.673  69.876  1.00  0.00    -0.354 C  
BRANCH  15  16
HETATM   16  C   UNL     1     -12.787  15.320  70.829  1.00  0.00    -0.494 C  
BRANCH  16  17
HETATM   17  C   UNL     1     -12.584  15.963  72.197  1.00  0.00    -0.522 C  
HETATM   18  C   UNL     1     -12.805  14.973  73.318  1.00  0.00    -0.531 C  
HETATM   19  O   UNL     1     -13.109  13.800  73.178  1.00  0.00    -0.481 OA 
HETATM   20  O   UNL     1     -12.628  15.535  74.537  1.00  0.00    -0.568 OA 
ENDBRANCH  16  17
ENDBRANCH  15  16
ENDBRANCH  14  15
ENDBRANCH  13  14
ENDBRANCH  12  13
ENDBRANCH  11  12
ENDBRANCH  10  11
ENDBRANCH   9  10
ENDBRANCH   8   9
ENDBRANCH   7   8
ENDBRANCH   6   7
ENDBRANCH   5   6
ENDBRANCH   4   5
ENDBRANCH   3   4
ENDBRANCH   2   3
TORSDOF 15
ENDMDL
MODEL       67
REMARK 921   NORMALIZED FREE ENERGY PREDICTED BY IDOCK:   -4.12 KCAL/MOL
REMARK 922        TOTAL FREE ENERGY PREDICTED BY IDOCK:   -9.52 KCAL/MOL
REMARK 923 INTER-LIGAND FREE ENERGY PREDICTED BY IDOCK:   -8.04 KCAL/MOL
REMARK 924 INTRA-LIGAND FREE ENERGY PREDICTED BY IDOCK:   -1.48 KCAL/MOL
REMARK 927      BINDING AFFINITY PREDICTED BY RF-SCORE:    0.00 PKD
ROOT
HETATM    1  C   UNL     1     -11.175   6.075  70.772  1.00  0.00    -0.340 C  
HETATM    2  C   UNL     1     -11.561   7.459  71.262  1.00  0.00    -0.306 C  
ENDROOT
BRANCH   2   3
HETATM    3  C   UNL     1     -13.064   7.557  71.508  1.00  0.00    -0.402 C  
BRANCH   3   4
HETATM    4  C   UNL     1     -13.495   9.006  71.707  1.00  0.00    -0.467 C  
BRANCH   4   5
HETATM    5  C   UNL     1     -12.294   9.943  71.627  1.00  0.00    -0.496 C  
BRANCH   5   6
HETATM    6  C   UNL     1     -12.698  11.295  71.048  1.00  0.00    -0.457 C  
BRANCH   6   7
HETATM    7  C   UNL     1     -11.919  11.590  69.773  1.00  0.00    -0.415 C  
BRANCH   7   8
HETATM    8  C   UNL     1     -11.788  13.092  69.553  1.00  0.00    -0.383 C  
BRANCH   8   9
HETATM    9  C   UNL     1     -11.701  13.412  68.067  1.00  0.00    -0.391 C  
BRANCH   9  10
HETATM   10  C   UNL     1     -11.569  12.135  67.247  1.00  0.00    -0.404 C  
BRANCH  10  11
HETATM   11  C   UNL     1     -12.034  12.363  65.812  1.00  0.00    -0.437 C  
BRANCH  11  12
HETATM   12  C   UNL     1     -12.676  13.736  65.668  1.00  0.00    -0.523 C  
BRANCH  12  13
HETATM   13  C   UNL     1     -12.163  14.447  64.423  1.00  0.00    -0.481 C  
BRANCH  13  14
HETATM   14  C   UNL     1     -11.210  15.576  64.803  1.00  0.00    -0.399 C  
BRANCH  14  15
HETATM   15  C   UNL     1      -9.836  15.033  65.183  1.00  0.00    -0.166 C  
BRANCH  15  16
HETATM   16  C   UNL     1      -9.228  15.851  66.320  1.00  0.00    -0.372 C  
BRANCH  16  17
HETATM   17  C   UNL     1     -10.273  16.748  66.977  1.00  0.00    -0.292 C  
HETATM   18  C   UNL     1     -10.026  18.208  66.674  1.00  0.00    -0.362 C  
HETATM   19  O   UNL     1      -9.114  18.647  65.993  1.00  0.00    -0.487 OA 
HETATM   20  O   UNL     1     -10.949  19.012  67.254  1.00  0.00    -0.459 OA 
ENDBRANCH  16  17
ENDBRANCH  15  16
ENDBRANCH  14  15
ENDBRANCH  13  14
ENDBRANCH  12  13
ENDBRANCH  11  12
ENDBRANCH  10  11
ENDBRANCH   9  10
ENDBRANCH   8   9
ENDBRANCH   7   8
ENDBRANCH   6   7
ENDBRANCH   5   6
ENDBRANCH   4   5
ENDBRANCH   3   4
ENDBRANCH   2   3
TORSDOF 15
ENDMDL
MODEL       68
REMARK 921   NORMALIZED FREE ENERGY PREDICTED BY IDOCK:   -4.11 KCAL/MOL
REMARK 922        TOTAL FREE ENERGY PREDICTED BY IDOCK:   -9.51 KCAL/MOL
REMARK 923 INTER-LIGAND FREE ENERGY PREDICTED BY IDOCK:   -7.68 KCAL/MOL
REMARK 924 INTRA-LIGAND FREE ENERGY PREDICTED BY IDOCK:   -1.83 KCAL/MOL
REMARK 927      BINDING AFFINITY PREDICTED BY RF-SCORE:    0.00 PKD
ROOT
HETATM    1  C   UNL     1      -9.696   9.194  70.940  1.00  0.00    -0.352 C  
HETATM    2  C   UNL     1     -11.117   9.709  71.077  1.00  0.00    -0.438 C  
ENDROOT
BRANCH   2   3
HETATM    3  C   UNL     1     -12.001   8.696  71.801  1.00  0.00    -0.402 C  
BRANCH   3   4
HETATM    4  C   UNL     1     -11.176   7.533  72.342  1.00  0.00    -0.356 C  
BRANCH   4   5
HETATM    5  C   UNL     1     -11.510   6.242  71.602  1.00  0.00    -0.351 C  
BRANCH   5   6
HETATM    6  C   UNL     1     -10.240   5.530  71.149  1.00  0.00    -0.285 C  
BRANCH   6   7
HETATM    7  C   UNL     1     -10.257   5.305  69.643  1.00  0.00    -0.348 C  
BRANCH   7   8
HETATM    8  C   UNL     1     -11.208   6.281  68.961  1.00  0.00    -0.415 C  
BRANCH   8   9
HETATM    9  C   UNL     1     -11.012   6.256  67.451  1.00  0.00    -0.447 C  
BRANCH   9  10
HETATM   10  C   UNL     1      -9.895   7.207  67.037  1.00  0.00    -0.257 C  
BRANCH  10  11
HETATM   11  C   UNL     1     -10.385   8.652  67.046  1.00  0.00    -0.368 C  
BRANCH  11  12
HETATM   12  C   UNL     1      -9.955   9.373  65.777  1.00  0.00    -0.278 C  
BRANCH  12  13
HETATM   13  C   UNL     1      -9.872  10.877  66.008  1.00  0.00    -0.280 C  
BRANCH  13  14
HETATM   14  C   UNL     1      -9.890  11.192  67.500  1.00  0.00    -0.197 C  
BRANCH  14  15
HETATM   15  C   UNL     1     -10.598  12.516  67.775  1.00  0.00    -0.235 C  
BRANCH  15  16
HETATM   16  C   UNL     1     -11.892  12.612  66.970  1.00  0.00    -0.415 C  
BRANCH  16  17
HETATM   17  C   UNL     1     -11.987  13.944  66.231  1.00  0.00    -0.462 C  
HETATM   18  C   UNL     1     -12.475  13.762  64.813  1.00  0.00    -0.349 C  
HETATM   19  O   UNL     1     -12.765  12.697  64.293  1.00  0.00    -0.657 OA 
HETATM   20  O   UNL     1     -12.563  14.939  64.149  1.00  0.00    -0.785 OA 
ENDBRANCH  16  17
ENDBRANCH  15  16
ENDBRANCH  14  15
ENDBRANCH  13  14
ENDBRANCH  12  13
ENDBRANCH  11  12
ENDBRANCH  10  11
ENDBRANCH   9  10
ENDBRANCH   8   9
ENDBRANCH   7   8
ENDBRANCH   6   7
ENDBRANCH   5   6
ENDBRANCH   4   5
ENDBRANCH   3   4
ENDBRANCH   2   3
TORSDOF 15
ENDMDL
MODEL       69
REMARK 921   NORMALIZED FREE ENERGY PREDICTED BY IDOCK:   -4.11 KCAL/MOL
REMARK 922        TOTAL FREE ENERGY PREDICTED BY IDOCK:   -9.51 KCAL/MOL
REMARK 923 INTER-LIGAND FREE ENERGY PREDICTED BY IDOCK:   -7.35 KCAL/MOL
REMARK 924 INTRA-LIGAND FREE ENERGY PREDICTED BY IDOCK:   -2.16 KCAL/MOL
REMARK 927      BINDING AFFINITY PREDICTED BY RF-SCORE:    0.00 PKD
ROOT
HETATM    1  C   UNL     1     -12.923  15.635  73.385  1.00  0.00    -0.676 C  
HETATM    2  C   UNL     1     -13.914  15.476  72.246  1.00  0.00    -0.642 C  
ENDROOT
BRANCH   2   3
HETATM    3  C   UNL     1     -13.390  14.503  71.192  1.00  0.00    -0.415 C  
BRANCH   3   4
HETATM    4  C   UNL     1     -11.974  14.871  70.760  1.00  0.00    -0.372 C  
BRANCH   4   5
HETATM    5  C   UNL     1     -11.841  14.817  69.242  1.00  0.00    -0.352 C  
BRANCH   5   6
HETATM    6  C   UNL     1     -11.506  16.194  68.677  1.00  0.00    -0.340 C  
BRANCH   6   7
HETATM    7  C   UNL     1     -10.493  16.908  69.563  1.00  0.00    -0.228 C  
BRANCH   7   8
HETATM    8  C   UNL     1     -10.066  18.231  68.938  1.00  0.00    -0.358 C  
BRANCH   8   9
HETATM    9  C   UNL     1     -11.012  18.622  67.811  1.00  0.00    -0.174 C  
BRANCH   9  10
HETATM   10  C   UNL     1     -10.337  19.601  66.857  1.00  0.00    -0.583 C  
BRANCH  10  11
HETATM   11  C   UNL     1      -9.248  20.392  67.575  1.00  0.00    -0.475 C  
BRANCH  11  12
HETATM   12  C   UNL     1      -7.914  20.241  66.859  1.00  0.00    -0.349 C  
BRANCH  12  13
HETATM   13  C   UNL     1      -6.840  19.732  67.812  1.00  0.00    -0.279 C  
BRANCH  13  14
HETATM   14  C   UNL     1      -6.274  18.403  67.323  1.00  0.00    -0.180 C  
BRANCH  14  15
HETATM   15  C   UNL     1      -6.877  17.231  68.092  1.00  0.00    -0.182 C  
BRANCH  15  16
HETATM   16  C   UNL     1      -7.362  16.148  67.132  1.00  0.00    -0.250 C  
BRANCH  16  17
HETATM   17  C   UNL     1      -8.473  16.667  66.225  1.00  0.00    -0.355 C  
HETATM   18  C   UNL     1      -9.503  15.601  65.936  1.00  0.00    -0.341 C  
HETATM   19  O   UNL     1      -9.479  14.457  66.360  1.00  0.00    -0.280 OA 
HETATM   20  O   UNL     1     -10.494  16.053  65.131  1.00  0.00    -0.516 OA 
ENDBRANCH  16  17
ENDBRANCH  15  16
ENDBRANCH  14  15
ENDBRANCH  13  14
ENDBRANCH  12  13
ENDBRANCH  11  12
ENDBRANCH  10  11
ENDBRANCH   9  10
ENDBRANCH   8   9
ENDBRANCH   7   8
ENDBRANCH   6   7
ENDBRANCH   5   6
ENDBRANCH   4   5
ENDBRANCH   3   4
ENDBRANCH   2   3
TORSDOF 15
ENDMDL
MODEL       70
REMARK 921   NORMALIZED FREE ENERGY PREDICTED BY IDOCK:   -4.10 KCAL/MOL
REMARK 922        TOTAL FREE ENERGY PREDICTED BY IDOCK:   -9.49 KCAL/MOL
REMARK 923 INTER-LIGAND FREE ENERGY PREDICTED BY IDOCK:   -7.39 KCAL/MOL
REMARK 924 INTRA-LIGAND FREE ENERGY PREDICTED BY IDOCK:   -2.09 KCAL/MOL
REMARK 927      BINDING AFFINITY PREDICTED BY RF-SCORE:    0.00 PKD
ROOT
HETATM    1  C   UNL     1     -13.262   9.310  71.839  1.00  0.00    -0.493 C  
HETATM    2  C   UNL     1     -13.116  10.819  71.771  1.00  0.00    -0.573 C  
ENDROOT
BRANCH   2   3
HETATM    3  C   UNL     1     -12.337  11.241  70.528  1.00  0.00    -0.446 C  
BRANCH   3   4
HETATM    4  C   UNL     1     -11.285  10.201  70.160  1.00  0.00    -0.377 C  
BRANCH   4   5
HETATM    5  C   UNL     1     -10.356  10.732  69.072  1.00  0.00    -0.235 C  
BRANCH   5   6
HETATM    6  C   UNL     1     -10.987  10.571  67.693  1.00  0.00    -0.375 C  
BRANCH   6   7
HETATM    7  C   UNL     1     -10.425   9.345  66.983  1.00  0.00    -0.302 C  
BRANCH   7   8
HETATM    8  C   UNL     1      -9.262   9.731  66.077  1.00  0.00    -0.226 C  
BRANCH   8   9
HETATM    9  C   UNL     1      -9.477  11.119  65.488  1.00  0.00    -0.251 C  
BRANCH   9  10
HETATM   10  C   UNL     1     -10.299  11.039  64.207  1.00  0.00    -0.430 C  
BRANCH  10  11
HETATM   11  C   UNL     1     -10.470  12.422  63.588  1.00  0.00    -0.460 C  
BRANCH  11  12
HETATM   12  C   UNL     1     -11.945  12.753  63.409  1.00  0.00    -0.613 C  
BRANCH  12  13
HETATM   13  C   UNL     1     -12.699  12.598  64.723  1.00  0.00    -0.460 C  
BRANCH  13  14
HETATM   14  C   UNL     1     -12.784  13.935  65.453  1.00  0.00    -0.525 C  
BRANCH  14  15
HETATM   15  C   UNL     1     -12.057  13.878  66.794  1.00  0.00    -0.476 C  
BRANCH  15  16
HETATM   16  C   UNL     1     -11.056  15.025  66.913  1.00  0.00    -0.331 C  
BRANCH  16  17
HETATM   17  C   UNL     1      -9.648  14.574  66.536  1.00  0.00    -0.311 C  
HETATM   18  C   UNL     1      -8.831  14.217  67.756  1.00  0.00    -0.185 C  
HETATM   19  O   UNL     1      -9.219  14.272  68.911  1.00  0.00    -0.154 OA 
HETATM   20  O   UNL     1      -7.579  13.816  67.431  1.00  0.00    -0.173 OA 
ENDBRANCH  16  17
ENDBRANCH  15  16
ENDBRANCH  14  15
ENDBRANCH  13  14
ENDBRANCH  12  13
ENDBRANCH  11  12
ENDBRANCH  10  11
ENDBRANCH   9  10
ENDBRANCH   8   9
ENDBRANCH   7   8
ENDBRANCH   6   7
ENDBRANCH   5   6
ENDBRANCH   4   5
ENDBRANCH   3   4
ENDBRANCH   2   3
TORSDOF 15
ENDMDL
MODEL       71
REMARK 921   NORMALIZED FREE ENERGY PREDICTED BY IDOCK:   -4.09 KCAL/MOL
REMARK 922        TOTAL FREE ENERGY PREDICTED BY IDOCK:   -9.47 KCAL/MOL
REMARK 923 INTER-LIGAND FREE ENERGY PREDICTED BY IDOCK:   -8.41 KCAL/MOL
REMARK 924 INTRA-LIGAND FREE ENERGY PREDICTED BY IDOCK:   -1.06 KCAL/MOL
REMARK 927      BINDING AFFINITY PREDICTED BY RF-SCORE:    0.00 PKD
ROOT
HETATM    1  C   UNL     1      -9.477   4.029  70.169  1.00  0.00    -0.258 C  
HETATM    2  C   UNL     1     -10.388   5.202  69.852  1.00  0.00    -0.347 C  
ENDROOT
BRANCH   2   3
HETATM    3  C   UNL     1     -10.807   5.934  71.125  1.00  0.00    -0.334 C  
BRANCH   3   4
HETATM    4  C   UNL     1     -12.094   6.722  70.907  1.00  0.00    -0.421 C  
BRANCH   4   5
HETATM    5  C   UNL     1     -12.217   7.849  71.927  1.00  0.00    -0.351 C  
BRANCH   5   6
HETATM    6  C   UNL     1     -13.600   8.488  71.867  1.00  0.00    -0.427 C  
BRANCH   6   7
HETATM    7  C   UNL     1     -13.490  10.007  71.821  1.00  0.00    -0.422 C  
BRANCH   7   8
HETATM    8  C   UNL     1     -12.144  10.434  71.248  1.00  0.00    -0.461 C  
BRANCH   8   9
HETATM    9  C   UNL     1     -12.238  11.826  70.637  1.00  0.00    -0.443 C  
BRANCH   9  10
HETATM   10  C   UNL     1     -12.934  12.789  71.592  1.00  0.00    -0.402 C  
BRANCH  10  11
HETATM   11  C   UNL     1     -12.568  14.233  71.264  1.00  0.00    -0.436 C  
BRANCH  11  12
HETATM   12  C   UNL     1     -11.442  14.283  70.241  1.00  0.00    -0.226 C  
BRANCH  12  13
HETATM   13  C   UNL     1     -11.772  15.258  69.118  1.00  0.00    -0.355 C  
BRANCH  13  14
HETATM   14  C   UNL     1     -11.971  14.514  67.802  1.00  0.00    -0.345 C  
BRANCH  14  15
HETATM   15  C   UNL     1     -10.738  13.689  67.444  1.00  0.00    -0.272 C  
BRANCH  15  16
HETATM   16  C   UNL     1     -10.552  13.626  65.929  1.00  0.00    -0.289 C  
BRANCH  16  17
HETATM   17  C   UNL     1     -10.501  15.023  65.319  1.00  0.00    -0.428 C  
HETATM   18  C   UNL     1     -11.671  15.273  64.397  1.00  0.00    -0.285 C  
HETATM   19  O   UNL     1     -12.562  14.477  64.149  1.00  0.00    -0.730 OA 
HETATM   20  O   UNL     1     -11.634  16.511  63.850  1.00  0.00    -1.175 OA 
ENDBRANCH  16  17
ENDBRANCH  15  16
ENDBRANCH  14  15
ENDBRANCH  13  14
ENDBRANCH  12  13
ENDBRANCH  11  12
ENDBRANCH  10  11
ENDBRANCH   9  10
ENDBRANCH   8   9
ENDBRANCH   7   8
ENDBRANCH   6   7
ENDBRANCH   5   6
ENDBRANCH   4   5
ENDBRANCH   3   4
ENDBRANCH   2   3
TORSDOF 15
ENDMDL
MODEL       72
REMARK 921   NORMALIZED FREE ENERGY PREDICTED BY IDOCK:   -4.08 KCAL/MOL
REMARK 922        TOTAL FREE ENERGY PREDICTED BY IDOCK:   -9.46 KCAL/MOL
REMARK 923 INTER-LIGAND FREE ENERGY PREDICTED BY IDOCK:   -7.66 KCAL/MOL
REMARK 924 INTRA-LIGAND FREE ENERGY PREDICTED BY IDOCK:   -1.79 KCAL/MOL
REMARK 927      BINDING AFFINITY PREDICTED BY RF-SCORE:    0.00 PKD
ROOT
HETATM    1  C   UNL     1     -13.757   8.939  72.215  1.00  0.00    -0.527 C  
HETATM    2  C   UNL     1     -12.967   9.890  71.334  1.00  0.00    -0.504 C  
ENDROOT
BRANCH   2   3
HETATM    3  C   UNL     1     -11.464   9.687  71.515  1.00  0.00    -0.439 C  
BRANCH   3   4
HETATM    4  C   UNL     1     -10.689  10.223  70.316  1.00  0.00    -0.310 C  
BRANCH   4   5
HETATM    5  C   UNL     1     -11.607  11.014  69.389  1.00  0.00    -0.383 C  
BRANCH   5   6
HETATM    6  C   UNL     1     -11.361  10.639  67.931  1.00  0.00    -0.342 C  
BRANCH   6   7
HETATM    7  C   UNL     1      -9.896  10.834  67.564  1.00  0.00    -0.197 C  
BRANCH   7   8
HETATM    8  C   UNL     1      -9.413   9.714  66.651  1.00  0.00    -0.221 C  
BRANCH   8   9
HETATM    9  C   UNL     1      -9.987   9.877  65.250  1.00  0.00    -0.320 C  
BRANCH   9  10
HETATM   10  C   UNL     1      -9.426  11.126  64.580  1.00  0.00    -0.245 C  
BRANCH  10  11
HETATM   11  C   UNL     1     -10.309  11.556  63.413  1.00  0.00    -0.469 C  
BRANCH  11  12
HETATM   12  C   UNL     1     -11.754  11.721  63.865  1.00  0.00    -0.461 C  
BRANCH  12  13
HETATM   13  C   UNL     1     -12.217  13.161  63.686  1.00  0.00    -0.553 C  
BRANCH  13  14
HETATM   14  C   UNL     1     -12.769  13.714  64.996  1.00  0.00    -0.384 C  
BRANCH  14  15
HETATM   15  C   UNL     1     -11.863  13.356  66.170  1.00  0.00    -0.427 C  
BRANCH  15  16
HETATM   16  C   UNL     1     -11.515  14.601  66.982  1.00  0.00    -0.379 C  
BRANCH  16  17
HETATM   17  C   UNL     1     -10.025  14.918  66.899  1.00  0.00    -0.245 C  
HETATM   18  C   UNL     1      -9.735  15.972  65.856  1.00  0.00    -0.343 C  
HETATM   19  O   UNL     1     -10.567  16.519  65.150  1.00  0.00    -0.632 OA 
HETATM   20  O   UNL     1      -8.415  16.260  65.775  1.00  0.00    -0.283 OA 
ENDBRANCH  16  17
ENDBRANCH  15  16
ENDBRANCH  14  15
ENDBRANCH  13  14
ENDBRANCH  12  13
ENDBRANCH  11  12
ENDBRANCH  10  11
ENDBRANCH   9  10
ENDBRANCH   8   9
ENDBRANCH   7   8
ENDBRANCH   6   7
ENDBRANCH   5   6
ENDBRANCH   4   5
ENDBRANCH   3   4
ENDBRANCH   2   3
TORSDOF 15
ENDMDL
MODEL       73
REMARK 921   NORMALIZED FREE ENERGY PREDICTED BY IDOCK:   -4.08 KCAL/MOL
REMARK 922        TOTAL FREE ENERGY PREDICTED BY IDOCK:   -9.46 KCAL/MOL
REMARK 923 INTER-LIGAND FREE ENERGY PREDICTED BY IDOCK:   -7.43 KCAL/MOL
REMARK 924 INTRA-LIGAND FREE ENERGY PREDICTED BY IDOCK:   -2.02 KCAL/MOL
REMARK 927      BINDING AFFINITY PREDICTED BY RF-SCORE:    0.00 PKD
ROOT
HETATM    1  C   UNL     1      -7.874   6.931  69.262  1.00  0.00    -0.114 C  
HETATM    2  C   UNL     1      -8.942   6.724  68.204  1.00  0.00    -0.118 C  
ENDROOT
BRANCH   2   3
HETATM    3  C   UNL     1      -9.933   5.642  68.626  1.00  0.00    -0.213 C  
BRANCH   3   4
HETATM    4  C   UNL     1     -10.969   6.194  69.599  1.00  0.00    -0.459 C  
BRANCH   4   5
HETATM    5  C   UNL     1     -10.753   5.628  70.999  1.00  0.00    -0.304 C  
BRANCH   5   6
HETATM    6  C   UNL     1     -11.677   6.302  72.007  1.00  0.00    -0.374 C  
BRANCH   6   7
HETATM    7  C   UNL     1     -12.469   7.423  71.346  1.00  0.00    -0.402 C  
BRANCH   7   8
HETATM    8  C   UNL     1     -12.245   8.744  72.072  1.00  0.00    -0.447 C  
BRANCH   8   9
HETATM    9  C   UNL     1     -11.706   9.799  71.115  1.00  0.00    -0.465 C  
BRANCH   9  10
HETATM   10  C   UNL     1     -10.227   9.565  70.830  1.00  0.00    -0.356 C  
BRANCH  10  11
HETATM   11  C   UNL     1      -9.857  10.078  69.442  1.00  0.00    -0.240 C  
BRANCH  11  12
HETATM   12  C   UNL     1     -10.990   9.828  68.457  1.00  0.00    -0.195 C  
BRANCH  12  13
HETATM   13  C   UNL     1     -11.243  11.059  67.597  1.00  0.00    -0.373 C  
BRANCH  13  14
HETATM   14  C   UNL     1     -10.767  12.320  68.311  1.00  0.00    -0.244 C  
BRANCH  14  15
HETATM   15  C   UNL     1     -10.262  13.360  67.315  1.00  0.00    -0.241 C  
BRANCH  15  16
HETATM   16  C   UNL     1     -11.414  13.906  66.474  1.00  0.00    -0.361 C  
BRANCH  16  17
HETATM   17  C   UNL     1     -11.062  15.259  65.864  1.00  0.00    -0.287 C  
HETATM   18  C   UNL     1     -11.764  15.476  64.544  1.00  0.00    -0.253 C  
HETATM   19  O   UNL     1     -12.523  14.687  64.005  1.00  0.00    -0.796 OA 
HETATM   20  O   UNL     1     -11.458  16.675  63.994  1.00  0.00    -1.192 OA 
ENDBRANCH  16  17
ENDBRANCH  15  16
ENDBRANCH  14  15
ENDBRANCH  13  14
ENDBRANCH  12  13
ENDBRANCH  11  12
ENDBRANCH  10  11
ENDBRANCH   9  10
ENDBRANCH   8   9
ENDBRANCH   7   8
ENDBRANCH   6   7
ENDBRANCH   5   6
ENDBRANCH   4   5
ENDBRANCH   3   4
ENDBRANCH   2   3
TORSDOF 15
ENDMDL
MODEL       74
REMARK 921   NORMALIZED FREE ENERGY PREDICTED BY IDOCK:   -4.08 KCAL/MOL
REMARK 922        TOTAL FREE ENERGY PREDICTED BY IDOCK:   -9.46 KCAL/MOL
REMARK 923 INTER-LIGAND FREE ENERGY PREDICTED BY IDOCK:   -7.24 KCAL/MOL
REMARK 924 INTRA-LIGAND FREE ENERGY PREDICTED BY IDOCK:   -2.21 KCAL/MOL
REMARK 927      BINDING AFFINITY PREDICTED BY RF-SCORE:    0.00 PKD
ROOT
HETATM    1  C   UNL     1     -10.158  11.665  67.403  1.00  0.00    -0.218 C  
HETATM    2  C   UNL     1     -10.967  11.935  66.147  1.00  0.00    -0.352 C  
ENDROOT
BRANCH   2   3
HETATM    3  C   UNL     1     -12.141  12.866  66.439  1.00  0.00    -0.400 C  
BRANCH   3   4
HETATM    4  C   UNL     1     -12.374  13.834  65.284  1.00  0.00    -0.491 C  
BRANCH   4   5
HETATM    5  C   UNL     1     -11.048  14.325  64.713  1.00  0.00    -0.398 C  
BRANCH   5   6
HETATM    6  C   UNL     1     -10.658  15.668  65.321  1.00  0.00    -0.448 C  
BRANCH   6   7
HETATM    7  C   UNL     1      -9.341  15.554  66.079  1.00  0.00    -0.379 C  
BRANCH   7   8
HETATM    8  C   UNL     1      -9.585  15.501  67.582  1.00  0.00    -0.210 C  
BRANCH   8   9
HETATM    9  C   UNL     1     -10.848  16.268  67.949  1.00  0.00    -0.330 C  
BRANCH   9  10
HETATM   10  C   UNL     1     -11.788  15.397  68.774  1.00  0.00    -0.339 C  
BRANCH  10  11
HETATM   11  C   UNL     1     -11.544  15.601  70.265  1.00  0.00    -0.370 C  
BRANCH  11  12
HETATM   12  C   UNL     1     -12.042  14.401  71.060  1.00  0.00    -0.417 C  
BRANCH  12  13
HETATM   13  C   UNL     1     -12.168  13.173  70.167  1.00  0.00    -0.360 C  
BRANCH  13  14
HETATM   14  C   UNL     1     -12.559  11.950  70.990  1.00  0.00    -0.381 C  
BRANCH  14  15
HETATM   15  C   UNL     1     -12.079  10.663  70.324  1.00  0.00    -0.423 C  
BRANCH  15  16
HETATM   16  C   UNL     1     -11.476   9.714  71.358  1.00  0.00    -0.455 C  
BRANCH  16  17
HETATM   17  C   UNL     1     -10.862   8.486  70.691  1.00  0.00    -0.255 C  
HETATM   18  C   UNL     1     -11.782   7.290  70.769  1.00  0.00    -0.299 C  
HETATM   19  O   UNL     1     -12.883   7.275  71.294  1.00  0.00    -0.367 OA 
HETATM   20  O   UNL     1     -11.245   6.195  70.180  1.00  0.00    -0.351 OA 
ENDBRANCH  16  17
ENDBRANCH  15  16
ENDBRANCH  14  15
ENDBRANCH  13  14
ENDBRANCH  12  13
ENDBRANCH  11  12
ENDBRANCH  10  11
ENDBRANCH   9  10
ENDBRANCH   8   9
ENDBRANCH   7   8
ENDBRANCH   6   7
ENDBRANCH   5   6
ENDBRANCH   4   5
ENDBRANCH   3   4
ENDBRANCH   2   3
TORSDOF 15
ENDMDL
MODEL       75
REMARK 921   NORMALIZED FREE ENERGY PREDICTED BY IDOCK:   -4.07 KCAL/MOL
REMARK 922        TOTAL FREE ENERGY PREDICTED BY IDOCK:   -9.44 KCAL/MOL
REMARK 923 INTER-LIGAND FREE ENERGY PREDICTED BY IDOCK:   -7.02 KCAL/MOL
REMARK 924 INTRA-LIGAND FREE ENERGY PREDICTED BY IDOCK:   -2.42 KCAL/MOL
REMARK 927      BINDING AFFINITY PREDICTED BY RF-SCORE:    0.00 PKD
ROOT
HETATM    1  C   UNL     1     -12.579  12.063  63.275  1.00  0.00    -0.512 C  
HETATM    2  C   UNL     1     -11.110  12.195  63.632  1.00  0.00    -0.528 C  
ENDROOT
BRANCH   2   3
HETATM    3  C   UNL     1     -10.866  13.414  64.518  1.00  0.00    -0.419 C  
BRANCH   3   4
HETATM    4  C   UNL     1     -12.164  13.900  65.154  1.00  0.00    -0.443 C  
BRANCH   4   5
HETATM    5  C   UNL     1     -12.137  13.696  66.665  1.00  0.00    -0.459 C  
BRANCH   5   6
HETATM    6  C   UNL     1     -11.880  12.233  67.011  1.00  0.00    -0.329 C  
BRANCH   6   7
HETATM    7  C   UNL     1     -11.525  12.082  68.484  1.00  0.00    -0.345 C  
BRANCH   7   8
HETATM    8  C   UNL     1     -10.015  11.997  68.671  1.00  0.00    -0.151 C  
BRANCH   8   9
HETATM    9  C   UNL     1      -9.317  11.818  67.330  1.00  0.00    -0.171 C  
BRANCH   9  10
HETATM   10  C   UNL     1      -8.246  12.885  67.133  1.00  0.00    -0.142 C  
BRANCH  10  11
HETATM   11  C   UNL     1      -8.423  14.020  68.136  1.00  0.00    -0.172 C  
BRANCH  11  12
HETATM   12  C   UNL     1      -9.055  15.233  67.468  1.00  0.00    -0.189 C  
BRANCH  12  13
HETATM   13  C   UNL     1      -9.098  16.418  68.423  1.00  0.00    -0.214 C  
BRANCH  13  14
HETATM   14  C   UNL     1      -9.932  16.084  69.656  1.00  0.00    -0.226 C  
BRANCH  14  15
HETATM   15  C   UNL     1     -11.424  16.117  69.338  1.00  0.00    -0.296 C  
BRANCH  15  16
HETATM   16  C   UNL     1     -12.190  15.152  70.241  1.00  0.00    -0.395 C  
BRANCH  16  17
HETATM   17  C   UNL     1     -11.957  15.469  71.715  1.00  0.00    -0.494 C  
HETATM   18  C   UNL     1     -13.258  15.698  72.448  1.00  0.00    -0.474 C  
HETATM   19  O   UNL     1     -14.372  15.644  71.953  1.00  0.00    -0.466 OA 
HETATM   20  O   UNL     1     -13.062  15.981  73.758  1.00  0.00    -0.590 OA 
ENDBRANCH  16  17
ENDBRANCH  15  16
ENDBRANCH  14  15
ENDBRANCH  13  14
ENDBRANCH  12  13
ENDBRANCH  11  12
ENDBRANCH  10  11
ENDBRANCH   9  10
ENDBRANCH   8   9
ENDBRANCH   7   8
ENDBRANCH   6   7
ENDBRANCH   5   6
ENDBRANCH   4   5
ENDBRANCH   3   4
ENDBRANCH   2   3
TORSDOF 15
ENDMDL
MODEL       76
REMARK 921   NORMALIZED FREE ENERGY PREDICTED BY IDOCK:   -4.07 KCAL/MOL
REMARK 922        TOTAL FREE ENERGY PREDICTED BY IDOCK:   -9.43 KCAL/MOL
REMARK 923 INTER-LIGAND FREE ENERGY PREDICTED BY IDOCK:   -6.44 KCAL/MOL
REMARK 924 INTRA-LIGAND FREE ENERGY PREDICTED BY IDOCK:   -3.00 KCAL/MOL
REMARK 927      BINDING AFFINITY PREDICTED BY RF-SCORE:    0.00 PKD
ROOT
HETATM    1  C   UNL     1     -12.604  12.063  63.460  1.00  0.00    -0.625 C  
HETATM    2  C   UNL     1     -11.150  11.718  63.726  1.00  0.00    -0.513 C  
ENDROOT
BRANCH   2   3
HETATM    3  C   UNL     1     -10.580  12.572  64.857  1.00  0.00    -0.330 C  
BRANCH   3   4
HETATM    4  C   UNL     1     -10.929  14.044  64.664  1.00  0.00    -0.401 C  
BRANCH   4   5
HETATM    5  C   UNL     1     -11.609  14.606  65.908  1.00  0.00    -0.327 C  
BRANCH   5   6
HETATM    6  C   UNL     1     -11.907  13.498  66.912  1.00  0.00    -0.452 C  
BRANCH   6   7
HETATM    7  C   UNL     1     -11.789  14.018  68.339  1.00  0.00    -0.397 C  
BRANCH   7   8
HETATM    8  C   UNL     1     -11.771  12.864  69.335  1.00  0.00    -0.382 C  
BRANCH   8   9
HETATM    9  C   UNL     1     -11.856  11.528  68.611  1.00  0.00    -0.382 C  
BRANCH   9  10
HETATM   10  C   UNL     1     -11.058  10.461  69.351  1.00  0.00    -0.304 C  
BRANCH  10  11
HETATM   11  C   UNL     1      -9.560  10.675  69.154  1.00  0.00    -0.193 C  
BRANCH  11  12
HETATM   12  C   UNL     1      -9.205  10.659  67.674  1.00  0.00    -0.153 C  
BRANCH  12  13
HETATM   13  C   UNL     1      -8.042  11.599  67.385  1.00  0.00    -0.153 C  
BRANCH  13  14
HETATM   14  C   UNL     1      -8.206  12.908  68.150  1.00  0.00    -0.163 C  
BRANCH  14  15
HETATM   15  C   UNL     1      -8.231  14.102  67.201  1.00  0.00    -0.166 C  
BRANCH  15  16
HETATM   16  C   UNL     1      -8.233  15.413  67.983  1.00  0.00    -0.146 C  
BRANCH  16  17
HETATM   17  C   UNL     1      -8.550  16.599  67.077  1.00  0.00    -0.220 C  
HETATM   18  C   UNL     1      -7.307  17.136  66.405  1.00  0.00    -0.299 C  
HETATM   19  O   UNL     1      -6.177  16.699  66.549  1.00  0.00    -0.293 OA 
HETATM   20  O   UNL     1      -7.578  18.189  65.599  1.00  0.00    -0.538 OA 
ENDBRANCH  16  17
ENDBRANCH  15  16
ENDBRANCH  14  15
ENDBRANCH  13  14
ENDBRANCH  12  13
ENDBRANCH  11  12
ENDBRANCH  10  11
ENDBRANCH   9  10
ENDBRANCH   8   9
ENDBRANCH   7   8
ENDBRANCH   6   7
ENDBRANCH   5   6
ENDBRANCH   4   5
ENDBRANCH   3   4
ENDBRANCH   2   3
TORSDOF 15
ENDMDL
MODEL       77
REMARK 921   NORMALIZED FREE ENERGY PREDICTED BY IDOCK:   -4.07 KCAL/MOL
REMARK 922        TOTAL FREE ENERGY PREDICTED BY IDOCK:   -9.43 KCAL/MOL
REMARK 923 INTER-LIGAND FREE ENERGY PREDICTED BY IDOCK:   -7.53 KCAL/MOL
REMARK 924 INTRA-LIGAND FREE ENERGY PREDICTED BY IDOCK:   -1.89 KCAL/MOL
REMARK 927      BINDING AFFINITY PREDICTED BY RF-SCORE:    0.00 PKD
ROOT
HETATM    1  C   UNL     1     -13.375  15.379  71.215  1.00  0.00    -0.598 C  
HETATM    2  C   UNL     1     -12.126  14.777  70.596  1.00  0.00    -0.374 C  
ENDROOT
BRANCH   2   3
HETATM    3  C   UNL     1     -11.391  15.800  69.734  1.00  0.00    -0.339 C  
BRANCH   3   4
HETATM    4  C   UNL     1     -10.806  15.148  68.485  1.00  0.00    -0.247 C  
BRANCH   4   5
HETATM    5  C   UNL     1     -11.905  14.500  67.649  1.00  0.00    -0.395 C  
BRANCH   5   6
HETATM    6  C   UNL     1     -11.591  14.612  66.160  1.00  0.00    -0.332 C  
BRANCH   6   7
HETATM    7  C   UNL     1     -12.610  13.836  65.336  1.00  0.00    -0.534 C  
BRANCH   7   8
HETATM    8  C   UNL     1     -12.015  13.416  63.997  1.00  0.00    -0.520 C  
BRANCH   8   9
HETATM    9  C   UNL     1     -11.842  11.904  63.936  1.00  0.00    -0.509 C  
BRANCH   9  10
HETATM   10  C   UNL     1     -10.368  11.526  64.027  1.00  0.00    -0.406 C  
BRANCH  10  11
HETATM   11  C   UNL     1     -10.143  10.495  65.129  1.00  0.00    -0.383 C  
BRANCH  11  12
HETATM   12  C   UNL     1     -10.205  11.153  66.500  1.00  0.00    -0.275 C  
BRANCH  12  13
HETATM   13  C   UNL     1     -10.884  10.237  67.511  1.00  0.00    -0.355 C  
BRANCH  13  14
HETATM   14  C   UNL     1     -11.907  11.011  68.335  1.00  0.00    -0.254 C  
BRANCH  14  15
HETATM   15  C   UNL     1     -11.410  11.236  69.760  1.00  0.00    -0.348 C  
BRANCH  15  16
HETATM   16  C   UNL     1     -10.900   9.930  70.366  1.00  0.00    -0.380 C  
BRANCH  16  17
HETATM   17  C   UNL     1     -11.972   9.259  71.218  1.00  0.00    -0.414 C  
HETATM   18  C   UNL     1     -11.905   7.752  71.116  1.00  0.00    -0.291 C  
HETATM   19  O   UNL     1     -11.106   7.122  70.443  1.00  0.00    -0.262 OA 
HETATM   20  O   UNL     1     -12.853   7.147  71.869  1.00  0.00    -0.318 OA 
ENDBRANCH  16  17
ENDBRANCH  15  16
ENDBRANCH  14  15
ENDBRANCH  13  14
ENDBRANCH  12  13
ENDBRANCH  11  12
ENDBRANCH  10  11
ENDBRANCH   9  10
ENDBRANCH   8   9
ENDBRANCH   7   8
ENDBRANCH   6   7
ENDBRANCH   5   6
ENDBRANCH   4   5
ENDBRANCH   3   4
ENDBRANCH   2   3
TORSDOF 15
ENDMDL
MODEL       78
REMARK 921   NORMALIZED FREE ENERGY PREDICTED BY IDOCK:   -4.06 KCAL/MOL
REMARK 922        TOTAL FREE ENERGY PREDICTED BY IDOCK:   -9.42 KCAL/MOL
REMARK 923 INTER-LIGAND FREE ENERGY PREDICTED BY IDOCK:   -7.23 KCAL/MOL
REMARK 924 INTRA-LIGAND FREE ENERGY PREDICTED BY IDOCK:   -2.19 KCAL/MOL
REMARK 927      BINDING AFFINITY PREDICTED BY RF-SCORE:    0.00 PKD
ROOT
HETATM    1  C   UNL     1     -13.976  14.043  72.354  1.00  0.00    -0.622 C  
HETATM    2  C   UNL     1     -12.659  14.184  71.612  1.00  0.00    -0.420 C  
ENDROOT
BRANCH   2   3
HETATM    3  C   UNL     1     -12.604  15.494  70.831  1.00  0.00    -0.512 C  
BRANCH   3   4
HETATM    4  C   UNL     1     -11.971  15.289  69.459  1.00  0.00    -0.356 C  
BRANCH   4   5
HETATM    5  C   UNL     1     -12.138  13.845  68.996  1.00  0.00    -0.365 C  
BRANCH   5   6
HETATM    6  C   UNL     1     -11.614  13.666  67.575  1.00  0.00    -0.384 C  
BRANCH   6   7
HETATM    7  C   UNL     1     -11.369  12.193  67.273  1.00  0.00    -0.398 C  
BRANCH   7   8
HETATM    8  C   UNL     1      -9.941  11.798  67.632  1.00  0.00    -0.204 C  
BRANCH   8   9
HETATM    9  C   UNL     1      -9.936  10.712  68.699  1.00  0.00    -0.188 C  
BRANCH   9  10
HETATM   10  C   UNL     1     -11.359  10.294  69.051  1.00  0.00    -0.237 C  
BRANCH  10  11
HETATM   11  C   UNL     1     -11.662  10.589  70.516  1.00  0.00    -0.443 C  
BRANCH  11  12
HETATM   12  C   UNL     1     -13.133  10.343  70.821  1.00  0.00    -0.362 C  
BRANCH  12  13
HETATM   13  C   UNL     1     -13.300   9.638  72.161  1.00  0.00    -0.545 C  
BRANCH  13  14
HETATM   14  C   UNL     1     -14.318   8.508  72.050  1.00  0.00    -0.537 C  
BRANCH  14  15
HETATM   15  C   UNL     1     -13.766   7.348  71.225  1.00  0.00    -0.347 C  
BRANCH  15  16
HETATM   16  C   UNL     1     -12.507   6.776  71.873  1.00  0.00    -0.355 C  
BRANCH  16  17
HETATM   17  C   UNL     1     -11.352   6.716  70.879  1.00  0.00    -0.377 C  
HETATM   18  C   UNL     1     -10.166   7.524  71.352  1.00  0.00    -0.186 C  
HETATM   19  O   UNL     1     -10.109   8.159  72.393  1.00  0.00    -0.232 OA 
HETATM   20  O   UNL     1      -9.134   7.477  70.476  1.00  0.00    -0.154 OA 
ENDBRANCH  16  17
ENDBRANCH  15  16
ENDBRANCH  14  15
ENDBRANCH  13  14
ENDBRANCH  12  13
ENDBRANCH  11  12
ENDBRANCH  10  11
ENDBRANCH   9  10
ENDBRANCH   8   9
ENDBRANCH   7   8
ENDBRANCH   6   7
ENDBRANCH   5   6
ENDBRANCH   4   5
ENDBRANCH   3   4
ENDBRANCH   2   3
TORSDOF 15
ENDMDL
MODEL       79
REMARK 921   NORMALIZED FREE ENERGY PREDICTED BY IDOCK:   -4.06 KCAL/MOL
REMARK 922        TOTAL FREE ENERGY PREDICTED BY IDOCK:   -9.41 KCAL/MOL
REMARK 923 INTER-LIGAND FREE ENERGY PREDICTED BY IDOCK:   -6.78 KCAL/MOL
REMARK 924 INTRA-LIGAND FREE ENERGY PREDICTED BY IDOCK:   -2.62 KCAL/MOL
REMARK 927      BINDING AFFINITY PREDICTED BY RF-SCORE:    0.00 PKD
ROOT
HETATM    1  C   UNL     1      -6.277  18.282  67.973  1.00  0.00    -0.181 C  
HETATM    2  C   UNL     1      -6.362  18.031  66.479  1.00  0.00    -0.239 C  
ENDROOT
BRANCH   2   3
HETATM    3  C   UNL     1      -7.290  19.038  65.803  1.00  0.00    -0.232 C  
BRANCH   3   4
HETATM    4  C   UNL     1      -8.106  19.810  66.835  1.00  0.00    -0.328 C  
BRANCH   4   5
HETATM    5  C   UNL     1      -9.537  20.016  66.347  1.00  0.00    -0.536 C  
BRANCH   5   6
HETATM    6  C   UNL     1     -10.532  19.324  67.273  1.00  0.00    -0.566 C  
BRANCH   6   7
HETATM    7  C   UNL     1      -9.913  19.081  68.643  1.00  0.00    -0.482 C  
BRANCH   7   8
HETATM    8  C   UNL     1     -10.202  17.663  69.123  1.00  0.00    -0.238 C  
BRANCH   8   9
HETATM    9  C   UNL     1     -10.668  16.789  67.967  1.00  0.00    -0.355 C  
BRANCH   9  10
HETATM   10  C   UNL     1      -9.647  15.696  67.673  1.00  0.00    -0.220 C  
BRANCH  10  11
HETATM   11  C   UNL     1      -9.348  15.624  66.179  1.00  0.00    -0.382 C  
BRANCH  11  12
HETATM   12  C   UNL     1     -10.330  16.482  65.393  1.00  0.00    -0.246 C  
BRANCH  12  13
HETATM   13  C   UNL     1     -11.281  15.612  64.581  1.00  0.00    -0.380 C  
BRANCH  13  14
HETATM   14  C   UNL     1     -10.759  14.182  64.493  1.00  0.00    -0.323 C  
BRANCH  14  15
HETATM   15  C   UNL     1     -11.906  13.184  64.364  1.00  0.00    -0.441 C  
BRANCH  15  16
HETATM   16  C   UNL     1     -11.554  11.866  65.052  1.00  0.00    -0.277 C  
BRANCH  16  17
HETATM   17  C   UNL     1     -10.431  12.054  66.066  1.00  0.00    -0.284 C  
HETATM   18  C   UNL     1     -10.897  11.769  67.475  1.00  0.00    -0.239 C  
HETATM   19  O   UNL     1     -12.024  11.430  67.795  1.00  0.00    -0.637 OA 
HETATM   20  O   UNL     1      -9.905  11.933  68.383  1.00  0.00    -0.198 OA 
ENDBRANCH  16  17
ENDBRANCH  15  16
ENDBRANCH  14  15
ENDBRANCH  13  14
ENDBRANCH  12  13
ENDBRANCH  11  12
ENDBRANCH  10  11
ENDBRANCH   9  10
ENDBRANCH   8   9
ENDBRANCH   7   8
ENDBRANCH   6   7
ENDBRANCH   5   6
ENDBRANCH   4   5
ENDBRANCH   3   4
ENDBRANCH   2   3
TORSDOF 15
ENDMDL
MODEL       80
REMARK 921   NORMALIZED FREE ENERGY PREDICTED BY IDOCK:   -4.05 KCAL/MOL
REMARK 922        TOTAL FREE ENERGY PREDICTED BY IDOCK:   -9.40 KCAL/MOL
REMARK 923 INTER-LIGAND FREE ENERGY PREDICTED BY IDOCK:   -7.19 KCAL/MOL
REMARK 924 INTRA-LIGAND FREE ENERGY PREDICTED BY IDOCK:   -2.20 KCAL/MOL
REMARK 927      BINDING AFFINITY PREDICTED BY RF-SCORE:    0.00 PKD
ROOT
HETATM    1  C   UNL     1     -12.263  14.438  64.579  1.00  0.00    -0.483 C  
HETATM    2  C   UNL     1     -12.842  13.042  64.721  1.00  0.00    -0.336 C  
ENDROOT
BRANCH   2   3
HETATM    3  C   UNL     1     -12.376  12.134  63.585  1.00  0.00    -0.673 C  
BRANCH   3   4
HETATM    4  C   UNL     1     -10.854  12.123  63.480  1.00  0.00    -0.518 C  
BRANCH   4   5
HETATM    5  C   UNL     1     -10.279  10.851  64.095  1.00  0.00    -0.424 C  
BRANCH   5   6
HETATM    6  C   UNL     1      -9.482  11.169  65.355  1.00  0.00    -0.253 C  
BRANCH   6   7
HETATM    7  C   UNL     1     -10.201  10.648  66.593  1.00  0.00    -0.284 C  
BRANCH   7   8
HETATM    8  C   UNL     1      -9.972  11.575  67.781  1.00  0.00    -0.195 C  
BRANCH   8   9
HETATM    9  C   UNL     1     -10.311  13.014  67.414  1.00  0.00    -0.234 C  
BRANCH   9  10
HETATM   10  C   UNL     1      -9.083  13.907  67.542  1.00  0.00    -0.201 C  
BRANCH  10  11
HETATM   11  C   UNL     1      -9.453  15.370  67.321  1.00  0.00    -0.215 C  
BRANCH  11  12
HETATM   12  C   UNL     1     -10.905  15.619  67.705  1.00  0.00    -0.307 C  
BRANCH  12  13
HETATM   13  C   UNL     1     -10.997  16.542  68.913  1.00  0.00    -0.325 C  
BRANCH  13  14
HETATM   14  C   UNL     1     -10.870  15.746  70.208  1.00  0.00    -0.363 C  
BRANCH  14  15
HETATM   15  C   UNL     1     -12.110  15.916  71.082  1.00  0.00    -0.464 C  
BRANCH  15  16
HETATM   16  C   UNL     1     -12.939  14.634  71.096  1.00  0.00    -0.415 C  
BRANCH  16  17
HETATM   17  C   UNL     1     -12.164  13.466  70.494  1.00  0.00    -0.425 C  
HETATM   18  C   UNL     1     -12.505  12.160  71.174  1.00  0.00    -0.234 C  
HETATM   19  O   UNL     1     -13.295  12.023  72.093  1.00  0.00    -0.510 OA 
HETATM   20  O   UNL     1     -11.821  11.117  70.646  1.00  0.00    -0.335 OA 
ENDBRANCH  16  17
ENDBRANCH  15  16
ENDBRANCH  14  15
ENDBRANCH  13  14
ENDBRANCH  12  13
ENDBRANCH  11  12
ENDBRANCH  10  11
ENDBRANCH   9  10
ENDBRANCH   8   9
ENDBRANCH   7   8
ENDBRANCH   6   7
ENDBRANCH   5   6
ENDBRANCH   4   5
ENDBRANCH   3   4
ENDBRANCH   2   3
TORSDOF 15
ENDMDL
MODEL       81
REMARK 921   NORMALIZED FREE ENERGY PREDICTED BY IDOCK:   -4.05 KCAL/MOL
REMARK 922        TOTAL FREE ENERGY PREDICTED BY IDOCK:   -9.39 KCAL/MOL
REMARK 923 INTER-LIGAND FREE ENERGY PREDICTED BY IDOCK:   -6.81 KCAL/MOL
REMARK 924 INTRA-LIGAND FREE ENERGY PREDICTED BY IDOCK:   -2.58 KCAL/MOL
REMARK 927      BINDING AFFINITY PREDICTED BY RF-SCORE:    0.00 PKD
ROOT
HETATM    1  C   UNL     1      -9.105   7.400  66.545  1.00  0.00    -0.195 C  
HETATM    2  C   UNL     1     -10.509   7.568  67.097  1.00  0.00    -0.407 C  
ENDROOT
BRANCH   2   3
HETATM    3  C   UNL     1     -10.483   7.792  68.607  1.00  0.00    -0.199 C  
BRANCH   3   4
HETATM    4  C   UNL     1      -9.967   9.186  68.947  1.00  0.00    -0.189 C  
BRANCH   4   5
HETATM    5  C   UNL     1     -11.109  10.196  68.965  1.00  0.00    -0.249 C  
BRANCH   5   6
HETATM    6  C   UNL     1     -11.109  11.040  67.695  1.00  0.00    -0.363 C  
BRANCH   6   7
HETATM    7  C   UNL     1      -9.765  11.733  67.509  1.00  0.00    -0.185 C  
BRANCH   7   8
HETATM    8  C   UNL     1      -9.221  11.491  66.106  1.00  0.00    -0.230 C  
BRANCH   8   9
HETATM    9  C   UNL     1     -10.173  10.612  65.305  1.00  0.00    -0.351 C  
BRANCH   9  10
HETATM   10  C   UNL     1      -9.978  10.830  63.809  1.00  0.00    -0.411 C  
BRANCH  10  11
HETATM   11  C   UNL     1     -10.693  12.096  63.350  1.00  0.00    -0.461 C  
BRANCH  11  12
HETATM   12  C   UNL     1     -12.196  11.971  63.561  1.00  0.00    -0.653 C  
BRANCH  12  13
HETATM   13  C   UNL     1     -12.654  12.830  64.732  1.00  0.00    -0.518 C  
BRANCH  13  14
HETATM   14  C   UNL     1     -12.146  14.260  64.580  1.00  0.00    -0.499 C  
BRANCH  14  15
HETATM   15  C   UNL     1     -11.318  14.683  65.790  1.00  0.00    -0.340 C  
BRANCH  15  16
HETATM   16  C   UNL     1     -12.088  14.434  67.084  1.00  0.00    -0.367 C  
BRANCH  16  17
HETATM   17  C   UNL     1     -11.441  15.158  68.261  1.00  0.00    -0.350 C  
HETATM   18  C   UNL     1     -11.726  14.460  69.571  1.00  0.00    -0.313 C  
HETATM   19  O   UNL     1     -12.388  13.444  69.704  1.00  0.00    -0.247 OA 
HETATM   20  O   UNL     1     -11.156  15.096  70.622  1.00  0.00    -0.288 OA 
ENDBRANCH  16  17
ENDBRANCH  15  16
ENDBRANCH  14  15
ENDBRANCH  13  14
ENDBRANCH  12  13
ENDBRANCH  11  12
ENDBRANCH  10  11
ENDBRANCH   9  10
ENDBRANCH   8   9
ENDBRANCH   7   8
ENDBRANCH   6   7
ENDBRANCH   5   6
ENDBRANCH   4   5
ENDBRANCH   3   4
ENDBRANCH   2   3
TORSDOF 15
ENDMDL
MODEL       82
REMARK 921   NORMALIZED FREE ENERGY PREDICTED BY IDOCK:   -4.04 KCAL/MOL
REMARK 922        TOTAL FREE ENERGY PREDICTED BY IDOCK:   -9.39 KCAL/MOL
REMARK 923 INTER-LIGAND FREE ENERGY PREDICTED BY IDOCK:   -6.91 KCAL/MOL
REMARK 924 INTRA-LIGAND FREE ENERGY PREDICTED BY IDOCK:   -2.48 KCAL/MOL
REMARK 927      BINDING AFFINITY PREDICTED BY RF-SCORE:    0.00 PKD
ROOT
HETATM    1  C   UNL     1     -12.181  11.983  63.570  1.00  0.00    -0.653 C  
HETATM    2  C   UNL     1     -12.106  13.465  63.889  1.00  0.00    -0.514 C  
ENDROOT
BRANCH   2   3
HETATM    3  C   UNL     1     -12.729  13.768  65.250  1.00  0.00    -0.481 C  
BRANCH   3   4
HETATM    4  C   UNL     1     -11.699  14.360  66.206  1.00  0.00    -0.394 C  
BRANCH   4   5
HETATM    5  C   UNL     1     -11.770  13.676  67.568  1.00  0.00    -0.406 C  
BRANCH   5   6
HETATM    6  C   UNL     1     -11.509  12.179  67.439  1.00  0.00    -0.415 C  
BRANCH   6   7
HETATM    7  C   UNL     1     -10.089  11.919  66.953  1.00  0.00    -0.229 C  
BRANCH   7   8
HETATM    8  C   UNL     1      -9.087  12.116  68.085  1.00  0.00    -0.196 C  
BRANCH   8   9
HETATM    9  C   UNL     1      -7.842  12.835  67.581  1.00  0.00    -0.165 C  
BRANCH   9  10
HETATM   10  C   UNL     1      -7.760  14.242  68.163  1.00  0.00    -0.141 C  
BRANCH  10  11
HETATM   11  C   UNL     1      -7.637  15.279  67.051  1.00  0.00    -0.161 C  
BRANCH  11  12
HETATM   12  C   UNL     1      -8.761  16.301  67.144  1.00  0.00    -0.213 C  
BRANCH  12  13
HETATM   13  C   UNL     1      -9.337  16.348  68.553  1.00  0.00    -0.225 C  
BRANCH  13  14
HETATM   14  C   UNL     1     -10.595  17.209  68.590  1.00  0.00    -0.352 C  
BRANCH  14  15
HETATM   15  C   UNL     1     -10.782  17.970  67.280  1.00  0.00    -0.305 C  
BRANCH  15  16
HETATM   16  C   UNL     1     -10.623  19.472  67.502  1.00  0.00    -0.599 C  
BRANCH  16  17
HETATM   17  C   UNL     1      -9.434  20.025  66.721  1.00  0.00    -0.530 C  
HETATM   18  C   UNL     1      -8.180  20.058  67.563  1.00  0.00    -0.329 C  
HETATM   19  O   UNL     1      -8.095  19.696  68.726  1.00  0.00    -0.340 OA 
HETATM   20  O   UNL     1      -7.119  20.547  66.879  1.00  0.00    -0.261 OA 
ENDBRANCH  16  17
ENDBRANCH  15  16
ENDBRANCH  14  15
ENDBRANCH  13  14
ENDBRANCH  12  13
ENDBRANCH  11  12
ENDBRANCH  10  11
ENDBRANCH   9  10
ENDBRANCH   8   9
ENDBRANCH   7   8
ENDBRANCH   6   7
ENDBRANCH   5   6
ENDBRANCH   4   5
ENDBRANCH   3   4
ENDBRANCH   2   3
TORSDOF 15
ENDMDL
MODEL       83
REMARK 921   NORMALIZED FREE ENERGY PREDICTED BY IDOCK:   -4.04 KCAL/MOL
REMARK 922        TOTAL FREE ENERGY PREDICTED BY IDOCK:   -9.39 KCAL/MOL
REMARK 923 INTER-LIGAND FREE ENERGY PREDICTED BY IDOCK:   -7.34 KCAL/MOL
REMARK 924 INTRA-LIGAND FREE ENERGY PREDICTED BY IDOCK:   -2.04 KCAL/MOL
REMARK 927      BINDING AFFINITY PREDICTED BY RF-SCORE:    0.00 PKD
ROOT
HETATM    1  C   UNL     1     -11.612  11.380  67.482  1.00  0.00    -0.298 C  
HETATM    2  C   UNL     1     -11.940  11.886  68.875  1.00  0.00    -0.313 C  
ENDROOT
BRANCH   2   3
HETATM    3  C   UNL     1     -11.365  10.962  69.946  1.00  0.00    -0.381 C  
BRANCH   3   4
HETATM    4  C   UNL     1     -11.916  11.309  71.325  1.00  0.00     0.030 C  
BRANCH   4   5
HETATM    5  C   UNL     1     -13.256  12.028  71.206  1.00  0.00    -0.071 C  
BRANCH   5   6
HETATM    6  C   UNL     1     -13.429  13.044  72.331  1.00  0.00    -0.615 C  
BRANCH   6   7
HETATM    7  C   UNL     1     -14.384  14.154  71.912  1.00  0.00    -0.541 C  
BRANCH   7   8
HETATM    8  C   UNL     1     -13.625  15.300  71.253  1.00  0.00    -0.584 C  
BRANCH   8   9
HETATM    9  C   UNL     1     -12.193  15.361  71.767  1.00  0.00    -0.450 C  
BRANCH   9  10
HETATM   10  C   UNL     1     -11.201  15.164  70.626  1.00  0.00    -0.321 C  
BRANCH  10  11
HETATM   11  C   UNL     1     -10.840  16.502  69.988  1.00  0.00    -0.258 C  
BRANCH  11  12
HETATM   12  C   UNL     1      -9.794  16.312  68.899  1.00  0.00    -0.246 C  
BRANCH  12  13
HETATM   13  C   UNL     1      -9.518  14.832  68.664  1.00  0.00    -0.213 C  
BRANCH  13  14
HETATM   14  C   UNL     1      -9.735  14.471  67.198  1.00  0.00    -0.240 C  
BRANCH  14  15
HETATM   15  C   UNL     1      -9.739  15.718  66.318  1.00  0.00    -0.328 C  
BRANCH  15  16
HETATM   16  C   UNL     1     -10.374  15.420  64.962  1.00  0.00    -0.362 C  
BRANCH  16  17
HETATM   17  C   UNL     1     -10.911  13.993  64.903  1.00  0.00    -0.421 C  
HETATM   18  C   UNL     1     -12.255  13.929  64.217  1.00  0.00    -0.408 C  
HETATM   19  O   UNL     1     -12.863  14.882  63.756  1.00  0.00    -0.662 OA 
HETATM   20  O   UNL     1     -12.740  12.666  64.160  1.00  0.00    -0.660 OA 
ENDBRANCH  16  17
ENDBRANCH  15  16
ENDBRANCH  14  15
ENDBRANCH  13  14
ENDBRANCH  12  13
ENDBRANCH  11  12
ENDBRANCH  10  11
ENDBRANCH   9  10
ENDBRANCH   8   9
ENDBRANCH   7   8
ENDBRANCH   6   7
ENDBRANCH   5   6
ENDBRANCH   4   5
ENDBRANCH   3   4
ENDBRANCH   2   3
TORSDOF 15
ENDMDL
MODEL       84
REMARK 921   NORMALIZED FREE ENERGY PREDICTED BY IDOCK:   -4.03 KCAL/MOL
REMARK 922        TOTAL FREE ENERGY PREDICTED BY IDOCK:   -9.37 KCAL/MOL
REMARK 923 INTER-LIGAND FREE ENERGY PREDICTED BY IDOCK:   -7.26 KCAL/MOL
REMARK 924 INTRA-LIGAND FREE ENERGY PREDICTED BY IDOCK:   -2.10 KCAL/MOL
REMARK 927      BINDING AFFINITY PREDICTED BY RF-SCORE:    0.00 PKD
ROOT
HETATM    1  C   UNL     1     -11.028   6.631  67.273  1.00  0.00    -0.456 C  
HETATM    2  C   UNL     1      -9.923   7.588  66.865  1.00  0.00    -0.318 C  
ENDROOT
BRANCH   2   3
HETATM    3  C   UNL     1     -10.305   9.034  67.174  1.00  0.00    -0.342 C  
BRANCH   3   4
HETATM    4  C   UNL     1     -10.534   9.234  68.668  1.00  0.00    -0.236 C  
BRANCH   4   5
HETATM    5  C   UNL     1      -9.331   9.916  69.313  1.00  0.00    -0.215 C  
BRANCH   5   6
HETATM    6  C   UNL     1      -8.708   9.022  70.381  1.00  0.00    -0.224 C  
BRANCH   6   7
HETATM    7  C   UNL     1      -9.594   8.966  71.619  1.00  0.00    -0.363 C  
BRANCH   7   8
HETATM    8  C   UNL     1      -9.953   7.525  71.962  1.00  0.00    -0.212 C  
BRANCH   8   9
HETATM    9  C   UNL     1     -11.340   7.451  72.587  1.00  0.00    -0.360 C  
BRANCH   9  10
HETATM   10  C   UNL     1     -12.404   7.895  71.590  1.00  0.00    -0.344 C  
BRANCH  10  11
HETATM   11  C   UNL     1     -13.258   9.015  72.176  1.00  0.00    -0.504 C  
BRANCH  11  12
HETATM   12  C   UNL     1     -13.523  10.090  71.132  1.00  0.00    -0.299 C  
BRANCH  12  13
HETATM   13  C   UNL     1     -12.473  11.191  71.208  1.00  0.00    -0.466 C  
BRANCH  13  14
HETATM   14  C   UNL     1     -13.124  12.534  71.522  1.00  0.00    -0.373 C  
BRANCH  14  15
HETATM   15  C   UNL     1     -12.523  13.650  70.673  1.00  0.00    -0.417 C  
BRANCH  15  16
HETATM   16  C   UNL     1     -11.760  13.072  69.483  1.00  0.00    -0.381 C  
BRANCH  16  17
HETATM   17  C   UNL     1     -11.803  14.016  68.286  1.00  0.00    -0.406 C  
HETATM   18  C   UNL     1     -11.980  13.264  66.987  1.00  0.00    -0.365 C  
HETATM   19  O   UNL     1     -12.080  12.053  66.877  1.00  0.00    -0.608 OA 
HETATM   20  O   UNL     1     -12.019  14.094  65.918  1.00  0.00    -0.376 OA 
ENDBRANCH  16  17
ENDBRANCH  15  16
ENDBRANCH  14  15
ENDBRANCH  13  14
ENDBRANCH  12  13
ENDBRANCH  11  12
ENDBRANCH  10  11
ENDBRANCH   9  10
ENDBRANCH   8   9
ENDBRANCH   7   8
ENDBRANCH   6   7
ENDBRANCH   5   6
ENDBRANCH   4   5
ENDBRANCH   3   4
ENDBRANCH   2   3
TORSDOF 15
ENDMDL
MODEL       85
REMARK 921   NORMALIZED FREE ENERGY PREDICTED BY IDOCK:   -4.03 KCAL/MOL
REMARK 922        TOTAL FREE ENERGY PREDICTED BY IDOCK:   -9.36 KCAL/MOL
REMARK 923 INTER-LIGAND FREE ENERGY PREDICTED BY IDOCK:   -6.87 KCAL/MOL
REMARK 924 INTRA-LIGAND FREE ENERGY PREDICTED BY IDOCK:   -2.49 KCAL/MOL
REMARK 927      BINDING AFFINITY PREDICTED BY RF-SCORE:    0.00 PKD
ROOT
HETATM    1  C   UNL     1     -10.726  19.131  67.355  1.00  0.00    -0.578 C  
HETATM    2  C   UNL     1      -9.538  20.012  67.013  1.00  0.00    -0.542 C  
ENDROOT
BRANCH   2   3
HETATM    3  C   UNL     1      -8.242  19.432  67.576  1.00  0.00    -0.321 C  
BRANCH   3   4
HETATM    4  C   UNL     1      -8.528  18.292  68.548  1.00  0.00    -0.325 C  
BRANCH   4   5
HETATM    5  C   UNL     1      -7.374  17.295  68.565  1.00  0.00    -0.235 C  
BRANCH   5   6
HETATM    6  C   UNL     1      -7.339  16.482  67.275  1.00  0.00    -0.199 C  
BRANCH   6   7
HETATM    7  C   UNL     1      -8.665  15.766  67.053  1.00  0.00    -0.251 C  
BRANCH   7   8
HETATM    8  C   UNL     1      -9.307  16.211  65.744  1.00  0.00    -0.221 C  
BRANCH   8   9
HETATM    9  C   UNL     1     -10.781  15.829  65.711  1.00  0.00    -0.337 C  
BRANCH   9  10
HETATM   10  C   UNL     1     -11.049  14.805  64.615  1.00  0.00    -0.337 C  
BRANCH  10  11
HETATM   11  C   UNL     1     -12.286  13.975  64.942  1.00  0.00    -0.455 C  
BRANCH  11  12
HETATM   12  C   UNL     1     -11.913  12.513  65.149  1.00  0.00    -0.484 C  
BRANCH  12  13
HETATM   13  C   UNL     1     -12.019  12.129  66.619  1.00  0.00    -0.186 C  
BRANCH  13  14
HETATM   14  C   UNL     1     -10.641  12.124  67.273  1.00  0.00    -0.255 C  
BRANCH  14  15
HETATM   15  C   UNL     1     -10.607  13.039  68.494  1.00  0.00    -0.274 C  
BRANCH  15  16
HETATM   16  C   UNL     1     -11.923  13.801  68.634  1.00  0.00    -0.401 C  
BRANCH  16  17
HETATM   17  C   UNL     1     -11.757  15.036  69.514  1.00  0.00    -0.350 C  
HETATM   18  C   UNL     1     -12.486  14.887  70.829  1.00  0.00    -0.339 C  
HETATM   19  O   UNL     1     -13.135  13.914  71.175  1.00  0.00    -0.323 OA 
HETATM   20  O   UNL     1     -12.345  15.980  71.617  1.00  0.00    -0.455 OA 
ENDBRANCH  16  17
ENDBRANCH  15  16
ENDBRANCH  14  15
ENDBRANCH  13  14
ENDBRANCH  12  13
ENDBRANCH  11  12
ENDBRANCH  10  11
ENDBRANCH   9  10
ENDBRANCH   8   9
ENDBRANCH   7   8
ENDBRANCH   6   7
ENDBRANCH   5   6
ENDBRANCH   4   5
ENDBRANCH   3   4
ENDBRANCH   2   3
TORSDOF 15
ENDMDL
MODEL       86
REMARK 921   NORMALIZED FREE ENERGY PREDICTED BY IDOCK:   -4.03 KCAL/MOL
REMARK 922        TOTAL FREE ENERGY PREDICTED BY IDOCK:   -9.36 KCAL/MOL
REMARK 923 INTER-LIGAND FREE ENERGY PREDICTED BY IDOCK:   -6.90 KCAL/MOL
REMARK 924 INTRA-LIGAND FREE ENERGY PREDICTED BY IDOCK:   -2.46 KCAL/MOL
REMARK 927      BINDING AFFINITY PREDICTED BY RF-SCORE:    0.00 PKD
ROOT
HETATM    1  C   UNL     1     -12.456  13.468  65.876  1.00  0.00    -0.484 C  
HETATM    2  C   UNL     1     -11.014  13.822  65.558  1.00  0.00    -0.299 C  
ENDROOT
BRANCH   2   3
HETATM    3  C   UNL     1     -10.060  12.737  66.051  1.00  0.00    -0.277 C  
BRANCH   3   4
HETATM    4  C   UNL     1      -9.196  13.246  67.199  1.00  0.00    -0.235 C  
BRANCH   4   5
HETATM    5  C   UNL     1      -8.630  14.626  66.880  1.00  0.00    -0.233 C  
BRANCH   5   6
HETATM    6  C   UNL     1      -7.241  14.798  67.485  1.00  0.00    -0.222 C  
BRANCH   6   7
HETATM    7  C   UNL     1      -6.744  16.225  67.295  1.00  0.00    -0.228 C  
BRANCH   7   8
HETATM    8  C   UNL     1      -7.566  16.948  66.235  1.00  0.00    -0.312 C  
BRANCH   8   9
HETATM    9  C   UNL     1      -7.180  18.420  66.167  1.00  0.00    -0.298 C  
BRANCH   9  10
HETATM   10  C   UNL     1      -8.415  19.307  66.274  1.00  0.00    -0.328 C  
BRANCH  10  11
HETATM   11  C   UNL     1      -9.114  19.099  67.614  1.00  0.00    -0.341 C  
BRANCH  11  12
HETATM   12  C   UNL     1     -10.562  18.681  67.405  1.00  0.00    -0.490 C  
BRANCH  12  13
HETATM   13  C   UNL     1     -10.782  17.242  67.853  1.00  0.00    -0.351 C  
BRANCH  13  14
HETATM   14  C   UNL     1     -10.437  17.080  69.330  1.00  0.00    -0.293 C  
BRANCH  14  15
HETATM   15  C   UNL     1     -10.485  15.614  69.750  1.00  0.00    -0.312 C  
BRANCH  15  16
HETATM   16  C   UNL     1     -11.786  14.962  69.288  1.00  0.00    -0.350 C  
BRANCH  16  17
HETATM   17  C   UNL     1     -12.281  13.934  70.301  1.00  0.00    -0.428 C  
HETATM   18  C   UNL     1     -13.351  14.507  71.201  1.00  0.00    -0.354 C  
HETATM   19  O   UNL     1     -13.787  15.646  71.150  1.00  0.00    -0.583 OA 
HETATM   20  O   UNL     1     -13.797  13.602  72.103  1.00  0.00    -0.481 OA 
ENDBRANCH  16  17
ENDBRANCH  15  16
ENDBRANCH  14  15
ENDBRANCH  13  14
ENDBRANCH  12  13
ENDBRANCH  11  12
ENDBRANCH  10  11
ENDBRANCH   9  10
ENDBRANCH   8   9
ENDBRANCH   7   8
ENDBRANCH   6   7
ENDBRANCH   5   6
ENDBRANCH   4   5
ENDBRANCH   3   4
ENDBRANCH   2   3
TORSDOF 15
ENDMDL
MODEL       87
REMARK 921   NORMALIZED FREE ENERGY PREDICTED BY IDOCK:   -4.02 KCAL/MOL
REMARK 922        TOTAL FREE ENERGY PREDICTED BY IDOCK:   -9.34 KCAL/MOL
REMARK 923 INTER-LIGAND FREE ENERGY PREDICTED BY IDOCK:   -7.26 KCAL/MOL
REMARK 924 INTRA-LIGAND FREE ENERGY PREDICTED BY IDOCK:   -2.09 KCAL/MOL
REMARK 927      BINDING AFFINITY PREDICTED BY RF-SCORE:    0.00 PKD
ROOT
HETATM    1  C   UNL     1     -10.944  11.849  63.489  1.00  0.00    -0.505 C  
HETATM    2  C   UNL     1     -12.150  12.438  64.199  1.00  0.00    -0.539 C  
ENDROOT
BRANCH   2   3
HETATM    3  C   UNL     1     -11.791  12.888  65.613  1.00  0.00    -0.464 C  
BRANCH   3   4
HETATM    4  C   UNL     1     -11.512  14.387  65.657  1.00  0.00    -0.336 C  
BRANCH   4   5
HETATM    5  C   UNL     1     -10.013  14.654  65.759  1.00  0.00    -0.365 C  
BRANCH   5   6
HETATM    6  C   UNL     1      -9.414  13.938  66.965  1.00  0.00    -0.256 C  
BRANCH   6   7
HETATM    7  C   UNL     1      -7.925  14.236  67.083  1.00  0.00    -0.128 C  
BRANCH   7   8
HETATM    8  C   UNL     1      -7.693  15.535  67.846  1.00  0.00    -0.142 C  
BRANCH   8   9
HETATM    9  C   UNL     1      -6.977  16.553  66.967  1.00  0.00    -0.250 C  
BRANCH   9  10
HETATM   10  C   UNL     1      -7.889  17.735  66.659  1.00  0.00    -0.277 C  
BRANCH  10  11
HETATM   11  C   UNL     1      -8.503  18.291  67.940  1.00  0.00    -0.263 C  
BRANCH  11  12
HETATM   12  C   UNL     1      -9.971  18.634  67.726  1.00  0.00    -0.381 C  
BRANCH  12  13
HETATM   13  C   UNL     1     -10.845  17.395  67.876  1.00  0.00    -0.270 C  
BRANCH  13  14
HETATM   14  C   UNL     1     -10.776  16.859  69.302  1.00  0.00    -0.288 C  
BRANCH  14  15
HETATM   15  C   UNL     1     -11.271  15.417  69.373  1.00  0.00    -0.300 C  
BRANCH  15  16
HETATM   16  C   UNL     1     -12.394  15.282  70.399  1.00  0.00    -0.422 C  
BRANCH  16  17
HETATM   17  C   UNL     1     -11.853  15.336  71.824  1.00  0.00    -0.473 C  
HETATM   18  C   UNL     1     -12.956  15.564  72.831  1.00  0.00    -0.477 C  
HETATM   19  O   UNL     1     -14.141  15.694  72.570  1.00  0.00    -0.558 OA 
HETATM   20  O   UNL     1     -12.485  15.614  74.100  1.00  0.00    -0.562 OA 
ENDBRANCH  16  17
ENDBRANCH  15  16
ENDBRANCH  14  15
ENDBRANCH  13  14
ENDBRANCH  12  13
ENDBRANCH  11  12
ENDBRANCH  10  11
ENDBRANCH   9  10
ENDBRANCH   8   9
ENDBRANCH   7   8
ENDBRANCH   6   7
ENDBRANCH   5   6
ENDBRANCH   4   5
ENDBRANCH   3   4
ENDBRANCH   2   3
TORSDOF 15
ENDMDL
MODEL       88
REMARK 921   NORMALIZED FREE ENERGY PREDICTED BY IDOCK:   -4.02 KCAL/MOL
REMARK 922        TOTAL FREE ENERGY PREDICTED BY IDOCK:   -9.34 KCAL/MOL
REMARK 923 INTER-LIGAND FREE ENERGY PREDICTED BY IDOCK:   -7.10 KCAL/MOL
REMARK 924 INTRA-LIGAND FREE ENERGY PREDICTED BY IDOCK:   -2.24 KCAL/MOL
REMARK 927      BINDING AFFINITY PREDICTED BY RF-SCORE:    0.00 PKD
ROOT
HETATM    1  C   UNL     1      -9.440   9.586  68.078  1.00  0.00    -0.147 C  
HETATM    2  C   UNL     1     -10.725   8.931  67.605  1.00  0.00    -0.221 C  
ENDROOT
BRANCH   2   3
HETATM    3  C   UNL     1     -10.542   7.425  67.428  1.00  0.00    -0.371 C  
BRANCH   3   4
HETATM    4  C   UNL     1     -10.238   6.748  68.760  1.00  0.00    -0.184 C  
BRANCH   4   5
HETATM    5  C   UNL     1     -11.526   6.299  69.444  1.00  0.00    -0.348 C  
BRANCH   5   6
HETATM    6  C   UNL     1     -11.590   6.819  70.877  1.00  0.00    -0.403 C  
BRANCH   6   7
HETATM    7  C   UNL     1     -10.401   7.723  71.175  1.00  0.00    -0.218 C  
BRANCH   7   8
HETATM    8  C   UNL     1     -10.870   9.097  71.640  1.00  0.00    -0.442 C  
BRANCH   8   9
HETATM    9  C   UNL     1     -12.382   9.223  71.506  1.00  0.00    -0.439 C  
BRANCH   9  10
HETATM   10  C   UNL     1     -12.779  10.664  71.208  1.00  0.00    -0.537 C  
BRANCH  10  11
HETATM   11  C   UNL     1     -11.924  11.238  70.083  1.00  0.00    -0.452 C  
BRANCH  11  12
HETATM   12  C   UNL     1     -12.035  12.756  70.045  1.00  0.00    -0.371 C  
BRANCH  12  13
HETATM   13  C   UNL     1     -11.381  13.316  68.788  1.00  0.00    -0.331 C  
BRANCH  13  14
HETATM   14  C   UNL     1     -11.785  12.503  67.563  1.00  0.00    -0.439 C  
BRANCH  14  15
HETATM   15  C   UNL     1     -11.216  13.110  66.285  1.00  0.00    -0.328 C  
BRANCH  15  16
HETATM   16  C   UNL     1      -9.975  13.946  66.591  1.00  0.00    -0.279 C  
BRANCH  16  17
HETATM   17  C   UNL     1      -9.834  15.108  65.613  1.00  0.00    -0.378 C  
HETATM   18  C   UNL     1     -10.334  16.404  66.209  1.00  0.00    -0.329 C  
HETATM   19  O   UNL     1     -10.798  16.537  67.330  1.00  0.00    -0.280 OA 
HETATM   20  O   UNL     1     -10.213  17.441  65.348  1.00  0.00    -0.603 OA 
ENDBRANCH  16  17
ENDBRANCH  15  16
ENDBRANCH  14  15
ENDBRANCH  13  14
ENDBRANCH  12  13
ENDBRANCH  11  12
ENDBRANCH  10  11
ENDBRANCH   9  10
ENDBRANCH   8   9
ENDBRANCH   7   8
ENDBRANCH   6   7
ENDBRANCH   5   6
ENDBRANCH   4   5
ENDBRANCH   3   4
ENDBRANCH   2   3
TORSDOF 15
ENDMDL
MODEL       89
REMARK 921   NORMALIZED FREE ENERGY PREDICTED BY IDOCK:   -4.02 KCAL/MOL
REMARK 922        TOTAL FREE ENERGY PREDICTED BY IDOCK:   -9.34 KCAL/MOL
REMARK 923 INTER-LIGAND FREE ENERGY PREDICTED BY IDOCK:   -7.01 KCAL/MOL
REMARK 924 INTRA-LIGAND FREE ENERGY PREDICTED BY IDOCK:   -2.33 KCAL/MOL
REMARK 927      BINDING AFFINITY PREDICTED BY RF-SCORE:    0.00 PKD
ROOT
HETATM    1  C   UNL     1     -11.275   6.063  69.609  1.00  0.00    -0.428 C  
HETATM    2  C   UNL     1     -11.590   6.420  71.051  1.00  0.00    -0.386 C  
ENDROOT
BRANCH   2   3
HETATM    3  C   UNL     1     -10.319   6.766  71.822  1.00  0.00    -0.217 C  
BRANCH   3   4
HETATM    4  C   UNL     1     -10.385   8.184  72.381  1.00  0.00    -0.382 C  
BRANCH   4   5
HETATM    5  C   UNL     1      -9.729   9.174  71.424  1.00  0.00    -0.338 C  
BRANCH   5   6
HETATM    6  C   UNL     1     -10.778   9.894  70.584  1.00  0.00    -0.372 C  
BRANCH   6   7
HETATM    7  C   UNL     1     -10.491   9.720  69.098  1.00  0.00    -0.232 C  
BRANCH   7   8
HETATM    8  C   UNL     1      -9.038   9.320  68.871  1.00  0.00    -0.139 C  
BRANCH   8   9
HETATM    9  C   UNL     1      -8.945   8.173  67.873  1.00  0.00    -0.133 C  
BRANCH   9  10
HETATM   10  C   UNL     1      -9.794   8.461  66.641  1.00  0.00    -0.343 C  
BRANCH  10  11
HETATM   11  C   UNL     1      -8.925   8.959  65.491  1.00  0.00    -0.246 C  
BRANCH  11  12
HETATM   12  C   UNL     1      -9.657  10.023  64.685  1.00  0.00    -0.363 C  
BRANCH  12  13
HETATM   13  C   UNL     1     -10.422  10.968  65.603  1.00  0.00    -0.293 C  
BRANCH  13  14
HETATM   14  C   UNL     1      -9.553  12.159  65.992  1.00  0.00    -0.242 C  
BRANCH  14  15
HETATM   15  C   UNL     1     -10.076  12.835  67.256  1.00  0.00    -0.226 C  
BRANCH  15  16
HETATM   16  C   UNL     1     -11.503  13.339  67.047  1.00  0.00    -0.378 C  
BRANCH  16  17
HETATM   17  C   UNL     1     -11.559  14.405  65.958  1.00  0.00    -0.364 C  
HETATM   18  C   UNL     1     -12.460  13.991  64.817  1.00  0.00    -0.365 C  
HETATM   19  O   UNL     1     -13.079  12.942  64.746  1.00  0.00    -0.754 OA 
HETATM   20  O   UNL     1     -12.517  14.931  63.845  1.00  0.00    -0.806 OA 
ENDBRANCH  16  17
ENDBRANCH  15  16
ENDBRANCH  14  15
ENDBRANCH  13  14
ENDBRANCH  12  13
ENDBRANCH  11  12
ENDBRANCH  10  11
ENDBRANCH   9  10
ENDBRANCH   8   9
ENDBRANCH   7   8
ENDBRANCH   6   7
ENDBRANCH   5   6
ENDBRANCH   4   5
ENDBRANCH   3   4
ENDBRANCH   2   3
TORSDOF 15
ENDMDL
MODEL       90
REMARK 921   NORMALIZED FREE ENERGY PREDICTED BY IDOCK:   -4.01 KCAL/MOL
REMARK 922        TOTAL FREE ENERGY PREDICTED BY IDOCK:   -9.33 KCAL/MOL
REMARK 923 INTER-LIGAND FREE ENERGY PREDICTED BY IDOCK:   -7.04 KCAL/MOL
REMARK 924 INTRA-LIGAND FREE ENERGY PREDICTED BY IDOCK:   -2.29 KCAL/MOL
REMARK 927      BINDING AFFINITY PREDICTED BY RF-SCORE:    0.00 PKD
ROOT
HETATM    1  C   UNL     1     -12.935  12.006  71.329  1.00  0.00    -0.315 C  
HETATM    2  C   UNL     1     -13.424  12.939  72.422  1.00  0.00    -0.573 C  
ENDROOT
BRANCH   2   3
HETATM    3  C   UNL     1     -14.016  14.216  71.831  1.00  0.00    -0.558 C  
BRANCH   3   4
HETATM    4  C   UNL     1     -13.352  15.455  72.422  1.00  0.00    -0.557 C  
BRANCH   4   5
HETATM    5  C   UNL     1     -11.864  15.482  72.088  1.00  0.00    -0.551 C  
BRANCH   5   6
HETATM    6  C   UNL     1     -11.634  16.001  70.672  1.00  0.00    -0.409 C  
BRANCH   6   7
HETATM    7  C   UNL     1     -10.721  15.060  69.895  1.00  0.00    -0.238 C  
BRANCH   7   8
HETATM    8  C   UNL     1      -9.622  15.839  69.183  1.00  0.00    -0.255 C  
BRANCH   8   9
HETATM    9  C   UNL     1      -8.938  14.969  68.137  1.00  0.00    -0.173 C  
BRANCH   9  10
HETATM   10  C   UNL     1      -8.903  15.676  66.787  1.00  0.00    -0.304 C  
BRANCH  10  11
HETATM   11  C   UNL     1     -10.316  15.906  66.261  1.00  0.00    -0.324 C  
BRANCH  11  12
HETATM   12  C   UNL     1     -10.547  15.119  64.979  1.00  0.00    -0.439 C  
BRANCH  12  13
HETATM   13  C   UNL     1     -11.124  13.742  65.283  1.00  0.00    -0.315 C  
BRANCH  13  14
HETATM   14  C   UNL     1     -12.154  13.827  66.404  1.00  0.00    -0.483 C  
BRANCH  14  15
HETATM   15  C   UNL     1     -11.877  12.790  67.489  1.00  0.00    -0.402 C  
BRANCH  15  16
HETATM   16  C   UNL     1     -11.072  11.622  66.924  1.00  0.00    -0.365 C  
BRANCH  16  17
HETATM   17  C   UNL     1      -9.788  11.399  67.718  1.00  0.00    -0.186 C  
HETATM   18  C   UNL     1      -9.983  10.389  68.824  1.00  0.00    -0.188 C  
HETATM   19  O   UNL     1     -11.025   9.807  69.078  1.00  0.00    -0.219 OA 
HETATM   20  O   UNL     1      -8.849  10.185  69.534  1.00  0.00    -0.185 OA 
ENDBRANCH  16  17
ENDBRANCH  15  16
ENDBRANCH  14  15
ENDBRANCH  13  14
ENDBRANCH  12  13
ENDBRANCH  11  12
ENDBRANCH  10  11
ENDBRANCH   9  10
ENDBRANCH   8   9
ENDBRANCH   7   8
ENDBRANCH   6   7
ENDBRANCH   5   6
ENDBRANCH   4   5
ENDBRANCH   3   4
ENDBRANCH   2   3
TORSDOF 15
ENDMDL
MODEL       91
REMARK 921   NORMALIZED FREE ENERGY PREDICTED BY IDOCK:   -4.01 KCAL/MOL
REMARK 922        TOTAL FREE ENERGY PREDICTED BY IDOCK:   -9.33 KCAL/MOL
REMARK 923 INTER-LIGAND FREE ENERGY PREDICTED BY IDOCK:   -7.68 KCAL/MOL
REMARK 924 INTRA-LIGAND FREE ENERGY PREDICTED BY IDOCK:   -1.65 KCAL/MOL
REMARK 927      BINDING AFFINITY PREDICTED BY RF-SCORE:    0.00 PKD
ROOT
HETATM    1  C   UNL     1     -12.520  15.434  74.003  1.00  0.00    -0.780 C  
HETATM    2  C   UNL     1     -13.157  14.581  72.921  1.00  0.00    -0.614 C  
ENDROOT
BRANCH   2   3
HETATM    3  C   UNL     1     -13.488  15.415  71.686  1.00  0.00    -0.593 C  
BRANCH   3   4
HETATM    4  C   UNL     1     -12.745  14.898  70.459  1.00  0.00    -0.399 C  
BRANCH   4   5
HETATM    5  C   UNL     1     -12.306  13.451  70.662  1.00  0.00    -0.423 C  
BRANCH   5   6
HETATM    6  C   UNL     1     -11.695  12.884  69.384  1.00  0.00    -0.382 C  
BRANCH   6   7
HETATM    7  C   UNL     1     -12.034  11.407  69.234  1.00  0.00    -0.400 C  
BRANCH   7   8
HETATM    8  C   UNL     1     -10.830  10.538  69.576  1.00  0.00    -0.298 C  
BRANCH   8   9
HETATM    9  C   UNL     1     -10.969   9.953  70.975  1.00  0.00    -0.360 C  
BRANCH   9  10
HETATM   10  C   UNL     1     -12.424   9.609  71.274  1.00  0.00    -0.445 C  
BRANCH  10  11
HETATM   11  C   UNL     1     -12.517   8.345  72.122  1.00  0.00    -0.422 C  
BRANCH  11  12
HETATM   12  C   UNL     1     -12.662   7.115  71.238  1.00  0.00    -0.412 C  
BRANCH  12  13
HETATM   13  C   UNL     1     -11.355   6.335  71.174  1.00  0.00    -0.364 C  
BRANCH  13  14
HETATM   14  C   UNL     1     -11.072   5.879  69.746  1.00  0.00    -0.422 C  
BRANCH  14  15
HETATM   15  C   UNL     1     -10.167   6.871  69.021  1.00  0.00    -0.189 C  
BRANCH  15  16
HETATM   16  C   UNL     1     -10.763   7.255  67.668  1.00  0.00    -0.294 C  
BRANCH  16  17
HETATM   17  C   UNL     1      -9.693   7.296  66.582  1.00  0.00    -0.249 C  
HETATM   18  C   UNL     1      -9.555   8.677  65.985  1.00  0.00    -0.195 C  
HETATM   19  O   UNL     1     -10.204   9.658  66.309  1.00  0.00    -0.260 OA 
HETATM   20  O   UNL     1      -8.607   8.723  65.019  1.00  0.00    -0.175 OA 
ENDBRANCH  16  17
ENDBRANCH  15  16
ENDBRANCH  14  15
ENDBRANCH  13  14
ENDBRANCH  12  13
ENDBRANCH  11  12
ENDBRANCH  10  11
ENDBRANCH   9  10
ENDBRANCH   8   9
ENDBRANCH   7   8
ENDBRANCH   6   7
ENDBRANCH   5   6
ENDBRANCH   4   5
ENDBRANCH   3   4
ENDBRANCH   2   3
TORSDOF 15
ENDMDL
MODEL       92
REMARK 921   NORMALIZED FREE ENERGY PREDICTED BY IDOCK:   -4.01 KCAL/MOL
REMARK 922        TOTAL FREE ENERGY PREDICTED BY IDOCK:   -9.32 KCAL/MOL
REMARK 923 INTER-LIGAND FREE ENERGY PREDICTED BY IDOCK:   -7.15 KCAL/MOL
REMARK 924 INTRA-LIGAND FREE ENERGY PREDICTED BY IDOCK:   -2.17 KCAL/MOL
REMARK 927      BINDING AFFINITY PREDICTED BY RF-SCORE:    0.00 PKD
ROOT
HETATM    1  C   UNL     1     -13.989  15.436  71.599  1.00  0.00    -0.617 C  
HETATM    2  C   UNL     1     -12.721  15.381  70.766  1.00  0.00    -0.516 C  
ENDROOT
BRANCH   2   3
HETATM    3  C   UNL     1     -12.397  13.948  70.350  1.00  0.00    -0.433 C  
BRANCH   3   4
HETATM    4  C   UNL     1     -11.418  13.923  69.181  1.00  0.00    -0.345 C  
BRANCH   4   5
HETATM    5  C   UNL     1     -12.061  13.288  67.952  1.00  0.00    -0.270 C  
BRANCH   5   6
HETATM    6  C   UNL     1     -12.257  14.322  66.847  1.00  0.00    -0.366 C  
BRANCH   6   7
HETATM    7  C   UNL     1     -12.817  13.667  65.591  1.00  0.00    -0.425 C  
BRANCH   7   8
HETATM    8  C   UNL     1     -11.829  13.781  64.436  1.00  0.00    -0.458 C  
BRANCH   8   9
HETATM    9  C   UNL     1     -11.766  12.476  63.652  1.00  0.00    -0.594 C  
BRANCH   9  10
HETATM   10  C   UNL     1     -10.351  11.909  63.662  1.00  0.00    -0.477 C  
BRANCH  10  11
HETATM   11  C   UNL     1     -10.241  10.750  64.646  1.00  0.00    -0.419 C  
BRANCH  11  12
HETATM   12  C   UNL     1      -9.060  10.954  65.586  1.00  0.00    -0.223 C  
BRANCH  12  13
HETATM   13  C   UNL     1      -9.296  12.148  66.502  1.00  0.00    -0.229 C  
BRANCH  13  14
HETATM   14  C   UNL     1      -7.973  12.671  67.052  1.00  0.00    -0.063 C  
BRANCH  14  15
HETATM   15  C   UNL     1      -8.126  14.088  67.600  1.00  0.00    -0.180 C  
BRANCH  15  16
HETATM   16  C   UNL     1      -8.731  15.012  66.545  1.00  0.00    -0.244 C  
BRANCH  16  17
HETATM   17  C   UNL     1      -9.271  16.292  67.174  1.00  0.00    -0.226 C  
HETATM   18  C   UNL     1      -8.623  17.522  66.581  1.00  0.00    -0.258 C  
HETATM   19  O   UNL     1      -7.770  17.524  65.708  1.00  0.00    -0.530 OA 
HETATM   20  O   UNL     1      -9.096  18.664  67.134  1.00  0.00    -0.279 OA 
ENDBRANCH  16  17
ENDBRANCH  15  16
ENDBRANCH  14  15
ENDBRANCH  13  14
ENDBRANCH  12  13
ENDBRANCH  11  12
ENDBRANCH  10  11
ENDBRANCH   9  10
ENDBRANCH   8   9
ENDBRANCH   7   8
ENDBRANCH   6   7
ENDBRANCH   5   6
ENDBRANCH   4   5
ENDBRANCH   3   4
ENDBRANCH   2   3
TORSDOF 15
ENDMDL
MODEL       93
REMARK 921   NORMALIZED FREE ENERGY PREDICTED BY IDOCK:   -4.01 KCAL/MOL
REMARK 922        TOTAL FREE ENERGY PREDICTED BY IDOCK:   -9.31 KCAL/MOL
REMARK 923 INTER-LIGAND FREE ENERGY PREDICTED BY IDOCK:   -8.15 KCAL/MOL
REMARK 924 INTRA-LIGAND FREE ENERGY PREDICTED BY IDOCK:   -1.16 KCAL/MOL
REMARK 927      BINDING AFFINITY PREDICTED BY RF-SCORE:    0.00 PKD
ROOT
HETATM    1  C   UNL     1     -11.501   7.810  72.143  1.00  0.00    -0.361 C  
HETATM    2  C   UNL     1     -12.494   8.958  72.121  1.00  0.00    -0.459 C  
ENDROOT
BRANCH   2   3
HETATM    3  C   UNL     1     -12.005  10.091  71.222  1.00  0.00    -0.483 C  
BRANCH   3   4
HETATM    4  C   UNL     1     -13.131  11.073  70.914  1.00  0.00    -0.199 C  
BRANCH   4   5
HETATM    5  C   UNL     1     -13.279  12.096  72.036  1.00  0.00    -0.496 C  
BRANCH   5   6
HETATM    6  C   UNL     1     -13.591  13.478  71.473  1.00  0.00    -0.254 C  
BRANCH   6   7
HETATM    7  C   UNL     1     -13.550  14.530  72.574  1.00  0.00    -0.586 C  
BRANCH   7   8
HETATM    8  C   UNL     1     -12.617  15.674  72.193  1.00  0.00    -0.504 C  
BRANCH   8   9
HETATM    9  C   UNL     1     -11.498  15.177  71.289  1.00  0.00    -0.395 C  
BRANCH   9  10
HETATM   10  C   UNL     1     -11.176  16.209  70.213  1.00  0.00    -0.389 C  
BRANCH  10  11
HETATM   11  C   UNL     1     -11.664  15.735  68.848  1.00  0.00    -0.404 C  
BRANCH  11  12
HETATM   12  C   UNL     1     -12.014  14.255  68.887  1.00  0.00    -0.356 C  
BRANCH  12  13
HETATM   13  C   UNL     1     -11.771  13.603  67.531  1.00  0.00    -0.406 C  
BRANCH  13  14
HETATM   14  C   UNL     1     -10.388  12.962  67.484  1.00  0.00    -0.223 C  
BRANCH  14  15
HETATM   15  C   UNL     1      -9.481  13.680  66.489  1.00  0.00    -0.270 C  
BRANCH  15  16
HETATM   16  C   UNL     1     -10.299  14.583  65.568  1.00  0.00    -0.379 C  
BRANCH  16  17
HETATM   17  C   UNL     1     -10.019  16.057  65.844  1.00  0.00    -0.380 C  
HETATM   18  C   UNL     1     -10.809  16.958  64.924  1.00  0.00     0.003 C  
HETATM   19  O   UNL     1     -11.582  16.585  64.057  1.00  0.00    -1.154 OA 
HETATM   20  O   UNL     1     -10.566  18.268  65.162  1.00  0.00    -0.456 OA 
ENDBRANCH  16  17
ENDBRANCH  15  16
ENDBRANCH  14  15
ENDBRANCH  13  14
ENDBRANCH  12  13
ENDBRANCH  11  12
ENDBRANCH  10  11
ENDBRANCH   9  10
ENDBRANCH   8   9
ENDBRANCH   7   8
ENDBRANCH   6   7
ENDBRANCH   5   6
ENDBRANCH   4   5
ENDBRANCH   3   4
ENDBRANCH   2   3
TORSDOF 15
ENDMDL
MODEL       94
REMARK 921   NORMALIZED FREE ENERGY PREDICTED BY IDOCK:   -4.00 KCAL/MOL
REMARK 922        TOTAL FREE ENERGY PREDICTED BY IDOCK:   -9.30 KCAL/MOL
REMARK 923 INTER-LIGAND FREE ENERGY PREDICTED BY IDOCK:   -7.45 KCAL/MOL
REMARK 924 INTRA-LIGAND FREE ENERGY PREDICTED BY IDOCK:   -1.85 KCAL/MOL
REMARK 927      BINDING AFFINITY PREDICTED BY RF-SCORE:    0.00 PKD
ROOT
HETATM    1  C   UNL     1     -11.683  14.459  66.857  1.00  0.00    -0.422 C  
HETATM    2  C   UNL     1     -12.614  13.838  65.830  1.00  0.00    -0.494 C  
ENDROOT
BRANCH   2   3
HETATM    3  C   UNL     1     -12.284  14.326  64.422  1.00  0.00    -0.471 C  
BRANCH   3   4
HETATM    4  C   UNL     1     -12.082  13.154  63.467  1.00  0.00    -0.585 C  
BRANCH   4   5
HETATM    5  C   UNL     1     -11.670  11.900  64.231  1.00  0.00    -0.388 C  
BRANCH   5   6
HETATM    6  C   UNL     1     -10.162  11.685  64.151  1.00  0.00    -0.372 C  
BRANCH   6   7
HETATM    7  C   UNL     1      -9.576  11.459  65.539  1.00  0.00    -0.256 C  
BRANCH   7   8
HETATM    8  C   UNL     1     -10.617  10.851  66.472  1.00  0.00    -0.295 C  
BRANCH   8   9
HETATM    9  C   UNL     1     -10.261  11.127  67.927  1.00  0.00    -0.202 C  
BRANCH   9  10
HETATM   10  C   UNL     1     -11.432  10.790  68.842  1.00  0.00    -0.362 C  
BRANCH  10  11
HETATM   11  C   UNL     1     -11.901  12.030  69.597  1.00  0.00    -0.401 C  
BRANCH  11  12
HETATM   12  C   UNL     1     -12.494  11.646  70.945  1.00  0.00    -0.440 C  
BRANCH  12  13
HETATM   13  C   UNL     1     -12.108  10.221  71.322  1.00  0.00    -0.479 C  
BRANCH  13  14
HETATM   14  C   UNL     1     -13.252   9.532  72.058  1.00  0.00    -0.539 C  
BRANCH  14  15
HETATM   15  C   UNL     1     -13.315   8.047  71.712  1.00  0.00    -0.370 C  
BRANCH  15  16
HETATM   16  C   UNL     1     -11.929   7.518  71.349  1.00  0.00    -0.336 C  
BRANCH  16  17
HETATM   17  C   UNL     1     -11.376   6.615  72.448  1.00  0.00    -0.309 C  
HETATM   18  C   UNL     1     -10.160   7.221  73.110  1.00  0.00    -0.273 C  
HETATM   19  O   UNL     1      -9.658   8.296  72.824  1.00  0.00    -0.264 OA 
HETATM   20  O   UNL     1      -9.662   6.427  74.086  1.00  0.00    -0.197 OA 
ENDBRANCH  16  17
ENDBRANCH  15  16
ENDBRANCH  14  15
ENDBRANCH  13  14
ENDBRANCH  12  13
ENDBRANCH  11  12
ENDBRANCH  10  11
ENDBRANCH   9  10
ENDBRANCH   8   9
ENDBRANCH   7   8
ENDBRANCH   6   7
ENDBRANCH   5   6
ENDBRANCH   4   5
ENDBRANCH   3   4
ENDBRANCH   2   3
TORSDOF 15
ENDMDL
MODEL       95
REMARK 921   NORMALIZED FREE ENERGY PREDICTED BY IDOCK:   -4.00 KCAL/MOL
REMARK 922        TOTAL FREE ENERGY PREDICTED BY IDOCK:   -9.30 KCAL/MOL
REMARK 923 INTER-LIGAND FREE ENERGY PREDICTED BY IDOCK:   -7.06 KCAL/MOL
REMARK 924 INTRA-LIGAND FREE ENERGY PREDICTED BY IDOCK:   -2.24 KCAL/MOL
REMARK 927      BINDING AFFINITY PREDICTED BY RF-SCORE:    0.00 PKD
ROOT
HETATM    1  C   UNL     1     -12.189  15.011  64.353  1.00  0.00    -0.353 C  
HETATM    2  C   UNL     1     -12.699  14.036  65.398  1.00  0.00    -0.499 C  
ENDROOT
BRANCH   2   3
HETATM    3  C   UNL     1     -12.686  12.604  64.868  1.00  0.00    -0.450 C  
BRANCH   3   4
HETATM    4  C   UNL     1     -11.995  12.527  63.511  1.00  0.00    -0.629 C  
BRANCH   4   5
HETATM    5  C   UNL     1     -10.824  11.550  63.555  1.00  0.00    -0.473 C  
BRANCH   5   6
HETATM    6  C   UNL     1     -10.291  11.404  64.977  1.00  0.00    -0.342 C  
BRANCH   6   7
HETATM    7  C   UNL     1      -9.808   9.982  65.227  1.00  0.00    -0.388 C  
BRANCH   7   8
HETATM    8  C   UNL     1     -10.109   9.552  66.658  1.00  0.00    -0.321 C  
BRANCH   8   9
HETATM    9  C   UNL     1     -11.008  10.570  67.346  1.00  0.00    -0.352 C  
BRANCH   9  10
HETATM   10  C   UNL     1     -10.378  11.053  68.647  1.00  0.00    -0.209 C  
BRANCH  10  11
HETATM   11  C   UNL     1      -9.686  12.397  68.444  1.00  0.00    -0.189 C  
BRANCH  11  12
HETATM   12  C   UNL     1     -10.694  13.536  68.513  1.00  0.00    -0.270 C  
BRANCH  12  13
HETATM   13  C   UNL     1     -10.065  14.846  68.055  1.00  0.00    -0.221 C  
BRANCH  13  14
HETATM   14  C   UNL     1      -9.393  14.673  66.697  1.00  0.00    -0.293 C  
BRANCH  14  15
HETATM   15  C   UNL     1      -9.016  16.023  66.093  1.00  0.00    -0.381 C  
BRANCH  15  16
HETATM   16  C   UNL     1      -8.862  17.079  67.186  1.00  0.00    -0.232 C  
BRANCH  16  17
HETATM   17  C   UNL     1      -9.567  18.377  66.805  1.00  0.00    -0.308 C  
HETATM   18  C   UNL     1      -9.250  19.490  67.776  1.00  0.00    -0.324 C  
HETATM   19  O   UNL     1      -8.525  19.395  68.753  1.00  0.00    -0.366 OA 
HETATM   20  O   UNL     1      -9.872  20.647  67.446  1.00  0.00    -0.464 OA 
ENDBRANCH  16  17
ENDBRANCH  15  16
ENDBRANCH  14  15
ENDBRANCH  13  14
ENDBRANCH  12  13
ENDBRANCH  11  12
ENDBRANCH  10  11
ENDBRANCH   9  10
ENDBRANCH   8   9
ENDBRANCH   7   8
ENDBRANCH   6   7
ENDBRANCH   5   6
ENDBRANCH   4   5
ENDBRANCH   3   4
ENDBRANCH   2   3
TORSDOF 15
ENDMDL
MODEL       96
REMARK 921   NORMALIZED FREE ENERGY PREDICTED BY IDOCK:   -3.98 KCAL/MOL
REMARK 922        TOTAL FREE ENERGY PREDICTED BY IDOCK:   -9.27 KCAL/MOL
REMARK 923 INTER-LIGAND FREE ENERGY PREDICTED BY IDOCK:   -7.65 KCAL/MOL
REMARK 924 INTRA-LIGAND FREE ENERGY PREDICTED BY IDOCK:   -1.62 KCAL/MOL
REMARK 927      BINDING AFFINITY PREDICTED BY RF-SCORE:    0.00 PKD
ROOT
HETATM    1  C   UNL     1      -9.867   8.095  72.336  1.00  0.00    -0.346 C  
HETATM    2  C   UNL     1     -11.341   7.847  72.071  1.00  0.00    -0.343 C  
ENDROOT
BRANCH   2   3
HETATM    3  C   UNL     1     -12.119   9.160  72.017  1.00  0.00    -0.431 C  
BRANCH   3   4
HETATM    4  C   UNL     1     -11.568  10.080  70.933  1.00  0.00    -0.463 C  
BRANCH   4   5
HETATM    5  C   UNL     1     -12.472  11.294  70.743  1.00  0.00    -0.471 C  
BRANCH   5   6
HETATM    6  C   UNL     1     -13.064  11.744  72.075  1.00  0.00    -0.436 C  
BRANCH   6   7
HETATM    7  C   UNL     1     -13.434  13.221  72.028  1.00  0.00    -0.596 C  
BRANCH   7   8
HETATM    8  C   UNL     1     -12.316  14.038  71.392  1.00  0.00    -0.410 C  
BRANCH   8   9
HETATM    9  C   UNL     1     -12.889  15.128  70.496  1.00  0.00    -0.395 C  
BRANCH   9  10
HETATM   10  C   UNL     1     -11.943  15.429  69.340  1.00  0.00    -0.351 C  
BRANCH  10  11
HETATM   11  C   UNL     1     -11.159  14.181  68.945  1.00  0.00    -0.288 C  
BRANCH  11  12
HETATM   12  C   UNL     1     -11.866  13.434  67.823  1.00  0.00    -0.395 C  
BRANCH  12  13
HETATM   13  C   UNL     1     -12.077  14.341  66.617  1.00  0.00    -0.448 C  
BRANCH  13  14
HETATM   14  C   UNL     1     -10.826  14.376  65.746  1.00  0.00    -0.308 C  
BRANCH  14  15
HETATM   15  C   UNL     1     -10.408  15.811  65.439  1.00  0.00    -0.417 C  
BRANCH  15  16
HETATM   16  C   UNL     1      -9.476  16.345  66.524  1.00  0.00    -0.296 C  
BRANCH  16  17
HETATM   17  C   UNL     1      -9.118  17.808  66.277  1.00  0.00    -0.198 C  
HETATM   18  C   UNL     1      -9.980  18.740  67.096  1.00  0.00    -0.336 C  
HETATM   19  O   UNL     1     -10.862  18.397  67.867  1.00  0.00    -0.356 OA 
HETATM   20  O   UNL     1      -9.670  20.040  66.883  1.00  0.00    -0.370 OA 
ENDBRANCH  16  17
ENDBRANCH  15  16
ENDBRANCH  14  15
ENDBRANCH  13  14
ENDBRANCH  12  13
ENDBRANCH  11  12
ENDBRANCH  10  11
ENDBRANCH   9  10
ENDBRANCH   8   9
ENDBRANCH   7   8
ENDBRANCH   6   7
ENDBRANCH   5   6
ENDBRANCH   4   5
ENDBRANCH   3   4
ENDBRANCH   2   3
TORSDOF 15
ENDMDL
MODEL       97
REMARK 921   NORMALIZED FREE ENERGY PREDICTED BY IDOCK:   -3.98 KCAL/MOL
REMARK 922        TOTAL FREE ENERGY PREDICTED BY IDOCK:   -9.26 KCAL/MOL
REMARK 923 INTER-LIGAND FREE ENERGY PREDICTED BY IDOCK:   -7.59 KCAL/MOL
REMARK 924 INTRA-LIGAND FREE ENERGY PREDICTED BY IDOCK:   -1.67 KCAL/MOL
REMARK 927      BINDING AFFINITY PREDICTED BY RF-SCORE:    0.00 PKD
ROOT
HETATM    1  C   UNL     1     -10.817  19.446  67.103  1.00  0.00    -0.561 C  
HETATM    2  C   UNL     1      -9.500  19.292  67.843  1.00  0.00    -0.393 C  
ENDROOT
BRANCH   2   3
HETATM    3  C   UNL     1      -8.931  17.886  67.666  1.00  0.00    -0.250 C  
BRANCH   3   4
HETATM    4  C   UNL     1     -10.043  16.871  67.419  1.00  0.00    -0.279 C  
BRANCH   4   5
HETATM    5  C   UNL     1     -10.114  15.859  68.559  1.00  0.00    -0.217 C  
BRANCH   5   6
HETATM    6  C   UNL     1     -11.433  15.982  69.313  1.00  0.00    -0.350 C  
BRANCH   6   7
HETATM    7  C   UNL     1     -11.188  16.077  70.814  1.00  0.00    -0.381 C  
BRANCH   7   8
HETATM    8  C   UNL     1     -11.894  14.945  71.550  1.00  0.00    -0.419 C  
BRANCH   8   9
HETATM    9  C   UNL     1     -12.596  14.019  70.565  1.00  0.00    -0.399 C  
BRANCH   9  10
HETATM   10  C   UNL     1     -12.652  12.596  71.108  1.00  0.00    -0.354 C  
BRANCH  10  11
HETATM   11  C   UNL     1     -12.219  11.594  70.042  1.00  0.00    -0.338 C  
BRANCH  11  12
HETATM   12  C   UNL     1     -11.560  12.308  68.870  1.00  0.00    -0.367 C  
BRANCH  12  13
HETATM   13  C   UNL     1     -10.964  11.306  67.890  1.00  0.00    -0.302 C  
BRANCH  13  14
HETATM   14  C   UNL     1      -9.960  11.988  66.968  1.00  0.00    -0.218 C  
BRANCH  14  15
HETATM   15  C   UNL     1     -10.038  11.423  65.552  1.00  0.00    -0.293 C  
BRANCH  15  16
HETATM   16  C   UNL     1     -11.253  11.981  64.815  1.00  0.00    -0.373 C  
BRANCH  16  17
HETATM   17  C   UNL     1     -11.005  13.410  64.341  1.00  0.00    -0.413 C  
HETATM   18  C   UNL     1     -12.189  14.305  64.625  1.00  0.00    -0.454 C  
HETATM   19  O   UNL     1     -13.228  13.959  65.164  1.00  0.00    -0.768 OA 
HETATM   20  O   UNL     1     -11.979  15.576  64.208  1.00  0.00    -0.465 OA 
ENDBRANCH  16  17
ENDBRANCH  15  16
ENDBRANCH  14  15
ENDBRANCH  13  14
ENDBRANCH  12  13
ENDBRANCH  11  12
ENDBRANCH  10  11
ENDBRANCH   9  10
ENDBRANCH   8   9
ENDBRANCH   7   8
ENDBRANCH   6   7
ENDBRANCH   5   6
ENDBRANCH   4   5
ENDBRANCH   3   4
ENDBRANCH   2   3
TORSDOF 15
ENDMDL
MODEL       98
REMARK 921   NORMALIZED FREE ENERGY PREDICTED BY IDOCK:   -3.98 KCAL/MOL
REMARK 922        TOTAL FREE ENERGY PREDICTED BY IDOCK:   -9.26 KCAL/MOL
REMARK 923 INTER-LIGAND FREE ENERGY PREDICTED BY IDOCK:   -7.51 KCAL/MOL
REMARK 924 INTRA-LIGAND FREE ENERGY PREDICTED BY IDOCK:   -1.75 KCAL/MOL
REMARK 927      BINDING AFFINITY PREDICTED BY RF-SCORE:    0.00 PKD
ROOT
HETATM    1  C   UNL     1     -12.315  12.051  63.826  1.00  0.00    -0.602 C  
HETATM    2  C   UNL     1     -11.316  12.681  64.779  1.00  0.00    -0.350 C  
ENDROOT
BRANCH   2   3
HETATM    3  C   UNL     1     -11.771  12.535  66.229  1.00  0.00    -0.462 C  
BRANCH   3   4
HETATM    4  C   UNL     1     -12.078  13.895  66.848  1.00  0.00    -0.467 C  
BRANCH   4   5
HETATM    5  C   UNL     1     -11.897  13.853  68.363  1.00  0.00    -0.409 C  
BRANCH   5   6
HETATM    6  C   UNL     1     -11.544  12.444  68.829  1.00  0.00    -0.373 C  
BRANCH   6   7
HETATM    7  C   UNL     1     -12.101  12.183  70.222  1.00  0.00    -0.385 C  
BRANCH   7   8
HETATM    8  C   UNL     1     -12.032  10.699  70.562  1.00  0.00    -0.446 C  
BRANCH   8   9
HETATM    9  C   UNL     1     -12.929  10.377  71.750  1.00  0.00    -0.580 C  
BRANCH   9  10
HETATM   10  C   UNL     1     -12.856   8.895  72.096  1.00  0.00    -0.471 C  
BRANCH  10  11
HETATM   11  C   UNL     1     -11.406   8.449  72.256  1.00  0.00    -0.448 C  
BRANCH  11  12
HETATM   12  C   UNL     1     -11.246   6.988  71.862  1.00  0.00    -0.282 C  
BRANCH  12  13
HETATM   13  C   UNL     1     -11.863   6.724  70.494  1.00  0.00    -0.418 C  
BRANCH  13  14
HETATM   14  C   UNL     1     -10.853   6.053  69.570  1.00  0.00    -0.439 C  
BRANCH  14  15
HETATM   15  C   UNL     1      -9.814   7.053  69.069  1.00  0.00    -0.154 C  
BRANCH  15  16
HETATM   16  C   UNL     1     -10.491   8.318  68.546  1.00  0.00    -0.199 C  
BRANCH  16  17
HETATM   17  C   UNL     1     -10.528   8.337  67.021  1.00  0.00    -0.384 C  
HETATM   18  C   UNL     1      -9.705   9.473  66.458  1.00  0.00    -0.222 C  
HETATM   19  O   UNL     1      -9.080  10.290  67.113  1.00  0.00    -0.141 OA 
HETATM   20  O   UNL     1      -9.732   9.499  65.104  1.00  0.00    -0.277 OA 
ENDBRANCH  16  17
ENDBRANCH  15  16
ENDBRANCH  14  15
ENDBRANCH  13  14
ENDBRANCH  12  13
ENDBRANCH  11  12
ENDBRANCH  10  11
ENDBRANCH   9  10
ENDBRANCH   8   9
ENDBRANCH   7   8
ENDBRANCH   6   7
ENDBRANCH   5   6
ENDBRANCH   4   5
ENDBRANCH   3   4
ENDBRANCH   2   3
TORSDOF 15
ENDMDL
MODEL       99
REMARK 921   NORMALIZED FREE ENERGY PREDICTED BY IDOCK:   -3.97 KCAL/MOL
REMARK 922        TOTAL FREE ENERGY PREDICTED BY IDOCK:   -9.25 KCAL/MOL
REMARK 923 INTER-LIGAND FREE ENERGY PREDICTED BY IDOCK:   -6.68 KCAL/MOL
REMARK 924 INTRA-LIGAND FREE ENERGY PREDICTED BY IDOCK:   -2.57 KCAL/MOL
REMARK 927      BINDING AFFINITY PREDICTED BY RF-SCORE:    0.00 PKD
ROOT
HETATM    1  C   UNL     1     -10.904   6.241  67.411  1.00  0.00    -0.448 C  
HETATM    2  C   UNL     1     -10.745   7.740  67.232  1.00  0.00    -0.326 C  
ENDROOT
BRANCH   2   3
HETATM    3  C   UNL     1      -9.389   8.080  66.617  1.00  0.00    -0.249 C  
BRANCH   3   4
HETATM    4  C   UNL     1      -8.535   8.893  67.584  1.00  0.00    -0.121 C  
BRANCH   4   5
HETATM    5  C   UNL     1      -7.533   7.997  68.305  1.00  0.00    -0.100 C  
BRANCH   5   6
HETATM    6  C   UNL     1      -7.823   7.952  69.802  1.00  0.00    -0.104 C  
BRANCH   6   7
HETATM    7  C   UNL     1      -8.462   9.254  70.266  1.00  0.00    -0.224 C  
BRANCH   7   8
HETATM    8  C   UNL     1      -9.474   8.994  71.376  1.00  0.00    -0.334 C  
BRANCH   8   9
HETATM    9  C   UNL     1     -10.310   7.760  71.062  1.00  0.00    -0.215 C  
BRANCH   9  10
HETATM   10  C   UNL     1     -11.793   8.112  71.014  1.00  0.00    -0.279 C  
BRANCH  10  11
HETATM   11  C   UNL     1     -12.053   9.449  71.700  1.00  0.00    -0.462 C  
BRANCH  11  12
HETATM   12  C   UNL     1     -12.924  10.341  70.826  1.00  0.00    -0.408 C  
BRANCH  12  13
HETATM   13  C   UNL     1     -12.097  11.452  70.191  1.00  0.00    -0.439 C  
BRANCH  13  14
HETATM   14  C   UNL     1     -11.433  10.961  68.909  1.00  0.00    -0.369 C  
BRANCH  14  15
HETATM   15  C   UNL     1     -11.132  12.122  67.965  1.00  0.00    -0.292 C  
BRANCH  15  16
HETATM   16  C   UNL     1     -11.273  11.683  66.509  1.00  0.00    -0.356 C  
BRANCH  16  17
HETATM   17  C   UNL     1     -12.130  12.665  65.716  1.00  0.00    -0.484 C  
HETATM   18  C   UNL     1     -11.673  12.770  64.279  1.00  0.00    -0.381 C  
HETATM   19  O   UNL     1     -10.739  12.160  63.785  1.00  0.00    -0.357 OA 
HETATM   20  O   UNL     1     -12.428  13.639  63.567  1.00  0.00    -0.736 OA 
ENDBRANCH  16  17
ENDBRANCH  15  16
ENDBRANCH  14  15
ENDBRANCH  13  14
ENDBRANCH  12  13
ENDBRANCH  11  12
ENDBRANCH  10  11
ENDBRANCH   9  10
ENDBRANCH   8   9
ENDBRANCH   7   8
ENDBRANCH   6   7
ENDBRANCH   5   6
ENDBRANCH   4   5
ENDBRANCH   3   4
ENDBRANCH   2   3
TORSDOF 15
ENDMDL
MODEL      100
REMARK 921   NORMALIZED FREE ENERGY PREDICTED BY IDOCK:   -3.97 KCAL/MOL
REMARK 922        TOTAL FREE ENERGY PREDICTED BY IDOCK:   -9.25 KCAL/MOL
REMARK 923 INTER-LIGAND FREE ENERGY PREDICTED BY IDOCK:   -7.58 KCAL/MOL
REMARK 924 INTRA-LIGAND FREE ENERGY PREDICTED BY IDOCK:   -1.67 KCAL/MOL
REMARK 927      BINDING AFFINITY PREDICTED BY RF-SCORE:    0.00 PKD
ROOT
HETATM    1  C   UNL     1     -10.689   5.560  72.278  1.00  0.00    -0.285 C  
HETATM    2  C   UNL     1     -11.409   6.610  71.450  1.00  0.00    -0.335 C  
ENDROOT
BRANCH   2   3
HETATM    3  C   UNL     1     -10.450   7.711  71.002  1.00  0.00    -0.218 C  
BRANCH   3   4
HETATM    4  C   UNL     1     -10.855   9.061  71.582  1.00  0.00    -0.437 C  
BRANCH   4   5
HETATM    5  C   UNL     1     -12.364   9.127  71.800  1.00  0.00    -0.444 C  
BRANCH   5   6
HETATM    6  C   UNL     1     -12.969  10.314  71.059  1.00  0.00    -0.488 C  
BRANCH   6   7
HETATM    7  C   UNL     1     -11.882  11.130  70.370  1.00  0.00    -0.462 C  
BRANCH   7   8
HETATM    8  C   UNL     1     -12.006  11.026  68.855  1.00  0.00    -0.332 C  
BRANCH   8   9
HETATM    9  C   UNL     1     -11.275  12.176  68.175  1.00  0.00    -0.320 C  
BRANCH   9  10
HETATM   10  C   UNL     1     -12.267  13.179  67.598  1.00  0.00    -0.150 C  
BRANCH  10  11
HETATM   11  C   UNL     1     -11.566  14.145  66.647  1.00  0.00    -0.399 C  
BRANCH  11  12
HETATM   12  C   UNL     1     -10.359  14.781  67.322  1.00  0.00    -0.247 C  
BRANCH  12  13
HETATM   13  C   UNL     1     -10.518  16.294  67.406  1.00  0.00    -0.304 C  
BRANCH  13  14
HETATM   14  C   UNL     1     -10.499  16.756  68.859  1.00  0.00    -0.332 C  
BRANCH  14  15
HETATM   15  C   UNL     1     -10.653  15.577  69.815  1.00  0.00    -0.301 C  
BRANCH  15  16
HETATM   16  C   UNL     1     -11.778  15.836  70.815  1.00  0.00    -0.430 C  
BRANCH  16  17
HETATM   17  C   UNL     1     -12.298  14.534  71.414  1.00  0.00    -0.425 C  
HETATM   18  C   UNL     1     -13.592  14.742  72.166  1.00  0.00    -0.415 C  
HETATM   19  O   UNL     1     -14.174  15.807  72.296  1.00  0.00    -0.492 OA 
HETATM   20  O   UNL     1     -14.062  13.591  72.702  1.00  0.00    -0.762 OA 
ENDBRANCH  16  17
ENDBRANCH  15  16
ENDBRANCH  14  15
ENDBRANCH  13  14
ENDBRANCH  12  13
ENDBRANCH  11  12
ENDBRANCH  10  11
ENDBRANCH   9  10
ENDBRANCH   8   9
ENDBRANCH   7   8
ENDBRANCH   6   7
ENDBRANCH   5   6
ENDBRANCH   4   5
ENDBRANCH   3   4
ENDBRANCH   2   3
TORSDOF 15
ENDMDL
MODEL      101
REMARK 921   NORMALIZED FREE ENERGY PREDICTED BY IDOCK:   -3.97 KCAL/MOL
REMARK 922        TOTAL FREE ENERGY PREDICTED BY IDOCK:   -9.24 KCAL/MOL
REMARK 923 INTER-LIGAND FREE ENERGY PREDICTED BY IDOCK:   -7.75 KCAL/MOL
REMARK 924 INTRA-LIGAND FREE ENERGY PREDICTED BY IDOCK:   -1.49 KCAL/MOL
REMARK 927      BINDING AFFINITY PREDICTED BY RF-SCORE:    0.00 PKD
ROOT
HETATM    1  C   UNL     1     -10.941   6.007  70.169  1.00  0.00    -0.429 C  
HETATM    2  C   UNL     1     -11.422   6.106  71.606  1.00  0.00    -0.331 C  
ENDROOT
BRANCH   2   3
HETATM    3  C   UNL     1     -12.553   7.123  71.738  1.00  0.00    -0.381 C  
BRANCH   3   4
HETATM    4  C   UNL     1     -12.077   8.386  72.447  1.00  0.00    -0.443 C  
BRANCH   4   5
HETATM    5  C   UNL     1     -12.654   9.631  71.781  1.00  0.00    -0.497 C  
BRANCH   5   6
HETATM    6  C   UNL     1     -11.744  10.117  70.657  1.00  0.00    -0.425 C  
BRANCH   6   7
HETATM    7  C   UNL     1     -10.315   9.635  70.874  1.00  0.00    -0.334 C  
BRANCH   7   8
HETATM    8  C   UNL     1      -9.686   9.199  69.557  1.00  0.00    -0.176 C  
BRANCH   8   9
HETATM    9  C   UNL     1     -10.582   9.574  68.383  1.00  0.00    -0.261 C  
BRANCH   9  10
HETATM   10  C   UNL     1     -10.619   8.451  67.353  1.00  0.00    -0.313 C  
BRANCH  10  11
HETATM   11  C   UNL     1      -9.517   8.634  66.315  1.00  0.00    -0.307 C  
BRANCH  11  12
HETATM   12  C   UNL     1      -9.615  10.007  65.665  1.00  0.00    -0.313 C  
BRANCH  12  13
HETATM   13  C   UNL     1      -8.690  10.104  64.458  1.00  0.00    -0.211 C  
BRANCH  13  14
HETATM   14  C   UNL     1      -9.476  10.488  63.209  1.00  0.00    -0.360 C  
BRANCH  14  15
HETATM   15  C   UNL     1     -10.092  11.877  63.350  1.00  0.00    -0.464 C  
BRANCH  15  16
HETATM   16  C   UNL     1     -11.616  11.788  63.413  1.00  0.00    -0.419 C  
BRANCH  16  17
HETATM   17  C   UNL     1     -12.235  13.132  63.782  1.00  0.00    -0.528 C  
HETATM   18  C   UNL     1     -12.578  13.205  65.252  1.00  0.00    -0.472 C  
HETATM   19  O   UNL     1     -12.396  12.316  66.067  1.00  0.00    -0.609 OA 
HETATM   20  O   UNL     1     -13.128  14.395  65.589  1.00  0.00    -0.475 OA 
ENDBRANCH  16  17
ENDBRANCH  15  16
ENDBRANCH  14  15
ENDBRANCH  13  14
ENDBRANCH  12  13
ENDBRANCH  11  12
ENDBRANCH  10  11
ENDBRANCH   9  10
ENDBRANCH   8   9
ENDBRANCH   7   8
ENDBRANCH   6   7
ENDBRANCH   5   6
ENDBRANCH   4   5
ENDBRANCH   3   4
ENDBRANCH   2   3
TORSDOF 15
ENDMDL
MODEL      102
REMARK 921   NORMALIZED FREE ENERGY PREDICTED BY IDOCK:   -3.97 KCAL/MOL
REMARK 922        TOTAL FREE ENERGY PREDICTED BY IDOCK:   -9.24 KCAL/MOL
REMARK 923 INTER-LIGAND FREE ENERGY PREDICTED BY IDOCK:   -7.20 KCAL/MOL
REMARK 924 INTRA-LIGAND FREE ENERGY PREDICTED BY IDOCK:   -2.04 KCAL/MOL
REMARK 927      BINDING AFFINITY PREDICTED BY RF-SCORE:    0.00 PKD
ROOT
HETATM    1  C   UNL     1     -12.243  12.755  63.471  1.00  0.00    -0.613 C  
HETATM    2  C   UNL     1     -11.212  11.718  63.879  1.00  0.00    -0.493 C  
ENDROOT
BRANCH   2   3
HETATM    3  C   UNL     1     -10.070  12.358  64.665  1.00  0.00    -0.266 C  
BRANCH   3   4
HETATM    4  C   UNL     1      -9.340  11.323  65.514  1.00  0.00    -0.243 C  
BRANCH   4   5
HETATM    5  C   UNL     1      -9.855   9.919  65.217  1.00  0.00    -0.373 C  
BRANCH   5   6
HETATM    6  C   UNL     1      -9.361   8.926  66.264  1.00  0.00    -0.279 C  
BRANCH   6   7
HETATM    7  C   UNL     1     -10.533   8.304  67.012  1.00  0.00    -0.384 C  
BRANCH   7   8
HETATM    8  C   UNL     1     -10.150   7.992  68.454  1.00  0.00    -0.221 C  
BRANCH   8   9
HETATM    9  C   UNL     1     -10.947   6.804  68.977  1.00  0.00    -0.281 C  
BRANCH   9  10
HETATM   10  C   UNL     1     -10.786   6.669  70.486  1.00  0.00    -0.310 C  
BRANCH  10  11
HETATM   11  C   UNL     1     -12.144   6.720  71.181  1.00  0.00    -0.422 C  
BRANCH  11  12
HETATM   12  C   UNL     1     -12.174   7.831  72.220  1.00  0.00    -0.298 C  
BRANCH  12  13
HETATM   13  C   UNL     1     -12.727   9.119  71.623  1.00  0.00    -0.429 C  
BRANCH  13  14
HETATM   14  C   UNL     1     -11.592  10.045  71.198  1.00  0.00    -0.460 C  
BRANCH  14  15
HETATM   15  C   UNL     1     -12.109  11.186  70.326  1.00  0.00    -0.462 C  
BRANCH  15  16
HETATM   16  C   UNL     1     -11.146  11.463  69.174  1.00  0.00    -0.317 C  
BRANCH  16  17
HETATM   17  C   UNL     1     -11.874  12.062  67.975  1.00  0.00    -0.338 C  
HETATM   18  C   UNL     1     -11.693  13.560  67.903  1.00  0.00    -0.357 C  
HETATM   19  O   UNL     1     -11.051  14.236  68.691  1.00  0.00    -0.234 OA 
HETATM   20  O   UNL     1     -12.336  14.101  66.841  1.00  0.00    -0.419 OA 
ENDBRANCH  16  17
ENDBRANCH  15  16
ENDBRANCH  14  15
ENDBRANCH  13  14
ENDBRANCH  12  13
ENDBRANCH  11  12
ENDBRANCH  10  11
ENDBRANCH   9  10
ENDBRANCH   8   9
ENDBRANCH   7   8
ENDBRANCH   6   7
ENDBRANCH   5   6
ENDBRANCH   4   5
ENDBRANCH   3   4
ENDBRANCH   2   3
TORSDOF 15
ENDMDL
MODEL      103
REMARK 921   NORMALIZED FREE ENERGY PREDICTED BY IDOCK:   -3.96 KCAL/MOL
REMARK 922        TOTAL FREE ENERGY PREDICTED BY IDOCK:   -9.23 KCAL/MOL
REMARK 923 INTER-LIGAND FREE ENERGY PREDICTED BY IDOCK:   -7.91 KCAL/MOL
REMARK 924 INTRA-LIGAND FREE ENERGY PREDICTED BY IDOCK:   -1.32 KCAL/MOL
REMARK 927      BINDING AFFINITY PREDICTED BY RF-SCORE:    0.00 PKD
ROOT
HETATM    1  C   UNL     1     -10.621   7.217  67.229  1.00  0.00    -0.398 C  
HETATM    2  C   UNL     1     -11.024   6.308  68.376  1.00  0.00    -0.409 C  
ENDROOT
BRANCH   2   3
HETATM    3  C   UNL     1     -10.893   7.024  69.718  1.00  0.00    -0.276 C  
BRANCH   3   4
HETATM    4  C   UNL     1     -11.141   6.066  70.878  1.00  0.00    -0.352 C  
BRANCH   4   5
HETATM    5  C   UNL     1     -11.985   6.732  71.959  1.00  0.00    -0.355 C  
BRANCH   5   6
HETATM    6  C   UNL     1     -13.405   6.983  71.462  1.00  0.00    -0.370 C  
BRANCH   6   7
HETATM    7  C   UNL     1     -13.875   8.377  71.857  1.00  0.00    -0.459 C  
BRANCH   7   8
HETATM    8  C   UNL     1     -12.691   9.263  72.225  1.00  0.00    -0.435 C  
BRANCH   8   9
HETATM    9  C   UNL     1     -12.545  10.406  71.229  1.00  0.00    -0.525 C  
BRANCH   9  10
HETATM   10  C   UNL     1     -13.240  11.661  71.742  1.00  0.00    -0.438 C  
BRANCH  10  11
HETATM   11  C   UNL     1     -12.589  12.913  71.164  1.00  0.00    -0.373 C  
BRANCH  11  12
HETATM   12  C   UNL     1     -13.415  14.149  71.492  1.00  0.00    -0.419 C  
BRANCH  12  13
HETATM   13  C   UNL     1     -12.738  15.409  70.970  1.00  0.00    -0.510 C  
BRANCH  13  14
HETATM   14  C   UNL     1     -11.449  15.061  70.233  1.00  0.00    -0.308 C  
BRANCH  14  15
HETATM   15  C   UNL     1     -11.139  16.087  69.147  1.00  0.00    -0.317 C  
BRANCH  15  16
HETATM   16  C   UNL     1     -10.553  15.407  67.912  1.00  0.00    -0.267 C  
BRANCH  16  17
HETATM   17  C   UNL     1     -10.840  13.908  67.917  1.00  0.00    -0.256 C  
HETATM   18  C   UNL     1     -11.860  13.531  66.868  1.00  0.00    -0.407 C  
HETATM   19  O   UNL     1     -12.406  14.305  66.098  1.00  0.00    -0.437 OA 
HETATM   20  O   UNL     1     -12.121  12.203  66.865  1.00  0.00    -0.600 OA 
ENDBRANCH  16  17
ENDBRANCH  15  16
ENDBRANCH  14  15
ENDBRANCH  13  14
ENDBRANCH  12  13
ENDBRANCH  11  12
ENDBRANCH  10  11
ENDBRANCH   9  10
ENDBRANCH   8   9
ENDBRANCH   7   8
ENDBRANCH   6   7
ENDBRANCH   5   6
ENDBRANCH   4   5
ENDBRANCH   3   4
ENDBRANCH   2   3
TORSDOF 15
ENDMDL
MODEL      104
REMARK 921   NORMALIZED FREE ENERGY PREDICTED BY IDOCK:   -3.95 KCAL/MOL
REMARK 922        TOTAL FREE ENERGY PREDICTED BY IDOCK:   -9.22 KCAL/MOL
REMARK 923 INTER-LIGAND FREE ENERGY PREDICTED BY IDOCK:   -6.57 KCAL/MOL
REMARK 924 INTRA-LIGAND FREE ENERGY PREDICTED BY IDOCK:   -2.65 KCAL/MOL
REMARK 927      BINDING AFFINITY PREDICTED BY RF-SCORE:    0.00 PKD
ROOT
HETATM    1  C   UNL     1     -11.107  11.506  63.370  1.00  0.00    -0.370 C  
HETATM    2  C   UNL     1     -12.037  12.677  63.633  1.00  0.00    -0.632 C  
ENDROOT
BRANCH   2   3
HETATM    3  C   UNL     1     -12.591  12.632  65.055  1.00  0.00    -0.504 C  
BRANCH   3   4
HETATM    4  C   UNL     1     -12.320  13.940  65.792  1.00  0.00    -0.518 C  
BRANCH   4   5
HETATM    5  C   UNL     1     -11.340  14.808  65.009  1.00  0.00    -0.391 C  
BRANCH   5   6
HETATM    6  C   UNL     1      -9.964  14.802  65.666  1.00  0.00    -0.390 C  
BRANCH   6   7
HETATM    7  C   UNL     1      -9.588  16.200  66.141  1.00  0.00    -0.359 C  
BRANCH   7   8
HETATM    8  C   UNL     1      -9.436  16.234  67.657  1.00  0.00    -0.221 C  
BRANCH   8   9
HETATM    9  C   UNL     1     -10.583  17.008  68.295  1.00  0.00    -0.372 C  
BRANCH   9  10
HETATM   10  C   UNL     1     -11.634  16.054  68.850  1.00  0.00    -0.354 C  
BRANCH  10  11
HETATM   11  C   UNL     1     -10.985  14.770  69.355  1.00  0.00    -0.282 C  
BRANCH  11  12
HETATM   12  C   UNL     1     -12.044  13.737  69.711  1.00  0.00    -0.400 C  
BRANCH  12  13
HETATM   13  C   UNL     1     -11.641  12.353  69.217  1.00  0.00    -0.379 C  
BRANCH  13  14
HETATM   14  C   UNL     1     -10.336  12.423  68.432  1.00  0.00    -0.236 C  
BRANCH  14  15
HETATM   15  C   UNL     1      -9.794  11.026  68.138  1.00  0.00    -0.185 C  
BRANCH  15  16
HETATM   16  C   UNL     1      -9.805  10.749  66.636  1.00  0.00    -0.241 C  
BRANCH  16  17
HETATM   17  C   UNL     1      -9.911   9.254  66.350  1.00  0.00    -0.356 C  
HETATM   18  C   UNL     1      -8.630   8.705  65.767  1.00  0.00    -0.163 C  
HETATM   19  O   UNL     1      -7.619   9.350  65.541  1.00  0.00    -0.096 OA 
HETATM   20  O   UNL     1      -8.714   7.379  65.509  1.00  0.00    -0.122 OA 
ENDBRANCH  16  17
ENDBRANCH  15  16
ENDBRANCH  14  15
ENDBRANCH  13  14
ENDBRANCH  12  13
ENDBRANCH  11  12
ENDBRANCH  10  11
ENDBRANCH   9  10
ENDBRANCH   8   9
ENDBRANCH   7   8
ENDBRANCH   6   7
ENDBRANCH   5   6
ENDBRANCH   4   5
ENDBRANCH   3   4
ENDBRANCH   2   3
TORSDOF 15
ENDMDL
MODEL      105
REMARK 921   NORMALIZED FREE ENERGY PREDICTED BY IDOCK:   -3.95 KCAL/MOL
REMARK 922        TOTAL FREE ENERGY PREDICTED BY IDOCK:   -9.22 KCAL/MOL
REMARK 923 INTER-LIGAND FREE ENERGY PREDICTED BY IDOCK:   -7.37 KCAL/MOL
REMARK 924 INTRA-LIGAND FREE ENERGY PREDICTED BY IDOCK:   -1.85 KCAL/MOL
REMARK 927      BINDING AFFINITY PREDICTED BY RF-SCORE:    0.00 PKD
ROOT
HETATM    1  C   UNL     1      -9.033   8.474  68.820  1.00  0.00    -0.139 C  
HETATM    2  C   UNL     1     -10.272   8.420  67.944  1.00  0.00    -0.273 C  
ENDROOT
BRANCH   2   3
HETATM    3  C   UNL     1     -10.220   9.484  66.850  1.00  0.00    -0.317 C  
BRANCH   3   4
HETATM    4  C   UNL     1      -9.193   9.123  65.782  1.00  0.00    -0.294 C  
BRANCH   4   5
HETATM    5  C   UNL     1      -9.352  10.018  64.556  1.00  0.00    -0.345 C  
BRANCH   5   6
HETATM    6  C   UNL     1     -10.394  11.103  64.806  1.00  0.00    -0.387 C  
BRANCH   6   7
HETATM    7  C   UNL     1     -11.043  11.537  63.499  1.00  0.00    -0.434 C  
BRANCH   7   8
HETATM    8  C   UNL     1     -12.256  12.421  63.765  1.00  0.00    -0.626 C  
BRANCH   8   9
HETATM    9  C   UNL     1     -11.838  13.711  64.459  1.00  0.00    -0.445 C  
BRANCH   9  10
HETATM   10  C   UNL     1     -12.611  13.897  65.760  1.00  0.00    -0.533 C  
BRANCH  10  11
HETATM   11  C   UNL     1     -11.733  14.555  66.820  1.00  0.00    -0.393 C  
BRANCH  11  12
HETATM   12  C   UNL     1     -10.702  13.570  67.351  1.00  0.00    -0.269 C  
BRANCH  12  13
HETATM   13  C   UNL     1     -10.962  13.249  68.817  1.00  0.00    -0.294 C  
BRANCH  13  14
HETATM   14  C   UNL     1     -11.884  12.041  68.947  1.00  0.00    -0.356 C  
BRANCH  14  15
HETATM   15  C   UNL     1     -11.993  11.585  70.399  1.00  0.00    -0.459 C  
BRANCH  15  16
HETATM   16  C   UNL     1     -12.217  10.076  70.475  1.00  0.00    -0.308 C  
BRANCH  16  17
HETATM   17  C   UNL     1     -11.352   9.441  71.559  1.00  0.00    -0.464 C  
HETATM   18  C   UNL     1     -11.916   8.117  72.020  1.00  0.00    -0.340 C  
HETATM   19  O   UNL     1     -12.934   7.594  71.598  1.00  0.00    -0.334 OA 
HETATM   20  O   UNL     1     -11.154   7.545  72.983  1.00  0.00    -0.360 OA 
ENDBRANCH  16  17
ENDBRANCH  15  16
ENDBRANCH  14  15
ENDBRANCH  13  14
ENDBRANCH  12  13
ENDBRANCH  11  12
ENDBRANCH  10  11
ENDBRANCH   9  10
ENDBRANCH   8   9
ENDBRANCH   7   8
ENDBRANCH   6   7
ENDBRANCH   5   6
ENDBRANCH   4   5
ENDBRANCH   3   4
ENDBRANCH   2   3
TORSDOF 15
ENDMDL
MODEL      106
REMARK 921   NORMALIZED FREE ENERGY PREDICTED BY IDOCK:   -3.95 KCAL/MOL
REMARK 922        TOTAL FREE ENERGY PREDICTED BY IDOCK:   -9.22 KCAL/MOL
REMARK 923 INTER-LIGAND FREE ENERGY PREDICTED BY IDOCK:   -7.51 KCAL/MOL
REMARK 924 INTRA-LIGAND FREE ENERGY PREDICTED BY IDOCK:   -1.71 KCAL/MOL
REMARK 927      BINDING AFFINITY PREDICTED BY RF-SCORE:    0.00 PKD
ROOT
HETATM    1  C   UNL     1      -7.382  19.444  69.023  1.00  0.00    -0.395 C  
HETATM    2  C   UNL     1      -7.163  19.402  67.521  1.00  0.00    -0.247 C  
ENDROOT
BRANCH   2   3
HETATM    3  C   UNL     1      -8.259  20.168  66.784  1.00  0.00    -0.351 C  
BRANCH   3   4
HETATM    4  C   UNL     1      -9.611  19.984  67.465  1.00  0.00    -0.523 C  
BRANCH   4   5
HETATM    5  C   UNL     1     -10.539  19.133  66.604  1.00  0.00    -0.520 C  
BRANCH   5   6
HETATM    6  C   UNL     1     -10.387  17.653  66.941  1.00  0.00    -0.329 C  
BRANCH   6   7
HETATM    7  C   UNL     1     -10.527  17.425  68.441  1.00  0.00    -0.384 C  
BRANCH   7   8
HETATM    8  C   UNL     1      -9.413  16.522  68.957  1.00  0.00    -0.249 C  
BRANCH   8   9
HETATM    9  C   UNL     1      -9.989  15.367  69.765  1.00  0.00    -0.251 C  
BRANCH   9  10
HETATM   10  C   UNL     1     -11.502  15.501  69.894  1.00  0.00    -0.338 C  
BRANCH  10  11
HETATM   11  C   UNL     1     -12.194  14.196  69.515  1.00  0.00    -0.351 C  
BRANCH  11  12
HETATM   12  C   UNL     1     -11.888  13.826  68.071  1.00  0.00    -0.408 C  
BRANCH  12  13
HETATM   13  C   UNL     1     -11.812  12.314  67.902  1.00  0.00    -0.358 C  
BRANCH  13  14
HETATM   14  C   UNL     1     -11.970  11.615  69.248  1.00  0.00    -0.382 C  
BRANCH  14  15
HETATM   15  C   UNL     1     -10.754  10.749  69.565  1.00  0.00    -0.268 C  
BRANCH  15  16
HETATM   16  C   UNL     1     -11.031   9.849  70.768  1.00  0.00    -0.407 C  
BRANCH  16  17
HETATM   17  C   UNL     1     -12.431  10.085  71.325  1.00  0.00    -0.494 C  
HETATM   18  C   UNL     1     -12.826   9.015  72.316  1.00  0.00    -0.406 C  
HETATM   19  O   UNL     1     -12.134   8.067  72.650  1.00  0.00    -0.328 OA 
HETATM   20  O   UNL     1     -14.068   9.216  72.817  1.00  0.00    -0.518 OA 
ENDBRANCH  16  17
ENDBRANCH  15  16
ENDBRANCH  14  15
ENDBRANCH  13  14
ENDBRANCH  12  13
ENDBRANCH  11  12
ENDBRANCH  10  11
ENDBRANCH   9  10
ENDBRANCH   8   9
ENDBRANCH   7   8
ENDBRANCH   6   7
ENDBRANCH   5   6
ENDBRANCH   4   5
ENDBRANCH   3   4
ENDBRANCH   2   3
TORSDOF 15
ENDMDL
MODEL      107
REMARK 921   NORMALIZED FREE ENERGY PREDICTED BY IDOCK:   -3.95 KCAL/MOL
REMARK 922        TOTAL FREE ENERGY PREDICTED BY IDOCK:   -9.21 KCAL/MOL
REMARK 923 INTER-LIGAND FREE ENERGY PREDICTED BY IDOCK:   -7.44 KCAL/MOL
REMARK 924 INTRA-LIGAND FREE ENERGY PREDICTED BY IDOCK:   -1.77 KCAL/MOL
REMARK 927      BINDING AFFINITY PREDICTED BY RF-SCORE:    0.00 PKD
ROOT
HETATM    1  C   UNL     1     -13.740   7.660  71.610  1.00  0.00    -0.454 C  
HETATM    2  C   UNL     1     -12.871   8.804  72.101  1.00  0.00    -0.456 C  
ENDROOT
BRANCH   2   3
HETATM    3  C   UNL     1     -11.462   8.321  72.435  1.00  0.00    -0.463 C  
BRANCH   3   4
HETATM    4  C   UNL     1     -10.431   8.945  71.499  1.00  0.00    -0.393 C  
BRANCH   4   5
HETATM    5  C   UNL     1      -9.887   7.906  70.525  1.00  0.00    -0.186 C  
BRANCH   5   6
HETATM    6  C   UNL     1     -10.200   8.295  69.084  1.00  0.00    -0.223 C  
BRANCH   6   7
HETATM    7  C   UNL     1     -10.568   9.770  68.992  1.00  0.00    -0.238 C  
BRANCH   7   8
HETATM    8  C   UNL     1      -9.748  10.466  67.913  1.00  0.00    -0.168 C  
BRANCH   8   9
HETATM    9  C   UNL     1     -10.520  10.520  66.601  1.00  0.00    -0.290 C  
BRANCH   9  10
HETATM   10  C   UNL     1      -9.628  11.015  65.470  1.00  0.00    -0.263 C  
BRANCH  10  11
HETATM   11  C   UNL     1     -10.311  10.822  64.120  1.00  0.00    -0.382 C  
BRANCH  11  12
HETATM   12  C   UNL     1     -10.520  12.162  63.427  1.00  0.00    -0.450 C  
BRANCH  12  13
HETATM   13  C   UNL     1     -11.979  12.591  63.504  1.00  0.00    -0.629 C  
BRANCH  13  14
HETATM   14  C   UNL     1     -12.113  13.901  64.273  1.00  0.00    -0.477 C  
BRANCH  14  15
HETATM   15  C   UNL     1     -12.381  13.646  65.754  1.00  0.00    -0.524 C  
BRANCH  15  16
HETATM   16  C   UNL     1     -11.270  14.245  66.614  1.00  0.00    -0.337 C  
BRANCH  16  17
HETATM   17  C   UNL     1     -10.348  15.136  65.787  1.00  0.00    -0.359 C  
HETATM   18  C   UNL     1     -10.123  16.475  66.450  1.00  0.00    -0.312 C  
HETATM   19  O   UNL     1     -10.605  16.830  67.513  1.00  0.00    -0.323 OA 
HETATM   20  O   UNL     1      -9.306  17.273  65.723  1.00  0.00    -0.514 OA 
ENDBRANCH  16  17
ENDBRANCH  15  16
ENDBRANCH  14  15
ENDBRANCH  13  14
ENDBRANCH  12  13
ENDBRANCH  11  12
ENDBRANCH  10  11
ENDBRANCH   9  10
ENDBRANCH   8   9
ENDBRANCH   7   8
ENDBRANCH   6   7
ENDBRANCH   5   6
ENDBRANCH   4   5
ENDBRANCH   3   4
ENDBRANCH   2   3
TORSDOF 15
ENDMDL
MODEL      108
REMARK 921   NORMALIZED FREE ENERGY PREDICTED BY IDOCK:   -3.94 KCAL/MOL
REMARK 922        TOTAL FREE ENERGY PREDICTED BY IDOCK:   -9.20 KCAL/MOL
REMARK 923 INTER-LIGAND FREE ENERGY PREDICTED BY IDOCK:   -7.12 KCAL/MOL
REMARK 924 INTRA-LIGAND FREE ENERGY PREDICTED BY IDOCK:   -2.08 KCAL/MOL
REMARK 927      BINDING AFFINITY PREDICTED BY RF-SCORE:    0.00 PKD
ROOT
HETATM    1  C   UNL     1      -8.061  12.954  67.927  1.00  0.00    -0.161 C  
HETATM    2  C   UNL     1      -9.554  13.227  67.948  1.00  0.00    -0.217 C  
ENDROOT
BRANCH   2   3
HETATM    3  C   UNL     1      -9.952  14.197  66.838  1.00  0.00    -0.261 C  
BRANCH   3   4
HETATM    4  C   UNL     1     -11.424  14.583  66.948  1.00  0.00    -0.375 C  
BRANCH   4   5
HETATM    5  C   UNL     1     -12.246  13.892  65.864  1.00  0.00    -0.497 C  
BRANCH   5   6
HETATM    6  C   UNL     1     -11.677  14.186  64.480  1.00  0.00    -0.426 C  
BRANCH   6   7
HETATM    7  C   UNL     1     -12.153  13.149  63.471  1.00  0.00    -0.585 C  
BRANCH   7   8
HETATM    8  C   UNL     1     -11.948  11.738  64.008  1.00  0.00    -0.380 C  
BRANCH   8   9
HETATM    9  C   UNL     1     -10.511  11.282  63.789  1.00  0.00    -0.459 C  
BRANCH   9  10
HETATM   10  C   UNL     1      -9.800  11.083  65.122  1.00  0.00    -0.319 C  
BRANCH  10  11
HETATM   11  C   UNL     1      -9.314   9.644  65.265  1.00  0.00    -0.322 C  
BRANCH  11  12
HETATM   12  C   UNL     1      -9.349   9.208  66.723  1.00  0.00    -0.213 C  
BRANCH  12  13
HETATM   13  C   UNL     1     -10.743   9.385  67.310  1.00  0.00    -0.258 C  
BRANCH  13  14
HETATM   14  C   UNL     1     -10.662   9.932  68.731  1.00  0.00    -0.247 C  
BRANCH  14  15
HETATM   15  C   UNL     1     -11.788  10.924  69.005  1.00  0.00    -0.370 C  
BRANCH  15  16
HETATM   16  C   UNL     1     -12.241  10.838  70.461  1.00  0.00    -0.457 C  
BRANCH  16  17
HETATM   17  C   UNL     1     -11.430   9.802  71.233  1.00  0.00    -0.457 C  
HETATM   18  C   UNL     1     -12.321   8.797  71.925  1.00  0.00    -0.363 C  
HETATM   19  O   UNL     1     -13.541   8.789  71.892  1.00  0.00    -0.374 OA 
HETATM   20  O   UNL     1     -11.610   7.873  72.614  1.00  0.00    -0.376 OA 
ENDBRANCH  16  17
ENDBRANCH  15  16
ENDBRANCH  14  15
ENDBRANCH  13  14
ENDBRANCH  12  13
ENDBRANCH  11  12
ENDBRANCH  10  11
ENDBRANCH   9  10
ENDBRANCH   8   9
ENDBRANCH   7   8
ENDBRANCH   6   7
ENDBRANCH   5   6
ENDBRANCH   4   5
ENDBRANCH   3   4
ENDBRANCH   2   3
TORSDOF 15
ENDMDL
MODEL      109
REMARK 921   NORMALIZED FREE ENERGY PREDICTED BY IDOCK:   -3.94 KCAL/MOL
REMARK 922        TOTAL FREE ENERGY PREDICTED BY IDOCK:   -9.20 KCAL/MOL
REMARK 923 INTER-LIGAND FREE ENERGY PREDICTED BY IDOCK:   -8.34 KCAL/MOL
REMARK 924 INTRA-LIGAND FREE ENERGY PREDICTED BY IDOCK:   -0.85 KCAL/MOL
REMARK 927      BINDING AFFINITY PREDICTED BY RF-SCORE:    0.00 PKD
ROOT
HETATM    1  C   UNL     1     -10.820   6.322  69.560  1.00  0.00    -0.404 C  
HETATM    2  C   UNL     1     -11.916   6.488  70.597  1.00  0.00    -0.345 C  
ENDROOT
BRANCH   2   3
HETATM    3  C   UNL     1     -11.373   7.127  71.874  1.00  0.00    -0.294 C  
BRANCH   3   4
HETATM    4  C   UNL     1     -12.153   8.388  72.232  1.00  0.00    -0.456 C  
BRANCH   4   5
HETATM    5  C   UNL     1     -11.616   9.592  71.466  1.00  0.00    -0.451 C  
BRANCH   5   6
HETATM    6  C   UNL     1     -12.757  10.415  70.877  1.00  0.00    -0.477 C  
BRANCH   6   7
HETATM    7  C   UNL     1     -12.564  11.896  71.177  1.00  0.00    -0.390 C  
BRANCH   7   8
HETATM    8  C   UNL     1     -13.587  12.378  72.198  1.00  0.00    -0.405 C  
BRANCH   8   9
HETATM    9  C   UNL     1     -13.750  13.891  72.123  1.00  0.00    -0.619 C  
BRANCH   9  10
HETATM   10  C   UNL     1     -12.846  14.582  73.137  1.00  0.00    -0.547 C  
BRANCH  10  11
HETATM   11  C   UNL     1     -12.105  15.748  72.493  1.00  0.00    -0.591 C  
BRANCH  11  12
HETATM   12  C   UNL     1     -11.489  15.327  71.166  1.00  0.00    -0.414 C  
BRANCH  12  13
HETATM   13  C   UNL     1     -12.344  15.799  69.997  1.00  0.00    -0.248 C  
BRANCH  13  14
HETATM   14  C   UNL     1     -11.608  15.593  68.677  1.00  0.00    -0.391 C  
BRANCH  14  15
HETATM   15  C   UNL     1     -10.097  15.692  68.867  1.00  0.00    -0.217 C  
BRANCH  15  16
HETATM   16  C   UNL     1      -9.616  17.122  68.630  1.00  0.00    -0.281 C  
BRANCH  16  17
HETATM   17  C   UNL     1     -10.541  17.866  67.672  1.00  0.00    -0.398 C  
HETATM   18  C   UNL     1      -9.861  18.157  66.354  1.00  0.00    -0.353 C  
HETATM   19  O   UNL     1      -8.717  17.849  66.062  1.00  0.00    -0.492 OA 
HETATM   20  O   UNL     1     -10.674  18.818  65.496  1.00  0.00    -0.569 OA 
ENDBRANCH  16  17
ENDBRANCH  15  16
ENDBRANCH  14  15
ENDBRANCH  13  14
ENDBRANCH  12  13
ENDBRANCH  11  12
ENDBRANCH  10  11
ENDBRANCH   9  10
ENDBRANCH   8   9
ENDBRANCH   7   8
ENDBRANCH   6   7
ENDBRANCH   5   6
ENDBRANCH   4   5
ENDBRANCH   3   4
ENDBRANCH   2   3
TORSDOF 15
ENDMDL
MODEL      110
REMARK 921   NORMALIZED FREE ENERGY PREDICTED BY IDOCK:   -3.94 KCAL/MOL
REMARK 922        TOTAL FREE ENERGY PREDICTED BY IDOCK:   -9.18 KCAL/MOL
REMARK 923 INTER-LIGAND FREE ENERGY PREDICTED BY IDOCK:   -7.12 KCAL/MOL
REMARK 924 INTRA-LIGAND FREE ENERGY PREDICTED BY IDOCK:   -2.06 KCAL/MOL
REMARK 927      BINDING AFFINITY PREDICTED BY RF-SCORE:    0.00 PKD
ROOT
HETATM    1  C   UNL     1      -9.673  10.052  68.473  1.00  0.00    -0.164 C  
HETATM    2  C   UNL     1     -10.821   9.392  67.731  1.00  0.00    -0.223 C  
ENDROOT
BRANCH   2   3
HETATM    3  C   UNL     1     -10.470   7.959  67.337  1.00  0.00    -0.360 C  
BRANCH   3   4
HETATM    4  C   UNL     1     -10.150   7.114  68.565  1.00  0.00    -0.177 C  
BRANCH   4   5
HETATM    5  C   UNL     1     -11.409   6.439  69.100  1.00  0.00    -0.366 C  
BRANCH   5   6
HETATM    6  C   UNL     1     -11.463   6.517  70.622  1.00  0.00    -0.433 C  
BRANCH   6   7
HETATM    7  C   UNL     1     -10.453   7.530  71.145  1.00  0.00    -0.216 C  
BRANCH   7   8
HETATM    8  C   UNL     1     -11.159   8.678  71.858  1.00  0.00    -0.416 C  
BRANCH   8   9
HETATM    9  C   UNL     1     -12.658   8.421  71.937  1.00  0.00    -0.389 C  
BRANCH   9  10
HETATM   10  C   UNL     1     -13.421   9.731  72.096  1.00  0.00    -0.491 C  
BRANCH  10  11
HETATM   11  C   UNL     1     -12.794  10.828  71.242  1.00  0.00    -0.540 C  
BRANCH  11  12
HETATM   12  C   UNL     1     -13.124  12.203  71.807  1.00  0.00    -0.457 C  
BRANCH  12  13
HETATM   13  C   UNL     1     -12.485  13.302  70.969  1.00  0.00    -0.422 C  
BRANCH  13  14
HETATM   14  C   UNL     1     -11.835  12.716  69.720  1.00  0.00    -0.379 C  
BRANCH  14  15
HETATM   15  C   UNL     1     -11.147  13.800  68.895  1.00  0.00    -0.300 C  
BRANCH  15  16
HETATM   16  C   UNL     1     -12.017  14.209  67.708  1.00  0.00    -0.389 C  
BRANCH  16  17
HETATM   17  C   UNL     1     -11.174  14.443  66.458  1.00  0.00    -0.340 C  
HETATM   18  C   UNL     1     -11.092  13.202  65.600  1.00  0.00    -0.275 C  
HETATM   19  O   UNL     1     -11.622  12.131  65.847  1.00  0.00    -0.373 OA 
HETATM   20  O   UNL     1     -10.346  13.400  64.487  1.00  0.00    -0.413 OA 
ENDBRANCH  16  17
ENDBRANCH  15  16
ENDBRANCH  14  15
ENDBRANCH  13  14
ENDBRANCH  12  13
ENDBRANCH  11  12
ENDBRANCH  10  11
ENDBRANCH   9  10
ENDBRANCH   8   9
ENDBRANCH   7   8
ENDBRANCH   6   7
ENDBRANCH   5   6
ENDBRANCH   4   5
ENDBRANCH   3   4
ENDBRANCH   2   3
TORSDOF 15
ENDMDL
MODEL      111
REMARK 921   NORMALIZED FREE ENERGY PREDICTED BY IDOCK:   -3.93 KCAL/MOL
REMARK 922        TOTAL FREE ENERGY PREDICTED BY IDOCK:   -9.17 KCAL/MOL
REMARK 923 INTER-LIGAND FREE ENERGY PREDICTED BY IDOCK:   -7.19 KCAL/MOL
REMARK 924 INTRA-LIGAND FREE ENERGY PREDICTED BY IDOCK:   -1.99 KCAL/MOL
REMARK 927      BINDING AFFINITY PREDICTED BY RF-SCORE:    0.00 PKD
ROOT
HETATM    1  C   UNL     1     -12.407  14.520  64.491  1.00  0.00    -0.434 C  
HETATM    2  C   UNL     1     -12.130  14.076  65.917  1.00  0.00    -0.448 C  
ENDROOT
BRANCH   2   3
HETATM    3  C   UNL     1     -10.634  13.885  66.153  1.00  0.00    -0.291 C  
BRANCH   3   4
HETATM    4  C   UNL     1     -10.272  12.404  66.213  1.00  0.00    -0.258 C  
BRANCH   4   5
HETATM    5  C   UNL     1     -11.094  11.690  67.282  1.00  0.00    -0.346 C  
BRANCH   5   6
HETATM    6  C   UNL     1     -10.675  12.137  68.678  1.00  0.00    -0.261 C  
BRANCH   6   7
HETATM    7  C   UNL     1     -11.883  12.215  69.603  1.00  0.00    -0.391 C  
BRANCH   7   8
HETATM    8  C   UNL     1     -12.428  13.637  69.663  1.00  0.00    -0.145 C  
BRANCH   8   9
HETATM    9  C   UNL     1     -11.907  14.361  70.898  1.00  0.00    -0.346 C  
BRANCH   9  10
HETATM   10  C   UNL     1     -11.402  15.752  70.535  1.00  0.00    -0.400 C  
BRANCH  10  11
HETATM   11  C   UNL     1     -11.469  15.974  69.027  1.00  0.00    -0.360 C  
BRANCH  11  12
HETATM   12  C   UNL     1     -10.235  16.719  68.539  1.00  0.00    -0.298 C  
BRANCH  12  13
HETATM   13  C   UNL     1     -10.627  17.978  67.776  1.00  0.00    -0.409 C  
BRANCH  13  14
HETATM   14  C   UNL     1     -10.157  19.224  68.519  1.00  0.00    -0.513 C  
BRANCH  14  15
HETATM   15  C   UNL     1      -9.968  20.398  67.562  1.00  0.00    -0.537 C  
BRANCH  15  16
HETATM   16  C   UNL     1      -9.311  19.935  66.263  1.00  0.00    -0.474 C  
BRANCH  16  17
HETATM   17  C   UNL     1      -7.790  19.995  66.360  1.00  0.00    -0.326 C  
HETATM   18  C   UNL     1      -7.159  18.650  66.085  1.00  0.00    -0.260 C  
HETATM   19  O   UNL     1      -7.763  17.624  65.818  1.00  0.00    -0.540 OA 
HETATM   20  O   UNL     1      -5.808  18.693  66.169  1.00  0.00    -0.149 OA 
ENDBRANCH  16  17
ENDBRANCH  15  16
ENDBRANCH  14  15
ENDBRANCH  13  14
ENDBRANCH  12  13
ENDBRANCH  11  12
ENDBRANCH  10  11
ENDBRANCH   9  10
ENDBRANCH   8   9
ENDBRANCH   7   8
ENDBRANCH   6   7
ENDBRANCH   5   6
ENDBRANCH   4   5
ENDBRANCH   3   4
ENDBRANCH   2   3
TORSDOF 15
ENDMDL
MODEL      112
REMARK 921   NORMALIZED FREE ENERGY PREDICTED BY IDOCK:   -3.93 KCAL/MOL
REMARK 922        TOTAL FREE ENERGY PREDICTED BY IDOCK:   -9.17 KCAL/MOL
REMARK 923 INTER-LIGAND FREE ENERGY PREDICTED BY IDOCK:   -7.61 KCAL/MOL
REMARK 924 INTRA-LIGAND FREE ENERGY PREDICTED BY IDOCK:   -1.56 KCAL/MOL
REMARK 927      BINDING AFFINITY PREDICTED BY RF-SCORE:    0.00 PKD
ROOT
HETATM    1  C   UNL     1     -11.505  10.401  70.572  1.00  0.00    -0.431 C  
HETATM    2  C   UNL     1     -12.994  10.402  70.869  1.00  0.00    -0.475 C  
ENDROOT
BRANCH   2   3
HETATM    3  C   UNL     1     -13.334   9.414  71.981  1.00  0.00    -0.525 C  
BRANCH   3   4
HETATM    4  C   UNL     1     -12.159   8.485  72.269  1.00  0.00    -0.455 C  
BRANCH   4   5
HETATM    5  C   UNL     1     -12.533   7.034  71.979  1.00  0.00    -0.279 C  
BRANCH   5   6
HETATM    6  C   UNL     1     -11.307   6.232  71.556  1.00  0.00    -0.352 C  
BRANCH   6   7
HETATM    7  C   UNL     1     -10.674   6.832  70.308  1.00  0.00    -0.284 C  
BRANCH   7   8
HETATM    8  C   UNL     1     -11.406   6.368  69.054  1.00  0.00    -0.332 C  
BRANCH   8   9
HETATM    9  C   UNL     1     -10.510   6.498  67.829  1.00  0.00    -0.279 C  
BRANCH   9  10
HETATM   10  C   UNL     1      -9.794   7.843  67.825  1.00  0.00    -0.204 C  
BRANCH  10  11
HETATM   11  C   UNL     1     -10.442   8.796  66.826  1.00  0.00    -0.283 C  
BRANCH  11  12
HETATM   12  C   UNL     1      -9.472   9.902  66.433  1.00  0.00    -0.234 C  
BRANCH  12  13
HETATM   13  C   UNL     1      -9.742  11.170  67.233  1.00  0.00    -0.186 C  
BRANCH  13  14
HETATM   14  C   UNL     1     -11.173  11.649  67.014  1.00  0.00    -0.376 C  
BRANCH  14  15
HETATM   15  C   UNL     1     -11.326  12.328  65.657  1.00  0.00    -0.394 C  
BRANCH  15  16
HETATM   16  C   UNL     1     -12.432  13.380  65.701  1.00  0.00    -0.519 C  
BRANCH  16  17
HETATM   17  C   UNL     1     -12.289  14.384  64.561  1.00  0.00    -0.440 C  
HETATM   18  C   UNL     1     -11.482  15.591  64.977  1.00  0.00    -0.218 C  
HETATM   19  O   UNL     1     -10.993  15.772  66.080  1.00  0.00    -0.280 OA 
HETATM   20  O   UNL     1     -11.349  16.488  63.971  1.00  0.00    -1.064 OA 
ENDBRANCH  16  17
ENDBRANCH  15  16
ENDBRANCH  14  15
ENDBRANCH  13  14
ENDBRANCH  12  13
ENDBRANCH  11  12
ENDBRANCH  10  11
ENDBRANCH   9  10
ENDBRANCH   8   9
ENDBRANCH   7   8
ENDBRANCH   6   7
ENDBRANCH   5   6
ENDBRANCH   4   5
ENDBRANCH   3   4
ENDBRANCH   2   3
TORSDOF 15
ENDMDL
MODEL      113
REMARK 921   NORMALIZED FREE ENERGY PREDICTED BY IDOCK:   -3.92 KCAL/MOL
REMARK 922        TOTAL FREE ENERGY PREDICTED BY IDOCK:   -9.16 KCAL/MOL
REMARK 923 INTER-LIGAND FREE ENERGY PREDICTED BY IDOCK:   -7.30 KCAL/MOL
REMARK 924 INTRA-LIGAND FREE ENERGY PREDICTED BY IDOCK:   -1.85 KCAL/MOL
REMARK 927      BINDING AFFINITY PREDICTED BY RF-SCORE:    0.00 PKD
ROOT
HETATM    1  C   UNL     1     -12.300  12.500  63.543  1.00  0.00    -0.623 C  
HETATM    2  C   UNL     1     -12.515  12.829  65.010  1.00  0.00    -0.572 C  
ENDROOT
BRANCH   2   3
HETATM    3  C   UNL     1     -11.442  12.183  65.882  1.00  0.00    -0.418 C  
BRANCH   3   4
HETATM    4  C   UNL     1     -10.573  11.230  65.068  1.00  0.00    -0.353 C  
BRANCH   4   5
HETATM    5  C   UNL     1      -9.726  10.353  65.985  1.00  0.00    -0.265 C  
BRANCH   5   6
HETATM    6  C   UNL     1     -10.601   9.625  67.000  1.00  0.00    -0.267 C  
BRANCH   6   7
HETATM    7  C   UNL     1      -9.796   9.258  68.240  1.00  0.00    -0.179 C  
BRANCH   7   8
HETATM    8  C   UNL     1     -10.181   7.872  68.743  1.00  0.00    -0.218 C  
BRANCH   8   9
HETATM    9  C   UNL     1     -10.518   7.914  70.228  1.00  0.00    -0.225 C  
BRANCH   9  10
HETATM   10  C   UNL     1     -10.652   9.353  70.710  1.00  0.00    -0.371 C  
BRANCH  10  11
HETATM   11  C   UNL     1     -11.946   9.542  71.494  1.00  0.00    -0.475 C  
BRANCH  11  12
HETATM   12  C   UNL     1     -12.561  10.902  71.196  1.00  0.00    -0.532 C  
BRANCH  12  13
HETATM   13  C   UNL     1     -12.384  11.268  69.727  1.00  0.00    -0.277 C  
BRANCH  13  14
HETATM   14  C   UNL     1     -11.805  12.672  69.590  1.00  0.00    -0.379 C  
BRANCH  14  15
HETATM   15  C   UNL     1     -12.393  13.616  70.635  1.00  0.00    -0.440 C  
BRANCH  15  16
HETATM   16  C   UNL     1     -12.184  15.072  70.226  1.00  0.00    -0.390 C  
BRANCH  16  17
HETATM   17  C   UNL     1     -11.814  15.185  68.750  1.00  0.00    -0.329 C  
HETATM   18  C   UNL     1     -10.937  16.387  68.484  1.00  0.00    -0.350 C  
HETATM   19  O   UNL     1     -10.556  17.187  69.323  1.00  0.00    -0.326 OA 
HETATM   20  O   UNL     1     -10.604  16.496  67.177  1.00  0.00    -0.314 OA 
ENDBRANCH  16  17
ENDBRANCH  15  16
ENDBRANCH  14  15
ENDBRANCH  13  14
ENDBRANCH  12  13
ENDBRANCH  11  12
ENDBRANCH  10  11
ENDBRANCH   9  10
ENDBRANCH   8   9
ENDBRANCH   7   8
ENDBRANCH   6   7
ENDBRANCH   5   6
ENDBRANCH   4   5
ENDBRANCH   3   4
ENDBRANCH   2   3
TORSDOF 15
ENDMDL
MODEL      114
REMARK 921   NORMALIZED FREE ENERGY PREDICTED BY IDOCK:   -3.92 KCAL/MOL
REMARK 922        TOTAL FREE ENERGY PREDICTED BY IDOCK:   -9.16 KCAL/MOL
REMARK 923 INTER-LIGAND FREE ENERGY PREDICTED BY IDOCK:   -6.71 KCAL/MOL
REMARK 924 INTRA-LIGAND FREE ENERGY PREDICTED BY IDOCK:   -2.44 KCAL/MOL
REMARK 927      BINDING AFFINITY PREDICTED BY RF-SCORE:    0.00 PKD
ROOT
HETATM    1  C   UNL     1      -9.157   8.269  66.335  1.00  0.00    -0.226 C  
HETATM    2  C   UNL     1     -10.541   8.080  66.928  1.00  0.00    -0.324 C  
ENDROOT
BRANCH   2   3
HETATM    3  C   UNL     1     -10.868   6.599  67.103  1.00  0.00    -0.471 C  
BRANCH   3   4
HETATM    4  C   UNL     1     -11.141   6.266  68.566  1.00  0.00    -0.397 C  
BRANCH   4   5
HETATM    5  C   UNL     1      -9.983   5.475  69.166  1.00  0.00    -0.256 C  
BRANCH   5   6
HETATM    6  C   UNL     1      -8.891   6.410  69.674  1.00  0.00    -0.137 C  
BRANCH   6   7
HETATM    7  C   UNL     1      -9.497   7.577  70.444  1.00  0.00    -0.161 C  
BRANCH   7   8
HETATM    8  C   UNL     1      -9.373   7.356  71.947  1.00  0.00    -0.157 C  
BRANCH   8   9
HETATM    9  C   UNL     1     -10.709   7.598  72.637  1.00  0.00    -0.377 C  
BRANCH   9  10
HETATM   10  C   UNL     1     -11.763   6.621  72.129  1.00  0.00    -0.342 C  
BRANCH  10  11
HETATM   11  C   UNL     1     -12.994   7.368  71.628  1.00  0.00    -0.409 C  
BRANCH  11  12
HETATM   12  C   UNL     1     -13.156   8.691  72.364  1.00  0.00    -0.396 C  
BRANCH  12  13
HETATM   13  C   UNL     1     -13.660   9.778  71.423  1.00  0.00    -0.322 C  
BRANCH  13  14
HETATM   14  C   UNL     1     -12.694  10.957  71.396  1.00  0.00    -0.539 C  
BRANCH  14  15
HETATM   15  C   UNL     1     -11.565  10.723  70.396  1.00  0.00    -0.431 C  
BRANCH  15  16
HETATM   16  C   UNL     1     -11.874  11.405  69.065  1.00  0.00    -0.415 C  
BRANCH  16  17
HETATM   17  C   UNL     1     -10.633  11.485  68.182  1.00  0.00    -0.226 C  
HETATM   18  C   UNL     1     -10.983  11.848  66.758  1.00  0.00    -0.292 C  
HETATM   19  O   UNL     1     -12.108  12.057  66.335  1.00  0.00    -0.610 OA 
HETATM   20  O   UNL     1      -9.887  11.920  65.966  1.00  0.00    -0.224 OA 
ENDBRANCH  16  17
ENDBRANCH  15  16
ENDBRANCH  14  15
ENDBRANCH  13  14
ENDBRANCH  12  13
ENDBRANCH  11  12
ENDBRANCH  10  11
ENDBRANCH   9  10
ENDBRANCH   8   9
ENDBRANCH   7   8
ENDBRANCH   6   7
ENDBRANCH   5   6
ENDBRANCH   4   5
ENDBRANCH   3   4
ENDBRANCH   2   3
TORSDOF 15
ENDMDL
MODEL      115
REMARK 921   NORMALIZED FREE ENERGY PREDICTED BY IDOCK:   -3.92 KCAL/MOL
REMARK 922        TOTAL FREE ENERGY PREDICTED BY IDOCK:   -9.16 KCAL/MOL
REMARK 923 INTER-LIGAND FREE ENERGY PREDICTED BY IDOCK:   -7.45 KCAL/MOL
REMARK 924 INTRA-LIGAND FREE ENERGY PREDICTED BY IDOCK:   -1.71 KCAL/MOL
REMARK 927      BINDING AFFINITY PREDICTED BY RF-SCORE:    0.00 PKD
ROOT
HETATM    1  C   UNL     1     -13.963   7.707  71.611  1.00  0.00    -0.510 C  
HETATM    2  C   UNL     1     -13.378   8.902  72.342  1.00  0.00    -0.488 C  
ENDROOT
BRANCH   2   3
HETATM    3  C   UNL     1     -12.144   9.439  71.621  1.00  0.00    -0.462 C  
BRANCH   3   4
HETATM    4  C   UNL     1     -10.914   8.592  71.933  1.00  0.00    -0.412 C  
BRANCH   4   5
HETATM    5  C   UNL     1     -10.458   7.824  70.697  1.00  0.00    -0.213 C  
BRANCH   5   6
HETATM    6  C   UNL     1      -9.091   8.311  70.228  1.00  0.00    -0.150 C  
BRANCH   6   7
HETATM    7  C   UNL     1      -9.054   8.432  68.711  1.00  0.00    -0.143 C  
BRANCH   7   8
HETATM    8  C   UNL     1     -10.353   9.030  68.184  1.00  0.00    -0.262 C  
BRANCH   8   9
HETATM    9  C   UNL     1     -10.159  10.493  67.809  1.00  0.00    -0.205 C  
BRANCH   9  10
HETATM   10  C   UNL     1     -10.464  11.399  68.995  1.00  0.00    -0.196 C  
BRANCH  10  11
HETATM   11  C   UNL     1     -11.776  12.147  68.780  1.00  0.00    -0.374 C  
BRANCH  11  12
HETATM   12  C   UNL     1     -11.791  13.445  69.574  1.00  0.00    -0.391 C  
BRANCH  12  13
HETATM   13  C   UNL     1     -11.713  14.651  68.646  1.00  0.00    -0.362 C  
BRANCH  13  14
HETATM   14  C   UNL     1     -11.739  14.207  67.187  1.00  0.00    -0.430 C  
BRANCH  14  15
HETATM   15  C   UNL     1     -10.449  14.594  66.470  1.00  0.00    -0.290 C  
BRANCH  15  16
HETATM   16  C   UNL     1     -10.574  14.355  64.967  1.00  0.00    -0.452 C  
BRANCH  16  17
HETATM   17  C   UNL     1     -11.249  13.019  64.673  1.00  0.00    -0.355 C  
HETATM   18  C   UNL     1     -12.327  13.156  63.623  1.00  0.00    -0.404 C  
HETATM   19  O   UNL     1     -12.643  14.193  63.062  1.00  0.00    -0.573 OA 
HETATM   20  O   UNL     1     -12.932  11.975  63.355  1.00  0.00    -0.772 OA 
ENDBRANCH  16  17
ENDBRANCH  15  16
ENDBRANCH  14  15
ENDBRANCH  13  14
ENDBRANCH  12  13
ENDBRANCH  11  12
ENDBRANCH  10  11
ENDBRANCH   9  10
ENDBRANCH   8   9
ENDBRANCH   7   8
ENDBRANCH   6   7
ENDBRANCH   5   6
ENDBRANCH   4   5
ENDBRANCH   3   4
ENDBRANCH   2   3
TORSDOF 15
ENDMDL
MODEL      116
REMARK 921   NORMALIZED FREE ENERGY PREDICTED BY IDOCK:   -3.92 KCAL/MOL
REMARK 922        TOTAL FREE ENERGY PREDICTED BY IDOCK:   -9.15 KCAL/MOL
REMARK 923 INTER-LIGAND FREE ENERGY PREDICTED BY IDOCK:   -7.11 KCAL/MOL
REMARK 924 INTRA-LIGAND FREE ENERGY PREDICTED BY IDOCK:   -2.04 KCAL/MOL
REMARK 927      BINDING AFFINITY PREDICTED BY RF-SCORE:    0.00 PKD
ROOT
HETATM    1  C   UNL     1     -10.278   9.584  71.017  1.00  0.00    -0.332 C  
HETATM    2  C   UNL     1     -11.718  10.038  70.862  1.00  0.00    -0.462 C  
ENDROOT
BRANCH   2   3
HETATM    3  C   UNL     1     -12.651   9.221  71.752  1.00  0.00    -0.461 C  
BRANCH   3   4
HETATM    4  C   UNL     1     -11.918   8.040  72.379  1.00  0.00    -0.405 C  
BRANCH   4   5
HETATM    5  C   UNL     1     -12.204   6.755  71.609  1.00  0.00    -0.410 C  
BRANCH   5   6
HETATM    6  C   UNL     1     -10.962   5.872  71.544  1.00  0.00    -0.323 C  
BRANCH   6   7
HETATM    7  C   UNL     1     -10.323   5.942  70.163  1.00  0.00    -0.305 C  
BRANCH   7   8
HETATM    8  C   UNL     1     -11.368   6.253  69.099  1.00  0.00    -0.358 C  
BRANCH   8   9
HETATM    9  C   UNL     1     -10.701   6.569  67.767  1.00  0.00    -0.368 C  
BRANCH   9  10
HETATM   10  C   UNL     1      -9.920   7.875  67.850  1.00  0.00    -0.220 C  
BRANCH  10  11
HETATM   11  C   UNL     1     -10.778   9.047  67.386  1.00  0.00    -0.231 C  
BRANCH  11  12
HETATM   12  C   UNL     1      -9.985   9.960  66.461  1.00  0.00    -0.291 C  
BRANCH  12  13
HETATM   13  C   UNL     1     -10.655  11.322  66.336  1.00  0.00    -0.316 C  
BRANCH  13  14
HETATM   14  C   UNL     1     -11.607  11.561  67.504  1.00  0.00    -0.322 C  
BRANCH  14  15
HETATM   15  C   UNL     1     -11.743  13.050  67.807  1.00  0.00    -0.405 C  
BRANCH  15  16
HETATM   16  C   UNL     1     -11.485  13.325  69.287  1.00  0.00    -0.345 C  
BRANCH  16  17
HETATM   17  C   UNL     1     -12.122  14.640  69.726  1.00  0.00    -0.371 C  
HETATM   18  C   UNL     1     -12.792  14.513  71.075  1.00  0.00    -0.350 C  
HETATM   19  O   UNL     1     -12.836  13.500  71.753  1.00  0.00    -0.340 OA 
HETATM   20  O   UNL     1     -13.360  15.676  71.473  1.00  0.00    -0.494 OA 
ENDBRANCH  16  17
ENDBRANCH  15  16
ENDBRANCH  14  15
ENDBRANCH  13  14
ENDBRANCH  12  13
ENDBRANCH  11  12
ENDBRANCH  10  11
ENDBRANCH   9  10
ENDBRANCH   8   9
ENDBRANCH   7   8
ENDBRANCH   6   7
ENDBRANCH   5   6
ENDBRANCH   4   5
ENDBRANCH   3   4
ENDBRANCH   2   3
TORSDOF 15
ENDMDL
MODEL      117
REMARK 921   NORMALIZED FREE ENERGY PREDICTED BY IDOCK:   -3.92 KCAL/MOL
REMARK 922        TOTAL FREE ENERGY PREDICTED BY IDOCK:   -9.15 KCAL/MOL
REMARK 923 INTER-LIGAND FREE ENERGY PREDICTED BY IDOCK:   -7.51 KCAL/MOL
REMARK 924 INTRA-LIGAND FREE ENERGY PREDICTED BY IDOCK:   -1.64 KCAL/MOL
REMARK 927      BINDING AFFINITY PREDICTED BY RF-SCORE:    0.00 PKD
ROOT
HETATM    1  C   UNL     1      -8.971   8.549  67.162  1.00  0.00    -0.145 C  
HETATM    2  C   UNL     1     -10.457   8.315  66.960  1.00  0.00    -0.384 C  
ENDROOT
BRANCH   2   3
HETATM    3  C   UNL     1     -10.799   6.830  67.055  1.00  0.00    -0.453 C  
BRANCH   3   4
HETATM    4  C   UNL     1     -11.000   6.405  68.506  1.00  0.00    -0.396 C  
BRANCH   4   5
HETATM    5  C   UNL     1     -10.108   5.217  68.850  1.00  0.00    -0.237 C  
BRANCH   5   6
HETATM    6  C   UNL     1      -8.814   5.682  69.509  1.00  0.00    -0.116 C  
BRANCH   6   7
HETATM    7  C   UNL     1      -9.110   6.516  70.749  1.00  0.00    -0.154 C  
BRANCH   7   8
HETATM    8  C   UNL     1      -9.646   5.639  71.874  1.00  0.00    -0.176 C  
BRANCH   8   9
HETATM    9  C   UNL     1     -10.694   6.388  72.687  1.00  0.00    -0.262 C  
BRANCH   9  10
HETATM   10  C   UNL     1     -12.088   6.147  72.121  1.00  0.00    -0.263 C  
BRANCH  10  11
HETATM   11  C   UNL     1     -12.728   7.461  71.683  1.00  0.00    -0.399 C  
BRANCH  11  12
HETATM   12  C   UNL     1     -11.991   8.645  72.292  1.00  0.00    -0.438 C  
BRANCH  12  13
HETATM   13  C   UNL     1     -12.050   9.855  71.367  1.00  0.00    -0.501 C  
BRANCH  13  14
HETATM   14  C   UNL     1     -13.157  10.810  71.802  1.00  0.00    -0.573 C  
BRANCH  14  15
HETATM   15  C   UNL     1     -12.791  12.257  71.487  1.00  0.00    -0.384 C  
BRANCH  15  16
HETATM   16  C   UNL     1     -13.686  13.221  72.264  1.00  0.00    -0.686 C  
BRANCH  16  17
HETATM   17  C   UNL     1     -12.861  14.273  72.999  1.00  0.00    -0.461 C  
HETATM   18  C   UNL     1     -12.708  15.535  72.182  1.00  0.00    -0.403 C  
HETATM   19  O   UNL     1     -13.174  15.720  71.069  1.00  0.00    -0.547 OA 
HETATM   20  O   UNL     1     -11.977  16.474  72.826  1.00  0.00    -0.533 OA 
ENDBRANCH  16  17
ENDBRANCH  15  16
ENDBRANCH  14  15
ENDBRANCH  13  14
ENDBRANCH  12  13
ENDBRANCH  11  12
ENDBRANCH  10  11
ENDBRANCH   9  10
ENDBRANCH   8   9
ENDBRANCH   7   8
ENDBRANCH   6   7
ENDBRANCH   5   6
ENDBRANCH   4   5
ENDBRANCH   3   4
ENDBRANCH   2   3
TORSDOF 15
ENDMDL
MODEL      118
REMARK 921   NORMALIZED FREE ENERGY PREDICTED BY IDOCK:   -3.92 KCAL/MOL
REMARK 922        TOTAL FREE ENERGY PREDICTED BY IDOCK:   -9.15 KCAL/MOL
REMARK 923 INTER-LIGAND FREE ENERGY PREDICTED BY IDOCK:   -7.19 KCAL/MOL
REMARK 924 INTRA-LIGAND FREE ENERGY PREDICTED BY IDOCK:   -1.96 KCAL/MOL
REMARK 927      BINDING AFFINITY PREDICTED BY RF-SCORE:    0.00 PKD
ROOT
HETATM    1  C   UNL     1     -10.277  17.382  67.812  1.00  0.00    -0.345 C  
HETATM    2  C   UNL     1      -9.073  16.628  67.276  1.00  0.00    -0.225 C  
ENDROOT
BRANCH   2   3
HETATM    3  C   UNL     1      -9.494  15.322  66.607  1.00  0.00    -0.281 C  
BRANCH   3   4
HETATM    4  C   UNL     1     -10.915  15.418  66.060  1.00  0.00    -0.286 C  
BRANCH   4   5
HETATM    5  C   UNL     1     -11.816  14.372  66.708  1.00  0.00    -0.431 C  
BRANCH   5   6
HETATM    6  C   UNL     1     -12.536  13.544  65.648  1.00  0.00    -0.528 C  
BRANCH   6   7
HETATM    7  C   UNL     1     -11.734  13.512  64.353  1.00  0.00    -0.443 C  
BRANCH   7   8
HETATM    8  C   UNL     1     -11.975  12.209  63.600  1.00  0.00    -0.628 C  
BRANCH   8   9
HETATM    9  C   UNL     1     -10.653  11.543  63.242  1.00  0.00    -0.405 C  
BRANCH   9  10
HETATM   10  C   UNL     1      -9.751  11.442  64.467  1.00  0.00    -0.268 C  
BRANCH  10  11
HETATM   11  C   UNL     1      -9.961  10.112  65.183  1.00  0.00    -0.379 C  
BRANCH  11  12
HETATM   12  C   UNL     1      -9.410  10.172  66.600  1.00  0.00    -0.195 C  
BRANCH  12  13
HETATM   13  C   UNL     1      -9.176  11.614  67.031  1.00  0.00    -0.185 C  
BRANCH  13  14
HETATM   14  C   UNL     1      -9.623  11.823  68.474  1.00  0.00    -0.173 C  
BRANCH  14  15
HETATM   15  C   UNL     1     -10.398  10.614  68.991  1.00  0.00    -0.237 C  
BRANCH  15  16
HETATM   16  C   UNL     1     -11.567  11.058  69.867  1.00  0.00    -0.416 C  
BRANCH  16  17
HETATM   17  C   UNL     1     -12.162   9.881  70.634  1.00  0.00    -0.325 C  
HETATM   18  C   UNL     1     -13.039  10.344  71.775  1.00  0.00    -0.462 C  
HETATM   19  O   UNL     1     -13.262  11.506  72.073  1.00  0.00    -0.509 OA 
HETATM   20  O   UNL     1     -13.571   9.306  72.462  1.00  0.00    -0.467 OA 
ENDBRANCH  16  17
ENDBRANCH  15  16
ENDBRANCH  14  15
ENDBRANCH  13  14
ENDBRANCH  12  13
ENDBRANCH  11  12
ENDBRANCH  10  11
ENDBRANCH   9  10
ENDBRANCH   8   9
ENDBRANCH   7   8
ENDBRANCH   6   7
ENDBRANCH   5   6
ENDBRANCH   4   5
ENDBRANCH   3   4
ENDBRANCH   2   3
TORSDOF 15
ENDMDL
MODEL      119
REMARK 921   NORMALIZED FREE ENERGY PREDICTED BY IDOCK:   -3.90 KCAL/MOL
REMARK 922        TOTAL FREE ENERGY PREDICTED BY IDOCK:   -9.12 KCAL/MOL
REMARK 923 INTER-LIGAND FREE ENERGY PREDICTED BY IDOCK:   -7.10 KCAL/MOL
REMARK 924 INTRA-LIGAND FREE ENERGY PREDICTED BY IDOCK:   -2.02 KCAL/MOL
REMARK 927      BINDING AFFINITY PREDICTED BY RF-SCORE:    0.00 PKD
ROOT
HETATM    1  C   UNL     1     -10.339  19.695  68.317  1.00  0.00    -0.539 C  
HETATM    2  C   UNL     1     -10.384  19.943  66.820  1.00  0.00    -0.599 C  
ENDROOT
BRANCH   2   3
HETATM    3  C   UNL     1      -9.258  19.199  66.105  1.00  0.00    -0.250 C  
BRANCH   3   4
HETATM    4  C   UNL     1      -7.908  19.498  66.747  1.00  0.00    -0.291 C  
BRANCH   4   5
HETATM    5  C   UNL     1      -6.854  18.498  66.282  1.00  0.00    -0.265 C  
BRANCH   5   6
HETATM    6  C   UNL     1      -7.006  17.168  67.013  1.00  0.00    -0.228 C  
BRANCH   6   7
HETATM    7  C   UNL     1      -7.254  17.396  68.498  1.00  0.00    -0.230 C  
BRANCH   7   8
HETATM    8  C   UNL     1      -8.340  16.459  69.015  1.00  0.00    -0.225 C  
BRANCH   8   9
HETATM    9  C   UNL     1      -9.197  15.945  67.865  1.00  0.00    -0.198 C  
BRANCH   9  10
HETATM   10  C   UNL     1     -10.667  15.903  68.266  1.00  0.00    -0.291 C  
BRANCH  10  11
HETATM   11  C   UNL     1     -11.469  15.051  67.288  1.00  0.00    -0.312 C  
BRANCH  11  12
HETATM   12  C   UNL     1     -10.614  13.918  66.736  1.00  0.00    -0.277 C  
BRANCH  12  13
HETATM   13  C   UNL     1     -11.012  12.586  67.359  1.00  0.00    -0.297 C  
BRANCH  13  14
HETATM   14  C   UNL     1     -12.003  12.799  68.498  1.00  0.00    -0.265 C  
BRANCH  14  15
HETATM   15  C   UNL     1     -11.878  11.702  69.551  1.00  0.00    -0.414 C  
BRANCH  15  16
HETATM   16  C   UNL     1     -12.295  12.222  70.925  1.00  0.00    -0.363 C  
BRANCH  16  17
HETATM   17  C   UNL     1     -12.421  13.742  70.927  1.00  0.00    -0.451 C  
HETATM   18  C   UNL     1     -13.544  14.208  71.823  1.00  0.00    -0.399 C  
HETATM   19  O   UNL     1     -14.278  13.484  72.477  1.00  0.00    -0.734 OA 
HETATM   20  O   UNL     1     -13.664  15.556  71.832  1.00  0.00    -0.469 OA 
ENDBRANCH  16  17
ENDBRANCH  15  16
ENDBRANCH  14  15
ENDBRANCH  13  14
ENDBRANCH  12  13
ENDBRANCH  11  12
ENDBRANCH  10  11
ENDBRANCH   9  10
ENDBRANCH   8   9
ENDBRANCH   7   8
ENDBRANCH   6   7
ENDBRANCH   5   6
ENDBRANCH   4   5
ENDBRANCH   3   4
ENDBRANCH   2   3
TORSDOF 15
ENDMDL
MODEL      120
REMARK 921   NORMALIZED FREE ENERGY PREDICTED BY IDOCK:   -3.90 KCAL/MOL
REMARK 922        TOTAL FREE ENERGY PREDICTED BY IDOCK:   -9.12 KCAL/MOL
REMARK 923 INTER-LIGAND FREE ENERGY PREDICTED BY IDOCK:   -7.30 KCAL/MOL
REMARK 924 INTRA-LIGAND FREE ENERGY PREDICTED BY IDOCK:   -1.82 KCAL/MOL
REMARK 927      BINDING AFFINITY PREDICTED BY RF-SCORE:    0.00 PKD
ROOT
HETATM    1  C   UNL     1      -7.386  19.121  69.040  1.00  0.00    -0.360 C  
HETATM    2  C   UNL     1      -6.620  18.930  67.743  1.00  0.00    -0.220 C  
ENDROOT
BRANCH   2   3
HETATM    3  C   UNL     1      -7.290  19.676  66.592  1.00  0.00    -0.258 C  
BRANCH   3   4
HETATM    4  C   UNL     1      -8.521  20.437  67.074  1.00  0.00    -0.355 C  
BRANCH   4   5
HETATM    5  C   UNL     1      -9.725  20.136  66.187  1.00  0.00    -0.481 C  
BRANCH   5   6
HETATM    6  C   UNL     1     -10.761  19.308  66.940  1.00  0.00    -0.543 C  
BRANCH   6   7
HETATM    7  C   UNL     1     -10.336  17.847  67.009  1.00  0.00    -0.366 C  
BRANCH   7   8
HETATM    8  C   UNL     1     -10.869  17.188  68.276  1.00  0.00    -0.314 C  
BRANCH   8   9
HETATM    9  C   UNL     1      -9.843  16.222  68.852  1.00  0.00    -0.246 C  
BRANCH   9  10
HETATM   10  C   UNL     1     -10.461  15.374  69.957  1.00  0.00    -0.301 C  
BRANCH  10  11
HETATM   11  C   UNL     1     -11.974  15.282  69.784  1.00  0.00    -0.374 C  
BRANCH  11  12
HETATM   12  C   UNL     1     -12.452  13.852  69.995  1.00  0.00    -0.325 C  
BRANCH  12  13
HETATM   13  C   UNL     1     -11.384  12.854  69.568  1.00  0.00    -0.221 C  
BRANCH  13  14
HETATM   14  C   UNL     1     -11.965  11.828  68.600  1.00  0.00    -0.299 C  
BRANCH  14  15
HETATM   15  C   UNL     1     -11.113  11.717  67.338  1.00  0.00    -0.338 C  
BRANCH  15  16
HETATM   16  C   UNL     1     -11.164  13.016  66.537  1.00  0.00    -0.335 C  
BRANCH  16  17
HETATM   17  C   UNL     1     -12.350  13.029  65.577  1.00  0.00    -0.527 C  
HETATM   18  C   UNL     1     -12.000  12.396  64.250  1.00  0.00    -0.410 C  
HETATM   19  O   UNL     1     -10.915  11.926  63.952  1.00  0.00    -0.336 OA 
HETATM   20  O   UNL     1     -13.046  12.403  63.391  1.00  0.00    -0.689 OA 
ENDBRANCH  16  17
ENDBRANCH  15  16
ENDBRANCH  14  15
ENDBRANCH  13  14
ENDBRANCH  12  13
ENDBRANCH  11  12
ENDBRANCH  10  11
ENDBRANCH   9  10
ENDBRANCH   8   9
ENDBRANCH   7   8
ENDBRANCH   6   7
ENDBRANCH   5   6
ENDBRANCH   4   5
ENDBRANCH   3   4
ENDBRANCH   2   3
TORSDOF 15
ENDMDL
MODEL      121
REMARK 921   NORMALIZED FREE ENERGY PREDICTED BY IDOCK:   -3.90 KCAL/MOL
REMARK 922        TOTAL FREE ENERGY PREDICTED BY IDOCK:   -9.12 KCAL/MOL
REMARK 923 INTER-LIGAND FREE ENERGY PREDICTED BY IDOCK:   -7.57 KCAL/MOL
REMARK 924 INTRA-LIGAND FREE ENERGY PREDICTED BY IDOCK:   -1.54 KCAL/MOL
REMARK 927      BINDING AFFINITY PREDICTED BY RF-SCORE:    0.00 PKD
ROOT
HETATM    1  C   UNL     1      -9.986  19.670  68.738  1.00  0.00    -0.542 C  
HETATM    2  C   UNL     1     -10.128  20.201  67.323  1.00  0.00    -0.572 C  
ENDROOT
BRANCH   2   3
HETATM    3  C   UNL     1      -8.818  20.063  66.550  1.00  0.00    -0.414 C  
BRANCH   3   4
HETATM    4  C   UNL     1      -7.918  19.006  67.179  1.00  0.00    -0.271 C  
BRANCH   4   5
HETATM    5  C   UNL     1      -7.369  18.059  66.116  1.00  0.00    -0.317 C  
BRANCH   5   6
HETATM    6  C   UNL     1      -7.784  16.620  66.403  1.00  0.00    -0.328 C  
BRANCH   6   7
HETATM    7  C   UNL     1      -9.115  16.581  67.144  1.00  0.00    -0.227 C  
BRANCH   7   8
HETATM    8  C   UNL     1     -10.281  16.578  66.163  1.00  0.00    -0.360 C  
BRANCH   8   9
HETATM    9  C   UNL     1     -10.970  15.220  66.152  1.00  0.00    -0.307 C  
BRANCH   9  10
HETATM   10  C   UNL     1     -10.713  14.495  64.836  1.00  0.00    -0.448 C  
BRANCH  10  11
HETATM   11  C   UNL     1     -12.006  13.902  64.285  1.00  0.00    -0.477 C  
BRANCH  11  12
HETATM   12  C   UNL     1     -12.197  12.476  64.783  1.00  0.00    -0.532 C  
BRANCH  12  13
HETATM   13  C   UNL     1     -10.859  11.756  64.896  1.00  0.00    -0.353 C  
BRANCH  13  14
HETATM   14  C   UNL     1     -10.660  11.212  66.307  1.00  0.00    -0.309 C  
BRANCH  14  15
HETATM   15  C   UNL     1     -11.642  11.846  67.287  1.00  0.00    -0.364 C  
BRANCH  15  16
HETATM   16  C   UNL     1     -10.948  12.185  68.604  1.00  0.00    -0.284 C  
BRANCH  16  17
HETATM   17  C   UNL     1     -11.960  12.544  69.687  1.00  0.00    -0.339 C  
HETATM   18  C   UNL     1     -12.182  11.398  70.646  1.00  0.00    -0.389 C  
HETATM   19  O   UNL     1     -11.638  10.308  70.588  1.00  0.00    -0.297 OA 
HETATM   20  O   UNL     1     -13.080  11.708  71.612  1.00  0.00    -0.445 OA 
ENDBRANCH  16  17
ENDBRANCH  15  16
ENDBRANCH  14  15
ENDBRANCH  13  14
ENDBRANCH  12  13
ENDBRANCH  11  12
ENDBRANCH  10  11
ENDBRANCH   9  10
ENDBRANCH   8   9
ENDBRANCH   7   8
ENDBRANCH   6   7
ENDBRANCH   5   6
ENDBRANCH   4   5
ENDBRANCH   3   4
ENDBRANCH   2   3
TORSDOF 15
ENDMDL
MODEL      122
REMARK 921   NORMALIZED FREE ENERGY PREDICTED BY IDOCK:   -3.89 KCAL/MOL
REMARK 922        TOTAL FREE ENERGY PREDICTED BY IDOCK:   -9.10 KCAL/MOL
REMARK 923 INTER-LIGAND FREE ENERGY PREDICTED BY IDOCK:   -7.39 KCAL/MOL
REMARK 924 INTRA-LIGAND FREE ENERGY PREDICTED BY IDOCK:   -1.71 KCAL/MOL
REMARK 927      BINDING AFFINITY PREDICTED BY RF-SCORE:    0.00 PKD
ROOT
HETATM    1  C   UNL     1     -11.541  12.689  63.989  1.00  0.00    -0.486 C  
HETATM    2  C   UNL     1     -12.454  12.950  65.174  1.00  0.00    -0.561 C  
ENDROOT
BRANCH   2   3
HETATM    3  C   UNL     1     -11.746  12.643  66.492  1.00  0.00    -0.463 C  
BRANCH   3   4
HETATM    4  C   UNL     1     -12.038  13.717  67.535  1.00  0.00    -0.352 C  
BRANCH   4   5
HETATM    5  C   UNL     1     -10.770  14.088  68.297  1.00  0.00    -0.262 C  
BRANCH   5   6
HETATM    6  C   UNL     1     -11.109  14.808  69.599  1.00  0.00    -0.299 C  
BRANCH   6   7
HETATM    7  C   UNL     1     -12.530  15.355  69.557  1.00  0.00    -0.110 C  
BRANCH   7   8
HETATM    8  C   UNL     1     -13.143  15.376  70.952  1.00  0.00    -0.528 C  
BRANCH   8   9
HETATM    9  C   UNL     1     -12.571  14.253  71.807  1.00  0.00    -0.418 C  
BRANCH   9  10
HETATM   10  C   UNL     1     -13.658  13.252  72.179  1.00  0.00    -0.655 C  
BRANCH  10  11
HETATM   11  C   UNL     1     -13.172  11.822  71.962  1.00  0.00    -0.460 C  
BRANCH  11  12
HETATM   12  C   UNL     1     -12.299  11.735  70.719  1.00  0.00    -0.433 C  
BRANCH  12  13
HETATM   13  C   UNL     1     -11.690  10.345  70.579  1.00  0.00    -0.434 C  
BRANCH  13  14
HETATM   14  C   UNL     1     -12.416   9.348  71.476  1.00  0.00    -0.450 C  
BRANCH  14  15
HETATM   15  C   UNL     1     -11.738   7.982  71.445  1.00  0.00    -0.320 C  
BRANCH  15  16
HETATM   16  C   UNL     1     -10.722   7.910  70.306  1.00  0.00    -0.236 C  
BRANCH  16  17
HETATM   17  C   UNL     1     -11.130   6.871  69.266  1.00  0.00    -0.229 C  
HETATM   18  C   UNL     1     -10.902   7.372  67.858  1.00  0.00    -0.081 C  
HETATM   19  O   UNL     1     -10.452   8.465  67.558  1.00  0.00    -0.249 OA 
HETATM   20  O   UNL     1     -11.261   6.456  66.927  1.00  0.00    -0.368 OA 
ENDBRANCH  16  17
ENDBRANCH  15  16
ENDBRANCH  14  15
ENDBRANCH  13  14
ENDBRANCH  12  13
ENDBRANCH  11  12
ENDBRANCH  10  11
ENDBRANCH   9  10
ENDBRANCH   8   9
ENDBRANCH   7   8
ENDBRANCH   6   7
ENDBRANCH   5   6
ENDBRANCH   4   5
ENDBRANCH   3   4
ENDBRANCH   2   3
TORSDOF 15
ENDMDL
MODEL      123
REMARK 921   NORMALIZED FREE ENERGY PREDICTED BY IDOCK:   -3.89 KCAL/MOL
REMARK 922        TOTAL FREE ENERGY PREDICTED BY IDOCK:   -9.10 KCAL/MOL
REMARK 923 INTER-LIGAND FREE ENERGY PREDICTED BY IDOCK:   -6.99 KCAL/MOL
REMARK 924 INTRA-LIGAND FREE ENERGY PREDICTED BY IDOCK:   -2.11 KCAL/MOL
REMARK 927      BINDING AFFINITY PREDICTED BY RF-SCORE:    0.00 PKD
ROOT
HETATM    1  C   UNL     1     -10.398  19.663  68.500  1.00  0.00    -0.459 C  
HETATM    2  C   UNL     1     -10.877  19.736  67.061  1.00  0.00    -0.465 C  
ENDROOT
BRANCH   2   3
HETATM    3  C   UNL     1      -9.722  20.039  66.111  1.00  0.00    -0.517 C  
BRANCH   3   4
HETATM    4  C   UNL     1      -8.379  19.922  66.824  1.00  0.00    -0.364 C  
BRANCH   4   5
HETATM    5  C   UNL     1      -7.371  19.172  65.959  1.00  0.00    -0.295 C  
BRANCH   5   6
HETATM    6  C   UNL     1      -7.705  17.685  65.901  1.00  0.00    -0.136 C  
BRANCH   6   7
HETATM    7  C   UNL     1      -7.625  17.060  67.287  1.00  0.00    -0.192 C  
BRANCH   7   8
HETATM    8  C   UNL     1      -8.966  16.452  67.684  1.00  0.00    -0.198 C  
BRANCH   8   9
HETATM    9  C   UNL     1      -9.431  15.448  66.638  1.00  0.00    -0.281 C  
BRANCH   9  10
HETATM   10  C   UNL     1      -9.951  14.179  67.303  1.00  0.00    -0.249 C  
BRANCH  10  11
HETATM   11  C   UNL     1      -8.794  13.293  67.754  1.00  0.00    -0.197 C  
BRANCH  11  12
HETATM   12  C   UNL     1      -8.722  12.031  66.906  1.00  0.00    -0.193 C  
BRANCH  12  13
HETATM   13  C   UNL     1      -9.966  11.174  67.102  1.00  0.00    -0.215 C  
BRANCH  13  14
HETATM   14  C   UNL     1     -10.325  10.447  65.810  1.00  0.00    -0.257 C  
BRANCH  14  15
HETATM   15  C   UNL     1      -9.676  11.115  64.602  1.00  0.00    -0.308 C  
BRANCH  15  16
HETATM   16  C   UNL     1     -10.736  11.570  63.602  1.00  0.00    -0.491 C  
BRANCH  16  17
HETATM   17  C   UNL     1     -10.995  13.070  63.713  1.00  0.00    -0.316 C  
HETATM   18  C   UNL     1     -12.334  13.360  64.349  1.00  0.00    -0.341 C  
HETATM   19  O   UNL     1     -13.133  12.523  64.735  1.00  0.00    -0.853 OA 
HETATM   20  O   UNL     1     -12.573  14.689  64.451  1.00  0.00    -0.662 OA 
ENDBRANCH  16  17
ENDBRANCH  15  16
ENDBRANCH  14  15
ENDBRANCH  13  14
ENDBRANCH  12  13
ENDBRANCH  11  12
ENDBRANCH  10  11
ENDBRANCH   9  10
ENDBRANCH   8   9
ENDBRANCH   7   8
ENDBRANCH   6   7
ENDBRANCH   5   6
ENDBRANCH   4   5
ENDBRANCH   3   4
ENDBRANCH   2   3
TORSDOF 15
ENDMDL
MODEL      124
REMARK 921   NORMALIZED FREE ENERGY PREDICTED BY IDOCK:   -3.89 KCAL/MOL
REMARK 922        TOTAL FREE ENERGY PREDICTED BY IDOCK:   -9.10 KCAL/MOL
REMARK 923 INTER-LIGAND FREE ENERGY PREDICTED BY IDOCK:   -7.23 KCAL/MOL
REMARK 924 INTRA-LIGAND FREE ENERGY PREDICTED BY IDOCK:   -1.86 KCAL/MOL
REMARK 927      BINDING AFFINITY PREDICTED BY RF-SCORE:    0.00 PKD
ROOT
HETATM    1  C   UNL     1      -6.878  11.161  67.886  1.00  0.00    -0.068 C  
HETATM    2  C   UNL     1      -8.140  10.905  68.690  1.00  0.00    -0.143 C  
ENDROOT
BRANCH   2   3
HETATM    3  C   UNL     1      -9.341  11.614  68.069  1.00  0.00    -0.178 C  
BRANCH   3   4
HETATM    4  C   UNL     1     -10.637  10.874  68.382  1.00  0.00    -0.225 C  
BRANCH   4   5
HETATM    5  C   UNL     1     -10.410   9.815  69.457  1.00  0.00    -0.247 C  
BRANCH   5   6
HETATM    6  C   UNL     1     -11.376  10.007  70.621  1.00  0.00    -0.425 C  
BRANCH   6   7
HETATM    7  C   UNL     1     -12.374  11.117  70.316  1.00  0.00    -0.397 C  
BRANCH   7   8
HETATM    8  C   UNL     1     -12.912  11.729  71.604  1.00  0.00    -0.467 C  
BRANCH   8   9
HETATM    9  C   UNL     1     -13.489  13.114  71.341  1.00  0.00    -0.105 C  
BRANCH   9  10
HETATM   10  C   UNL     1     -13.364  13.994  72.579  1.00  0.00    -0.639 C  
BRANCH  10  11
HETATM   11  C   UNL     1     -12.222  14.992  72.419  1.00  0.00    -0.437 C  
BRANCH  11  12
HETATM   12  C   UNL     1     -12.392  15.803  71.142  1.00  0.00    -0.480 C  
BRANCH  12  13
HETATM   13  C   UNL     1     -11.049  16.024  70.457  1.00  0.00    -0.370 C  
BRANCH  13  14
HETATM   14  C   UNL     1     -11.212  16.007  68.940  1.00  0.00    -0.353 C  
BRANCH  14  15
HETATM   15  C   UNL     1     -11.409  14.585  68.423  1.00  0.00    -0.311 C  
BRANCH  15  16
HETATM   16  C   UNL     1     -11.384  14.558  66.896  1.00  0.00    -0.355 C  
BRANCH  16  17
HETATM   17  C   UNL     1     -12.536  13.727  66.338  1.00  0.00    -0.404 C  
HETATM   18  C   UNL     1     -12.173  13.084  65.020  1.00  0.00    -0.453 C  
HETATM   19  O   UNL     1     -11.101  13.196  64.447  1.00  0.00    -0.345 OA 
HETATM   20  O   UNL     1     -13.189  12.344  64.517  1.00  0.00    -0.834 OA 
ENDBRANCH  16  17
ENDBRANCH  15  16
ENDBRANCH  14  15
ENDBRANCH  13  14
ENDBRANCH  12  13
ENDBRANCH  11  12
ENDBRANCH  10  11
ENDBRANCH   9  10
ENDBRANCH   8   9
ENDBRANCH   7   8
ENDBRANCH   6   7
ENDBRANCH   5   6
ENDBRANCH   4   5
ENDBRANCH   3   4
ENDBRANCH   2   3
TORSDOF 15
ENDMDL
MODEL      125
REMARK 921   NORMALIZED FREE ENERGY PREDICTED BY IDOCK:   -3.88 KCAL/MOL
REMARK 922        TOTAL FREE ENERGY PREDICTED BY IDOCK:   -9.08 KCAL/MOL
REMARK 923 INTER-LIGAND FREE ENERGY PREDICTED BY IDOCK:   -7.57 KCAL/MOL
REMARK 924 INTRA-LIGAND FREE ENERGY PREDICTED BY IDOCK:   -1.52 KCAL/MOL
REMARK 927      BINDING AFFINITY PREDICTED BY RF-SCORE:    0.00 PKD
ROOT
HETATM    1  C   UNL     1     -10.813   5.771  69.801  1.00  0.00    -0.419 C  
HETATM    2  C   UNL     1     -11.835   6.680  70.461  1.00  0.00    -0.430 C  
ENDROOT
BRANCH   2   3
HETATM    3  C   UNL     1     -11.362   7.129  71.842  1.00  0.00    -0.294 C  
BRANCH   3   4
HETATM    4  C   UNL     1     -12.044   8.427  72.261  1.00  0.00    -0.456 C  
BRANCH   4   5
HETATM    5  C   UNL     1     -12.125   9.399  71.087  1.00  0.00    -0.406 C  
BRANCH   5   6
HETATM    6  C   UNL     1     -12.844  10.681  71.493  1.00  0.00    -0.567 C  
BRANCH   6   7
HETATM    7  C   UNL     1     -12.391  11.849  70.626  1.00  0.00    -0.405 C  
BRANCH   7   8
HETATM    8  C   UNL     1     -12.019  11.373  69.227  1.00  0.00    -0.400 C  
BRANCH   8   9
HETATM    9  C   UNL     1     -11.204  12.432  68.498  1.00  0.00    -0.321 C  
BRANCH   9  10
HETATM   10  C   UNL     1     -12.101  13.567  68.019  1.00  0.00    -0.298 C  
BRANCH  10  11
HETATM   11  C   UNL     1     -11.700  14.017  66.617  1.00  0.00    -0.420 C  
BRANCH  11  12
HETATM   12  C   UNL     1     -12.659  13.455  65.578  1.00  0.00    -0.520 C  
BRANCH  12  13
HETATM   13  C   UNL     1     -12.033  13.484  64.189  1.00  0.00    -0.498 C  
BRANCH  13  14
HETATM   14  C   UNL     1     -10.646  12.851  64.213  1.00  0.00    -0.430 C  
BRANCH  14  15
HETATM   15  C   UNL     1     -10.622  11.545  63.425  1.00  0.00    -0.460 C  
BRANCH  15  16
HETATM   16  C   UNL     1      -9.841  10.472  64.181  1.00  0.00    -0.401 C  
BRANCH  16  17
HETATM   17  C   UNL     1     -10.438  10.223  65.562  1.00  0.00    -0.139 C  
HETATM   18  C   UNL     1      -9.859   8.984  66.205  1.00  0.00    -0.291 C  
HETATM   19  O   UNL     1      -9.019   8.253  65.708  1.00  0.00    -0.173 OA 
HETATM   20  O   UNL     1     -10.384   8.754  67.432  1.00  0.00    -0.240 OA 
ENDBRANCH  16  17
ENDBRANCH  15  16
ENDBRANCH  14  15
ENDBRANCH  13  14
ENDBRANCH  12  13
ENDBRANCH  11  12
ENDBRANCH  10  11
ENDBRANCH   9  10
ENDBRANCH   8   9
ENDBRANCH   7   8
ENDBRANCH   6   7
ENDBRANCH   5   6
ENDBRANCH   4   5
ENDBRANCH   3   4
ENDBRANCH   2   3
TORSDOF 15
ENDMDL
MODEL      126
REMARK 921   NORMALIZED FREE ENERGY PREDICTED BY IDOCK:   -3.87 KCAL/MOL
REMARK 922        TOTAL FREE ENERGY PREDICTED BY IDOCK:   -9.07 KCAL/MOL
REMARK 923 INTER-LIGAND FREE ENERGY PREDICTED BY IDOCK:   -6.68 KCAL/MOL
REMARK 924 INTRA-LIGAND FREE ENERGY PREDICTED BY IDOCK:   -2.39 KCAL/MOL
REMARK 927      BINDING AFFINITY PREDICTED BY RF-SCORE:    0.00 PKD
ROOT
HETATM    1  C   UNL     1     -10.604   7.362  72.480  1.00  0.00    -0.304 C  
HETATM    2  C   UNL     1     -11.399   6.722  71.357  1.00  0.00    -0.322 C  
ENDROOT
BRANCH   2   3
HETATM    3  C   UNL     1     -10.687   5.485  70.814  1.00  0.00    -0.294 C  
BRANCH   3   4
HETATM    4  C   UNL     1     -10.395   5.629  69.324  1.00  0.00    -0.340 C  
BRANCH   4   5
HETATM    5  C   UNL     1     -11.387   6.584  68.668  1.00  0.00    -0.203 C  
BRANCH   5   6
HETATM    6  C   UNL     1     -10.792   7.205  67.409  1.00  0.00    -0.346 C  
BRANCH   6   7
HETATM    7  C   UNL     1      -9.297   6.928  67.326  1.00  0.00    -0.152 C  
BRANCH   7   8
HETATM    8  C   UNL     1      -8.498   8.215  67.492  1.00  0.00    -0.126 C  
BRANCH   8   9
HETATM    9  C   UNL     1      -7.828   8.260  68.858  1.00  0.00    -0.111 C  
BRANCH   9  10
HETATM   10  C   UNL     1      -8.717   8.971  69.872  1.00  0.00    -0.160 C  
BRANCH  10  11
HETATM   11  C   UNL     1      -9.319  10.236  69.269  1.00  0.00    -0.221 C  
BRANCH  11  12
HETATM   12  C   UNL     1     -10.759  10.416  69.726  1.00  0.00    -0.325 C  
BRANCH  12  13
HETATM   13  C   UNL     1     -11.663  10.765  68.551  1.00  0.00    -0.259 C  
BRANCH  13  14
HETATM   14  C   UNL     1     -10.861  11.429  67.436  1.00  0.00    -0.301 C  
BRANCH  14  15
HETATM   15  C   UNL     1     -11.423  12.807  67.099  1.00  0.00    -0.394 C  
BRANCH  15  16
HETATM   16  C   UNL     1     -11.156  13.156  65.636  1.00  0.00    -0.296 C  
BRANCH  16  17
HETATM   17  C   UNL     1     -10.709  14.606  65.485  1.00  0.00    -0.360 C  
HETATM   18  C   UNL     1     -11.589  15.364  64.517  1.00  0.00    -0.296 C  
HETATM   19  O   UNL     1     -12.544  14.901  63.915  1.00  0.00    -0.831 OA 
HETATM   20  O   UNL     1     -11.200  16.653  64.376  1.00  0.00    -1.033 OA 
ENDBRANCH  16  17
ENDBRANCH  15  16
ENDBRANCH  14  15
ENDBRANCH  13  14
ENDBRANCH  12  13
ENDBRANCH  11  12
ENDBRANCH  10  11
ENDBRANCH   9  10
ENDBRANCH   8   9
ENDBRANCH   7   8
ENDBRANCH   6   7
ENDBRANCH   5   6
ENDBRANCH   4   5
ENDBRANCH   3   4
ENDBRANCH   2   3
TORSDOF 15
ENDMDL
MODEL      127
REMARK 921   NORMALIZED FREE ENERGY PREDICTED BY IDOCK:   -3.87 KCAL/MOL
REMARK 922        TOTAL FREE ENERGY PREDICTED BY IDOCK:   -9.06 KCAL/MOL
REMARK 923 INTER-LIGAND FREE ENERGY PREDICTED BY IDOCK:   -7.44 KCAL/MOL
REMARK 924 INTRA-LIGAND FREE ENERGY PREDICTED BY IDOCK:   -1.62 KCAL/MOL
REMARK 927      BINDING AFFINITY PREDICTED BY RF-SCORE:    0.00 PKD
ROOT
HETATM    1  C   UNL     1      -8.939   9.425  67.571  1.00  0.00    -0.130 C  
HETATM    2  C   UNL     1      -9.761   9.117  66.332  1.00  0.00    -0.330 C  
ENDROOT
BRANCH   2   3
HETATM    3  C   UNL     1     -10.381  10.386  65.754  1.00  0.00    -0.257 C  
BRANCH   3   4
HETATM    4  C   UNL     1      -9.765  10.732  64.402  1.00  0.00    -0.356 C  
BRANCH   4   5
HETATM    5  C   UNL     1     -10.708  11.611  63.587  1.00  0.00    -0.500 C  
BRANCH   5   6
HETATM    6  C   UNL     1     -10.801  13.011  64.186  1.00  0.00    -0.433 C  
BRANCH   6   7
HETATM    7  C   UNL     1     -12.153  13.641  63.875  1.00  0.00    -0.462 C  
BRANCH   7   8
HETATM    8  C   UNL     1     -12.785  14.213  65.138  1.00  0.00    -0.387 C  
BRANCH   8   9
HETATM    9  C   UNL     1     -12.227  13.526  66.378  1.00  0.00    -0.454 C  
BRANCH   9  10
HETATM   10  C   UNL     1     -11.787  14.555  67.413  1.00  0.00    -0.416 C  
BRANCH  10  11
HETATM   11  C   UNL     1     -11.231  13.867  68.655  1.00  0.00    -0.298 C  
BRANCH  11  12
HETATM   12  C   UNL     1     -11.671  12.411  68.705  1.00  0.00    -0.372 C  
BRANCH  12  13
HETATM   13  C   UNL     1     -11.752  11.917  70.144  1.00  0.00    -0.337 C  
BRANCH  13  14
HETATM   14  C   UNL     1     -12.524  10.604  70.218  1.00  0.00    -0.381 C  
BRANCH  14  15
HETATM   15  C   UNL     1     -12.466  10.008  71.622  1.00  0.00    -0.513 C  
BRANCH  15  16
HETATM   16  C   UNL     1     -11.186   9.198  71.811  1.00  0.00    -0.451 C  
BRANCH  16  17
HETATM   17  C   UNL     1     -10.931   8.278  70.621  1.00  0.00    -0.257 C  
HETATM   18  C   UNL     1     -11.560   6.918  70.821  1.00  0.00    -0.349 C  
HETATM   19  O   UNL     1     -12.197   6.569  71.802  1.00  0.00    -0.344 OA 
HETATM   20  O   UNL     1     -11.340   6.094  69.770  1.00  0.00    -0.411 OA 
ENDBRANCH  16  17
ENDBRANCH  15  16
ENDBRANCH  14  15
ENDBRANCH  13  14
ENDBRANCH  12  13
ENDBRANCH  11  12
ENDBRANCH  10  11
ENDBRANCH   9  10
ENDBRANCH   8   9
ENDBRANCH   7   8
ENDBRANCH   6   7
ENDBRANCH   5   6
ENDBRANCH   4   5
ENDBRANCH   3   4
ENDBRANCH   2   3
TORSDOF 15
ENDMDL
MODEL      128
REMARK 921   NORMALIZED FREE ENERGY PREDICTED BY IDOCK:   -3.86 KCAL/MOL
REMARK 922        TOTAL FREE ENERGY PREDICTED BY IDOCK:   -9.05 KCAL/MOL
REMARK 923 INTER-LIGAND FREE ENERGY PREDICTED BY IDOCK:   -6.75 KCAL/MOL
REMARK 924 INTRA-LIGAND FREE ENERGY PREDICTED BY IDOCK:   -2.30 KCAL/MOL
REMARK 927      BINDING AFFINITY PREDICTED BY RF-SCORE:    0.00 PKD
ROOT
HETATM    1  C   UNL     1     -13.499  12.251  72.028  1.00  0.00    -0.418 C  
HETATM    2  C   UNL     1     -12.642  11.529  71.004  1.00  0.00    -0.457 C  
ENDROOT
BRANCH   2   3
HETATM    3  C   UNL     1     -13.181  10.128  70.725  1.00  0.00    -0.290 C  
BRANCH   3   4
HETATM    4  C   UNL     1     -13.265   9.306  72.007  1.00  0.00    -0.519 C  
BRANCH   4   5
HETATM    5  C   UNL     1     -12.572   7.958  71.831  1.00  0.00    -0.348 C  
BRANCH   5   6
HETATM    6  C   UNL     1     -11.268   7.911  72.620  1.00  0.00    -0.459 C  
BRANCH   6   7
HETATM    7  C   UNL     1     -10.085   7.667  71.692  1.00  0.00    -0.212 C  
BRANCH   7   8
HETATM    8  C   UNL     1      -9.489   8.986  71.216  1.00  0.00    -0.339 C  
BRANCH   8   9
HETATM    9  C   UNL     1      -9.650   9.136  69.709  1.00  0.00    -0.191 C  
BRANCH   9  10
HETATM   10  C   UNL     1      -9.643  10.607  69.310  1.00  0.00    -0.164 C  
BRANCH  10  11
HETATM   11  C   UNL     1      -8.745  10.833  68.097  1.00  0.00    -0.130 C  
BRANCH  11  12
HETATM   12  C   UNL     1      -9.385  11.821  67.133  1.00  0.00    -0.178 C  
BRANCH  12  13
HETATM   13  C   UNL     1     -10.793  11.379  66.755  1.00  0.00    -0.336 C  
BRANCH  13  14
HETATM   14  C   UNL     1     -11.773  12.539  66.887  1.00  0.00    -0.447 C  
BRANCH  14  15
HETATM   15  C   UNL     1     -11.144  13.711  67.634  1.00  0.00    -0.293 C  
BRANCH  15  16
HETATM   16  C   UNL     1     -12.101  14.252  68.694  1.00  0.00    -0.295 C  
BRANCH  16  17
HETATM   17  C   UNL     1     -11.344  14.753  69.920  1.00  0.00    -0.310 C  
HETATM   18  C   UNL     1     -12.254  15.492  70.875  1.00  0.00    -0.400 C  
HETATM   19  O   UNL     1     -13.448  15.681  70.714  1.00  0.00    -0.536 OA 
HETATM   20  O   UNL     1     -11.591  15.941  71.967  1.00  0.00    -0.423 OA 
ENDBRANCH  16  17
ENDBRANCH  15  16
ENDBRANCH  14  15
ENDBRANCH  13  14
ENDBRANCH  12  13
ENDBRANCH  11  12
ENDBRANCH  10  11
ENDBRANCH   9  10
ENDBRANCH   8   9
ENDBRANCH   7   8
ENDBRANCH   6   7
ENDBRANCH   5   6
ENDBRANCH   4   5
ENDBRANCH   3   4
ENDBRANCH   2   3
TORSDOF 15
ENDMDL
MODEL      129
REMARK 921   NORMALIZED FREE ENERGY PREDICTED BY IDOCK:   -3.86 KCAL/MOL
REMARK 922        TOTAL FREE ENERGY PREDICTED BY IDOCK:   -9.05 KCAL/MOL
REMARK 923 INTER-LIGAND FREE ENERGY PREDICTED BY IDOCK:   -7.84 KCAL/MOL
REMARK 924 INTRA-LIGAND FREE ENERGY PREDICTED BY IDOCK:   -1.20 KCAL/MOL
REMARK 927      BINDING AFFINITY PREDICTED BY RF-SCORE:    0.00 PKD
ROOT
HETATM    1  C   UNL     1     -10.867   7.008  67.215  1.00  0.00    -0.403 C  
HETATM    2  C   UNL     1     -10.449   6.263  68.470  1.00  0.00    -0.273 C  
ENDROOT
BRANCH   2   3
HETATM    3  C   UNL     1     -11.519   6.368  69.554  1.00  0.00    -0.412 C  
BRANCH   3   4
HETATM    4  C   UNL     1     -10.914   6.186  70.942  1.00  0.00    -0.359 C  
BRANCH   4   5
HETATM    5  C   UNL     1     -11.918   6.569  72.025  1.00  0.00    -0.372 C  
BRANCH   5   6
HETATM    6  C   UNL     1     -11.752   8.031  72.428  1.00  0.00    -0.444 C  
BRANCH   6   7
HETATM    7  C   UNL     1     -13.071   8.780  72.292  1.00  0.00    -0.458 C  
BRANCH   7   8
HETATM    8  C   UNL     1     -12.853  10.150  71.661  1.00  0.00    -0.559 C  
BRANCH   8   9
HETATM    9  C   UNL     1     -11.705  10.103  70.661  1.00  0.00    -0.425 C  
BRANCH   9  10
HETATM   10  C   UNL     1     -11.707  11.347  69.780  1.00  0.00    -0.418 C  
BRANCH  10  11
HETATM   11  C   UNL     1     -11.531  10.969  68.312  1.00  0.00    -0.374 C  
BRANCH  11  12
HETATM   12  C   UNL     1     -11.687  12.193  67.420  1.00  0.00    -0.374 C  
BRANCH  12  13
HETATM   13  C   UNL     1     -11.176  11.908  66.014  1.00  0.00    -0.377 C  
BRANCH  13  14
HETATM   14  C   UNL     1     -12.104  12.522  64.971  1.00  0.00    -0.504 C  
BRANCH  14  15
HETATM   15  C   UNL     1     -12.176  14.039  65.123  1.00  0.00    -0.446 C  
BRANCH  15  16
HETATM   16  C   UNL     1     -10.815  14.674  64.849  1.00  0.00    -0.436 C  
BRANCH  16  17
HETATM   17  C   UNL     1     -10.775  16.124  65.321  1.00  0.00    -0.386 C  
HETATM   18  C   UNL     1     -10.299  16.233  66.751  1.00  0.00    -0.296 C  
HETATM   19  O   UNL     1      -9.981  15.298  67.466  1.00  0.00    -0.225 OA 
HETATM   20  O   UNL     1     -10.261  17.517  67.179  1.00  0.00    -0.304 OA 
ENDBRANCH  16  17
ENDBRANCH  15  16
ENDBRANCH  14  15
ENDBRANCH  13  14
ENDBRANCH  12  13
ENDBRANCH  11  12
ENDBRANCH  10  11
ENDBRANCH   9  10
ENDBRANCH   8   9
ENDBRANCH   7   8
ENDBRANCH   6   7
ENDBRANCH   5   6
ENDBRANCH   4   5
ENDBRANCH   3   4
ENDBRANCH   2   3
TORSDOF 15
ENDMDL
MODEL      130
REMARK 921   NORMALIZED FREE ENERGY PREDICTED BY IDOCK:   -3.86 KCAL/MOL
REMARK 922        TOTAL FREE ENERGY PREDICTED BY IDOCK:   -9.03 KCAL/MOL
REMARK 923 INTER-LIGAND FREE ENERGY PREDICTED BY IDOCK:   -7.19 KCAL/MOL
REMARK 924 INTRA-LIGAND FREE ENERGY PREDICTED BY IDOCK:   -1.84 KCAL/MOL
REMARK 927      BINDING AFFINITY PREDICTED BY RF-SCORE:    0.00 PKD
ROOT
HETATM    1  C   UNL     1     -11.621  15.347  68.364  1.00  0.00    -0.368 C  
HETATM    2  C   UNL     1     -11.648  14.426  67.157  1.00  0.00    -0.406 C  
ENDROOT
BRANCH   2   3
HETATM    3  C   UNL     1     -10.424  14.643  66.271  1.00  0.00    -0.302 C  
BRANCH   3   4
HETATM    4  C   UNL     1     -10.830  14.874  64.820  1.00  0.00    -0.382 C  
BRANCH   4   5
HETATM    5  C   UNL     1     -12.184  14.234  64.528  1.00  0.00    -0.476 C  
BRANCH   5   6
HETATM    6  C   UNL     1     -12.038  13.080  63.542  1.00  0.00    -0.617 C  
BRANCH   6   7
HETATM    7  C   UNL     1     -11.879  11.758  64.281  1.00  0.00    -0.307 C  
BRANCH   7   8
HETATM    8  C   UNL     1     -10.441  11.258  64.191  1.00  0.00    -0.431 C  
BRANCH   8   9
HETATM    9  C   UNL     1      -9.925  10.857  65.567  1.00  0.00    -0.315 C  
BRANCH   9  10
HETATM   10  C   UNL     1     -11.026  10.984  66.614  1.00  0.00    -0.253 C  
BRANCH  10  11
HETATM   11  C   UNL     1     -10.731  10.094  67.817  1.00  0.00    -0.328 C  
BRANCH  11  12
HETATM   12  C   UNL     1     -10.506   8.654  67.378  1.00  0.00    -0.351 C  
BRANCH  12  13
HETATM   13  C   UNL     1     -10.139   7.775  68.566  1.00  0.00    -0.216 C  
BRANCH  13  14
HETATM   14  C   UNL     1     -11.206   6.711  68.797  1.00  0.00    -0.256 C  
BRANCH  14  15
HETATM   15  C   UNL     1     -10.972   5.970  70.110  1.00  0.00    -0.429 C  
BRANCH  15  16
HETATM   16  C   UNL     1     -11.056   6.930  71.294  1.00  0.00    -0.293 C  
BRANCH  16  17
HETATM   17  C   UNL     1     -12.455   7.522  71.429  1.00  0.00    -0.382 C  
HETATM   18  C   UNL     1     -12.415   9.025  71.578  1.00  0.00    -0.331 C  
HETATM   19  O   UNL     1     -11.405   9.710  71.593  1.00  0.00    -0.374 OA 
HETATM   20  O   UNL     1     -13.653   9.559  71.699  1.00  0.00    -0.380 OA 
ENDBRANCH  16  17
ENDBRANCH  15  16
ENDBRANCH  14  15
ENDBRANCH  13  14
ENDBRANCH  12  13
ENDBRANCH  11  12
ENDBRANCH  10  11
ENDBRANCH   9  10
ENDBRANCH   8   9
ENDBRANCH   7   8
ENDBRANCH   6   7
ENDBRANCH   5   6
ENDBRANCH   4   5
ENDBRANCH   3   4
ENDBRANCH   2   3
TORSDOF 15
ENDMDL
MODEL      131
REMARK 921   NORMALIZED FREE ENERGY PREDICTED BY IDOCK:   -3.85 KCAL/MOL
REMARK 922        TOTAL FREE ENERGY PREDICTED BY IDOCK:   -9.02 KCAL/MOL
REMARK 923 INTER-LIGAND FREE ENERGY PREDICTED BY IDOCK:   -7.47 KCAL/MOL
REMARK 924 INTRA-LIGAND FREE ENERGY PREDICTED BY IDOCK:   -1.55 KCAL/MOL
REMARK 927      BINDING AFFINITY PREDICTED BY RF-SCORE:    0.00 PKD
ROOT
HETATM    1  C   UNL     1      -8.841  10.138  64.021  1.00  0.00    -0.247 C  
HETATM    2  C   UNL     1     -10.148  10.774  64.461  1.00  0.00    -0.415 C  
ENDROOT
BRANCH   2   3
HETATM    3  C   UNL     1     -10.709  11.685  63.373  1.00  0.00    -0.460 C  
BRANCH   3   4
HETATM    4  C   UNL     1     -12.132  12.123  63.703  1.00  0.00    -0.648 C  
BRANCH   4   5
HETATM    5  C   UNL     1     -12.179  13.614  64.024  1.00  0.00    -0.443 C  
BRANCH   5   6
HETATM    6  C   UNL     1     -12.647  13.847  65.457  1.00  0.00    -0.560 C  
BRANCH   6   7
HETATM    7  C   UNL     1     -11.481  14.266  66.343  1.00  0.00    -0.361 C  
BRANCH   7   8
HETATM    8  C   UNL     1     -11.880  14.229  67.814  1.00  0.00    -0.414 C  
BRANCH   8   9
HETATM    9  C   UNL     1     -10.927  13.344  68.606  1.00  0.00    -0.288 C  
BRANCH   9  10
HETATM   10  C   UNL     1     -11.633  12.079  69.078  1.00  0.00    -0.370 C  
BRANCH  10  11
HETATM   11  C   UNL     1     -11.520  10.975  68.032  1.00  0.00    -0.365 C  
BRANCH  11  12
HETATM   12  C   UNL     1     -10.553   9.894  68.495  1.00  0.00    -0.248 C  
BRANCH  12  13
HETATM   13  C   UNL     1     -10.521   8.735  67.507  1.00  0.00    -0.340 C  
BRANCH  13  14
HETATM   14  C   UNL     1      -9.920   7.492  68.156  1.00  0.00    -0.198 C  
BRANCH  14  15
HETATM   15  C   UNL     1     -10.988   6.433  68.412  1.00  0.00    -0.390 C  
BRANCH  15  16
HETATM   16  C   UNL     1     -10.883   5.896  69.838  1.00  0.00    -0.439 C  
BRANCH  16  17
HETATM   17  C   UNL     1     -10.546   7.009  70.826  1.00  0.00    -0.240 C  
HETATM   18  C   UNL     1     -11.788   7.576  71.473  1.00  0.00    -0.295 C  
HETATM   19  O   UNL     1     -12.932   7.212  71.254  1.00  0.00    -0.383 OA 
HETATM   20  O   UNL     1     -11.498   8.565  72.352  1.00  0.00    -0.369 OA 
ENDBRANCH  16  17
ENDBRANCH  15  16
ENDBRANCH  14  15
ENDBRANCH  13  14
ENDBRANCH  12  13
ENDBRANCH  11  12
ENDBRANCH  10  11
ENDBRANCH   9  10
ENDBRANCH   8   9
ENDBRANCH   7   8
ENDBRANCH   6   7
ENDBRANCH   5   6
ENDBRANCH   4   5
ENDBRANCH   3   4
ENDBRANCH   2   3
TORSDOF 15
ENDMDL
MODEL      132
REMARK 921   NORMALIZED FREE ENERGY PREDICTED BY IDOCK:   -3.85 KCAL/MOL
REMARK 922        TOTAL FREE ENERGY PREDICTED BY IDOCK:   -9.02 KCAL/MOL
REMARK 923 INTER-LIGAND FREE ENERGY PREDICTED BY IDOCK:   -7.35 KCAL/MOL
REMARK 924 INTRA-LIGAND FREE ENERGY PREDICTED BY IDOCK:   -1.67 KCAL/MOL
REMARK 927      BINDING AFFINITY PREDICTED BY RF-SCORE:    0.00 PKD
ROOT
HETATM    1  C   UNL     1     -14.304   8.207  71.632  1.00  0.00    -0.570 C  
HETATM    2  C   UNL     1     -13.263   9.216  72.082  1.00  0.00    -0.524 C  
ENDROOT
BRANCH   2   3
HETATM    3  C   UNL     1     -11.914   8.544  72.325  1.00  0.00    -0.454 C  
BRANCH   3   4
HETATM    4  C   UNL     1     -10.825   9.169  71.459  1.00  0.00    -0.436 C  
BRANCH   4   5
HETATM    5  C   UNL     1     -10.143   8.109  70.599  1.00  0.00    -0.209 C  
BRANCH   5   6
HETATM    6  C   UNL     1     -10.046   8.568  69.148  1.00  0.00    -0.207 C  
BRANCH   6   7
HETATM    7  C   UNL     1     -10.743   9.909  68.958  1.00  0.00    -0.244 C  
BRANCH   7   8
HETATM    8  C   UNL     1      -9.983  10.777  67.963  1.00  0.00    -0.183 C  
BRANCH   8   9
HETATM    9  C   UNL     1     -10.674  10.770  66.606  1.00  0.00    -0.268 C  
BRANCH   9  10
HETATM   10  C   UNL     1      -9.656  10.924  65.482  1.00  0.00    -0.266 C  
BRANCH  10  11
HETATM   11  C   UNL     1     -10.352  10.964  64.125  1.00  0.00    -0.432 C  
BRANCH  11  12
HETATM   12  C   UNL     1     -10.431  12.393  63.605  1.00  0.00    -0.460 C  
BRANCH  12  13
HETATM   13  C   UNL     1     -11.814  12.983  63.846  1.00  0.00    -0.542 C  
BRANCH  13  14
HETATM   14  C   UNL     1     -11.716  14.263  64.669  1.00  0.00    -0.439 C  
BRANCH  14  15
HETATM   15  C   UNL     1     -12.221  14.044  66.092  1.00  0.00    -0.494 C  
BRANCH  15  16
HETATM   16  C   UNL     1     -11.139  14.401  67.109  1.00  0.00    -0.318 C  
BRANCH  16  17
HETATM   17  C   UNL     1     -11.697  15.274  68.229  1.00  0.00    -0.320 C  
HETATM   18  C   UNL     1     -11.993  14.466  69.471  1.00  0.00    -0.330 C  
HETATM   19  O   UNL     1     -11.819  13.265  69.595  1.00  0.00    -0.300 OA 
HETATM   20  O   UNL     1     -12.490  15.233  70.471  1.00  0.00    -0.354 OA 
ENDBRANCH  16  17
ENDBRANCH  15  16
ENDBRANCH  14  15
ENDBRANCH  13  14
ENDBRANCH  12  13
ENDBRANCH  11  12
ENDBRANCH  10  11
ENDBRANCH   9  10
ENDBRANCH   8   9
ENDBRANCH   7   8
ENDBRANCH   6   7
ENDBRANCH   5   6
ENDBRANCH   4   5
ENDBRANCH   3   4
ENDBRANCH   2   3
TORSDOF 15
ENDMDL
MODEL      133
REMARK 921   NORMALIZED FREE ENERGY PREDICTED BY IDOCK:   -3.84 KCAL/MOL
REMARK 922        TOTAL FREE ENERGY PREDICTED BY IDOCK:   -9.01 KCAL/MOL
REMARK 923 INTER-LIGAND FREE ENERGY PREDICTED BY IDOCK:   -7.21 KCAL/MOL
REMARK 924 INTRA-LIGAND FREE ENERGY PREDICTED BY IDOCK:   -1.81 KCAL/MOL
REMARK 927      BINDING AFFINITY PREDICTED BY RF-SCORE:    0.00 PKD
ROOT
HETATM    1  C   UNL     1     -11.325   9.245  71.245  1.00  0.00    -0.423 C  
HETATM    2  C   UNL     1     -12.308   8.236  71.812  1.00  0.00    -0.366 C  
ENDROOT
BRANCH   2   3
HETATM    3  C   UNL     1     -12.242   6.915  71.050  1.00  0.00    -0.427 C  
BRANCH   3   4
HETATM    4  C   UNL     1     -10.883   6.734  70.382  1.00  0.00    -0.306 C  
BRANCH   4   5
HETATM    5  C   UNL     1     -11.048   6.288  68.932  1.00  0.00    -0.434 C  
BRANCH   5   6
HETATM    6  C   UNL     1     -10.040   6.992  68.030  1.00  0.00    -0.199 C  
BRANCH   6   7
HETATM    7  C   UNL     1     -10.457   8.436  67.781  1.00  0.00    -0.284 C  
BRANCH   7   8
HETATM    8  C   UNL     1      -9.291   9.386  68.028  1.00  0.00    -0.140 C  
BRANCH   8   9
HETATM    9  C   UNL     1      -9.775  10.828  68.085  1.00  0.00    -0.169 C  
BRANCH   9  10
HETATM   10  C   UNL     1     -11.211  10.935  67.584  1.00  0.00    -0.379 C  
BRANCH  10  11
HETATM   11  C   UNL     1     -11.345  12.065  66.568  1.00  0.00    -0.413 C  
BRANCH  11  12
HETATM   12  C   UNL     1     -10.359  13.183  66.875  1.00  0.00    -0.247 C  
BRANCH  12  13
HETATM   13  C   UNL     1     -11.088  14.502  67.102  1.00  0.00    -0.325 C  
BRANCH  13  14
HETATM   14  C   UNL     1     -11.981  14.416  68.335  1.00  0.00    -0.328 C  
BRANCH  14  15
HETATM   15  C   UNL     1     -11.476  15.331  69.447  1.00  0.00    -0.329 C  
BRANCH  15  16
HETATM   16  C   UNL     1     -12.210  15.046  70.755  1.00  0.00    -0.386 C  
BRANCH  16  17
HETATM   17  C   UNL     1     -12.434  13.550  70.950  1.00  0.00    -0.448 C  
HETATM   18  C   UNL     1     -13.330  13.269  72.135  1.00  0.00    -0.523 C  
HETATM   19  O   UNL     1     -13.826  14.111  72.865  1.00  0.00    -0.639 OA 
HETATM   20  O   UNL     1     -13.534  11.943  72.316  1.00  0.00    -0.442 OA 
ENDBRANCH  16  17
ENDBRANCH  15  16
ENDBRANCH  14  15
ENDBRANCH  13  14
ENDBRANCH  12  13
ENDBRANCH  11  12
ENDBRANCH  10  11
ENDBRANCH   9  10
ENDBRANCH   8   9
ENDBRANCH   7   8
ENDBRANCH   6   7
ENDBRANCH   5   6
ENDBRANCH   4   5
ENDBRANCH   3   4
ENDBRANCH   2   3
TORSDOF 15
ENDMDL
MODEL      134
REMARK 921   NORMALIZED FREE ENERGY PREDICTED BY IDOCK:   -3.84 KCAL/MOL
REMARK 922        TOTAL FREE ENERGY PREDICTED BY IDOCK:   -9.01 KCAL/MOL
REMARK 923 INTER-LIGAND FREE ENERGY PREDICTED BY IDOCK:   -7.04 KCAL/MOL
REMARK 924 INTRA-LIGAND FREE ENERGY PREDICTED BY IDOCK:   -1.97 KCAL/MOL
REMARK 927      BINDING AFFINITY PREDICTED BY RF-SCORE:    0.00 PKD
ROOT
HETATM    1  C   UNL     1     -12.467  14.139  65.573  1.00  0.00    -0.495 C  
HETATM    2  C   UNL     1     -12.336  12.735  65.012  1.00  0.00    -0.559 C  
ENDROOT
BRANCH   2   3
HETATM    3  C   UNL     1     -11.467  12.722  63.757  1.00  0.00    -0.533 C  
BRANCH   3   4
HETATM    4  C   UNL     1     -10.633  11.448  63.679  1.00  0.00    -0.476 C  
BRANCH   4   5
HETATM    5  C   UNL     1      -9.828  11.249  64.960  1.00  0.00    -0.307 C  
BRANCH   5   6
HETATM    6  C   UNL     1      -9.947   9.813  65.460  1.00  0.00    -0.329 C  
BRANCH   6   7
HETATM    7  C   UNL     1     -10.540   9.779  66.863  1.00  0.00    -0.243 C  
BRANCH   7   8
HETATM    8  C   UNL     1     -10.157  11.032  67.642  1.00  0.00    -0.208 C  
BRANCH   8   9
HETATM    9  C   UNL     1      -9.229  10.683  68.798  1.00  0.00    -0.182 C  
BRANCH   9  10
HETATM   10  C   UNL     1      -8.003  11.588  68.798  1.00  0.00    -0.107 C  
BRANCH  10  11
HETATM   11  C   UNL     1      -8.029  12.532  67.601  1.00  0.00    -0.170 C  
BRANCH  11  12
HETATM   12  C   UNL     1      -8.124  13.980  68.061  1.00  0.00    -0.152 C  
BRANCH  12  13
HETATM   13  C   UNL     1      -9.548  14.503  67.920  1.00  0.00    -0.217 C  
BRANCH  13  14
HETATM   14  C   UNL     1     -10.142  14.820  69.288  1.00  0.00    -0.165 C  
BRANCH  14  15
HETATM   15  C   UNL     1     -11.663  14.705  69.269  1.00  0.00    -0.348 C  
BRANCH  15  16
HETATM   16  C   UNL     1     -12.180  14.158  70.598  1.00  0.00    -0.432 C  
BRANCH  16  17
HETATM   17  C   UNL     1     -11.905  15.130  71.742  1.00  0.00    -0.471 C  
HETATM   18  C   UNL     1     -12.843  14.904  72.905  1.00  0.00    -0.452 C  
HETATM   19  O   UNL     1     -13.721  14.058  72.954  1.00  0.00    -0.677 OA 
HETATM   20  O   UNL     1     -12.607  15.763  73.925  1.00  0.00    -0.517 OA 
ENDBRANCH  16  17
ENDBRANCH  15  16
ENDBRANCH  14  15
ENDBRANCH  13  14
ENDBRANCH  12  13
ENDBRANCH  11  12
ENDBRANCH  10  11
ENDBRANCH   9  10
ENDBRANCH   8   9
ENDBRANCH   7   8
ENDBRANCH   6   7
ENDBRANCH   5   6
ENDBRANCH   4   5
ENDBRANCH   3   4
ENDBRANCH   2   3
TORSDOF 15
ENDMDL
MODEL      135
REMARK 921   NORMALIZED FREE ENERGY PREDICTED BY IDOCK:   -3.84 KCAL/MOL
REMARK 922        TOTAL FREE ENERGY PREDICTED BY IDOCK:   -9.00 KCAL/MOL
REMARK 923 INTER-LIGAND FREE ENERGY PREDICTED BY IDOCK:   -7.21 KCAL/MOL
REMARK 924 INTRA-LIGAND FREE ENERGY PREDICTED BY IDOCK:   -1.79 KCAL/MOL
REMARK 927      BINDING AFFINITY PREDICTED BY RF-SCORE:    0.00 PKD
ROOT
HETATM    1  C   UNL     1     -11.585  14.363  64.819  1.00  0.00    -0.410 C  
HETATM    2  C   UNL     1     -12.619  13.252  64.775  1.00  0.00    -0.398 C  
ENDROOT
BRANCH   2   3
HETATM    3  C   UNL     1     -12.245  12.192  63.741  1.00  0.00    -0.630 C  
BRANCH   3   4
HETATM    4  C   UNL     1     -10.733  12.111  63.560  1.00  0.00    -0.509 C  
BRANCH   4   5
HETATM    5  C   UNL     1     -10.215  10.730  63.950  1.00  0.00    -0.377 C  
BRANCH   5   6
HETATM    6  C   UNL     1      -9.697  10.729  65.384  1.00  0.00    -0.297 C  
BRANCH   6   7
HETATM    7  C   UNL     1      -9.998   9.399  66.064  1.00  0.00    -0.352 C  
BRANCH   7   8
HETATM    8  C   UNL     1      -9.472   9.392  67.495  1.00  0.00    -0.154 C  
BRANCH   8   9
HETATM    9  C   UNL     1      -9.231   7.966  67.972  1.00  0.00    -0.134 C  
BRANCH   9  10
HETATM   10  C   UNL     1     -10.430   7.081  67.653  1.00  0.00    -0.301 C  
BRANCH  10  11
HETATM   11  C   UNL     1     -10.872   6.306  68.890  1.00  0.00    -0.396 C  
BRANCH  11  12
HETATM   12  C   UNL     1     -10.435   7.024  70.159  1.00  0.00    -0.232 C  
BRANCH  12  13
HETATM   13  C   UNL     1     -11.614   7.226  71.102  1.00  0.00    -0.323 C  
BRANCH  13  14
HETATM   14  C   UNL     1     -11.521   8.582  71.794  1.00  0.00    -0.378 C  
BRANCH  14  15
HETATM   15  C   UNL     1     -10.982   9.650  70.846  1.00  0.00    -0.412 C  
BRANCH  15  16
HETATM   16  C   UNL     1     -12.123  10.324  70.089  1.00  0.00    -0.279 C  
BRANCH  16  17
HETATM   17  C   UNL     1     -11.992  11.844  70.127  1.00  0.00    -0.413 C  
HETATM   18  C   UNL     1     -11.901  12.432  68.738  1.00  0.00    -0.311 C  
HETATM   19  O   UNL     1     -11.926  11.798  67.696  1.00  0.00    -0.599 OA 
HETATM   20  O   UNL     1     -11.784  13.781  68.762  1.00  0.00    -0.309 OA 
ENDBRANCH  16  17
ENDBRANCH  15  16
ENDBRANCH  14  15
ENDBRANCH  13  14
ENDBRANCH  12  13
ENDBRANCH  11  12
ENDBRANCH  10  11
ENDBRANCH   9  10
ENDBRANCH   8   9
ENDBRANCH   7   8
ENDBRANCH   6   7
ENDBRANCH   5   6
ENDBRANCH   4   5
ENDBRANCH   3   4
ENDBRANCH   2   3
TORSDOF 15
ENDMDL
MODEL      136
REMARK 921   NORMALIZED FREE ENERGY PREDICTED BY IDOCK:   -3.83 KCAL/MOL
REMARK 922        TOTAL FREE ENERGY PREDICTED BY IDOCK:   -8.99 KCAL/MOL
REMARK 923 INTER-LIGAND FREE ENERGY PREDICTED BY IDOCK:   -6.59 KCAL/MOL
REMARK 924 INTRA-LIGAND FREE ENERGY PREDICTED BY IDOCK:   -2.40 KCAL/MOL
REMARK 927      BINDING AFFINITY PREDICTED BY RF-SCORE:    0.00 PKD
ROOT
HETATM    1  C   UNL     1     -10.110  19.233  68.616  1.00  0.00    -0.499 C  
HETATM    2  C   UNL     1     -10.707  19.412  67.232  1.00  0.00    -0.603 C  
ENDROOT
BRANCH   2   3
HETATM    3  C   UNL     1      -9.657  19.901  66.238  1.00  0.00    -0.526 C  
BRANCH   3   4
HETATM    4  C   UNL     1      -8.374  20.313  66.952  1.00  0.00    -0.348 C  
BRANCH   4   5
HETATM    5  C   UNL     1      -7.176  20.216  66.012  1.00  0.00    -0.312 C  
BRANCH   5   6
HETATM    6  C   UNL     1      -6.825  18.759  65.729  1.00  0.00    -0.305 C  
BRANCH   6   7
HETATM    7  C   UNL     1      -6.445  18.037  67.014  1.00  0.00    -0.198 C  
BRANCH   7   8
HETATM    8  C   UNL     1      -6.886  16.578  66.965  1.00  0.00    -0.248 C  
BRANCH   8   9
HETATM    9  C   UNL     1      -8.282  16.419  67.553  1.00  0.00    -0.167 C  
BRANCH   9  10
HETATM   10  C   UNL     1      -9.279  16.017  66.473  1.00  0.00    -0.307 C  
BRANCH  10  11
HETATM   11  C   UNL     1     -10.688  15.922  67.048  1.00  0.00    -0.292 C  
BRANCH  11  12
HETATM   12  C   UNL     1     -10.644  15.514  68.514  1.00  0.00    -0.246 C  
BRANCH  12  13
HETATM   13  C   UNL     1     -11.695  14.453  68.814  1.00  0.00    -0.372 C  
BRANCH  13  14
HETATM   14  C   UNL     1     -11.057  13.070  68.884  1.00  0.00    -0.307 C  
BRANCH  14  15
HETATM   15  C   UNL     1     -11.826  12.064  68.032  1.00  0.00    -0.338 C  
BRANCH  15  16
HETATM   16  C   UNL     1     -10.922  11.466  66.957  1.00  0.00    -0.347 C  
BRANCH  16  17
HETATM   17  C   UNL     1     -10.300  12.553  66.087  1.00  0.00    -0.274 C  
HETATM   18  C   UNL     1     -11.060  12.739  64.795  1.00  0.00    -0.302 C  
HETATM   19  O   UNL     1     -12.052  12.112  64.458  1.00  0.00    -0.376 OA 
HETATM   20  O   UNL     1     -10.515  13.702  64.016  1.00  0.00    -0.230 OA 
ENDBRANCH  16  17
ENDBRANCH  15  16
ENDBRANCH  14  15
ENDBRANCH  13  14
ENDBRANCH  12  13
ENDBRANCH  11  12
ENDBRANCH  10  11
ENDBRANCH   9  10
ENDBRANCH   8   9
ENDBRANCH   7   8
ENDBRANCH   6   7
ENDBRANCH   5   6
ENDBRANCH   4   5
ENDBRANCH   3   4
ENDBRANCH   2   3
TORSDOF 15
ENDMDL
MODEL      137
REMARK 921   NORMALIZED FREE ENERGY PREDICTED BY IDOCK:   -3.82 KCAL/MOL
REMARK 922        TOTAL FREE ENERGY PREDICTED BY IDOCK:   -8.97 KCAL/MOL
REMARK 923 INTER-LIGAND FREE ENERGY PREDICTED BY IDOCK:   -6.92 KCAL/MOL
REMARK 924 INTRA-LIGAND FREE ENERGY PREDICTED BY IDOCK:   -2.05 KCAL/MOL
REMARK 927      BINDING AFFINITY PREDICTED BY RF-SCORE:    0.00 PKD
ROOT
HETATM    1  C   UNL     1     -11.224   5.232  73.079  1.00  0.00    -0.387 C  
HETATM    2  C   UNL     1     -11.267   6.664  72.576  1.00  0.00    -0.302 C  
ENDROOT
BRANCH   2   3
HETATM    3  C   UNL     1     -12.346   6.841  71.511  1.00  0.00    -0.407 C  
BRANCH   3   4
HETATM    4  C   UNL     1     -12.925   8.252  71.544  1.00  0.00    -0.310 C  
BRANCH   4   5
HETATM    5  C   UNL     1     -11.819   9.287  71.725  1.00  0.00    -0.454 C  
BRANCH   5   6
HETATM    6  C   UNL     1     -11.341   9.812  70.375  1.00  0.00    -0.362 C  
BRANCH   6   7
HETATM    7  C   UNL     1      -9.858   9.525  70.180  1.00  0.00    -0.288 C  
BRANCH   7   8
HETATM    8  C   UNL     1      -9.654   8.183  69.487  1.00  0.00    -0.168 C  
BRANCH   8   9
HETATM    9  C   UNL     1     -10.586   8.049  68.291  1.00  0.00    -0.155 C  
BRANCH   9  10
HETATM   10  C   UNL     1      -9.788   7.917  66.998  1.00  0.00    -0.293 C  
BRANCH  10  11
HETATM   11  C   UNL     1      -9.928   9.175  66.148  1.00  0.00    -0.338 C  
BRANCH  11  12
HETATM   12  C   UNL     1      -8.930  10.236  66.591  1.00  0.00    -0.156 C  
BRANCH  12  13
HETATM   13  C   UNL     1      -9.509  11.634  66.413  1.00  0.00    -0.232 C  
BRANCH  13  14
HETATM   14  C   UNL     1      -9.833  12.257  67.767  1.00  0.00    -0.201 C  
BRANCH  14  15
HETATM   15  C   UNL     1     -11.308  12.637  67.860  1.00  0.00    -0.337 C  
BRANCH  15  16
HETATM   16  C   UNL     1     -11.568  13.967  67.156  1.00  0.00    -0.391 C  
BRANCH  16  17
HETATM   17  C   UNL     1     -12.460  13.781  65.932  1.00  0.00    -0.512 C  
HETATM   18  C   UNL     1     -11.954  14.571  64.748  1.00  0.00    -0.442 C  
HETATM   19  O   UNL     1     -10.960  15.279  64.738  1.00  0.00    -0.410 OA 
HETATM   20  O   UNL     1     -12.740  14.413  63.656  1.00  0.00    -0.773 OA 
ENDBRANCH  16  17
ENDBRANCH  15  16
ENDBRANCH  14  15
ENDBRANCH  13  14
ENDBRANCH  12  13
ENDBRANCH  11  12
ENDBRANCH  10  11
ENDBRANCH   9  10
ENDBRANCH   8   9
ENDBRANCH   7   8
ENDBRANCH   6   7
ENDBRANCH   5   6
ENDBRANCH   4   5
ENDBRANCH   3   4
ENDBRANCH   2   3
TORSDOF 15
ENDMDL
MODEL      138
REMARK 921   NORMALIZED FREE ENERGY PREDICTED BY IDOCK:   -3.82 KCAL/MOL
REMARK 922        TOTAL FREE ENERGY PREDICTED BY IDOCK:   -8.97 KCAL/MOL
REMARK 923 INTER-LIGAND FREE ENERGY PREDICTED BY IDOCK:   -7.88 KCAL/MOL
REMARK 924 INTRA-LIGAND FREE ENERGY PREDICTED BY IDOCK:   -1.08 KCAL/MOL
REMARK 927      BINDING AFFINITY PREDICTED BY RF-SCORE:    0.00 PKD
ROOT
HETATM    1  C   UNL     1     -11.021   6.488  67.394  1.00  0.00    -0.458 C  
HETATM    2  C   UNL     1     -10.699   5.932  68.769  1.00  0.00    -0.354 C  
ENDROOT
BRANCH   2   3
HETATM    3  C   UNL     1     -11.624   6.521  69.831  1.00  0.00    -0.433 C  
BRANCH   3   4
HETATM    4  C   UNL     1     -11.021   6.377  71.225  1.00  0.00    -0.321 C  
BRANCH   4   5
HETATM    5  C   UNL     1     -11.768   7.248  72.230  1.00  0.00    -0.304 C  
BRANCH   5   6
HETATM    6  C   UNL     1     -11.454   8.724  72.009  1.00  0.00    -0.441 C  
BRANCH   6   7
HETATM    7  C   UNL     1     -12.730   9.555  72.031  1.00  0.00    -0.479 C  
BRANCH   7   8
HETATM    8  C   UNL     1     -12.889  10.336  70.731  1.00  0.00    -0.427 C  
BRANCH   8   9
HETATM    9  C   UNL     1     -12.059  11.613  70.767  1.00  0.00    -0.383 C  
BRANCH   9  10
HETATM   10  C   UNL     1     -11.836  12.151  69.359  1.00  0.00    -0.370 C  
BRANCH  10  11
HETATM   11  C   UNL     1     -11.822  13.676  69.360  1.00  0.00    -0.392 C  
BRANCH  11  12
HETATM   12  C   UNL     1     -12.016  14.216  67.950  1.00  0.00    -0.378 C  
BRANCH  12  13
HETATM   13  C   UNL     1     -11.576  13.192  66.911  1.00  0.00    -0.417 C  
BRANCH  13  14
HETATM   14  C   UNL     1     -12.477  13.251  65.682  1.00  0.00    -0.510 C  
BRANCH  14  15
HETATM   15  C   UNL     1     -11.663  13.479  64.412  1.00  0.00    -0.443 C  
BRANCH  15  16
HETATM   16  C   UNL     1     -11.611  12.207  63.569  1.00  0.00    -0.562 C  
BRANCH  16  17
HETATM   17  C   UNL     1     -10.172  11.783  63.293  1.00  0.00    -0.452 C  
HETATM   18  C   UNL     1      -9.698  10.741  64.278  1.00  0.00    -0.302 C  
HETATM   19  O   UNL     1     -10.358  10.276  65.193  1.00  0.00    -0.286 OA 
HETATM   20  O   UNL     1      -8.421  10.358  64.041  1.00  0.00    -0.170 OA 
ENDBRANCH  16  17
ENDBRANCH  15  16
ENDBRANCH  14  15
ENDBRANCH  13  14
ENDBRANCH  12  13
ENDBRANCH  11  12
ENDBRANCH  10  11
ENDBRANCH   9  10
ENDBRANCH   8   9
ENDBRANCH   7   8
ENDBRANCH   6   7
ENDBRANCH   5   6
ENDBRANCH   4   5
ENDBRANCH   3   4
ENDBRANCH   2   3
TORSDOF 15
ENDMDL
MODEL      139
REMARK 921   NORMALIZED FREE ENERGY PREDICTED BY IDOCK:   -3.81 KCAL/MOL
REMARK 922        TOTAL FREE ENERGY PREDICTED BY IDOCK:   -8.95 KCAL/MOL
REMARK 923 INTER-LIGAND FREE ENERGY PREDICTED BY IDOCK:   -7.91 KCAL/MOL
REMARK 924 INTRA-LIGAND FREE ENERGY PREDICTED BY IDOCK:   -1.04 KCAL/MOL
REMARK 927      BINDING AFFINITY PREDICTED BY RF-SCORE:    0.00 PKD
ROOT
HETATM    1  C   UNL     1     -10.649  19.414  67.224  1.00  0.00    -0.599 C  
HETATM    2  C   UNL     1     -10.171  18.497  68.335  1.00  0.00    -0.409 C  
ENDROOT
BRANCH   2   3
HETATM    3  C   UNL     1     -10.776  17.102  68.196  1.00  0.00    -0.366 C  
BRANCH   3   4
HETATM    4  C   UNL     1     -10.687  16.331  69.508  1.00  0.00    -0.323 C  
BRANCH   4   5
HETATM    5  C   UNL     1     -11.994  15.599  69.796  1.00  0.00    -0.371 C  
BRANCH   5   6
HETATM    6  C   UNL     1     -12.134  15.302  71.285  1.00  0.00    -0.407 C  
BRANCH   6   7
HETATM    7  C   UNL     1     -13.602  15.179  71.674  1.00  0.00    -0.560 C  
BRANCH   7   8
HETATM    8  C   UNL     1     -13.917  13.767  72.153  1.00  0.00    -0.638 C  
BRANCH   8   9
HETATM    9  C   UNL     1     -12.971  12.759  71.514  1.00  0.00    -0.388 C  
BRANCH   9  10
HETATM   10  C   UNL     1     -13.217  11.361  72.069  1.00  0.00    -0.432 C  
BRANCH  10  11
HETATM   11  C   UNL     1     -13.121  10.316  70.962  1.00  0.00    -0.458 C  
BRANCH  11  12
HETATM   12  C   UNL     1     -12.955   8.922  71.552  1.00  0.00    -0.379 C  
BRANCH  12  13
HETATM   13  C   UNL     1     -11.576   8.759  72.178  1.00  0.00    -0.434 C  
BRANCH  13  14
HETATM   14  C   UNL     1     -10.515   9.447  71.325  1.00  0.00    -0.385 C  
BRANCH  14  15
HETATM   15  C   UNL     1     -10.290   8.698  70.014  1.00  0.00    -0.213 C  
BRANCH  15  16
HETATM   16  C   UNL     1      -9.808   9.652  68.924  1.00  0.00    -0.179 C  
BRANCH  16  17
HETATM   17  C   UNL     1     -10.957  10.080  68.015  1.00  0.00    -0.296 C  
HETATM   18  C   UNL     1     -11.123  11.582  67.996  1.00  0.00    -0.254 C  
HETATM   19  O   UNL     1     -10.441  12.380  68.618  1.00  0.00    -0.228 OA 
HETATM   20  O   UNL     1     -12.140  11.972  67.192  1.00  0.00    -0.587 OA 
ENDBRANCH  16  17
ENDBRANCH  15  16
ENDBRANCH  14  15
ENDBRANCH  13  14
ENDBRANCH  12  13
ENDBRANCH  11  12
ENDBRANCH  10  11
ENDBRANCH   9  10
ENDBRANCH   8   9
ENDBRANCH   7   8
ENDBRANCH   6   7
ENDBRANCH   5   6
ENDBRANCH   4   5
ENDBRANCH   3   4
ENDBRANCH   2   3
TORSDOF 15
ENDMDL
MODEL      140
REMARK 921   NORMALIZED FREE ENERGY PREDICTED BY IDOCK:   -3.80 KCAL/MOL
REMARK 922        TOTAL FREE ENERGY PREDICTED BY IDOCK:   -8.93 KCAL/MOL
REMARK 923 INTER-LIGAND FREE ENERGY PREDICTED BY IDOCK:   -7.02 KCAL/MOL
REMARK 924 INTRA-LIGAND FREE ENERGY PREDICTED BY IDOCK:   -1.91 KCAL/MOL
REMARK 927      BINDING AFFINITY PREDICTED BY RF-SCORE:    0.00 PKD
ROOT
HETATM    1  C   UNL     1     -10.872   5.855  69.443  1.00  0.00    -0.422 C  
HETATM    2  C   UNL     1     -11.781   6.594  70.407  1.00  0.00    -0.446 C  
ENDROOT
BRANCH   2   3
HETATM    3  C   UNL     1     -10.988   7.172  71.577  1.00  0.00    -0.261 C  
BRANCH   3   4
HETATM    4  C   UNL     1     -11.811   8.204  72.342  1.00  0.00    -0.448 C  
BRANCH   4   5
HETATM    5  C   UNL     1     -12.786   8.916  71.410  1.00  0.00    -0.335 C  
BRANCH   5   6
HETATM    6  C   UNL     1     -12.730  10.426  71.616  1.00  0.00    -0.560 C  
BRANCH   6   7
HETATM    7  C   UNL     1     -12.572  11.146  70.283  1.00  0.00    -0.288 C  
BRANCH   7   8
HETATM    8  C   UNL     1     -11.174  10.933  69.716  1.00  0.00    -0.351 C  
BRANCH   8   9
HETATM    9  C   UNL     1     -11.247  10.418  68.285  1.00  0.00    -0.330 C  
BRANCH   9  10
HETATM   10  C   UNL     1     -10.342   9.206  68.101  1.00  0.00    -0.263 C  
BRANCH  10  11
HETATM   11  C   UNL     1     -10.199   8.859  66.622  1.00  0.00    -0.338 C  
BRANCH  11  12
HETATM   12  C   UNL     1      -9.200   9.788  65.947  1.00  0.00    -0.236 C  
BRANCH  12  13
HETATM   13  C   UNL     1      -9.622  10.092  64.515  1.00  0.00    -0.376 C  
BRANCH  13  14
HETATM   14  C   UNL     1     -10.759  11.109  64.496  1.00  0.00    -0.368 C  
BRANCH  14  15
HETATM   15  C   UNL     1     -10.336  12.396  63.794  1.00  0.00    -0.454 C  
BRANCH  15  16
HETATM   16  C   UNL     1     -10.797  13.618  64.584  1.00  0.00    -0.416 C  
BRANCH  16  17
HETATM   17  C   UNL     1     -10.587  13.421  66.083  1.00  0.00    -0.294 C  
HETATM   18  C   UNL     1     -10.630  14.733  66.830  1.00  0.00    -0.294 C  
HETATM   19  O   UNL     1     -10.808  15.831  66.328  1.00  0.00    -0.306 OA 
HETATM   20  O   UNL     1     -10.444  14.568  68.161  1.00  0.00    -0.232 OA 
ENDBRANCH  16  17
ENDBRANCH  15  16
ENDBRANCH  14  15
ENDBRANCH  13  14
ENDBRANCH  12  13
ENDBRANCH  11  12
ENDBRANCH  10  11
ENDBRANCH   9  10
ENDBRANCH   8   9
ENDBRANCH   7   8
ENDBRANCH   6   7
ENDBRANCH   5   6
ENDBRANCH   4   5
ENDBRANCH   3   4
ENDBRANCH   2   3
TORSDOF 15
ENDMDL
MODEL      141
REMARK 921   NORMALIZED FREE ENERGY PREDICTED BY IDOCK:   -3.79 KCAL/MOL
REMARK 922        TOTAL FREE ENERGY PREDICTED BY IDOCK:   -8.92 KCAL/MOL
REMARK 923 INTER-LIGAND FREE ENERGY PREDICTED BY IDOCK:   -7.25 KCAL/MOL
REMARK 924 INTRA-LIGAND FREE ENERGY PREDICTED BY IDOCK:   -1.67 KCAL/MOL
REMARK 927      BINDING AFFINITY PREDICTED BY RF-SCORE:    0.00 PKD
ROOT
HETATM    1  C   UNL     1      -7.037   8.095  65.584  1.00  0.00    -0.067 C  
HETATM    2  C   UNL     1      -7.939   9.056  64.830  1.00  0.00    -0.126 C  
ENDROOT
BRANCH   2   3
HETATM    3  C   UNL     1      -9.307   9.165  65.499  1.00  0.00    -0.287 C  
BRANCH   3   4
HETATM    4  C   UNL     1      -9.213   8.877  66.994  1.00  0.00    -0.171 C  
BRANCH   4   5
HETATM    5  C   UNL     1     -10.564   8.435  67.546  1.00  0.00    -0.285 C  
BRANCH   5   6
HETATM    6  C   UNL     1     -10.452   8.058  69.019  1.00  0.00    -0.212 C  
BRANCH   6   7
HETATM    7  C   UNL     1     -11.186   6.752  69.298  1.00  0.00    -0.261 C  
BRANCH   7   8
HETATM    8  C   UNL     1     -11.880   6.801  70.654  1.00  0.00    -0.442 C  
BRANCH   8   9
HETATM    9  C   UNL     1     -11.506   8.073  71.404  1.00  0.00    -0.293 C  
BRANCH   9  10
HETATM   10  C   UNL     1     -12.756   8.824  71.849  1.00  0.00    -0.427 C  
BRANCH  10  11
HETATM   11  C   UNL     1     -12.603  10.321  71.599  1.00  0.00    -0.534 C  
BRANCH  11  12
HETATM   12  C   UNL     1     -12.612  10.619  70.107  1.00  0.00    -0.283 C  
BRANCH  12  13
HETATM   13  C   UNL     1     -11.542  11.643  69.751  1.00  0.00    -0.389 C  
BRANCH  13  14
HETATM   14  C   UNL     1     -11.584  11.970  68.262  1.00  0.00    -0.394 C  
BRANCH  14  15
HETATM   15  C   UNL     1     -11.837  13.457  68.032  1.00  0.00    -0.392 C  
BRANCH  15  16
HETATM   16  C   UNL     1     -11.535  13.837  66.584  1.00  0.00    -0.362 C  
BRANCH  16  17
HETATM   17  C   UNL     1     -11.848  12.687  65.632  1.00  0.00    -0.488 C  
HETATM   18  C   UNL     1     -12.380  13.186  64.309  1.00  0.00    -0.351 C  
HETATM   19  O   UNL     1     -12.550  14.356  64.008  1.00  0.00    -0.764 OA 
HETATM   20  O   UNL     1     -12.661  12.172  63.457  1.00  0.00    -0.718 OA 
ENDBRANCH  16  17
ENDBRANCH  15  16
ENDBRANCH  14  15
ENDBRANCH  13  14
ENDBRANCH  12  13
ENDBRANCH  11  12
ENDBRANCH  10  11
ENDBRANCH   9  10
ENDBRANCH   8   9
ENDBRANCH   7   8
ENDBRANCH   6   7
ENDBRANCH   5   6
ENDBRANCH   4   5
ENDBRANCH   3   4
ENDBRANCH   2   3
TORSDOF 15
ENDMDL
MODEL      142
REMARK 921   NORMALIZED FREE ENERGY PREDICTED BY IDOCK:   -3.78 KCAL/MOL
REMARK 922        TOTAL FREE ENERGY PREDICTED BY IDOCK:   -8.90 KCAL/MOL
REMARK 923 INTER-LIGAND FREE ENERGY PREDICTED BY IDOCK:   -6.94 KCAL/MOL
REMARK 924 INTRA-LIGAND FREE ENERGY PREDICTED BY IDOCK:   -1.95 KCAL/MOL
REMARK 927      BINDING AFFINITY PREDICTED BY RF-SCORE:    0.00 PKD
ROOT
HETATM    1  C   UNL     1     -13.261   9.256  71.883  1.00  0.00    -0.493 C  
HETATM    2  C   UNL     1     -11.981   8.482  72.141  1.00  0.00    -0.451 C  
ENDROOT
BRANCH   2   3
HETATM    3  C   UNL     1     -11.869   7.279  71.207  1.00  0.00    -0.340 C  
BRANCH   3   4
HETATM    4  C   UNL     1     -10.426   6.796  71.105  1.00  0.00    -0.239 C  
BRANCH   4   5
HETATM    5  C   UNL     1     -10.247   5.878  69.900  1.00  0.00    -0.280 C  
BRANCH   5   6
HETATM    6  C   UNL     1     -11.237   6.232  68.795  1.00  0.00    -0.357 C  
BRANCH   6   7
HETATM    7  C   UNL     1     -10.601   6.050  67.423  1.00  0.00    -0.355 C  
BRANCH   7   8
HETATM    8  C   UNL     1      -9.580   7.148  67.150  1.00  0.00    -0.191 C  
BRANCH   8   9
HETATM    9  C   UNL     1     -10.271   8.420  66.678  1.00  0.00    -0.335 C  
BRANCH   9  10
HETATM   10  C   UNL     1      -9.502   9.653  67.136  1.00  0.00    -0.185 C  
BRANCH  10  11
HETATM   11  C   UNL     1      -9.569   9.799  68.653  1.00  0.00    -0.155 C  
BRANCH  11  12
HETATM   12  C   UNL     1     -11.006  10.006  69.110  1.00  0.00    -0.256 C  
BRANCH  12  13
HETATM   13  C   UNL     1     -11.684  11.096  68.290  1.00  0.00    -0.323 C  
BRANCH  13  14
HETATM   14  C   UNL     1     -11.798  12.384  69.099  1.00  0.00    -0.352 C  
BRANCH  14  15
HETATM   15  C   UNL     1     -11.577  13.610  68.218  1.00  0.00    -0.374 C  
BRANCH  15  16
HETATM   16  C   UNL     1     -11.113  13.195  66.823  1.00  0.00    -0.314 C  
BRANCH  16  17
HETATM   17  C   UNL     1     -12.256  13.270  65.815  1.00  0.00    -0.510 C  
HETATM   18  C   UNL     1     -11.966  12.446  64.581  1.00  0.00    -0.394 C  
HETATM   19  O   UNL     1     -10.955  11.792  64.386  1.00  0.00    -0.307 OA 
HETATM   20  O   UNL     1     -12.975  12.505  63.680  1.00  0.00    -0.730 OA 
ENDBRANCH  16  17
ENDBRANCH  15  16
ENDBRANCH  14  15
ENDBRANCH  13  14
ENDBRANCH  12  13
ENDBRANCH  11  12
ENDBRANCH  10  11
ENDBRANCH   9  10
ENDBRANCH   8   9
ENDBRANCH   7   8
ENDBRANCH   6   7
ENDBRANCH   5   6
ENDBRANCH   4   5
ENDBRANCH   3   4
ENDBRANCH   2   3
TORSDOF 15
ENDMDL
MODEL      143
REMARK 921   NORMALIZED FREE ENERGY PREDICTED BY IDOCK:   -3.78 KCAL/MOL
REMARK 922        TOTAL FREE ENERGY PREDICTED BY IDOCK:   -8.89 KCAL/MOL
REMARK 923 INTER-LIGAND FREE ENERGY PREDICTED BY IDOCK:   -6.10 KCAL/MOL
REMARK 924 INTRA-LIGAND FREE ENERGY PREDICTED BY IDOCK:   -2.79 KCAL/MOL
REMARK 927      BINDING AFFINITY PREDICTED BY RF-SCORE:    0.00 PKD
ROOT
HETATM    1  C   UNL     1      -6.403  10.165  68.612  1.00  0.00    -0.052 C  
HETATM    2  C   UNL     1      -7.793  10.617  69.021  1.00  0.00    -0.137 C  
ENDROOT
BRANCH   2   3
HETATM    3  C   UNL     1      -8.208  11.875  68.262  1.00  0.00    -0.157 C  
BRANCH   3   4
HETATM    4  C   UNL     1      -9.461  11.627  67.430  1.00  0.00    -0.171 C  
BRANCH   4   5
HETATM    5  C   UNL     1     -10.361  10.595  68.102  1.00  0.00    -0.203 C  
BRANCH   5   6
HETATM    6  C   UNL     1     -11.627  11.249  68.646  1.00  0.00    -0.384 C  
BRANCH   6   7
HETATM    7  C   UNL     1     -11.716  12.703  68.200  1.00  0.00    -0.396 C  
BRANCH   7   8
HETATM    8  C   UNL     1     -12.146  13.598  69.357  1.00  0.00    -0.364 C  
BRANCH   8   9
HETATM    9  C   UNL     1     -11.756  15.046  69.090  1.00  0.00    -0.345 C  
BRANCH   9  10
HETATM   10  C   UNL     1     -10.721  15.521  70.103  1.00  0.00    -0.345 C  
BRANCH  10  11
HETATM   11  C   UNL     1      -9.313  15.419  69.525  1.00  0.00    -0.252 C  
BRANCH  11  12
HETATM   12  C   UNL     1      -9.202  16.222  68.237  1.00  0.00    -0.197 C  
BRANCH  12  13
HETATM   13  C   UNL     1      -8.299  15.517  67.233  1.00  0.00    -0.218 C  
BRANCH  13  14
HETATM   14  C   UNL     1      -9.076  15.156  65.972  1.00  0.00    -0.196 C  
BRANCH  14  15
HETATM   15  C   UNL     1     -10.405  15.904  65.910  1.00  0.00    -0.383 C  
BRANCH  15  16
HETATM   16  C   UNL     1     -11.488  15.028  65.284  1.00  0.00    -0.308 C  
BRANCH  16  17
HETATM   17  C   UNL     1     -10.901  13.736  64.726  1.00  0.00    -0.410 C  
HETATM   18  C   UNL     1     -11.958  12.668  64.563  1.00  0.00    -0.399 C  
HETATM   19  O   UNL     1     -13.141  12.792  64.835  1.00  0.00    -0.833 OA 
HETATM   20  O   UNL     1     -11.446  11.516  64.068  1.00  0.00    -0.350 OA 
ENDBRANCH  16  17
ENDBRANCH  15  16
ENDBRANCH  14  15
ENDBRANCH  13  14
ENDBRANCH  12  13
ENDBRANCH  11  12
ENDBRANCH  10  11
ENDBRANCH   9  10
ENDBRANCH   8   9
ENDBRANCH   7   8
ENDBRANCH   6   7
ENDBRANCH   5   6
ENDBRANCH   4   5
ENDBRANCH   3   4
ENDBRANCH   2   3
TORSDOF 15
ENDMDL
MODEL      144
REMARK 921   NORMALIZED FREE ENERGY PREDICTED BY IDOCK:   -3.78 KCAL/MOL
REMARK 922        TOTAL FREE ENERGY PREDICTED BY IDOCK:   -8.89 KCAL/MOL
REMARK 923 INTER-LIGAND FREE ENERGY PREDICTED BY IDOCK:   -6.86 KCAL/MOL
REMARK 924 INTRA-LIGAND FREE ENERGY PREDICTED BY IDOCK:   -2.03 KCAL/MOL
REMARK 927      BINDING AFFINITY PREDICTED BY RF-SCORE:    0.00 PKD
ROOT
HETATM    1  C   UNL     1      -9.429   9.780  69.606  1.00  0.00    -0.237 C  
HETATM    2  C   UNL     1      -9.765   9.033  68.328  1.00  0.00    -0.169 C  
ENDROOT
BRANCH   2   3
HETATM    3  C   UNL     1     -10.782   9.804  67.491  1.00  0.00    -0.327 C  
BRANCH   3   4
HETATM    4  C   UNL     1     -10.202  10.182  66.132  1.00  0.00    -0.285 C  
BRANCH   4   5
HETATM    5  C   UNL     1     -10.749  11.528  65.666  1.00  0.00    -0.323 C  
BRANCH   5   6
HETATM    6  C   UNL     1     -10.556  12.594  66.739  1.00  0.00    -0.254 C  
BRANCH   6   7
HETATM    7  C   UNL     1     -11.828  13.413  66.919  1.00  0.00    -0.453 C  
BRANCH   7   8
HETATM    8  C   UNL     1     -11.903  13.993  68.326  1.00  0.00    -0.406 C  
BRANCH   8   9
HETATM    9  C   UNL     1     -11.731  12.897  69.370  1.00  0.00    -0.382 C  
BRANCH   9  10
HETATM   10  C   UNL     1     -12.296  13.339  70.714  1.00  0.00    -0.425 C  
BRANCH  10  11
HETATM   11  C   UNL     1     -12.905  12.155  71.459  1.00  0.00    -0.394 C  
BRANCH  11  12
HETATM   12  C   UNL     1     -12.589  10.850  70.742  1.00  0.00    -0.470 C  
BRANCH  12  13
HETATM   13  C   UNL     1     -12.491   9.696  71.733  1.00  0.00    -0.487 C  
BRANCH  13  14
HETATM   14  C   UNL     1     -13.753   8.841  71.687  1.00  0.00    -0.437 C  
BRANCH  14  15
HETATM   15  C   UNL     1     -13.442   7.424  71.212  1.00  0.00    -0.339 C  
BRANCH  15  16
HETATM   16  C   UNL     1     -11.951   7.269  70.919  1.00  0.00    -0.342 C  
BRANCH  16  17
HETATM   17  C   UNL     1     -11.390   6.003  71.560  1.00  0.00    -0.309 C  
HETATM   18  C   UNL     1     -10.802   6.281  72.924  1.00  0.00    -0.256 C  
HETATM   19  O   UNL     1     -10.764   7.371  73.472  1.00  0.00    -0.385 OA 
HETATM   20  O   UNL     1     -10.301   5.164  73.501  1.00  0.00    -0.181 OA 
ENDBRANCH  16  17
ENDBRANCH  15  16
ENDBRANCH  14  15
ENDBRANCH  13  14
ENDBRANCH  12  13
ENDBRANCH  11  12
ENDBRANCH  10  11
ENDBRANCH   9  10
ENDBRANCH   8   9
ENDBRANCH   7   8
ENDBRANCH   6   7
ENDBRANCH   5   6
ENDBRANCH   4   5
ENDBRANCH   3   4
ENDBRANCH   2   3
TORSDOF 15
ENDMDL
MODEL      145
REMARK 921   NORMALIZED FREE ENERGY PREDICTED BY IDOCK:   -3.78 KCAL/MOL
REMARK 922        TOTAL FREE ENERGY PREDICTED BY IDOCK:   -8.89 KCAL/MOL
REMARK 923 INTER-LIGAND FREE ENERGY PREDICTED BY IDOCK:   -7.30 KCAL/MOL
REMARK 924 INTRA-LIGAND FREE ENERGY PREDICTED BY IDOCK:   -1.59 KCAL/MOL
REMARK 927      BINDING AFFINITY PREDICTED BY RF-SCORE:    0.00 PKD
ROOT
HETATM    1  C   UNL     1     -10.826  11.346  63.831  1.00  0.00    -0.463 C  
HETATM    2  C   UNL     1     -12.104  12.097  63.503  1.00  0.00    -0.649 C  
ENDROOT
BRANCH   2   3
HETATM    3  C   UNL     1     -12.065  13.518  64.061  1.00  0.00    -0.494 C  
BRANCH   3   4
HETATM    4  C   UNL     1     -10.718  13.817  64.709  1.00  0.00    -0.429 C  
BRANCH   4   5
HETATM    5  C   UNL     1     -10.551  15.315  64.943  1.00  0.00    -0.379 C  
BRANCH   5   6
HETATM    6  C   UNL     1     -10.720  15.657  66.419  1.00  0.00    -0.291 C  
BRANCH   6   7
HETATM    7  C   UNL     1     -10.255  14.503  67.297  1.00  0.00    -0.255 C  
BRANCH   7   8
HETATM    8  C   UNL     1     -11.324  14.135  68.319  1.00  0.00    -0.319 C  
BRANCH   8   9
HETATM    9  C   UNL     1     -11.902  12.758  68.020  1.00  0.00    -0.386 C  
BRANCH   9  10
HETATM   10  C   UNL     1     -10.863  11.672  68.271  1.00  0.00    -0.260 C  
BRANCH  10  11
HETATM   11  C   UNL     1     -11.125  10.969  69.599  1.00  0.00    -0.320 C  
BRANCH  11  12
HETATM   12  C   UNL     1     -12.519  11.300  70.115  1.00  0.00    -0.297 C  
BRANCH  12  13
HETATM   13  C   UNL     1     -12.724  10.744  71.518  1.00  0.00    -0.536 C  
BRANCH  13  14
HETATM   14  C   UNL     1     -12.899   9.229  71.476  1.00  0.00    -0.427 C  
BRANCH  14  15
HETATM   15  C   UNL     1     -12.073   8.548  72.563  1.00  0.00    -0.395 C  
BRANCH  15  16
HETATM   16  C   UNL     1     -10.702   8.145  72.026  1.00  0.00    -0.343 C  
BRANCH  16  17
HETATM   17  C   UNL     1     -10.811   7.532  70.633  1.00  0.00    -0.251 C  
HETATM   18  C   UNL     1     -10.828   6.022  70.686  1.00  0.00    -0.297 C  
HETATM   19  O   UNL     1     -10.763   5.347  71.701  1.00  0.00    -0.236 OA 
HETATM   20  O   UNL     1     -10.924   5.469  69.454  1.00  0.00    -0.271 OA 
ENDBRANCH  16  17
ENDBRANCH  15  16
ENDBRANCH  14  15
ENDBRANCH  13  14
ENDBRANCH  12  13
ENDBRANCH  11  12
ENDBRANCH  10  11
ENDBRANCH   9  10
ENDBRANCH   8   9
ENDBRANCH   7   8
ENDBRANCH   6   7
ENDBRANCH   5   6
ENDBRANCH   4   5
ENDBRANCH   3   4
ENDBRANCH   2   3
TORSDOF 15
ENDMDL
MODEL      146
REMARK 921   NORMALIZED FREE ENERGY PREDICTED BY IDOCK:   -3.78 KCAL/MOL
REMARK 922        TOTAL FREE ENERGY PREDICTED BY IDOCK:   -8.88 KCAL/MOL
REMARK 923 INTER-LIGAND FREE ENERGY PREDICTED BY IDOCK:   -6.73 KCAL/MOL
REMARK 924 INTRA-LIGAND FREE ENERGY PREDICTED BY IDOCK:   -2.15 KCAL/MOL
REMARK 927      BINDING AFFINITY PREDICTED BY RF-SCORE:    0.00 PKD
ROOT
HETATM    1  C   UNL     1     -10.164   7.534  70.984  1.00  0.00    -0.194 C  
HETATM    2  C   UNL     1     -11.389   6.880  70.371  1.00  0.00    -0.376 C  
ENDROOT
BRANCH   2   3
HETATM    3  C   UNL     1     -11.100   6.391  68.953  1.00  0.00    -0.420 C  
BRANCH   3   4
HETATM    4  C   UNL     1     -10.046   7.260  68.276  1.00  0.00    -0.193 C  
BRANCH   4   5
HETATM    5  C   UNL     1     -10.567   7.812  66.953  1.00  0.00    -0.347 C  
BRANCH   5   6
HETATM    6  C   UNL     1      -9.888   9.134  66.610  1.00  0.00    -0.307 C  
BRANCH   6   7
HETATM    7  C   UNL     1     -10.642  10.303  67.230  1.00  0.00    -0.324 C  
BRANCH   7   8
HETATM    8  C   UNL     1      -9.794  10.991  68.293  1.00  0.00    -0.185 C  
BRANCH   8   9
HETATM    9  C   UNL     1     -10.417  10.820  69.672  1.00  0.00    -0.183 C  
BRANCH   9  10
HETATM   10  C   UNL     1     -11.863  11.302  69.674  1.00  0.00    -0.430 C  
BRANCH  10  11
HETATM   11  C   UNL     1     -11.952  12.737  70.183  1.00  0.00    -0.371 C  
BRANCH  11  12
HETATM   12  C   UNL     1     -12.260  13.694  69.040  1.00  0.00    -0.245 C  
BRANCH  12  13
HETATM   13  C   UNL     1     -11.272  14.853  69.021  1.00  0.00    -0.278 C  
BRANCH  13  14
HETATM   14  C   UNL     1     -10.224  14.648  67.932  1.00  0.00    -0.226 C  
BRANCH  14  15
HETATM   15  C   UNL     1     -10.403  15.652  66.798  1.00  0.00    -0.287 C  
BRANCH  15  16
HETATM   16  C   UNL     1     -10.337  14.953  65.442  1.00  0.00    -0.413 C  
BRANCH  16  17
HETATM   17  C   UNL     1     -11.069  13.615  65.473  1.00  0.00    -0.301 C  
HETATM   18  C   UNL     1     -12.446  13.718  64.860  1.00  0.00    -0.386 C  
HETATM   19  O   UNL     1     -12.941  14.730  64.392  1.00  0.00    -0.436 OA 
HETATM   20  O   UNL     1     -13.104  12.535  64.883  1.00  0.00    -0.833 OA 
ENDBRANCH  16  17
ENDBRANCH  15  16
ENDBRANCH  14  15
ENDBRANCH  13  14
ENDBRANCH  12  13
ENDBRANCH  11  12
ENDBRANCH  10  11
ENDBRANCH   9  10
ENDBRANCH   8   9
ENDBRANCH   7   8
ENDBRANCH   6   7
ENDBRANCH   5   6
ENDBRANCH   4   5
ENDBRANCH   3   4
ENDBRANCH   2   3
TORSDOF 15
ENDMDL
MODEL      147
REMARK 921   NORMALIZED FREE ENERGY PREDICTED BY IDOCK:   -3.77 KCAL/MOL
REMARK 922        TOTAL FREE ENERGY PREDICTED BY IDOCK:   -8.88 KCAL/MOL
REMARK 923 INTER-LIGAND FREE ENERGY PREDICTED BY IDOCK:   -7.11 KCAL/MOL
REMARK 924 INTRA-LIGAND FREE ENERGY PREDICTED BY IDOCK:   -1.77 KCAL/MOL
REMARK 927      BINDING AFFINITY PREDICTED BY RF-SCORE:    0.00 PKD
ROOT
HETATM    1  C   UNL     1     -11.751  14.346  66.809  1.00  0.00    -0.415 C  
HETATM    2  C   UNL     1     -12.598  13.798  65.675  1.00  0.00    -0.551 C  
ENDROOT
BRANCH   2   3
HETATM    3  C   UNL     1     -12.161  14.377  64.332  1.00  0.00    -0.491 C  
BRANCH   3   4
HETATM    4  C   UNL     1     -12.185  13.312  63.240  1.00  0.00    -0.387 C  
BRANCH   4   5
HETATM    5  C   UNL     1     -11.690  11.974  63.780  1.00  0.00    -0.575 C  
BRANCH   5   6
HETATM    6  C   UNL     1     -10.171  11.876  63.681  1.00  0.00    -0.466 C  
BRANCH   6   7
HETATM    7  C   UNL     1      -9.553  11.687  65.060  1.00  0.00    -0.187 C  
BRANCH   7   8
HETATM    8  C   UNL     1     -10.533  10.998  66.002  1.00  0.00    -0.304 C  
BRANCH   8   9
HETATM    9  C   UNL     1     -10.152  11.254  67.454  1.00  0.00    -0.214 C  
BRANCH   9  10
HETATM   10  C   UNL     1     -10.940  10.342  68.387  1.00  0.00    -0.312 C  
BRANCH  10  11
HETATM   11  C   UNL     1     -11.610  11.151  69.493  1.00  0.00    -0.392 C  
BRANCH  11  12
HETATM   12  C   UNL     1     -11.674  10.345  70.783  1.00  0.00    -0.464 C  
BRANCH  12  13
HETATM   13  C   UNL     1     -10.774   9.119  70.703  1.00  0.00    -0.313 C  
BRANCH  13  14
HETATM   14  C   UNL     1     -11.442   7.919  71.367  1.00  0.00    -0.293 C  
BRANCH  14  15
HETATM   15  C   UNL     1     -11.391   6.690  70.463  1.00  0.00    -0.413 C  
BRANCH  15  16
HETATM   16  C   UNL     1     -10.271   6.823  69.434  1.00  0.00    -0.204 C  
BRANCH  16  17
HETATM   17  C   UNL     1     -10.192   5.591  68.538  1.00  0.00    -0.250 C  
HETATM   18  C   UNL     1     -10.670   5.889  67.136  1.00  0.00    -0.306 C  
HETATM   19  O   UNL     1     -11.075   6.969  66.738  1.00  0.00    -0.289 OA 
HETATM   20  O   UNL     1     -10.604   4.801  66.333  1.00  0.00    -0.284 OA 
ENDBRANCH  16  17
ENDBRANCH  15  16
ENDBRANCH  14  15
ENDBRANCH  13  14
ENDBRANCH  12  13
ENDBRANCH  11  12
ENDBRANCH  10  11
ENDBRANCH   9  10
ENDBRANCH   8   9
ENDBRANCH   7   8
ENDBRANCH   6   7
ENDBRANCH   5   6
ENDBRANCH   4   5
ENDBRANCH   3   4
ENDBRANCH   2   3
TORSDOF 15
ENDMDL
MODEL      148
REMARK 921   NORMALIZED FREE ENERGY PREDICTED BY IDOCK:   -3.77 KCAL/MOL
REMARK 922        TOTAL FREE ENERGY PREDICTED BY IDOCK:   -8.86 KCAL/MOL
REMARK 923 INTER-LIGAND FREE ENERGY PREDICTED BY IDOCK:   -6.74 KCAL/MOL
REMARK 924 INTRA-LIGAND FREE ENERGY PREDICTED BY IDOCK:   -2.12 KCAL/MOL
REMARK 927      BINDING AFFINITY PREDICTED BY RF-SCORE:    0.00 PKD
ROOT
HETATM    1  C   UNL     1     -13.018  10.222  71.426  1.00  0.00    -0.540 C  
HETATM    2  C   UNL     1     -11.598   9.702  71.553  1.00  0.00    -0.451 C  
ENDROOT
BRANCH   2   3
HETATM    3  C   UNL     1     -11.156   8.991  70.276  1.00  0.00    -0.263 C  
BRANCH   3   4
HETATM    4  C   UNL     1      -9.652   9.132  70.061  1.00  0.00    -0.218 C  
BRANCH   4   5
HETATM    5  C   UNL     1      -9.263   8.687  68.655  1.00  0.00    -0.138 C  
BRANCH   5   6
HETATM    6  C   UNL     1     -10.420   8.888  67.681  1.00  0.00    -0.320 C  
BRANCH   6   7
HETATM    7  C   UNL     1      -9.911   8.960  66.247  1.00  0.00    -0.355 C  
BRANCH   7   8
HETATM    8  C   UNL     1      -9.251  10.306  65.974  1.00  0.00    -0.200 C  
BRANCH   8   9
HETATM    9  C   UNL     1     -10.299  11.404  65.856  1.00  0.00    -0.299 C  
BRANCH   9  10
HETATM   10  C   UNL     1      -9.798  12.699  66.486  1.00  0.00    -0.258 C  
BRANCH  10  11
HETATM   11  C   UNL     1      -9.636  12.538  67.994  1.00  0.00    -0.212 C  
BRANCH  11  12
HETATM   12  C   UNL     1     -10.993  12.393  68.668  1.00  0.00    -0.283 C  
BRANCH  12  13
HETATM   13  C   UNL     1     -11.895  13.573  68.330  1.00  0.00    -0.401 C  
BRANCH  13  14
HETATM   14  C   UNL     1     -12.078  14.475  69.546  1.00  0.00    -0.348 C  
BRANCH  14  15
HETATM   15  C   UNL     1     -11.792  15.933  69.199  1.00  0.00    -0.340 C  
BRANCH  15  16
HETATM   16  C   UNL     1     -11.075  16.037  67.855  1.00  0.00    -0.307 C  
BRANCH  16  17
HETATM   17  C   UNL     1     -10.433  17.409  67.674  1.00  0.00    -0.368 C  
HETATM   18  C   UNL     1     -10.318  17.784  66.215  1.00  0.00    -0.358 C  
HETATM   19  O   UNL     1     -10.684  17.098  65.275  1.00  0.00    -0.629 OA 
HETATM   20  O   UNL     1      -9.749  19.001  66.044  1.00  0.00    -0.450 OA 
ENDBRANCH  16  17
ENDBRANCH  15  16
ENDBRANCH  14  15
ENDBRANCH  13  14
ENDBRANCH  12  13
ENDBRANCH  11  12
ENDBRANCH  10  11
ENDBRANCH   9  10
ENDBRANCH   8   9
ENDBRANCH   7   8
ENDBRANCH   6   7
ENDBRANCH   5   6
ENDBRANCH   4   5
ENDBRANCH   3   4
ENDBRANCH   2   3
TORSDOF 15
ENDMDL
MODEL      149
REMARK 921   NORMALIZED FREE ENERGY PREDICTED BY IDOCK:   -3.76 KCAL/MOL
REMARK 922        TOTAL FREE ENERGY PREDICTED BY IDOCK:   -8.86 KCAL/MOL
REMARK 923 INTER-LIGAND FREE ENERGY PREDICTED BY IDOCK:   -7.08 KCAL/MOL
REMARK 924 INTRA-LIGAND FREE ENERGY PREDICTED BY IDOCK:   -1.78 KCAL/MOL
REMARK 927      BINDING AFFINITY PREDICTED BY RF-SCORE:    0.00 PKD
ROOT
HETATM    1  C   UNL     1     -12.312  12.660  65.077  1.00  0.00    -0.561 C  
HETATM    2  C   UNL     1     -11.884  11.962  63.799  1.00  0.00    -0.558 C  
ENDROOT
BRANCH   2   3
HETATM    3  C   UNL     1     -10.643  11.103  64.030  1.00  0.00    -0.436 C  
BRANCH   3   4
HETATM    4  C   UNL     1     -10.294  11.030  65.513  1.00  0.00    -0.321 C  
BRANCH   4   5
HETATM    5  C   UNL     1      -9.713   9.664  65.865  1.00  0.00    -0.343 C  
BRANCH   5   6
HETATM    6  C   UNL     1      -9.751   9.429  67.371  1.00  0.00    -0.205 C  
BRANCH   6   7
HETATM    7  C   UNL     1     -11.036   9.986  67.971  1.00  0.00    -0.296 C  
BRANCH   7   8
HETATM    8  C   UNL     1     -10.731  10.877  69.169  1.00  0.00    -0.265 C  
BRANCH   8   9
HETATM    9  C   UNL     1     -11.734  12.020  69.257  1.00  0.00    -0.389 C  
BRANCH   9  10
HETATM   10  C   UNL     1     -12.362  12.080  70.645  1.00  0.00    -0.394 C  
BRANCH  10  11
HETATM   11  C   UNL     1     -12.163  10.760  71.385  1.00  0.00    -0.374 C  
BRANCH  11  12
HETATM   12  C   UNL     1     -13.367   9.849  71.190  1.00  0.00    -0.371 C  
BRANCH  12  13
HETATM   13  C   UNL     1     -13.436   8.798  72.290  1.00  0.00    -0.463 C  
BRANCH  13  14
HETATM   14  C   UNL     1     -13.469   7.396  71.691  1.00  0.00    -0.437 C  
BRANCH  14  15
HETATM   15  C   UNL     1     -12.340   7.200  70.683  1.00  0.00    -0.201 C  
BRANCH  15  16
HETATM   16  C   UNL     1     -11.131   6.545  71.347  1.00  0.00    -0.315 C  
BRANCH  16  17
HETATM   17  C   UNL     1     -10.050   7.572  71.667  1.00  0.00    -0.204 C  
HETATM   18  C   UNL     1      -9.805   7.681  73.154  1.00  0.00    -0.279 C  
HETATM   19  O   UNL     1     -10.384   7.042  74.017  1.00  0.00    -0.364 OA 
HETATM   20  O   UNL     1      -8.847   8.591  73.448  1.00  0.00    -0.301 OA 
ENDBRANCH  16  17
ENDBRANCH  15  16
ENDBRANCH  14  15
ENDBRANCH  13  14
ENDBRANCH  12  13
ENDBRANCH  11  12
ENDBRANCH  10  11
ENDBRANCH   9  10
ENDBRANCH   8   9
ENDBRANCH   7   8
ENDBRANCH   6   7
ENDBRANCH   5   6
ENDBRANCH   4   5
ENDBRANCH   3   4
ENDBRANCH   2   3
TORSDOF 15
ENDMDL
MODEL      150
REMARK 921   NORMALIZED FREE ENERGY PREDICTED BY IDOCK:   -3.76 KCAL/MOL
REMARK 922        TOTAL FREE ENERGY PREDICTED BY IDOCK:   -8.86 KCAL/MOL
REMARK 923 INTER-LIGAND FREE ENERGY PREDICTED BY IDOCK:   -6.98 KCAL/MOL
REMARK 924 INTRA-LIGAND FREE ENERGY PREDICTED BY IDOCK:   -1.88 KCAL/MOL
REMARK 927      BINDING AFFINITY PREDICTED BY RF-SCORE:    0.00 PKD
ROOT
HETATM    1  C   UNL     1      -7.160   7.394  66.463  1.00  0.00    -0.074 C  
HETATM    2  C   UNL     1      -8.227   7.086  67.498  1.00  0.00    -0.116 C  
ENDROOT
BRANCH   2   3
HETATM    3  C   UNL     1      -9.493   6.546  66.839  1.00  0.00    -0.178 C  
BRANCH   3   4
HETATM    4  C   UNL     1     -10.681   7.468  67.095  1.00  0.00    -0.379 C  
BRANCH   4   5
HETATM    5  C   UNL     1     -10.256   8.685  67.910  1.00  0.00    -0.273 C  
BRANCH   5   6
HETATM    6  C   UNL     1     -10.678   9.977  67.218  1.00  0.00    -0.309 C  
BRANCH   6   7
HETATM    7  C   UNL     1      -9.579  10.473  66.287  1.00  0.00    -0.232 C  
BRANCH   7   8
HETATM    8  C   UNL     1      -9.985  10.294  64.828  1.00  0.00    -0.392 C  
BRANCH   8   9
HETATM    9  C   UNL     1     -10.220  11.645  64.166  1.00  0.00    -0.372 C  
BRANCH   9  10
HETATM   10  C   UNL     1     -11.686  11.810  63.783  1.00  0.00    -0.499 C  
BRANCH  10  11
HETATM   11  C   UNL     1     -12.433  12.617  64.840  1.00  0.00    -0.564 C  
BRANCH  11  12
HETATM   12  C   UNL     1     -11.800  13.991  65.012  1.00  0.00    -0.383 C  
BRANCH  12  13
HETATM   13  C   UNL     1     -12.007  14.509  66.430  1.00  0.00    -0.350 C  
BRANCH  13  14
HETATM   14  C   UNL     1     -11.181  13.699  67.424  1.00  0.00    -0.323 C  
BRANCH  14  15
HETATM   15  C   UNL     1     -12.015  13.299  68.637  1.00  0.00    -0.345 C  
BRANCH  15  16
HETATM   16  C   UNL     1     -11.681  14.183  69.837  1.00  0.00    -0.372 C  
BRANCH  16  17
HETATM   17  C   UNL     1     -12.885  14.343  70.760  1.00  0.00    -0.417 C  
HETATM   18  C   UNL     1     -12.675  15.453  71.763  1.00  0.00    -0.396 C  
HETATM   19  O   UNL     1     -11.679  16.152  71.851  1.00  0.00    -0.475 OA 
HETATM   20  O   UNL     1     -13.739  15.602  72.588  1.00  0.00    -0.525 OA 
ENDBRANCH  16  17
ENDBRANCH  15  16
ENDBRANCH  14  15
ENDBRANCH  13  14
ENDBRANCH  12  13
ENDBRANCH  11  12
ENDBRANCH  10  11
ENDBRANCH   9  10
ENDBRANCH   8   9
ENDBRANCH   7   8
ENDBRANCH   6   7
ENDBRANCH   5   6
ENDBRANCH   4   5
ENDBRANCH   3   4
ENDBRANCH   2   3
TORSDOF 15
ENDMDL
MODEL      151
REMARK 921   NORMALIZED FREE ENERGY PREDICTED BY IDOCK:   -3.76 KCAL/MOL
REMARK 922        TOTAL FREE ENERGY PREDICTED BY IDOCK:   -8.85 KCAL/MOL
REMARK 923 INTER-LIGAND FREE ENERGY PREDICTED BY IDOCK:   -6.50 KCAL/MOL
REMARK 924 INTRA-LIGAND FREE ENERGY PREDICTED BY IDOCK:   -2.35 KCAL/MOL
REMARK 927      BINDING AFFINITY PREDICTED BY RF-SCORE:    0.00 PKD
ROOT
HETATM    1  C   UNL     1      -8.512  11.426  68.538  1.00  0.00    -0.152 C  
HETATM    2  C   UNL     1      -8.811  11.387  67.050  1.00  0.00    -0.168 C  
ENDROOT
BRANCH   2   3
HETATM    3  C   UNL     1      -9.976  10.448  66.747  1.00  0.00    -0.256 C  
BRANCH   3   4
HETATM    4  C   UNL     1     -10.180  10.293  65.243  1.00  0.00    -0.308 C  
BRANCH   4   5
HETATM    5  C   UNL     1      -9.368  11.333  64.477  1.00  0.00    -0.149 C  
BRANCH   5   6
HETATM    6  C   UNL     1     -10.189  11.934  63.341  1.00  0.00    -0.478 C  
BRANCH   6   7
HETATM    7  C   UNL     1     -11.660  12.023  63.727  1.00  0.00    -0.565 C  
BRANCH   7   8
HETATM    8  C   UNL     1     -12.037  13.454  64.093  1.00  0.00    -0.491 C  
BRANCH   8   9
HETATM    9  C   UNL     1     -12.603  13.516  65.505  1.00  0.00    -0.531 C  
BRANCH   9  10
HETATM   10  C   UNL     1     -11.589  14.126  66.466  1.00  0.00    -0.389 C  
BRANCH  10  11
HETATM   11  C   UNL     1     -10.411  14.720  65.701  1.00  0.00    -0.369 C  
BRANCH  11  12
HETATM   12  C   UNL     1      -9.220  14.927  66.626  1.00  0.00    -0.302 C  
BRANCH  12  13
HETATM   13  C   UNL     1      -9.678  15.120  68.066  1.00  0.00    -0.209 C  
BRANCH  13  14
HETATM   14  C   UNL     1      -8.542  15.672  68.922  1.00  0.00    -0.211 C  
BRANCH  14  15
HETATM   15  C   UNL     1      -7.914  16.904  68.277  1.00  0.00    -0.211 C  
BRANCH  15  16
HETATM   16  C   UNL     1      -8.662  18.169  68.691  1.00  0.00    -0.280 C  
BRANCH  16  17
HETATM   17  C   UNL     1      -8.398  19.313  67.716  1.00  0.00    -0.335 C  
HETATM   18  C   UNL     1      -7.283  20.211  68.198  1.00  0.00    -0.258 C  
HETATM   19  O   UNL     1      -6.654  20.068  69.234  1.00  0.00    -0.323 OA 
HETATM   20  O   UNL     1      -7.042  21.230  67.340  1.00  0.00    -0.512 OA 
ENDBRANCH  16  17
ENDBRANCH  15  16
ENDBRANCH  14  15
ENDBRANCH  13  14
ENDBRANCH  12  13
ENDBRANCH  11  12
ENDBRANCH  10  11
ENDBRANCH   9  10
ENDBRANCH   8   9
ENDBRANCH   7   8
ENDBRANCH   6   7
ENDBRANCH   5   6
ENDBRANCH   4   5
ENDBRANCH   3   4
ENDBRANCH   2   3
TORSDOF 15
ENDMDL
MODEL      152
REMARK 921   NORMALIZED FREE ENERGY PREDICTED BY IDOCK:   -3.76 KCAL/MOL
REMARK 922        TOTAL FREE ENERGY PREDICTED BY IDOCK:   -8.85 KCAL/MOL
REMARK 923 INTER-LIGAND FREE ENERGY PREDICTED BY IDOCK:   -7.64 KCAL/MOL
REMARK 924 INTRA-LIGAND FREE ENERGY PREDICTED BY IDOCK:   -1.21 KCAL/MOL
REMARK 927      BINDING AFFINITY PREDICTED BY RF-SCORE:    0.00 PKD
ROOT
HETATM    1  C   UNL     1     -10.591  19.699  66.950  1.00  0.00    -0.603 C  
HETATM    2  C   UNL     1     -10.038  19.646  68.363  1.00  0.00    -0.557 C  
ENDROOT
BRANCH   2   3
HETATM    3  C   UNL     1      -9.476  18.262  68.682  1.00  0.00    -0.343 C  
BRANCH   3   4
HETATM    4  C   UNL     1     -10.504  17.173  68.396  1.00  0.00    -0.376 C  
BRANCH   4   5
HETATM    5  C   UNL     1     -10.331  16.001  69.357  1.00  0.00    -0.272 C  
BRANCH   5   6
HETATM    6  C   UNL     1     -11.684  15.487  69.837  1.00  0.00    -0.368 C  
BRANCH   6   7
HETATM    7  C   UNL     1     -12.030  16.073  71.200  1.00  0.00    -0.443 C  
BRANCH   7   8
HETATM    8  C   UNL     1     -12.566  14.993  72.132  1.00  0.00    -0.405 C  
BRANCH   8   9
HETATM    9  C   UNL     1     -13.508  14.058  71.386  1.00  0.00    -0.360 C  
BRANCH   9  10
HETATM   10  C   UNL     1     -13.207  12.603  71.729  1.00  0.00    -0.457 C  
BRANCH  10  11
HETATM   11  C   UNL     1     -12.361  11.956  70.637  1.00  0.00    -0.405 C  
BRANCH  11  12
HETATM   12  C   UNL     1     -12.486  10.439  70.690  1.00  0.00    -0.437 C  
BRANCH  12  13
HETATM   13  C   UNL     1     -13.403  10.009  71.827  1.00  0.00    -0.492 C  
BRANCH  13  14
HETATM   14  C   UNL     1     -12.912   8.707  72.450  1.00  0.00    -0.403 C  
BRANCH  14  15
HETATM   15  C   UNL     1     -13.270   7.508  71.577  1.00  0.00    -0.404 C  
BRANCH  15  16
HETATM   16  C   UNL     1     -12.054   6.609  71.369  1.00  0.00    -0.400 C  
BRANCH  16  17
HETATM   17  C   UNL     1     -11.470   6.782  69.970  1.00  0.00    -0.390 C  
HETATM   18  C   UNL     1     -10.239   7.658  69.983  1.00  0.00    -0.213 C  
HETATM   19  O   UNL     1      -9.748   8.179  70.972  1.00  0.00    -0.158 OA 
HETATM   20  O   UNL     1      -9.713   7.817  68.745  1.00  0.00    -0.153 OA 
ENDBRANCH  16  17
ENDBRANCH  15  16
ENDBRANCH  14  15
ENDBRANCH  13  14
ENDBRANCH  12  13
ENDBRANCH  11  12
ENDBRANCH  10  11
ENDBRANCH   9  10
ENDBRANCH   8   9
ENDBRANCH   7   8
ENDBRANCH   6   7
ENDBRANCH   5   6
ENDBRANCH   4   5
ENDBRANCH   3   4
ENDBRANCH   2   3
TORSDOF 15
ENDMDL
MODEL      153
REMARK 921   NORMALIZED FREE ENERGY PREDICTED BY IDOCK:   -3.75 KCAL/MOL
REMARK 922        TOTAL FREE ENERGY PREDICTED BY IDOCK:   -8.84 KCAL/MOL
REMARK 923 INTER-LIGAND FREE ENERGY PREDICTED BY IDOCK:   -7.07 KCAL/MOL
REMARK 924 INTRA-LIGAND FREE ENERGY PREDICTED BY IDOCK:   -1.76 KCAL/MOL
REMARK 927      BINDING AFFINITY PREDICTED BY RF-SCORE:    0.00 PKD
ROOT
HETATM    1  C   UNL     1      -9.615   8.369  72.114  1.00  0.00    -0.367 C  
HETATM    2  C   UNL     1     -10.671   7.508  71.445  1.00  0.00    -0.243 C  
ENDROOT
BRANCH   2   3
HETATM    3  C   UNL     1     -11.920   7.391  72.315  1.00  0.00    -0.277 C  
BRANCH   3   4
HETATM    4  C   UNL     1     -13.167   7.813  71.546  1.00  0.00    -0.356 C  
BRANCH   4   5
HETATM    5  C   UNL     1     -13.785   9.064  72.162  1.00  0.00    -0.536 C  
BRANCH   5   6
HETATM    6  C   UNL     1     -12.891  10.279  71.936  1.00  0.00    -0.528 C  
BRANCH   6   7
HETATM    7  C   UNL     1     -12.977  10.748  70.489  1.00  0.00    -0.258 C  
BRANCH   7   8
HETATM    8  C   UNL     1     -11.602  11.154  69.970  1.00  0.00    -0.421 C  
BRANCH   8   9
HETATM    9  C   UNL     1     -11.714  12.340  69.021  1.00  0.00    -0.376 C  
BRANCH   9  10
HETATM   10  C   UNL     1     -11.039  12.031  67.690  1.00  0.00    -0.319 C  
BRANCH  10  11
HETATM   11  C   UNL     1     -11.877  12.552  66.527  1.00  0.00    -0.434 C  
BRANCH  11  12
HETATM   12  C   UNL     1     -11.288  12.102  65.197  1.00  0.00    -0.379 C  
BRANCH  12  13
HETATM   13  C   UNL     1     -10.963  13.300  64.314  1.00  0.00    -0.418 C  
BRANCH  13  14
HETATM   14  C   UNL     1     -11.823  14.499  64.698  1.00  0.00    -0.462 C  
BRANCH  14  15
HETATM   15  C   UNL     1     -10.990  15.775  64.768  1.00  0.00    -0.410 C  
BRANCH  15  16
HETATM   16  C   UNL     1      -9.936  15.672  65.868  1.00  0.00    -0.379 C  
BRANCH  16  17
HETATM   17  C   UNL     1     -10.524  16.020  67.232  1.00  0.00    -0.308 C  
HETATM   18  C   UNL     1      -9.714  15.423  68.359  1.00  0.00    -0.211 C  
HETATM   19  O   UNL     1      -8.710  14.741  68.227  1.00  0.00    -0.157 OA 
HETATM   20  O   UNL     1     -10.228  15.726  69.574  1.00  0.00    -0.234 OA 
ENDBRANCH  16  17
ENDBRANCH  15  16
ENDBRANCH  14  15
ENDBRANCH  13  14
ENDBRANCH  12  13
ENDBRANCH  11  12
ENDBRANCH  10  11
ENDBRANCH   9  10
ENDBRANCH   8   9
ENDBRANCH   7   8
ENDBRANCH   6   7
ENDBRANCH   5   6
ENDBRANCH   4   5
ENDBRANCH   3   4
ENDBRANCH   2   3
TORSDOF 15
ENDMDL
MODEL      154
REMARK 921   NORMALIZED FREE ENERGY PREDICTED BY IDOCK:   -3.74 KCAL/MOL
REMARK 922        TOTAL FREE ENERGY PREDICTED BY IDOCK:   -8.82 KCAL/MOL
REMARK 923 INTER-LIGAND FREE ENERGY PREDICTED BY IDOCK:   -6.96 KCAL/MOL
REMARK 924 INTRA-LIGAND FREE ENERGY PREDICTED BY IDOCK:   -1.86 KCAL/MOL
REMARK 927      BINDING AFFINITY PREDICTED BY RF-SCORE:    0.00 PKD
ROOT
HETATM    1  C   UNL     1     -12.776  14.965  73.293  1.00  0.00    -0.624 C  
HETATM    2  C   UNL     1     -13.498  14.092  72.282  1.00  0.00    -0.597 C  
ENDROOT
BRANCH   2   3
HETATM    3  C   UNL     1     -13.372  14.663  70.872  1.00  0.00    -0.350 C  
BRANCH   3   4
HETATM    4  C   UNL     1     -11.960  14.471  70.326  1.00  0.00    -0.379 C  
BRANCH   4   5
HETATM    5  C   UNL     1     -12.000  14.056  68.859  1.00  0.00    -0.387 C  
BRANCH   5   6
HETATM    6  C   UNL     1     -10.677  13.424  68.437  1.00  0.00    -0.271 C  
BRANCH   6   7
HETATM    7  C   UNL     1     -10.085  14.162  67.243  1.00  0.00    -0.256 C  
BRANCH   7   8
HETATM    8  C   UNL     1     -11.143  15.016  66.556  1.00  0.00    -0.329 C  
BRANCH   8   9
HETATM    9  C   UNL     1     -11.073  14.847  65.044  1.00  0.00    -0.422 C  
BRANCH   9  10
HETATM   10  C   UNL     1     -12.391  14.309  64.500  1.00  0.00    -0.432 C  
BRANCH  10  11
HETATM   11  C   UNL     1     -12.142  13.217  63.464  1.00  0.00    -0.585 C  
BRANCH  11  12
HETATM   12  C   UNL     1     -11.620  11.953  64.132  1.00  0.00    -0.434 C  
BRANCH  12  13
HETATM   13  C   UNL     1     -10.390  11.423  63.406  1.00  0.00    -0.458 C  
BRANCH  13  14
HETATM   14  C   UNL     1      -9.482  10.667  64.370  1.00  0.00    -0.317 C  
BRANCH  14  15
HETATM   15  C   UNL     1      -9.944  10.841  65.814  1.00  0.00    -0.306 C  
BRANCH  15  16
HETATM   16  C   UNL     1      -8.845  10.419  66.786  1.00  0.00    -0.139 C  
BRANCH  16  17
HETATM   17  C   UNL     1      -7.470  10.863  66.295  1.00  0.00    -0.129 C  
HETATM   18  C   UNL     1      -6.818  11.829  67.256  1.00  0.00    -0.134 C  
HETATM   19  O   UNL     1      -7.304  12.226  68.303  1.00  0.00    -0.092 OA 
HETATM   20  O   UNL     1      -5.597  12.228  66.828  1.00  0.00    -0.319 OA 
ENDBRANCH  16  17
ENDBRANCH  15  16
ENDBRANCH  14  15
ENDBRANCH  13  14
ENDBRANCH  12  13
ENDBRANCH  11  12
ENDBRANCH  10  11
ENDBRANCH   9  10
ENDBRANCH   8   9
ENDBRANCH   7   8
ENDBRANCH   6   7
ENDBRANCH   5   6
ENDBRANCH   4   5
ENDBRANCH   3   4
ENDBRANCH   2   3
TORSDOF 15
ENDMDL
MODEL      155
REMARK 921   NORMALIZED FREE ENERGY PREDICTED BY IDOCK:   -3.74 KCAL/MOL
REMARK 922        TOTAL FREE ENERGY PREDICTED BY IDOCK:   -8.81 KCAL/MOL
REMARK 923 INTER-LIGAND FREE ENERGY PREDICTED BY IDOCK:   -7.18 KCAL/MOL
REMARK 924 INTRA-LIGAND FREE ENERGY PREDICTED BY IDOCK:   -1.63 KCAL/MOL
REMARK 927      BINDING AFFINITY PREDICTED BY RF-SCORE:    0.00 PKD
ROOT
HETATM    1  C   UNL     1      -9.262  12.098  68.606  1.00  0.00    -0.021 C  
HETATM    2  C   UNL     1      -9.034  11.043  67.538  1.00  0.00    -0.137 C  
ENDROOT
BRANCH   2   3
HETATM    3  C   UNL     1     -10.109  11.113  66.456  1.00  0.00    -0.265 C  
BRANCH   3   4
HETATM    4  C   UNL     1      -9.570  10.628  65.115  1.00  0.00    -0.304 C  
BRANCH   4   5
HETATM    5  C   UNL     1     -10.587  10.871  64.003  1.00  0.00    -0.310 C  
BRANCH   5   6
HETATM    6  C   UNL     1     -10.671  12.354  63.658  1.00  0.00    -0.497 C  
BRANCH   6   7
HETATM    7  C   UNL     1     -12.095  12.866  63.826  1.00  0.00    -0.583 C  
BRANCH   7   8
HETATM    8  C   UNL     1     -12.099  14.265  64.432  1.00  0.00    -0.490 C  
BRANCH   8   9
HETATM    9  C   UNL     1     -10.805  14.526  65.189  1.00  0.00    -0.407 C  
BRANCH   9  10
HETATM   10  C   UNL     1     -10.539  16.022  65.303  1.00  0.00    -0.424 C  
BRANCH  10  11
HETATM   11  C   UNL     1     -10.743  16.499  66.738  1.00  0.00    -0.155 C  
BRANCH  11  12
HETATM   12  C   UNL     1     -10.799  15.316  67.694  1.00  0.00    -0.295 C  
BRANCH  12  13
HETATM   13  C   UNL     1     -10.132  15.657  69.020  1.00  0.00    -0.227 C  
BRANCH  13  14
HETATM   14  C   UNL     1     -10.992  16.630  69.819  1.00  0.00    -0.208 C  
BRANCH  14  15
HETATM   15  C   UNL     1     -11.416  16.024  71.154  1.00  0.00    -0.470 C  
BRANCH  15  16
HETATM   16  C   UNL     1     -12.814  15.420  71.052  1.00  0.00    -0.525 C  
BRANCH  16  17
HETATM   17  C   UNL     1     -12.752  13.914  70.817  1.00  0.00    -0.383 C  
HETATM   18  C   UNL     1     -13.220  13.141  72.028  1.00  0.00    -0.446 C  
HETATM   19  O   UNL     1     -13.606  13.630  73.077  1.00  0.00    -0.578 OA 
HETATM   20  O   UNL     1     -13.169  11.802  71.829  1.00  0.00    -0.457 OA 
ENDBRANCH  16  17
ENDBRANCH  15  16
ENDBRANCH  14  15
ENDBRANCH  13  14
ENDBRANCH  12  13
ENDBRANCH  11  12
ENDBRANCH  10  11
ENDBRANCH   9  10
ENDBRANCH   8   9
ENDBRANCH   7   8
ENDBRANCH   6   7
ENDBRANCH   5   6
ENDBRANCH   4   5
ENDBRANCH   3   4
ENDBRANCH   2   3
TORSDOF 15
ENDMDL
MODEL      156
REMARK 921   NORMALIZED FREE ENERGY PREDICTED BY IDOCK:   -3.73 KCAL/MOL
REMARK 922        TOTAL FREE ENERGY PREDICTED BY IDOCK:   -8.79 KCAL/MOL
REMARK 923 INTER-LIGAND FREE ENERGY PREDICTED BY IDOCK:   -7.25 KCAL/MOL
REMARK 924 INTRA-LIGAND FREE ENERGY PREDICTED BY IDOCK:   -1.54 KCAL/MOL
REMARK 927      BINDING AFFINITY PREDICTED BY RF-SCORE:    0.00 PKD
ROOT
HETATM    1  C   UNL     1     -12.730  15.916  73.932  1.00  0.00    -0.727 C  
HETATM    2  C   UNL     1     -13.269  15.093  72.777  1.00  0.00    -0.577 C  
ENDROOT
BRANCH   2   3
HETATM    3  C   UNL     1     -12.802  15.654  71.436  1.00  0.00    -0.546 C  
BRANCH   3   4
HETATM    4  C   UNL     1     -12.376  14.536  70.490  1.00  0.00    -0.403 C  
BRANCH   4   5
HETATM    5  C   UNL     1     -11.595  15.097  69.306  1.00  0.00    -0.344 C  
BRANCH   5   6
HETATM    6  C   UNL     1     -11.719  14.184  68.091  1.00  0.00    -0.390 C  
BRANCH   6   7
HETATM    7  C   UNL     1     -10.351  13.920  67.474  1.00  0.00    -0.245 C  
BRANCH   7   8
HETATM    8  C   UNL     1      -9.677  12.729  68.144  1.00  0.00    -0.223 C  
BRANCH   8   9
HETATM    9  C   UNL     1     -10.660  11.578  68.311  1.00  0.00    -0.228 C  
BRANCH   9  10
HETATM   10  C   UNL     1     -10.687  10.706  67.062  1.00  0.00    -0.317 C  
BRANCH  10  11
HETATM   11  C   UNL     1     -10.463   9.240  67.422  1.00  0.00    -0.340 C  
BRANCH  11  12
HETATM   12  C   UNL     1      -9.112   9.054  68.098  1.00  0.00    -0.134 C  
BRANCH  12  13
HETATM   13  C   UNL     1      -9.239   8.169  69.332  1.00  0.00    -0.155 C  
BRANCH  13  14
HETATM   14  C   UNL     1      -8.878   8.950  70.591  1.00  0.00    -0.234 C  
BRANCH  14  15
HETATM   15  C   UNL     1     -10.081   9.085  71.520  1.00  0.00    -0.409 C  
BRANCH  15  16
HETATM   16  C   UNL     1     -11.314   8.427  70.905  1.00  0.00    -0.298 C  
BRANCH  16  17
HETATM   17  C   UNL     1     -12.401   8.201  71.950  1.00  0.00    -0.371 C  
HETATM   18  C   UNL     1     -13.372   9.358  72.006  1.00  0.00    -0.450 C  
HETATM   19  O   UNL     1     -13.319  10.362  71.315  1.00  0.00    -0.343 OA 
HETATM   20  O   UNL     1     -14.341   9.167  72.932  1.00  0.00    -0.519 OA 
ENDBRANCH  16  17
ENDBRANCH  15  16
ENDBRANCH  14  15
ENDBRANCH  13  14
ENDBRANCH  12  13
ENDBRANCH  11  12
ENDBRANCH  10  11
ENDBRANCH   9  10
ENDBRANCH   8   9
ENDBRANCH   7   8
ENDBRANCH   6   7
ENDBRANCH   5   6
ENDBRANCH   4   5
ENDBRANCH   3   4
ENDBRANCH   2   3
TORSDOF 15
ENDMDL
MODEL      157
REMARK 921   NORMALIZED FREE ENERGY PREDICTED BY IDOCK:   -3.72 KCAL/MOL
REMARK 922        TOTAL FREE ENERGY PREDICTED BY IDOCK:   -8.78 KCAL/MOL
REMARK 923 INTER-LIGAND FREE ENERGY PREDICTED BY IDOCK:   -6.86 KCAL/MOL
REMARK 924 INTRA-LIGAND FREE ENERGY PREDICTED BY IDOCK:   -1.92 KCAL/MOL
REMARK 927      BINDING AFFINITY PREDICTED BY RF-SCORE:    0.00 PKD
ROOT
HETATM    1  C   UNL     1      -8.761   6.750  70.317  1.00  0.00    -0.144 C  
HETATM    2  C   UNL     1      -9.934   6.616  71.271  1.00  0.00    -0.196 C  
ENDROOT
BRANCH   2   3
HETATM    3  C   UNL     1     -11.257   6.554  70.511  1.00  0.00    -0.401 C  
BRANCH   3   4
HETATM    4  C   UNL     1     -12.416   7.019  71.387  1.00  0.00    -0.426 C  
BRANCH   4   5
HETATM    5  C   UNL     1     -11.976   8.151  72.310  1.00  0.00    -0.434 C  
BRANCH   5   6
HETATM    6  C   UNL     1     -12.902   9.355  72.172  1.00  0.00    -0.480 C  
BRANCH   6   7
HETATM    7  C   UNL     1     -12.882   9.889  70.746  1.00  0.00    -0.290 C  
BRANCH   7   8
HETATM    8  C   UNL     1     -11.764  10.909  70.565  1.00  0.00    -0.441 C  
BRANCH   8   9
HETATM    9  C   UNL     1     -10.612  10.309  69.771  1.00  0.00    -0.312 C  
BRANCH   9  10
HETATM   10  C   UNL     1     -11.044  10.004  68.341  1.00  0.00    -0.236 C  
BRANCH  10  11
HETATM   11  C   UNL     1      -9.834   9.933  67.415  1.00  0.00    -0.223 C  
BRANCH  11  12
HETATM   12  C   UNL     1      -9.714  11.205  66.589  1.00  0.00    -0.224 C  
BRANCH  12  13
HETATM   13  C   UNL     1      -8.753  12.189  67.243  1.00  0.00    -0.182 C  
BRANCH  13  14
HETATM   14  C   UNL     1      -9.132  13.624  66.893  1.00  0.00    -0.249 C  
BRANCH  14  15
HETATM   15  C   UNL     1     -10.560  13.939  67.330  1.00  0.00    -0.276 C  
BRANCH  15  16
HETATM   16  C   UNL     1     -11.322  14.647  66.212  1.00  0.00    -0.347 C  
BRANCH  16  17
HETATM   17  C   UNL     1     -10.995  14.045  64.849  1.00  0.00    -0.398 C  
HETATM   18  C   UNL     1     -11.986  12.973  64.460  1.00  0.00    -0.394 C  
HETATM   19  O   UNL     1     -12.939  12.611  65.129  1.00  0.00    -0.754 OA 
HETATM   20  O   UNL     1     -11.703  12.433  63.251  1.00  0.00    -0.453 OA 
ENDBRANCH  16  17
ENDBRANCH  15  16
ENDBRANCH  14  15
ENDBRANCH  13  14
ENDBRANCH  12  13
ENDBRANCH  11  12
ENDBRANCH  10  11
ENDBRANCH   9  10
ENDBRANCH   8   9
ENDBRANCH   7   8
ENDBRANCH   6   7
ENDBRANCH   5   6
ENDBRANCH   4   5
ENDBRANCH   3   4
ENDBRANCH   2   3
TORSDOF 15
ENDMDL
MODEL      158
REMARK 921   NORMALIZED FREE ENERGY PREDICTED BY IDOCK:   -3.72 KCAL/MOL
REMARK 922        TOTAL FREE ENERGY PREDICTED BY IDOCK:   -8.78 KCAL/MOL
REMARK 923 INTER-LIGAND FREE ENERGY PREDICTED BY IDOCK:   -7.71 KCAL/MOL
REMARK 924 INTRA-LIGAND FREE ENERGY PREDICTED BY IDOCK:   -1.07 KCAL/MOL
REMARK 927      BINDING AFFINITY PREDICTED BY RF-SCORE:    0.00 PKD
ROOT
HETATM    1  C   UNL     1     -10.321   4.022  73.968  1.00  0.00    -0.249 C  
HETATM    2  C   UNL     1      -9.800   3.217  72.790  1.00  0.00    -0.201 C  
ENDROOT
BRANCH   2   3
HETATM    3  C   UNL     1     -10.074   3.933  71.470  1.00  0.00    -0.148 C  
BRANCH   3   4
HETATM    4  C   UNL     1     -10.052   5.447  71.651  1.00  0.00    -0.259 C  
BRANCH   4   5
HETATM    5  C   UNL     1     -10.806   6.139  70.519  1.00  0.00    -0.364 C  
BRANCH   5   6
HETATM    6  C   UNL     1     -12.052   6.842  71.045  1.00  0.00    -0.429 C  
BRANCH   6   7
HETATM    7  C   UNL     1     -11.704   7.745  72.223  1.00  0.00    -0.390 C  
BRANCH   7   8
HETATM    8  C   UNL     1     -11.525   9.187  71.764  1.00  0.00    -0.452 C  
BRANCH   8   9
HETATM    9  C   UNL     1     -12.843   9.757  71.256  1.00  0.00    -0.472 C  
BRANCH   9  10
HETATM   10  C   UNL     1     -12.673  11.211  70.830  1.00  0.00    -0.438 C  
BRANCH  10  11
HETATM   11  C   UNL     1     -13.156  12.155  71.927  1.00  0.00    -0.475 C  
BRANCH  11  12
HETATM   12  C   UNL     1     -12.932  13.605  71.524  1.00  0.00    -0.443 C  
BRANCH  12  13
HETATM   13  C   UNL     1     -12.316  13.693  70.133  1.00  0.00    -0.372 C  
BRANCH  13  14
HETATM   14  C   UNL     1     -11.843  15.114  69.845  1.00  0.00    -0.363 C  
BRANCH  14  15
HETATM   15  C   UNL     1     -11.441  15.275  68.382  1.00  0.00    -0.358 C  
BRANCH  15  16
HETATM   16  C   UNL     1     -11.537  13.940  67.646  1.00  0.00    -0.381 C  
BRANCH  16  17
HETATM   17  C   UNL     1     -12.319  14.081  66.343  1.00  0.00    -0.468 C  
HETATM   18  C   UNL     1     -12.130  12.880  65.446  1.00  0.00    -0.454 C  
HETATM   19  O   UNL     1     -11.444  11.903  65.702  1.00  0.00    -0.322 OA 
HETATM   20  O   UNL     1     -12.820  12.995  64.287  1.00  0.00    -0.671 OA 
ENDBRANCH  16  17
ENDBRANCH  15  16
ENDBRANCH  14  15
ENDBRANCH  13  14
ENDBRANCH  12  13
ENDBRANCH  11  12
ENDBRANCH  10  11
ENDBRANCH   9  10
ENDBRANCH   8   9
ENDBRANCH   7   8
ENDBRANCH   6   7
ENDBRANCH   5   6
ENDBRANCH   4   5
ENDBRANCH   3   4
ENDBRANCH   2   3
TORSDOF 15
ENDMDL
MODEL      159
REMARK 921   NORMALIZED FREE ENERGY PREDICTED BY IDOCK:   -3.72 KCAL/MOL
REMARK 922        TOTAL FREE ENERGY PREDICTED BY IDOCK:   -8.78 KCAL/MOL
REMARK 923 INTER-LIGAND FREE ENERGY PREDICTED BY IDOCK:   -6.16 KCAL/MOL
REMARK 924 INTRA-LIGAND FREE ENERGY PREDICTED BY IDOCK:   -2.62 KCAL/MOL
REMARK 927      BINDING AFFINITY PREDICTED BY RF-SCORE:    0.00 PKD
ROOT
HETATM    1  C   UNL     1     -12.082  12.305  64.864  1.00  0.00    -0.422 C  
HETATM    2  C   UNL     1     -11.731  13.547  64.064  1.00  0.00    -0.440 C  
ENDROOT
BRANCH   2   3
HETATM    3  C   UNL     1     -12.046  14.816  64.852  1.00  0.00    -0.335 C  
BRANCH   3   4
HETATM    4  C   UNL     1     -10.865  15.781  64.834  1.00  0.00    -0.433 C  
BRANCH   4   5
HETATM    5  C   UNL     1     -10.250  15.909  66.224  1.00  0.00    -0.324 C  
BRANCH   5   6
HETATM    6  C   UNL     1     -10.174  17.371  66.652  1.00  0.00    -0.324 C  
BRANCH   6   7
HETATM    7  C   UNL     1     -10.501  17.516  68.132  1.00  0.00    -0.386 C  
BRANCH   7   8
HETATM    8  C   UNL     1     -11.193  16.264  68.659  1.00  0.00    -0.354 C  
BRANCH   8   9
HETATM    9  C   UNL     1     -11.087  16.190  70.176  1.00  0.00    -0.373 C  
BRANCH   9  10
HETATM   10  C   UNL     1     -11.664  14.877  70.693  1.00  0.00    -0.357 C  
BRANCH  10  11
HETATM   11  C   UNL     1     -12.230  14.047  69.545  1.00  0.00    -0.355 C  
BRANCH  11  12
HETATM   12  C   UNL     1     -11.896  12.574  69.732  1.00  0.00    -0.380 C  
BRANCH  12  13
HETATM   13  C   UNL     1     -11.601  11.911  68.392  1.00  0.00    -0.376 C  
BRANCH  13  14
HETATM   14  C   UNL     1     -10.106  11.652  68.239  1.00  0.00    -0.206 C  
BRANCH  14  15
HETATM   15  C   UNL     1      -9.418  12.809  67.520  1.00  0.00    -0.187 C  
BRANCH  15  16
HETATM   16  C   UNL     1      -8.071  13.123  68.168  1.00  0.00    -0.155 C  
BRANCH  16  17
HETATM   17  C   UNL     1      -8.066  14.517  68.788  1.00  0.00    -0.146 C  
HETATM   18  C   UNL     1      -7.008  15.400  68.167  1.00  0.00    -0.124 C  
HETATM   19  O   UNL     1      -6.238  15.069  67.280  1.00  0.00    -0.315 OA 
HETATM   20  O   UNL     1      -6.996  16.640  68.711  1.00  0.00    -0.163 OA 
ENDBRANCH  16  17
ENDBRANCH  15  16
ENDBRANCH  14  15
ENDBRANCH  13  14
ENDBRANCH  12  13
ENDBRANCH  11  12
ENDBRANCH  10  11
ENDBRANCH   9  10
ENDBRANCH   8   9
ENDBRANCH   7   8
ENDBRANCH   6   7
ENDBRANCH   5   6
ENDBRANCH   4   5
ENDBRANCH   3   4
ENDBRANCH   2   3
TORSDOF 15
ENDMDL
MODEL      160
REMARK 921   NORMALIZED FREE ENERGY PREDICTED BY IDOCK:   -3.72 KCAL/MOL
REMARK 922        TOTAL FREE ENERGY PREDICTED BY IDOCK:   -8.77 KCAL/MOL
REMARK 923 INTER-LIGAND FREE ENERGY PREDICTED BY IDOCK:   -7.37 KCAL/MOL
REMARK 924 INTRA-LIGAND FREE ENERGY PREDICTED BY IDOCK:   -1.40 KCAL/MOL
REMARK 927      BINDING AFFINITY PREDICTED BY RF-SCORE:    0.00 PKD
ROOT
HETATM    1  C   UNL     1      -9.631   7.896  69.218  1.00  0.00    -0.157 C  
HETATM    2  C   UNL     1     -10.799   7.016  68.812  1.00  0.00    -0.198 C  
ENDROOT
BRANCH   2   3
HETATM    3  C   UNL     1     -11.345   6.239  70.007  1.00  0.00    -0.486 C  
BRANCH   3   4
HETATM    4  C   UNL     1     -11.274   7.072  71.283  1.00  0.00    -0.296 C  
BRANCH   4   5
HETATM    5  C   UNL     1     -12.484   7.995  71.394  1.00  0.00    -0.320 C  
BRANCH   5   6
HETATM    6  C   UNL     1     -12.056   9.409  71.773  1.00  0.00    -0.454 C  
BRANCH   6   7
HETATM    7  C   UNL     1     -12.714  10.434  70.858  1.00  0.00    -0.477 C  
BRANCH   7   8
HETATM    8  C   UNL     1     -11.663  11.260  70.127  1.00  0.00    -0.429 C  
BRANCH   8   9
HETATM    9  C   UNL     1     -12.048  12.734  70.119  1.00  0.00    -0.370 C  
BRANCH   9  10
HETATM   10  C   UNL     1     -11.489  13.430  68.884  1.00  0.00    -0.347 C  
BRANCH  10  11
HETATM   11  C   UNL     1     -11.051  12.408  67.840  1.00  0.00    -0.283 C  
BRANCH  11  12
HETATM   12  C   UNL     1     -11.747  12.667  66.511  1.00  0.00    -0.463 C  
BRANCH  12  13
HETATM   13  C   UNL     1     -12.087  14.143  66.354  1.00  0.00    -0.475 C  
BRANCH  13  14
HETATM   14  C   UNL     1     -11.619  14.661  64.998  1.00  0.00    -0.385 C  
BRANCH  14  15
HETATM   15  C   UNL     1     -10.415  15.587  65.148  1.00  0.00    -0.431 C  
BRANCH  15  16
HETATM   16  C   UNL     1     -10.481  16.350  66.469  1.00  0.00    -0.282 C  
BRANCH  16  17
HETATM   17  C   UNL     1     -10.460  17.858  66.240  1.00  0.00    -0.320 C  
HETATM   18  C   UNL     1     -10.345  18.619  67.540  1.00  0.00    -0.411 C  
HETATM   19  O   UNL     1     -10.277  18.119  68.651  1.00  0.00    -0.378 OA 
HETATM   20  O   UNL     1     -10.325  19.959  67.347  1.00  0.00    -0.412 OA 
ENDBRANCH  16  17
ENDBRANCH  15  16
ENDBRANCH  14  15
ENDBRANCH  13  14
ENDBRANCH  12  13
ENDBRANCH  11  12
ENDBRANCH  10  11
ENDBRANCH   9  10
ENDBRANCH   8   9
ENDBRANCH   7   8
ENDBRANCH   6   7
ENDBRANCH   5   6
ENDBRANCH   4   5
ENDBRANCH   3   4
ENDBRANCH   2   3
TORSDOF 15
ENDMDL
MODEL      161
REMARK 921   NORMALIZED FREE ENERGY PREDICTED BY IDOCK:   -3.71 KCAL/MOL
REMARK 922        TOTAL FREE ENERGY PREDICTED BY IDOCK:   -8.75 KCAL/MOL
REMARK 923 INTER-LIGAND FREE ENERGY PREDICTED BY IDOCK:   -6.71 KCAL/MOL
REMARK 924 INTRA-LIGAND FREE ENERGY PREDICTED BY IDOCK:   -2.04 KCAL/MOL
REMARK 927      BINDING AFFINITY PREDICTED BY RF-SCORE:    0.00 PKD
ROOT
HETATM    1  C   UNL     1      -8.316   4.388  66.943  1.00  0.00    -0.101 C  
HETATM    2  C   UNL     1      -9.295   5.314  66.244  1.00  0.00    -0.159 C  
ENDROOT
BRANCH   2   3
HETATM    3  C   UNL     1     -10.588   5.453  67.044  1.00  0.00    -0.298 C  
BRANCH   3   4
HETATM    4  C   UNL     1     -11.010   6.915  67.156  1.00  0.00    -0.427 C  
BRANCH   4   5
HETATM    5  C   UNL     1      -9.847   7.841  66.814  1.00  0.00    -0.312 C  
BRANCH   5   6
HETATM    6  C   UNL     1      -9.385   8.611  68.046  1.00  0.00    -0.147 C  
BRANCH   6   7
HETATM    7  C   UNL     1      -8.212   7.905  68.714  1.00  0.00    -0.127 C  
BRANCH   7   8
HETATM    8  C   UNL     1      -8.689   7.051  69.882  1.00  0.00    -0.142 C  
BRANCH   8   9
HETATM    9  C   UNL     1      -9.485   7.891  70.872  1.00  0.00    -0.167 C  
BRANCH   9  10
HETATM   10  C   UNL     1     -10.863   7.284  71.108  1.00  0.00    -0.260 C  
BRANCH  10  11
HETATM   11  C   UNL     1     -11.938   8.366  71.097  1.00  0.00    -0.301 C  
BRANCH  11  12
HETATM   12  C   UNL     1     -11.306   9.751  71.065  1.00  0.00    -0.460 C  
BRANCH  12  13
HETATM   13  C   UNL     1     -11.937  10.611  69.978  1.00  0.00    -0.408 C  
BRANCH  13  14
HETATM   14  C   UNL     1     -12.308  11.984  70.529  1.00  0.00    -0.369 C  
BRANCH  14  15
HETATM   15  C   UNL     1     -13.051  11.864  71.856  1.00  0.00    -0.474 C  
BRANCH  15  16
HETATM   16  C   UNL     1     -13.736  13.181  72.213  1.00  0.00    -0.647 C  
BRANCH  16  17
HETATM   17  C   UNL     1     -12.722  14.231  72.657  1.00  0.00    -0.396 C  
HETATM   18  C   UNL     1     -12.830  15.494  71.834  1.00  0.00    -0.427 C  
HETATM   19  O   UNL     1     -13.617  15.682  70.922  1.00  0.00    -0.568 OA 
HETATM   20  O   UNL     1     -11.933  16.432  72.221  1.00  0.00    -0.524 OA 
ENDBRANCH  16  17
ENDBRANCH  15  16
ENDBRANCH  14  15
ENDBRANCH  13  14
ENDBRANCH  12  13
ENDBRANCH  11  12
ENDBRANCH  10  11
ENDBRANCH   9  10
ENDBRANCH   8   9
ENDBRANCH   7   8
ENDBRANCH   6   7
ENDBRANCH   5   6
ENDBRANCH   4   5
ENDBRANCH   3   4
ENDBRANCH   2   3
TORSDOF 15
ENDMDL
MODEL      162
REMARK 921   NORMALIZED FREE ENERGY PREDICTED BY IDOCK:   -3.68 KCAL/MOL
REMARK 922        TOTAL FREE ENERGY PREDICTED BY IDOCK:   -8.70 KCAL/MOL
REMARK 923 INTER-LIGAND FREE ENERGY PREDICTED BY IDOCK:   -6.94 KCAL/MOL
REMARK 924 INTRA-LIGAND FREE ENERGY PREDICTED BY IDOCK:   -1.76 KCAL/MOL
REMARK 927      BINDING AFFINITY PREDICTED BY RF-SCORE:    0.00 PKD
ROOT
HETATM    1  C   UNL     1      -9.523   5.890  69.659  1.00  0.00    -0.172 C  
HETATM    2  C   UNL     1     -10.810   6.426  70.260  1.00  0.00    -0.350 C  
ENDROOT
BRANCH   2   3
HETATM    3  C   UNL     1     -10.686   6.586  71.773  1.00  0.00    -0.262 C  
BRANCH   3   4
HETATM    4  C   UNL     1     -12.025   6.966  72.397  1.00  0.00    -0.170 C  
BRANCH   4   5
HETATM    5  C   UNL     1     -13.122   7.008  71.338  1.00  0.00    -0.375 C  
BRANCH   5   6
HETATM    6  C   UNL     1     -14.079   8.169  71.593  1.00  0.00    -0.504 C  
BRANCH   6   7
HETATM    7  C   UNL     1     -13.308   9.435  71.942  1.00  0.00    -0.508 C  
BRANCH   7   8
HETATM    8  C   UNL     1     -12.774  10.107  70.682  1.00  0.00    -0.334 C  
BRANCH   8   9
HETATM    9  C   UNL     1     -11.306  10.476  70.852  1.00  0.00    -0.200 C  
BRANCH   9  10
HETATM   10  C   UNL     1     -10.499  10.054  69.630  1.00  0.00    -0.275 C  
BRANCH  10  11
HETATM   11  C   UNL     1     -10.940  10.834  68.396  1.00  0.00    -0.299 C  
BRANCH  11  12
HETATM   12  C   UNL     1      -9.733  11.312  67.602  1.00  0.00    -0.183 C  
BRANCH  12  13
HETATM   13  C   UNL     1      -9.689  12.833  67.542  1.00  0.00    -0.201 C  
BRANCH  13  14
HETATM   14  C   UNL     1     -10.941  13.431  68.175  1.00  0.00    -0.277 C  
BRANCH  14  15
HETATM   15  C   UNL     1     -11.621  14.416  67.227  1.00  0.00    -0.401 C  
BRANCH  15  16
HETATM   16  C   UNL     1     -10.611  15.003  66.244  1.00  0.00    -0.309 C  
BRANCH  16  17
HETATM   17  C   UNL     1     -10.255  16.441  66.608  1.00  0.00    -0.296 C  
HETATM   18  C   UNL     1     -10.638  17.406  65.510  1.00  0.00    -0.108 C  
HETATM   19  O   UNL     1     -11.167  17.105  64.453  1.00  0.00    -1.143 OA 
HETATM   20  O   UNL     1     -10.326  18.686  65.824  1.00  0.00    -0.573 OA 
ENDBRANCH  16  17
ENDBRANCH  15  16
ENDBRANCH  14  15
ENDBRANCH  13  14
ENDBRANCH  12  13
ENDBRANCH  11  12
ENDBRANCH  10  11
ENDBRANCH   9  10
ENDBRANCH   8   9
ENDBRANCH   7   8
ENDBRANCH   6   7
ENDBRANCH   5   6
ENDBRANCH   4   5
ENDBRANCH   3   4
ENDBRANCH   2   3
TORSDOF 15
ENDMDL
MODEL      163
REMARK 921   NORMALIZED FREE ENERGY PREDICTED BY IDOCK:   -3.68 KCAL/MOL
REMARK 922        TOTAL FREE ENERGY PREDICTED BY IDOCK:   -8.70 KCAL/MOL
REMARK 923 INTER-LIGAND FREE ENERGY PREDICTED BY IDOCK:   -6.81 KCAL/MOL
REMARK 924 INTRA-LIGAND FREE ENERGY PREDICTED BY IDOCK:   -1.88 KCAL/MOL
REMARK 927      BINDING AFFINITY PREDICTED BY RF-SCORE:    0.00 PKD
ROOT
HETATM    1  C   UNL     1     -10.493   8.376  71.398  1.00  0.00    -0.286 C  
HETATM    2  C   UNL     1     -10.315   9.661  70.611  1.00  0.00    -0.365 C  
ENDROOT
BRANCH   2   3
HETATM    3  C   UNL     1     -10.740   9.479  69.156  1.00  0.00    -0.228 C  
BRANCH   3   4
HETATM    4  C   UNL     1     -11.273  10.784  68.572  1.00  0.00    -0.340 C  
BRANCH   4   5
HETATM    5  C   UNL     1     -10.230  11.440  67.673  1.00  0.00    -0.204 C  
BRANCH   5   6
HETATM    6  C   UNL     1      -9.309  10.393  67.055  1.00  0.00    -0.176 C  
BRANCH   6   7
HETATM    7  C   UNL     1      -9.824   9.963  65.688  1.00  0.00    -0.368 C  
BRANCH   7   8
HETATM    8  C   UNL     1      -9.514  11.021  64.636  1.00  0.00    -0.270 C  
BRANCH   8   9
HETATM    9  C   UNL     1     -10.554  10.994  63.524  1.00  0.00    -0.303 C  
BRANCH   9  10
HETATM   10  C   UNL     1     -11.303  12.320  63.455  1.00  0.00    -0.508 C  
BRANCH  10  11
HETATM   11  C   UNL     1     -12.398  12.378  64.515  1.00  0.00    -0.519 C  
BRANCH  11  12
HETATM   12  C   UNL     1     -12.299  13.666  65.320  1.00  0.00    -0.498 C  
BRANCH  12  13
HETATM   13  C   UNL     1     -10.896  14.255  65.231  1.00  0.00    -0.363 C  
BRANCH  13  14
HETATM   14  C   UNL     1     -10.958  15.736  64.875  1.00  0.00    -0.443 C  
BRANCH  14  15
HETATM   15  C   UNL     1     -10.207  16.581  65.901  1.00  0.00    -0.368 C  
BRANCH  15  16
HETATM   16  C   UNL     1     -10.042  15.817  67.213  1.00  0.00    -0.247 C  
BRANCH  16  17
HETATM   17  C   UNL     1     -10.887  16.433  68.324  1.00  0.00    -0.347 C  
HETATM   18  C   UNL     1     -11.776  15.406  68.985  1.00  0.00    -0.361 C  
HETATM   19  O   UNL     1     -11.835  14.223  68.691  1.00  0.00    -0.323 OA 
HETATM   20  O   UNL     1     -12.529  15.944  69.973  1.00  0.00    -0.296 OA 
ENDBRANCH  16  17
ENDBRANCH  15  16
ENDBRANCH  14  15
ENDBRANCH  13  14
ENDBRANCH  12  13
ENDBRANCH  11  12
ENDBRANCH  10  11
ENDBRANCH   9  10
ENDBRANCH   8   9
ENDBRANCH   7   8
ENDBRANCH   6   7
ENDBRANCH   5   6
ENDBRANCH   4   5
ENDBRANCH   3   4
ENDBRANCH   2   3
TORSDOF 15
ENDMDL
MODEL      164
REMARK 921   NORMALIZED FREE ENERGY PREDICTED BY IDOCK:   -3.65 KCAL/MOL
REMARK 922        TOTAL FREE ENERGY PREDICTED BY IDOCK:   -8.66 KCAL/MOL
REMARK 923 INTER-LIGAND FREE ENERGY PREDICTED BY IDOCK:   -7.33 KCAL/MOL
REMARK 924 INTRA-LIGAND FREE ENERGY PREDICTED BY IDOCK:   -1.33 KCAL/MOL
REMARK 927      BINDING AFFINITY PREDICTED BY RF-SCORE:    0.00 PKD
ROOT
HETATM    1  C   UNL     1     -10.650   9.463  67.559  1.00  0.00    -0.333 C  
HETATM    2  C   UNL     1      -9.343   9.248  68.301  1.00  0.00    -0.141 C  
ENDROOT
BRANCH   2   3
HETATM    3  C   UNL     1      -9.544   9.354  69.811  1.00  0.00    -0.216 C  
BRANCH   3   4
HETATM    4  C   UNL     1     -10.414   8.214  70.331  1.00  0.00    -0.217 C  
BRANCH   4   5
HETATM    5  C   UNL     1     -11.560   8.752  71.182  1.00  0.00    -0.344 C  
BRANCH   5   6
HETATM    6  C   UNL     1     -11.594  10.277  71.146  1.00  0.00    -0.385 C  
BRANCH   6   7
HETATM    7  C   UNL     1     -13.022  10.787  71.286  1.00  0.00    -0.502 C  
BRANCH   7   8
HETATM    8  C   UNL     1     -13.072  12.015  72.187  1.00  0.00    -0.352 C  
BRANCH   8   9
HETATM    9  C   UNL     1     -13.519  13.241  71.401  1.00  0.00    -0.149 C  
BRANCH   9  10
HETATM   10  C   UNL     1     -12.335  14.155  71.108  1.00  0.00    -0.447 C  
BRANCH  10  11
HETATM   11  C   UNL     1     -12.318  14.559  69.637  1.00  0.00    -0.284 C  
BRANCH  11  12
HETATM   12  C   UNL     1     -11.704  15.942  69.468  1.00  0.00    -0.331 C  
BRANCH  12  13
HETATM   13  C   UNL     1     -10.220  15.923  69.811  1.00  0.00    -0.268 C  
BRANCH  13  14
HETATM   14  C   UNL     1      -9.386  16.364  68.613  1.00  0.00    -0.233 C  
BRANCH  14  15
HETATM   15  C   UNL     1     -10.229  17.151  67.614  1.00  0.00    -0.329 C  
BRANCH  15  16
HETATM   16  C   UNL     1      -9.997  16.642  66.193  1.00  0.00    -0.356 C  
BRANCH  16  17
HETATM   17  C   UNL     1     -10.901  15.456  65.874  1.00  0.00    -0.328 C  
HETATM   18  C   UNL     1     -11.653  15.659  64.579  1.00  0.00    -0.262 C  
HETATM   19  O   UNL     1     -11.569  16.638  63.856  1.00  0.00    -1.204 OA 
HETATM   20  O   UNL     1     -12.459  14.611  64.288  1.00  0.00    -0.648 OA 
ENDBRANCH  16  17
ENDBRANCH  15  16
ENDBRANCH  14  15
ENDBRANCH  13  14
ENDBRANCH  12  13
ENDBRANCH  11  12
ENDBRANCH  10  11
ENDBRANCH   9  10
ENDBRANCH   8   9
ENDBRANCH   7   8
ENDBRANCH   6   7
ENDBRANCH   5   6
ENDBRANCH   4   5
ENDBRANCH   3   4
ENDBRANCH   2   3
TORSDOF 15
ENDMDL
MODEL      165
REMARK 921   NORMALIZED FREE ENERGY PREDICTED BY IDOCK:   -3.65 KCAL/MOL
REMARK 922        TOTAL FREE ENERGY PREDICTED BY IDOCK:   -8.65 KCAL/MOL
REMARK 923 INTER-LIGAND FREE ENERGY PREDICTED BY IDOCK:   -6.14 KCAL/MOL
REMARK 924 INTRA-LIGAND FREE ENERGY PREDICTED BY IDOCK:   -2.51 KCAL/MOL
REMARK 927      BINDING AFFINITY PREDICTED BY RF-SCORE:    0.00 PKD
ROOT
HETATM    1  C   UNL     1      -5.611  10.455  68.484  1.00  0.00    -0.037 C  
HETATM    2  C   UNL     1      -6.789  11.342  68.844  1.00  0.00    -0.089 C  
ENDROOT
BRANCH   2   3
HETATM    3  C   UNL     1      -6.871  12.551  67.915  1.00  0.00    -0.105 C  
BRANCH   3   4
HETATM    4  C   UNL     1      -8.214  12.601  67.194  1.00  0.00    -0.159 C  
BRANCH   4   5
HETATM    5  C   UNL     1      -9.334  12.103  68.103  1.00  0.00    -0.204 C  
BRANCH   5   6
HETATM    6  C   UNL     1     -10.268  11.162  67.349  1.00  0.00    -0.221 C  
BRANCH   6   7
HETATM    7  C   UNL     1      -9.472  10.191  66.486  1.00  0.00    -0.214 C  
BRANCH   7   8
HETATM    8  C   UNL     1     -10.099  10.057  65.104  1.00  0.00    -0.268 C  
BRANCH   8   9
HETATM    9  C   UNL     1      -9.193  10.663  64.041  1.00  0.00    -0.269 C  
BRANCH   9  10
HETATM   10  C   UNL     1      -9.897  11.806  63.319  1.00  0.00    -0.402 C  
BRANCH  10  11
HETATM   11  C   UNL     1     -11.395  11.783  63.605  1.00  0.00    -0.525 C  
BRANCH  11  12
HETATM   12  C   UNL     1     -11.925  13.196  63.802  1.00  0.00    -0.572 C  
BRANCH  12  13
HETATM   13  C   UNL     1     -11.193  13.897  64.939  1.00  0.00    -0.356 C  
BRANCH  13  14
HETATM   14  C   UNL     1     -12.185  14.456  65.953  1.00  0.00    -0.354 C  
BRANCH  14  15
HETATM   15  C   UNL     1     -11.500  14.767  67.281  1.00  0.00    -0.378 C  
BRANCH  15  16
HETATM   16  C   UNL     1     -10.253  15.619  67.058  1.00  0.00    -0.274 C  
BRANCH  16  17
HETATM   17  C   UNL     1     -10.435  17.026  67.618  1.00  0.00    -0.343 C  
HETATM   18  C   UNL     1     -10.634  18.043  66.518  1.00  0.00    -0.253 C  
HETATM   19  O   UNL     1     -10.651  17.801  65.322  1.00  0.00    -0.651 OA 
HETATM   20  O   UNL     1     -10.797  19.296  67.005  1.00  0.00    -0.464 OA 
ENDBRANCH  16  17
ENDBRANCH  15  16
ENDBRANCH  14  15
ENDBRANCH  13  14
ENDBRANCH  12  13
ENDBRANCH  11  12
ENDBRANCH  10  11
ENDBRANCH   9  10
ENDBRANCH   8   9
ENDBRANCH   7   8
ENDBRANCH   6   7
ENDBRANCH   5   6
ENDBRANCH   4   5
ENDBRANCH   3   4
ENDBRANCH   2   3
TORSDOF 15
ENDMDL
MODEL      166
REMARK 921   NORMALIZED FREE ENERGY PREDICTED BY IDOCK:   -3.64 KCAL/MOL
REMARK 922        TOTAL FREE ENERGY PREDICTED BY IDOCK:   -8.63 KCAL/MOL
REMARK 923 INTER-LIGAND FREE ENERGY PREDICTED BY IDOCK:   -7.22 KCAL/MOL
REMARK 924 INTRA-LIGAND FREE ENERGY PREDICTED BY IDOCK:   -1.42 KCAL/MOL
REMARK 927      BINDING AFFINITY PREDICTED BY RF-SCORE:    0.00 PKD
ROOT
HETATM    1  C   UNL     1     -12.281  13.327  64.626  1.00  0.00    -0.460 C  
HETATM    2  C   UNL     1     -12.206  12.182  63.633  1.00  0.00    -0.663 C  
ENDROOT
BRANCH   2   3
HETATM    3  C   UNL     1     -10.880  11.435  63.754  1.00  0.00    -0.468 C  
BRANCH   3   4
HETATM    4  C   UNL     1     -10.441  11.328  65.211  1.00  0.00    -0.341 C  
BRANCH   4   5
HETATM    5  C   UNL     1      -9.864   9.946  65.502  1.00  0.00    -0.381 C  
BRANCH   5   6
HETATM    6  C   UNL     1     -10.319   9.443  66.868  1.00  0.00    -0.308 C  
BRANCH   6   7
HETATM    7  C   UNL     1     -11.119  10.515  67.597  1.00  0.00    -0.375 C  
BRANCH   7   8
HETATM    8  C   UNL     1     -10.920  10.407  69.104  1.00  0.00    -0.285 C  
BRANCH   8   9
HETATM    9  C   UNL     1     -11.893  11.318  69.841  1.00  0.00    -0.436 C  
BRANCH   9  10
HETATM   10  C   UNL     1     -12.491  10.604  71.047  1.00  0.00    -0.515 C  
BRANCH  10  11
HETATM   11  C   UNL     1     -11.505   9.591  71.619  1.00  0.00    -0.433 C  
BRANCH  11  12
HETATM   12  C   UNL     1     -12.212   8.286  71.958  1.00  0.00    -0.398 C  
BRANCH  12  13
HETATM   13  C   UNL     1     -11.215   7.233  72.423  1.00  0.00    -0.321 C  
BRANCH  13  14
HETATM   14  C   UNL     1     -11.125   6.095  71.411  1.00  0.00    -0.346 C  
BRANCH  14  15
HETATM   15  C   UNL     1     -11.640   6.532  70.043  1.00  0.00    -0.455 C  
BRANCH  15  16
HETATM   16  C   UNL     1     -10.659   6.130  68.944  1.00  0.00    -0.335 C  
BRANCH  16  17
HETATM   17  C   UNL     1      -9.780   4.964  69.385  1.00  0.00    -0.261 C  
HETATM   18  C   UNL     1      -9.436   4.055  68.227  1.00  0.00    -0.156 C  
HETATM   19  O   UNL     1      -9.800   4.207  67.073  1.00  0.00    -0.212 OA 
HETATM   20  O   UNL     1      -8.655   3.017  68.610  1.00  0.00    -0.069 OA 
ENDBRANCH  16  17
ENDBRANCH  15  16
ENDBRANCH  14  15
ENDBRANCH  13  14
ENDBRANCH  12  13
ENDBRANCH  11  12
ENDBRANCH  10  11
ENDBRANCH   9  10
ENDBRANCH   8   9
ENDBRANCH   7   8
ENDBRANCH   6   7
ENDBRANCH   5   6
ENDBRANCH   4   5
ENDBRANCH   3   4
ENDBRANCH   2   3
TORSDOF 15
ENDMDL
MODEL      167
REMARK 921   NORMALIZED FREE ENERGY PREDICTED BY IDOCK:   -3.64 KCAL/MOL
REMARK 922        TOTAL FREE ENERGY PREDICTED BY IDOCK:   -8.63 KCAL/MOL
REMARK 923 INTER-LIGAND FREE ENERGY PREDICTED BY IDOCK:   -7.50 KCAL/MOL
REMARK 924 INTRA-LIGAND FREE ENERGY PREDICTED BY IDOCK:   -1.13 KCAL/MOL
REMARK 927      BINDING AFFINITY PREDICTED BY RF-SCORE:    0.00 PKD
ROOT
HETATM    1  C   UNL     1     -10.364   4.041  73.713  1.00  0.00    -0.240 C  
HETATM    2  C   UNL     1      -9.989   3.235  72.483  1.00  0.00    -0.227 C  
ENDROOT
BRANCH   2   3
HETATM    3  C   UNL     1      -9.758   4.144  71.279  1.00  0.00    -0.255 C  
BRANCH   3   4
HETATM    4  C   UNL     1     -10.094   5.594  71.612  1.00  0.00    -0.245 C  
BRANCH   4   5
HETATM    5  C   UNL     1     -11.247   6.094  70.748  1.00  0.00    -0.373 C  
BRANCH   5   6
HETATM    6  C   UNL     1     -12.181   6.990  71.554  1.00  0.00    -0.407 C  
BRANCH   6   7
HETATM    7  C   UNL     1     -11.387   8.008  72.362  1.00  0.00    -0.443 C  
BRANCH   7   8
HETATM    8  C   UNL     1     -11.030   9.218  71.507  1.00  0.00    -0.446 C  
BRANCH   8   9
HETATM    9  C   UNL     1     -12.197  10.194  71.442  1.00  0.00    -0.492 C  
BRANCH   9  10
HETATM   10  C   UNL     1     -12.488  10.592  70.000  1.00  0.00    -0.294 C  
BRANCH  10  11
HETATM   11  C   UNL     1     -11.908  11.970  69.693  1.00  0.00    -0.401 C  
BRANCH  11  12
HETATM   12  C   UNL     1     -12.029  12.284  68.209  1.00  0.00    -0.259 C  
BRANCH  12  13
HETATM   13  C   UNL     1     -11.349  11.210  67.369  1.00  0.00    -0.329 C  
BRANCH  13  14
HETATM   14  C   UNL     1     -10.217  11.812  66.542  1.00  0.00    -0.240 C  
BRANCH  14  15
HETATM   15  C   UNL     1      -9.862  10.915  65.360  1.00  0.00    -0.308 C  
BRANCH  15  16
HETATM   16  C   UNL     1     -10.665  11.309  64.123  1.00  0.00    -0.436 C  
BRANCH  16  17
HETATM   17  C   UNL     1     -11.003  12.797  64.132  1.00  0.00    -0.435 C  
HETATM   18  C   UNL     1     -12.493  13.031  64.214  1.00  0.00    -0.315 C  
HETATM   19  O   UNL     1     -13.347  12.161  64.266  1.00  0.00    -0.761 OA 
HETATM   20  O   UNL     1     -12.802  14.349  64.222  1.00  0.00    -0.593 OA 
ENDBRANCH  16  17
ENDBRANCH  15  16
ENDBRANCH  14  15
ENDBRANCH  13  14
ENDBRANCH  12  13
ENDBRANCH  11  12
ENDBRANCH  10  11
ENDBRANCH   9  10
ENDBRANCH   8   9
ENDBRANCH   7   8
ENDBRANCH   6   7
ENDBRANCH   5   6
ENDBRANCH   4   5
ENDBRANCH   3   4
ENDBRANCH   2   3
TORSDOF 15
ENDMDL
MODEL      168
REMARK 921   NORMALIZED FREE ENERGY PREDICTED BY IDOCK:   -3.64 KCAL/MOL
REMARK 922        TOTAL FREE ENERGY PREDICTED BY IDOCK:   -8.62 KCAL/MOL
REMARK 923 INTER-LIGAND FREE ENERGY PREDICTED BY IDOCK:   -6.49 KCAL/MOL
REMARK 924 INTRA-LIGAND FREE ENERGY PREDICTED BY IDOCK:   -2.13 KCAL/MOL
REMARK 927      BINDING AFFINITY PREDICTED BY RF-SCORE:    0.00 PKD
ROOT
HETATM    1  C   UNL     1      -9.304   7.802  66.846  1.00  0.00    -0.212 C  
HETATM    2  C   UNL     1     -10.764   7.414  66.994  1.00  0.00    -0.389 C  
ENDROOT
BRANCH   2   3
HETATM    3  C   UNL     1     -10.924   6.229  67.945  1.00  0.00    -0.421 C  
BRANCH   3   4
HETATM    4  C   UNL     1     -10.316   6.534  69.309  1.00  0.00    -0.237 C  
BRANCH   4   5
HETATM    5  C   UNL     1     -11.396   6.954  70.302  1.00  0.00    -0.373 C  
BRANCH   5   6
HETATM    6  C   UNL     1     -11.151   8.373  70.803  1.00  0.00    -0.286 C  
BRANCH   6   7
HETATM    7  C   UNL     1      -9.744   8.835  70.446  1.00  0.00    -0.209 C  
BRANCH   7   8
HETATM    8  C   UNL     1      -9.789  10.091  69.584  1.00  0.00    -0.261 C  
BRANCH   8   9
HETATM    9  C   UNL     1     -11.199  10.666  69.547  1.00  0.00    -0.331 C  
BRANCH   9  10
HETATM   10  C   UNL     1     -11.480  11.315  68.197  1.00  0.00    -0.376 C  
BRANCH  10  11
HETATM   11  C   UNL     1     -10.179  11.706  67.504  1.00  0.00    -0.216 C  
BRANCH  11  12
HETATM   12  C   UNL     1     -10.166  11.209  66.065  1.00  0.00    -0.300 C  
BRANCH  12  13
HETATM   13  C   UNL     1     -11.398  11.695  65.312  1.00  0.00    -0.220 C  
BRANCH  13  14
HETATM   14  C   UNL     1     -11.029  12.814  64.343  1.00  0.00    -0.393 C  
BRANCH  14  15
HETATM   15  C   UNL     1     -12.034  13.959  64.415  1.00  0.00    -0.480 C  
BRANCH  15  16
HETATM   16  C   UNL     1     -11.317  15.297  64.587  1.00  0.00    -0.364 C  
BRANCH  16  17
HETATM   17  C   UNL     1     -10.082  15.154  65.471  1.00  0.00    -0.402 C  
HETATM   18  C   UNL     1      -9.540  16.499  65.895  1.00  0.00    -0.248 C  
HETATM   19  O   UNL     1     -10.008  17.582  65.585  1.00  0.00    -0.561 OA 
HETATM   20  O   UNL     1      -8.444  16.382  66.680  1.00  0.00    -0.212 OA 
ENDBRANCH  16  17
ENDBRANCH  15  16
ENDBRANCH  14  15
ENDBRANCH  13  14
ENDBRANCH  12  13
ENDBRANCH  11  12
ENDBRANCH  10  11
ENDBRANCH   9  10
ENDBRANCH   8   9
ENDBRANCH   7   8
ENDBRANCH   6   7
ENDBRANCH   5   6
ENDBRANCH   4   5
ENDBRANCH   3   4
ENDBRANCH   2   3
TORSDOF 15
ENDMDL
MODEL      169
REMARK 921   NORMALIZED FREE ENERGY PREDICTED BY IDOCK:   -3.64 KCAL/MOL
REMARK 922        TOTAL FREE ENERGY PREDICTED BY IDOCK:   -8.62 KCAL/MOL
REMARK 923 INTER-LIGAND FREE ENERGY PREDICTED BY IDOCK:   -7.26 KCAL/MOL
REMARK 924 INTRA-LIGAND FREE ENERGY PREDICTED BY IDOCK:   -1.36 KCAL/MOL
REMARK 927      BINDING AFFINITY PREDICTED BY RF-SCORE:    0.00 PKD
ROOT
HETATM    1  C   UNL     1      -9.179   7.023  70.394  1.00  0.00    -0.156 C  
HETATM    2  C   UNL     1      -9.948   8.069  71.181  1.00  0.00    -0.206 C  
ENDROOT
BRANCH   2   3
HETATM    3  C   UNL     1     -11.207   7.471  71.805  1.00  0.00    -0.281 C  
BRANCH   3   4
HETATM    4  C   UNL     1     -12.013   8.536  72.543  1.00  0.00    -0.401 C  
BRANCH   4   5
HETATM    5  C   UNL     1     -13.286   8.878  71.776  1.00  0.00    -0.436 C  
BRANCH   5   6
HETATM    6  C   UNL     1     -13.365  10.375  71.494  1.00  0.00    -0.405 C  
BRANCH   6   7
HETATM    7  C   UNL     1     -12.014  10.908  71.035  1.00  0.00    -0.375 C  
BRANCH   7   8
HETATM    8  C   UNL     1     -12.156  11.691  69.735  1.00  0.00    -0.357 C  
BRANCH   8   9
HETATM    9  C   UNL     1     -12.044  13.188  69.994  1.00  0.00    -0.375 C  
BRANCH   9  10
HETATM   10  C   UNL     1     -12.023  13.962  68.681  1.00  0.00    -0.401 C  
BRANCH  10  11
HETATM   11  C   UNL     1     -11.663  15.424  68.923  1.00  0.00    -0.377 C  
BRANCH  11  12
HETATM   12  C   UNL     1     -10.153  15.612  68.928  1.00  0.00    -0.217 C  
BRANCH  12  13
HETATM   13  C   UNL     1      -9.576  15.409  67.533  1.00  0.00    -0.206 C  
BRANCH  13  14
HETATM   14  C   UNL     1      -9.836  16.633  66.660  1.00  0.00    -0.285 C  
BRANCH  14  15
HETATM   15  C   UNL     1     -10.537  16.245  65.361  1.00  0.00    -0.371 C  
BRANCH  15  16
HETATM   16  C   UNL     1     -10.483  14.734  65.150  1.00  0.00    -0.443 C  
BRANCH  16  17
HETATM   17  C   UNL     1     -11.824  14.194  64.662  1.00  0.00    -0.443 C  
HETATM   18  C   UNL     1     -12.053  12.772  65.119  1.00  0.00    -0.450 C  
HETATM   19  O   UNL     1     -11.281  12.110  65.793  1.00  0.00    -0.314 OA 
HETATM   20  O   UNL     1     -13.242  12.284  64.691  1.00  0.00    -0.763 OA 
ENDBRANCH  16  17
ENDBRANCH  15  16
ENDBRANCH  14  15
ENDBRANCH  13  14
ENDBRANCH  12  13
ENDBRANCH  11  12
ENDBRANCH  10  11
ENDBRANCH   9  10
ENDBRANCH   8   9
ENDBRANCH   7   8
ENDBRANCH   6   7
ENDBRANCH   5   6
ENDBRANCH   4   5
ENDBRANCH   3   4
ENDBRANCH   2   3
TORSDOF 15
ENDMDL
MODEL      170
REMARK 921   NORMALIZED FREE ENERGY PREDICTED BY IDOCK:   -3.64 KCAL/MOL
REMARK 922        TOTAL FREE ENERGY PREDICTED BY IDOCK:   -8.62 KCAL/MOL
REMARK 923 INTER-LIGAND FREE ENERGY PREDICTED BY IDOCK:   -7.15 KCAL/MOL
REMARK 924 INTRA-LIGAND FREE ENERGY PREDICTED BY IDOCK:   -1.47 KCAL/MOL
REMARK 927      BINDING AFFINITY PREDICTED BY RF-SCORE:    0.00 PKD
ROOT
HETATM    1  C   UNL     1      -7.979  12.725  67.249  1.00  0.00    -0.156 C  
HETATM    2  C   UNL     1      -8.858  11.506  67.030  1.00  0.00    -0.173 C  
ENDROOT
BRANCH   2   3
HETATM    3  C   UNL     1      -9.655  11.169  68.287  1.00  0.00    -0.185 C  
BRANCH   3   4
HETATM    4  C   UNL     1      -8.970  10.069  69.093  1.00  0.00    -0.172 C  
BRANCH   4   5
HETATM    5  C   UNL     1      -9.994   9.069  69.621  1.00  0.00    -0.196 C  
BRANCH   5   6
HETATM    6  C   UNL     1     -10.613   9.562  70.925  1.00  0.00    -0.395 C  
BRANCH   6   7
HETATM    7  C   UNL     1     -12.097   9.851  70.741  1.00  0.00    -0.396 C  
BRANCH   7   8
HETATM    8  C   UNL     1     -12.364  11.351  70.778  1.00  0.00    -0.483 C  
BRANCH   8   9
HETATM    9  C   UNL     1     -13.378  11.691  71.861  1.00  0.00    -0.403 C  
BRANCH   9  10
HETATM   10  C   UNL     1     -13.369  13.185  72.160  1.00  0.00    -0.621 C  
BRANCH  10  11
HETATM   11  C   UNL     1     -12.643  13.951  71.059  1.00  0.00    -0.444 C  
BRANCH  11  12
HETATM   12  C   UNL     1     -12.174  15.307  71.567  1.00  0.00    -0.416 C  
BRANCH  12  13
HETATM   13  C   UNL     1     -11.445  16.075  70.472  1.00  0.00    -0.409 C  
BRANCH  13  14
HETATM   14  C   UNL     1     -11.340  15.233  69.205  1.00  0.00    -0.307 C  
BRANCH  14  15
HETATM   15  C   UNL     1      -9.886  15.070  68.770  1.00  0.00    -0.233 C  
BRANCH  15  16
HETATM   16  C   UNL     1      -9.559  16.013  67.615  1.00  0.00    -0.218 C  
BRANCH  16  17
HETATM   17  C   UNL     1     -10.540  15.835  66.460  1.00  0.00    -0.306 C  
HETATM   18  C   UNL     1     -10.582  17.056  65.571  1.00  0.00    -0.173 C  
HETATM   19  O   UNL     1      -9.928  18.074  65.730  1.00  0.00    -0.550 OA 
HETATM   20  O   UNL     1     -11.451  16.908  64.542  1.00  0.00    -0.911 OA 
ENDBRANCH  16  17
ENDBRANCH  15  16
ENDBRANCH  14  15
ENDBRANCH  13  14
ENDBRANCH  12  13
ENDBRANCH  11  12
ENDBRANCH  10  11
ENDBRANCH   9  10
ENDBRANCH   8   9
ENDBRANCH   7   8
ENDBRANCH   6   7
ENDBRANCH   5   6
ENDBRANCH   4   5
ENDBRANCH   3   4
ENDBRANCH   2   3
TORSDOF 15
ENDMDL
MODEL      171
REMARK 921   NORMALIZED FREE ENERGY PREDICTED BY IDOCK:   -3.62 KCAL/MOL
REMARK 922        TOTAL FREE ENERGY PREDICTED BY IDOCK:   -8.59 KCAL/MOL
REMARK 923 INTER-LIGAND FREE ENERGY PREDICTED BY IDOCK:   -7.23 KCAL/MOL
REMARK 924 INTRA-LIGAND FREE ENERGY PREDICTED BY IDOCK:   -1.36 KCAL/MOL
REMARK 927      BINDING AFFINITY PREDICTED BY RF-SCORE:    0.00 PKD
ROOT
HETATM    1  C   UNL     1     -12.268  13.433  63.561  1.00  0.00    -0.468 C  
HETATM    2  C   UNL     1     -11.863  11.972  63.640  1.00  0.00    -0.602 C  
ENDROOT
BRANCH   2   3
HETATM    3  C   UNL     1     -10.413  11.827  64.095  1.00  0.00    -0.394 C  
BRANCH   3   4
HETATM    4  C   UNL     1     -10.323  11.043  65.400  1.00  0.00    -0.330 C  
BRANCH   4   5
HETATM    5  C   UNL     1     -10.121  11.985  66.583  1.00  0.00    -0.220 C  
BRANCH   5   6
HETATM    6  C   UNL     1     -11.458  12.364  67.211  1.00  0.00    -0.421 C  
BRANCH   6   7
HETATM    7  C   UNL     1     -11.556  13.873  67.399  1.00  0.00    -0.398 C  
BRANCH   7   8
HETATM    8  C   UNL     1     -12.031  14.212  68.807  1.00  0.00    -0.367 C  
BRANCH   8   9
HETATM    9  C   UNL     1     -11.997  12.977  69.698  1.00  0.00    -0.367 C  
BRANCH   9  10
HETATM   10  C   UNL     1     -12.526  13.302  71.090  1.00  0.00    -0.397 C  
BRANCH  10  11
HETATM   11  C   UNL     1     -13.005  12.036  71.794  1.00  0.00    -0.445 C  
BRANCH  11  12
HETATM   12  C   UNL     1     -12.528  10.796  71.052  1.00  0.00    -0.522 C  
BRANCH  12  13
HETATM   13  C   UNL     1     -13.239   9.550  71.566  1.00  0.00    -0.468 C  
BRANCH  13  14
HETATM   14  C   UNL     1     -12.263   8.643  72.309  1.00  0.00    -0.447 C  
BRANCH  14  15
HETATM   15  C   UNL     1     -12.426   7.188  71.880  1.00  0.00    -0.341 C  
BRANCH  15  16
HETATM   16  C   UNL     1     -11.883   6.977  70.468  1.00  0.00    -0.337 C  
BRANCH  16  17
HETATM   17  C   UNL     1     -10.397   7.314  70.391  1.00  0.00    -0.217 C  
HETATM   18  C   UNL     1      -9.537   6.079  70.529  1.00  0.00    -0.169 C  
HETATM   19  O   UNL     1      -9.948   4.941  70.686  1.00  0.00    -0.204 OA 
HETATM   20  O   UNL     1      -8.216   6.368  70.462  1.00  0.00    -0.115 OA 
ENDBRANCH  16  17
ENDBRANCH  15  16
ENDBRANCH  14  15
ENDBRANCH  13  14
ENDBRANCH  12  13
ENDBRANCH  11  12
ENDBRANCH  10  11
ENDBRANCH   9  10
ENDBRANCH   8   9
ENDBRANCH   7   8
ENDBRANCH   6   7
ENDBRANCH   5   6
ENDBRANCH   4   5
ENDBRANCH   3   4
ENDBRANCH   2   3
TORSDOF 15
ENDMDL
MODEL      172
REMARK 921   NORMALIZED FREE ENERGY PREDICTED BY IDOCK:   -3.62 KCAL/MOL
REMARK 922        TOTAL FREE ENERGY PREDICTED BY IDOCK:   -8.58 KCAL/MOL
REMARK 923 INTER-LIGAND FREE ENERGY PREDICTED BY IDOCK:   -7.35 KCAL/MOL
REMARK 924 INTRA-LIGAND FREE ENERGY PREDICTED BY IDOCK:   -1.23 KCAL/MOL
REMARK 927      BINDING AFFINITY PREDICTED BY RF-SCORE:    0.00 PKD
ROOT
HETATM    1  C   UNL     1     -10.240   6.812  72.188  1.00  0.00    -0.213 C  
HETATM    2  C   UNL     1     -11.570   6.124  71.940  1.00  0.00    -0.352 C  
ENDROOT
BRANCH   2   3
HETATM    3  C   UNL     1     -12.436   6.933  70.977  1.00  0.00    -0.364 C  
BRANCH   3   4
HETATM    4  C   UNL     1     -13.863   7.063  71.500  1.00  0.00    -0.359 C  
BRANCH   4   5
HETATM    5  C   UNL     1     -14.309   8.522  71.499  1.00  0.00    -0.451 C  
BRANCH   5   6
HETATM    6  C   UNL     1     -13.226   9.421  72.087  1.00  0.00    -0.541 C  
BRANCH   6   7
HETATM    7  C   UNL     1     -12.911  10.573  71.141  1.00  0.00    -0.513 C  
BRANCH   7   8
HETATM    8  C   UNL     1     -11.464  10.503  70.668  1.00  0.00    -0.418 C  
BRANCH   8   9
HETATM    9  C   UNL     1     -11.391  10.592  69.149  1.00  0.00    -0.338 C  
BRANCH   9  10
HETATM   10  C   UNL     1     -11.996  11.901  68.656  1.00  0.00    -0.291 C  
BRANCH  10  11
HETATM   11  C   UNL     1     -10.978  13.034  68.747  1.00  0.00    -0.295 C  
BRANCH  11  12
HETATM   12  C   UNL     1     -11.452  14.246  67.957  1.00  0.00    -0.342 C  
BRANCH  12  13
HETATM   13  C   UNL     1     -11.670  15.442  68.875  1.00  0.00    -0.377 C  
BRANCH  13  14
HETATM   14  C   UNL     1     -10.803  16.618  68.439  1.00  0.00    -0.361 C  
BRANCH  14  15
HETATM   15  C   UNL     1     -10.079  16.314  67.130  1.00  0.00    -0.268 C  
BRANCH  15  16
HETATM   16  C   UNL     1     -10.319  17.425  66.111  1.00  0.00    -0.329 C  
BRANCH  16  17
HETATM   17  C   UNL     1      -9.916  18.787  66.669  1.00  0.00    -0.400 C  
HETATM   18  C   UNL     1      -8.474  19.114  66.358  1.00  0.00    -0.318 C  
HETATM   19  O   UNL     1      -7.701  18.399  65.740  1.00  0.00    -0.509 OA 
HETATM   20  O   UNL     1      -8.107  20.320  66.850  1.00  0.00    -0.309 OA 
ENDBRANCH  16  17
ENDBRANCH  15  16
ENDBRANCH  14  15
ENDBRANCH  13  14
ENDBRANCH  12  13
ENDBRANCH  11  12
ENDBRANCH  10  11
ENDBRANCH   9  10
ENDBRANCH   8   9
ENDBRANCH   7   8
ENDBRANCH   6   7
ENDBRANCH   5   6
ENDBRANCH   4   5
ENDBRANCH   3   4
ENDBRANCH   2   3
TORSDOF 15
ENDMDL
MODEL      173
REMARK 921   NORMALIZED FREE ENERGY PREDICTED BY IDOCK:   -3.61 KCAL/MOL
REMARK 922        TOTAL FREE ENERGY PREDICTED BY IDOCK:   -8.57 KCAL/MOL
REMARK 923 INTER-LIGAND FREE ENERGY PREDICTED BY IDOCK:   -6.84 KCAL/MOL
REMARK 924 INTRA-LIGAND FREE ENERGY PREDICTED BY IDOCK:   -1.72 KCAL/MOL
REMARK 927      BINDING AFFINITY PREDICTED BY RF-SCORE:    0.00 PKD
ROOT
HETATM    1  C   UNL     1     -11.663   6.031  72.371  1.00  0.00    -0.322 C  
HETATM    2  C   UNL     1     -12.365   7.063  71.507  1.00  0.00    -0.420 C  
ENDROOT
BRANCH   2   3
HETATM    3  C   UNL     1     -11.357   7.980  70.818  1.00  0.00    -0.282 C  
BRANCH   3   4
HETATM    4  C   UNL     1     -11.123   9.248  71.632  1.00  0.00    -0.438 C  
BRANCH   4   5
HETATM    5  C   UNL     1     -12.021  10.379  71.142  1.00  0.00    -0.460 C  
BRANCH   5   6
HETATM    6  C   UNL     1     -11.718  10.722  69.687  1.00  0.00    -0.395 C  
BRANCH   6   7
HETATM    7  C   UNL     1     -10.226  10.952  69.487  1.00  0.00    -0.097 C  
BRANCH   7   8
HETATM    8  C   UNL     1      -9.699  10.110  68.331  1.00  0.00    -0.157 C  
BRANCH   8   9
HETATM    9  C   UNL     1     -10.448  10.434  67.046  1.00  0.00    -0.309 C  
BRANCH   9  10
HETATM   10  C   UNL     1      -9.573  11.252  66.103  1.00  0.00    -0.241 C  
BRANCH  10  11
HETATM   11  C   UNL     1      -9.990  12.719  66.117  1.00  0.00    -0.272 C  
BRANCH  11  12
HETATM   12  C   UNL     1     -11.468  12.854  66.455  1.00  0.00    -0.389 C  
BRANCH  12  13
HETATM   13  C   UNL     1     -11.763  14.218  67.066  1.00  0.00    -0.427 C  
BRANCH  13  14
HETATM   14  C   UNL     1     -11.488  14.205  68.566  1.00  0.00    -0.333 C  
BRANCH  14  15
HETATM   15  C   UNL     1     -10.790  15.488  69.009  1.00  0.00    -0.249 C  
BRANCH  15  16
HETATM   16  C   UNL     1     -10.070  16.144  67.833  1.00  0.00    -0.244 C  
BRANCH  16  17
HETATM   17  C   UNL     1     -10.304  17.651  67.810  1.00  0.00    -0.365 C  
HETATM   18  C   UNL     1     -10.534  18.160  66.406  1.00  0.00    -0.350 C  
HETATM   19  O   UNL     1     -10.537  17.477  65.395  1.00  0.00    -0.648 OA 
HETATM   20  O   UNL     1     -10.742  19.498  66.376  1.00  0.00    -0.448 OA 
ENDBRANCH  16  17
ENDBRANCH  15  16
ENDBRANCH  14  15
ENDBRANCH  13  14
ENDBRANCH  12  13
ENDBRANCH  11  12
ENDBRANCH  10  11
ENDBRANCH   9  10
ENDBRANCH   8   9
ENDBRANCH   7   8
ENDBRANCH   6   7
ENDBRANCH   5   6
ENDBRANCH   4   5
ENDBRANCH   3   4
ENDBRANCH   2   3
TORSDOF 15
ENDMDL
MODEL      174
REMARK 921   NORMALIZED FREE ENERGY PREDICTED BY IDOCK:   -3.60 KCAL/MOL
REMARK 922        TOTAL FREE ENERGY PREDICTED BY IDOCK:   -8.55 KCAL/MOL
REMARK 923 INTER-LIGAND FREE ENERGY PREDICTED BY IDOCK:   -6.51 KCAL/MOL
REMARK 924 INTRA-LIGAND FREE ENERGY PREDICTED BY IDOCK:   -2.04 KCAL/MOL
REMARK 927      BINDING AFFINITY PREDICTED BY RF-SCORE:    0.00 PKD
ROOT
HETATM    1  C   UNL     1      -8.182   7.120  64.991  1.00  0.00    -0.095 C  
HETATM    2  C   UNL     1      -8.222   7.410  66.480  1.00  0.00    -0.120 C  
ENDROOT
BRANCH   2   3
HETATM    3  C   UNL     1      -9.565   7.008  67.084  1.00  0.00    -0.187 C  
BRANCH   3   4
HETATM    4  C   UNL     1     -10.605   8.107  66.891  1.00  0.00    -0.311 C  
BRANCH   4   5
HETATM    5  C   UNL     1     -10.133   9.414  67.521  1.00  0.00    -0.268 C  
BRANCH   5   6
HETATM    6  C   UNL     1     -10.626  10.614  66.718  1.00  0.00    -0.297 C  
BRANCH   6   7
HETATM    7  C   UNL     1      -9.606  11.007  65.658  1.00  0.00    -0.265 C  
BRANCH   7   8
HETATM    8  C   UNL     1     -10.145  10.729  64.260  1.00  0.00    -0.427 C  
BRANCH   8   9
HETATM    9  C   UNL     1     -10.631  12.016  63.605  1.00  0.00    -0.503 C  
BRANCH   9  10
HETATM   10  C   UNL     1     -12.153  12.076  63.600  1.00  0.00    -0.627 C  
BRANCH  10  11
HETATM   11  C   UNL     1     -12.657  13.087  64.625  1.00  0.00    -0.425 C  
BRANCH  11  12
HETATM   12  C   UNL     1     -11.868  14.385  64.531  1.00  0.00    -0.463 C  
BRANCH  12  13
HETATM   13  C   UNL     1     -11.281  14.763  65.885  1.00  0.00    -0.340 C  
BRANCH  13  14
HETATM   14  C   UNL     1     -12.128  14.188  67.016  1.00  0.00    -0.449 C  
BRANCH  14  15
HETATM   15  C   UNL     1     -11.272  13.872  68.239  1.00  0.00    -0.298 C  
BRANCH  15  16
HETATM   16  C   UNL     1     -12.048  13.011  69.233  1.00  0.00    -0.251 C  
BRANCH  16  17
HETATM   17  C   UNL     1     -11.209  11.834  69.720  1.00  0.00    -0.166 C  
HETATM   18  C   UNL     1     -11.978  10.961  70.685  1.00  0.00    -0.368 C  
HETATM   19  O   UNL     1     -13.127  11.148  71.050  1.00  0.00    -0.292 OA 
HETATM   20  O   UNL     1     -11.241   9.913  71.123  1.00  0.00    -0.354 OA 
ENDBRANCH  16  17
ENDBRANCH  15  16
ENDBRANCH  14  15
ENDBRANCH  13  14
ENDBRANCH  12  13
ENDBRANCH  11  12
ENDBRANCH  10  11
ENDBRANCH   9  10
ENDBRANCH   8   9
ENDBRANCH   7   8
ENDBRANCH   6   7
ENDBRANCH   5   6
ENDBRANCH   4   5
ENDBRANCH   3   4
ENDBRANCH   2   3
TORSDOF 15
ENDMDL
MODEL      175
REMARK 921   NORMALIZED FREE ENERGY PREDICTED BY IDOCK:   -3.60 KCAL/MOL
REMARK 922        TOTAL FREE ENERGY PREDICTED BY IDOCK:   -8.55 KCAL/MOL
REMARK 923 INTER-LIGAND FREE ENERGY PREDICTED BY IDOCK:   -7.17 KCAL/MOL
REMARK 924 INTRA-LIGAND FREE ENERGY PREDICTED BY IDOCK:   -1.37 KCAL/MOL
REMARK 927      BINDING AFFINITY PREDICTED BY RF-SCORE:    0.00 PKD
ROOT
HETATM    1  C   UNL     1     -10.595   7.702  71.116  1.00  0.00    -0.235 C  
HETATM    2  C   UNL     1     -12.033   7.795  71.596  1.00  0.00    -0.330 C  
ENDROOT
BRANCH   2   3
HETATM    3  C   UNL     1     -12.459   9.249  71.780  1.00  0.00    -0.458 C  
BRANCH   3   4
HETATM    4  C   UNL     1     -11.731  10.163  70.800  1.00  0.00    -0.446 C  
BRANCH   4   5
HETATM    5  C   UNL     1     -12.365  11.550  70.781  1.00  0.00    -0.472 C  
BRANCH   5   6
HETATM    6  C   UNL     1     -13.312  11.731  71.962  1.00  0.00    -0.417 C  
BRANCH   6   7
HETATM    7  C   UNL     1     -13.584  13.209  72.213  1.00  0.00    -0.677 C  
BRANCH   7   8
HETATM    8  C   UNL     1     -12.446  14.067  71.675  1.00  0.00    -0.371 C  
BRANCH   8   9
HETATM    9  C   UNL     1     -12.984  15.167  70.769  1.00  0.00    -0.468 C  
BRANCH   9  10
HETATM   10  C   UNL     1     -11.867  15.755  69.914  1.00  0.00    -0.355 C  
BRANCH  10  11
HETATM   11  C   UNL     1     -11.171  14.662  69.110  1.00  0.00    -0.291 C  
BRANCH  11  12
HETATM   12  C   UNL     1     -12.140  14.016  68.130  1.00  0.00    -0.307 C  
BRANCH  12  13
HETATM   13  C   UNL     1     -11.391  13.206  67.079  1.00  0.00    -0.349 C  
BRANCH  13  14
HETATM   14  C   UNL     1     -11.248  14.004  65.787  1.00  0.00    -0.303 C  
BRANCH  14  15
HETATM   15  C   UNL     1     -10.643  13.151  64.676  1.00  0.00    -0.410 C  
BRANCH  15  16
HETATM   16  C   UNL     1     -10.576  11.685  65.098  1.00  0.00    -0.343 C  
BRANCH  16  17
HETATM   17  C   UNL     1      -9.467  10.945  64.355  1.00  0.00    -0.287 C  
HETATM   18  C   UNL     1      -9.252   9.557  64.912  1.00  0.00    -0.223 C  
HETATM   19  O   UNL     1      -9.870   9.060  65.839  1.00  0.00    -0.276 OA 
HETATM   20  O   UNL     1      -8.270   8.892  64.259  1.00  0.00    -0.154 OA 
ENDBRANCH  16  17
ENDBRANCH  15  16
ENDBRANCH  14  15
ENDBRANCH  13  14
ENDBRANCH  12  13
ENDBRANCH  11  12
ENDBRANCH  10  11
ENDBRANCH   9  10
ENDBRANCH   8   9
ENDBRANCH   7   8
ENDBRANCH   6   7
ENDBRANCH   5   6
ENDBRANCH   4   5
ENDBRANCH   3   4
ENDBRANCH   2   3
TORSDOF 15
ENDMDL
MODEL      176
REMARK 921   NORMALIZED FREE ENERGY PREDICTED BY IDOCK:   -3.59 KCAL/MOL
REMARK 922        TOTAL FREE ENERGY PREDICTED BY IDOCK:   -8.53 KCAL/MOL
REMARK 923 INTER-LIGAND FREE ENERGY PREDICTED BY IDOCK:   -6.69 KCAL/MOL
REMARK 924 INTRA-LIGAND FREE ENERGY PREDICTED BY IDOCK:   -1.85 KCAL/MOL
REMARK 927      BINDING AFFINITY PREDICTED BY RF-SCORE:    0.00 PKD
ROOT
HETATM    1  C   UNL     1      -9.404   7.798  73.149  1.00  0.00    -0.315 C  
HETATM    2  C   UNL     1      -9.326   8.625  71.879  1.00  0.00    -0.357 C  
ENDROOT
BRANCH   2   3
HETATM    3  C   UNL     1      -9.923   7.870  70.693  1.00  0.00    -0.188 C  
BRANCH   3   4
HETATM    4  C   UNL     1     -10.600   8.826  69.717  1.00  0.00    -0.227 C  
BRANCH   4   5
HETATM    5  C   UNL     1     -10.933  10.149  70.400  1.00  0.00    -0.386 C  
BRANCH   5   6
HETATM    6  C   UNL     1     -12.064  10.867  69.671  1.00  0.00    -0.400 C  
BRANCH   6   7
HETATM    7  C   UNL     1     -12.259  12.271  70.229  1.00  0.00    -0.342 C  
BRANCH   7   8
HETATM    8  C   UNL     1     -11.710  13.317  69.266  1.00  0.00    -0.380 C  
BRANCH   8   9
HETATM    9  C   UNL     1     -12.132  13.004  67.836  1.00  0.00    -0.234 C  
BRANCH   9  10
HETATM   10  C   UNL     1     -11.830  14.181  66.915  1.00  0.00    -0.458 C  
BRANCH  10  11
HETATM   11  C   UNL     1     -12.594  14.048  65.602  1.00  0.00    -0.542 C  
BRANCH  11  12
HETATM   12  C   UNL     1     -12.517  12.621  65.078  1.00  0.00    -0.556 C  
BRANCH  12  13
HETATM   13  C   UNL     1     -11.975  12.594  63.654  1.00  0.00    -0.615 C  
BRANCH  13  14
HETATM   14  C   UNL     1     -10.591  11.954  63.619  1.00  0.00    -0.500 C  
BRANCH  14  15
HETATM   15  C   UNL     1     -10.516  10.750  64.553  1.00  0.00    -0.351 C  
BRANCH  15  16
HETATM   16  C   UNL     1      -9.178  10.718  65.287  1.00  0.00    -0.233 C  
BRANCH  16  17
HETATM   17  C   UNL     1      -9.345  11.075  66.761  1.00  0.00    -0.199 C  
HETATM   18  C   UNL     1      -8.018  11.375  67.417  1.00  0.00    -0.139 C  
HETATM   19  O   UNL     1      -6.930  11.344  66.865  1.00  0.00    -0.125 OA 
HETATM   20  O   UNL     1      -8.156  11.694  68.726  1.00  0.00    -0.140 OA 
ENDBRANCH  16  17
ENDBRANCH  15  16
ENDBRANCH  14  15
ENDBRANCH  13  14
ENDBRANCH  12  13
ENDBRANCH  11  12
ENDBRANCH  10  11
ENDBRANCH   9  10
ENDBRANCH   8   9
ENDBRANCH   7   8
ENDBRANCH   6   7
ENDBRANCH   5   6
ENDBRANCH   4   5
ENDBRANCH   3   4
ENDBRANCH   2   3
TORSDOF 15
ENDMDL
MODEL      177
REMARK 921   NORMALIZED FREE ENERGY PREDICTED BY IDOCK:   -3.59 KCAL/MOL
REMARK 922        TOTAL FREE ENERGY PREDICTED BY IDOCK:   -8.53 KCAL/MOL
REMARK 923 INTER-LIGAND FREE ENERGY PREDICTED BY IDOCK:   -6.14 KCAL/MOL
REMARK 924 INTRA-LIGAND FREE ENERGY PREDICTED BY IDOCK:   -2.40 KCAL/MOL
REMARK 927      BINDING AFFINITY PREDICTED BY RF-SCORE:    0.00 PKD
ROOT
HETATM    1  C   UNL     1      -6.784  10.658  70.119  1.00  0.00    -0.143 C  
HETATM    2  C   UNL     1      -7.655   9.594  69.475  1.00  0.00    -0.104 C  
ENDROOT
BRANCH   2   3
HETATM    3  C   UNL     1      -9.130   9.985  69.525  1.00  0.00    -0.236 C  
BRANCH   3   4
HETATM    4  C   UNL     1     -10.028   8.758  69.411  1.00  0.00    -0.196 C  
BRANCH   4   5
HETATM    5  C   UNL     1     -10.220   8.362  67.950  1.00  0.00    -0.273 C  
BRANCH   5   6
HETATM    6  C   UNL     1     -10.491   9.588  67.086  1.00  0.00    -0.322 C  
BRANCH   6   7
HETATM    7  C   UNL     1      -9.748   9.487  65.760  1.00  0.00    -0.357 C  
BRANCH   7   8
HETATM    8  C   UNL     1      -9.480  10.873  65.183  1.00  0.00    -0.268 C  
BRANCH   8   9
HETATM    9  C   UNL     1      -9.905  10.939  63.722  1.00  0.00    -0.391 C  
BRANCH   9  10
HETATM   10  C   UNL     1     -10.648  12.238  63.435  1.00  0.00    -0.427 C  
BRANCH  10  11
HETATM   11  C   UNL     1     -12.157  12.020  63.487  1.00  0.00    -0.628 C  
BRANCH  11  12
HETATM   12  C   UNL     1     -12.745  12.637  64.749  1.00  0.00    -0.460 C  
BRANCH  12  13
HETATM   13  C   UNL     1     -12.221  14.053  64.955  1.00  0.00    -0.455 C  
BRANCH  13  14
HETATM   14  C   UNL     1     -12.004  14.334  66.438  1.00  0.00    -0.438 C  
BRANCH  14  15
HETATM   15  C   UNL     1     -11.781  13.041  67.217  1.00  0.00    -0.429 C  
BRANCH  15  16
HETATM   16  C   UNL     1     -10.493  13.118  68.033  1.00  0.00    -0.245 C  
BRANCH  16  17
HETATM   17  C   UNL     1      -9.680  14.357  67.670  1.00  0.00    -0.219 C  
HETATM   18  C   UNL     1      -8.226  14.020  67.429  1.00  0.00    -0.190 C  
HETATM   19  O   UNL     1      -7.733  12.907  67.508  1.00  0.00    -0.151 OA 
HETATM   20  O   UNL     1      -7.496  15.113  67.106  1.00  0.00    -0.203 OA 
ENDBRANCH  16  17
ENDBRANCH  15  16
ENDBRANCH  14  15
ENDBRANCH  13  14
ENDBRANCH  12  13
ENDBRANCH  11  12
ENDBRANCH  10  11
ENDBRANCH   9  10
ENDBRANCH   8   9
ENDBRANCH   7   8
ENDBRANCH   6   7
ENDBRANCH   5   6
ENDBRANCH   4   5
ENDBRANCH   3   4
ENDBRANCH   2   3
TORSDOF 15
ENDMDL
MODEL      178
REMARK 921   NORMALIZED FREE ENERGY PREDICTED BY IDOCK:   -3.58 KCAL/MOL
REMARK 922        TOTAL FREE ENERGY PREDICTED BY IDOCK:   -8.52 KCAL/MOL
REMARK 923 INTER-LIGAND FREE ENERGY PREDICTED BY IDOCK:   -6.79 KCAL/MOL
REMARK 924 INTRA-LIGAND FREE ENERGY PREDICTED BY IDOCK:   -1.72 KCAL/MOL
REMARK 927      BINDING AFFINITY PREDICTED BY RF-SCORE:    0.00 PKD
ROOT
HETATM    1  C   UNL     1      -9.674   4.542  69.276  1.00  0.00    -0.260 C  
HETATM    2  C   UNL     1      -9.570   5.016  70.715  1.00  0.00    -0.244 C  
ENDROOT
BRANCH   2   3
HETATM    3  C   UNL     1     -10.276   4.052  71.664  1.00  0.00    -0.110 C  
BRANCH   3   4
HETATM    4  C   UNL     1      -9.953   4.377  73.119  1.00  0.00    -0.189 C  
BRANCH   4   5
HETATM    5  C   UNL     1     -10.932   5.407  73.673  1.00  0.00    -0.274 C  
BRANCH   5   6
HETATM    6  C   UNL     1     -10.193   6.635  74.193  1.00  0.00    -0.390 C  
BRANCH   6   7
HETATM    7  C   UNL     1     -10.210   7.752  73.157  1.00  0.00    -0.398 C  
BRANCH   7   8
HETATM    8  C   UNL     1     -11.621   7.976  72.626  1.00  0.00    -0.448 C  
BRANCH   8   9
HETATM    9  C   UNL     1     -11.598   8.208  71.121  1.00  0.00    -0.306 C  
BRANCH   9  10
HETATM   10  C   UNL     1     -10.203   8.611  70.659  1.00  0.00    -0.237 C  
BRANCH  10  11
HETATM   11  C   UNL     1     -10.277   9.757  69.655  1.00  0.00    -0.254 C  
BRANCH  11  12
HETATM   12  C   UNL     1     -11.518  10.605  69.898  1.00  0.00    -0.393 C  
BRANCH  12  13
HETATM   13  C   UNL     1     -12.003  11.241  68.602  1.00  0.00    -0.314 C  
BRANCH  13  14
HETATM   14  C   UNL     1     -11.219  10.700  67.411  1.00  0.00    -0.280 C  
BRANCH  14  15
HETATM   15  C   UNL     1     -10.805  11.824  66.467  1.00  0.00    -0.323 C  
BRANCH  15  16
HETATM   16  C   UNL     1     -11.832  12.954  66.490  1.00  0.00    -0.473 C  
BRANCH  16  17
HETATM   17  C   UNL     1     -12.560  13.069  65.154  1.00  0.00    -0.530 C  
HETATM   18  C   UNL     1     -11.954  14.140  64.278  1.00  0.00    -0.435 C  
HETATM   19  O   UNL     1     -11.002  14.843  64.573  1.00  0.00    -0.322 OA 
HETATM   20  O   UNL     1     -12.594  14.249  63.090  1.00  0.00    -0.615 OA 
ENDBRANCH  16  17
ENDBRANCH  15  16
ENDBRANCH  14  15
ENDBRANCH  13  14
ENDBRANCH  12  13
ENDBRANCH  11  12
ENDBRANCH  10  11
ENDBRANCH   9  10
ENDBRANCH   8   9
ENDBRANCH   7   8
ENDBRANCH   6   7
ENDBRANCH   5   6
ENDBRANCH   4   5
ENDBRANCH   3   4
ENDBRANCH   2   3
TORSDOF 15
ENDMDL
MODEL      179
REMARK 921   NORMALIZED FREE ENERGY PREDICTED BY IDOCK:   -3.56 KCAL/MOL
REMARK 922        TOTAL FREE ENERGY PREDICTED BY IDOCK:   -8.48 KCAL/MOL
REMARK 923 INTER-LIGAND FREE ENERGY PREDICTED BY IDOCK:   -5.73 KCAL/MOL
REMARK 924 INTRA-LIGAND FREE ENERGY PREDICTED BY IDOCK:   -2.75 KCAL/MOL
REMARK 927      BINDING AFFINITY PREDICTED BY RF-SCORE:    0.00 PKD
ROOT
HETATM    1  C   UNL     1      -7.658   8.314  70.036  1.00  0.00    -0.072 C  
HETATM    2  C   UNL     1      -8.179   9.739  70.055  1.00  0.00    -0.207 C  
ENDROOT
BRANCH   2   3
HETATM    3  C   UNL     1      -9.701   9.771  69.930  1.00  0.00    -0.273 C  
BRANCH   3   4
HETATM    4  C   UNL     1     -10.161  10.990  69.137  1.00  0.00    -0.187 C  
BRANCH   4   5
HETATM    5  C   UNL     1     -11.273  10.613  68.163  1.00  0.00    -0.366 C  
BRANCH   5   6
HETATM    6  C   UNL     1     -11.034  11.244  66.795  1.00  0.00    -0.339 C  
BRANCH   6   7
HETATM    7  C   UNL     1      -9.715  10.762  66.203  1.00  0.00    -0.253 C  
BRANCH   7   8
HETATM    8  C   UNL     1      -9.821   9.307  65.761  1.00  0.00    -0.302 C  
BRANCH   8   9
HETATM    9  C   UNL     1      -8.882   8.428  66.578  1.00  0.00    -0.172 C  
BRANCH   9  10
HETATM   10  C   UNL     1      -9.193   6.953  66.353  1.00  0.00    -0.186 C  
BRANCH  10  11
HETATM   11  C   UNL     1      -9.599   6.281  67.661  1.00  0.00    -0.118 C  
BRANCH  11  12
HETATM   12  C   UNL     1     -10.858   6.923  68.225  1.00  0.00    -0.244 C  
BRANCH  12  13
HETATM   13  C   UNL     1     -11.406   6.110  69.391  1.00  0.00    -0.401 C  
BRANCH  13  14
HETATM   14  C   UNL     1     -10.292   5.756  70.370  1.00  0.00    -0.310 C  
BRANCH  14  15
HETATM   15  C   UNL     1     -10.465   6.497  71.693  1.00  0.00    -0.241 C  
BRANCH  15  16
HETATM   16  C   UNL     1     -11.915   6.936  71.880  1.00  0.00    -0.363 C  
BRANCH  16  17
HETATM   17  C   UNL     1     -12.008   8.429  72.181  1.00  0.00    -0.438 C  
HETATM   18  C   UNL     1     -13.387   8.973  71.888  1.00  0.00    -0.417 C  
HETATM   19  O   UNL     1     -14.330   8.326  71.462  1.00  0.00    -0.433 OA 
HETATM   20  O   UNL     1     -13.479  10.298  72.151  1.00  0.00    -0.401 OA 
ENDBRANCH  16  17
ENDBRANCH  15  16
ENDBRANCH  14  15
ENDBRANCH  13  14
ENDBRANCH  12  13
ENDBRANCH  11  12
ENDBRANCH  10  11
ENDBRANCH   9  10
ENDBRANCH   8   9
ENDBRANCH   7   8
ENDBRANCH   6   7
ENDBRANCH   5   6
ENDBRANCH   4   5
ENDBRANCH   3   4
ENDBRANCH   2   3
TORSDOF 15
ENDMDL
MODEL      180
REMARK 921   NORMALIZED FREE ENERGY PREDICTED BY IDOCK:   -3.56 KCAL/MOL
REMARK 922        TOTAL FREE ENERGY PREDICTED BY IDOCK:   -8.48 KCAL/MOL
REMARK 923 INTER-LIGAND FREE ENERGY PREDICTED BY IDOCK:   -6.76 KCAL/MOL
REMARK 924 INTRA-LIGAND FREE ENERGY PREDICTED BY IDOCK:   -1.72 KCAL/MOL
REMARK 927      BINDING AFFINITY PREDICTED BY RF-SCORE:    0.00 PKD
ROOT
HETATM    1  C   UNL     1      -6.528  18.441  68.170  1.00  0.00    -0.200 C  
HETATM    2  C   UNL     1      -6.925  18.957  66.798  1.00  0.00    -0.212 C  
ENDROOT
BRANCH   2   3
HETATM    3  C   UNL     1      -8.017  20.018  66.904  1.00  0.00    -0.346 C  
BRANCH   3   4
HETATM    4  C   UNL     1      -9.083  19.611  67.915  1.00  0.00    -0.396 C  
BRANCH   4   5
HETATM    5  C   UNL     1     -10.462  19.582  67.265  1.00  0.00    -0.590 C  
BRANCH   5   6
HETATM    6  C   UNL     1     -10.529  18.512  66.180  1.00  0.00    -0.447 C  
BRANCH   6   7
HETATM    7  C   UNL     1     -10.481  17.119  66.794  1.00  0.00    -0.263 C  
BRANCH   7   8
HETATM    8  C   UNL     1      -9.513  16.224  66.029  1.00  0.00    -0.369 C  
BRANCH   8   9
HETATM    9  C   UNL     1     -10.008  14.784  66.016  1.00  0.00    -0.336 C  
BRANCH   9  10
HETATM   10  C   UNL     1     -11.381  14.680  66.670  1.00  0.00    -0.358 C  
BRANCH  10  11
HETATM   11  C   UNL     1     -12.371  13.986  65.740  1.00  0.00    -0.506 C  
BRANCH  11  12
HETATM   12  C   UNL     1     -12.062  14.314  64.286  1.00  0.00    -0.467 C  
BRANCH  12  13
HETATM   13  C   UNL     1     -12.203  13.077  63.408  1.00  0.00    -0.552 C  
BRANCH  13  14
HETATM   14  C   UNL     1     -11.404  11.914  63.987  1.00  0.00    -0.475 C  
BRANCH  14  15
HETATM   15  C   UNL     1     -10.392  11.384  62.976  1.00  0.00    -0.275 C  
BRANCH  15  16
HETATM   16  C   UNL     1      -9.424  10.409  63.642  1.00  0.00    -0.353 C  
BRANCH  16  17
HETATM   17  C   UNL     1      -9.180  10.780  65.101  1.00  0.00    -0.239 C  
HETATM   18  C   UNL     1      -7.734  10.586  65.493  1.00  0.00    -0.127 C  
HETATM   19  O   UNL     1      -6.847  10.183  64.758  1.00  0.00    -0.126 OA 
HETATM   20  O   UNL     1      -7.508  10.913  66.787  1.00  0.00    -0.120 OA 
ENDBRANCH  16  17
ENDBRANCH  15  16
ENDBRANCH  14  15
ENDBRANCH  13  14
ENDBRANCH  12  13
ENDBRANCH  11  12
ENDBRANCH  10  11
ENDBRANCH   9  10
ENDBRANCH   8   9
ENDBRANCH   7   8
ENDBRANCH   6   7
ENDBRANCH   5   6
ENDBRANCH   4   5
ENDBRANCH   3   4
ENDBRANCH   2   3
TORSDOF 15
ENDMDL
MODEL      181
REMARK 921   NORMALIZED FREE ENERGY PREDICTED BY IDOCK:   -3.56 KCAL/MOL
REMARK 922        TOTAL FREE ENERGY PREDICTED BY IDOCK:   -8.47 KCAL/MOL
REMARK 923 INTER-LIGAND FREE ENERGY PREDICTED BY IDOCK:   -6.79 KCAL/MOL
REMARK 924 INTRA-LIGAND FREE ENERGY PREDICTED BY IDOCK:   -1.69 KCAL/MOL
REMARK 927      BINDING AFFINITY PREDICTED BY RF-SCORE:    0.00 PKD
ROOT
HETATM    1  C   UNL     1     -10.868   6.038  67.707  1.00  0.00    -0.380 C  
HETATM    2  C   UNL     1      -9.916   5.381  68.689  1.00  0.00    -0.232 C  
ENDROOT
BRANCH   2   3
HETATM    3  C   UNL     1     -10.423   5.518  70.123  1.00  0.00    -0.370 C  
BRANCH   3   4
HETATM    4  C   UNL     1     -11.565   6.525  70.208  1.00  0.00    -0.473 C  
BRANCH   4   5
HETATM    5  C   UNL     1     -12.114   6.602  71.629  1.00  0.00    -0.404 C  
BRANCH   5   6
HETATM    6  C   UNL     1     -11.131   7.312  72.554  1.00  0.00    -0.334 C  
BRANCH   6   7
HETATM    7  C   UNL     1     -10.823   8.712  72.040  1.00  0.00    -0.430 C  
BRANCH   7   8
HETATM    8  C   UNL     1     -12.108   9.490  71.785  1.00  0.00    -0.459 C  
BRANCH   8   9
HETATM    9  C   UNL     1     -12.018  10.263  70.476  1.00  0.00    -0.415 C  
BRANCH   9  10
HETATM   10  C   UNL     1     -10.613  10.172  69.891  1.00  0.00    -0.331 C  
BRANCH  10  11
HETATM   11  C   UNL     1     -10.664   9.755  68.425  1.00  0.00    -0.262 C  
BRANCH  11  12
HETATM   12  C   UNL     1     -11.285  10.854  67.576  1.00  0.00    -0.364 C  
BRANCH  12  13
HETATM   13  C   UNL     1     -10.532  12.167  67.750  1.00  0.00    -0.222 C  
BRANCH  13  14
HETATM   14  C   UNL     1     -11.470  13.354  67.563  1.00  0.00    -0.357 C  
BRANCH  14  15
HETATM   15  C   UNL     1     -12.001  13.854  68.903  1.00  0.00    -0.393 C  
BRANCH  15  16
HETATM   16  C   UNL     1     -11.669  15.332  69.097  1.00  0.00    -0.355 C  
BRANCH  16  17
HETATM   17  C   UNL     1     -11.035  15.927  67.843  1.00  0.00    -0.327 C  
HETATM   18  C   UNL     1      -9.607  16.355  68.089  1.00  0.00    -0.227 C  
HETATM   19  O   UNL     1      -9.007  16.253  69.147  1.00  0.00    -0.248 OA 
HETATM   20  O   UNL     1      -9.036  16.885  66.982  1.00  0.00    -0.204 OA 
ENDBRANCH  16  17
ENDBRANCH  15  16
ENDBRANCH  14  15
ENDBRANCH  13  14
ENDBRANCH  12  13
ENDBRANCH  11  12
ENDBRANCH  10  11
ENDBRANCH   9  10
ENDBRANCH   8   9
ENDBRANCH   7   8
ENDBRANCH   6   7
ENDBRANCH   5   6
ENDBRANCH   4   5
ENDBRANCH   3   4
ENDBRANCH   2   3
TORSDOF 15
ENDMDL
MODEL      182
REMARK 921   NORMALIZED FREE ENERGY PREDICTED BY IDOCK:   -3.55 KCAL/MOL
REMARK 922        TOTAL FREE ENERGY PREDICTED BY IDOCK:   -8.46 KCAL/MOL
REMARK 923 INTER-LIGAND FREE ENERGY PREDICTED BY IDOCK:   -6.51 KCAL/MOL
REMARK 924 INTRA-LIGAND FREE ENERGY PREDICTED BY IDOCK:   -1.96 KCAL/MOL
REMARK 927      BINDING AFFINITY PREDICTED BY RF-SCORE:    0.00 PKD
ROOT
HETATM    1  C   UNL     1     -10.004  19.021  68.802  1.00  0.00    -0.475 C  
HETATM    2  C   UNL     1     -10.625  19.356  67.457  1.00  0.00    -0.591 C  
ENDROOT
BRANCH   2   3
HETATM    3  C   UNL     1      -9.550  19.595  66.399  1.00  0.00    -0.490 C  
BRANCH   3   4
HETATM    4  C   UNL     1      -8.255  20.091  67.034  1.00  0.00    -0.364 C  
BRANCH   4   5
HETATM    5  C   UNL     1      -7.069  19.844  66.107  1.00  0.00    -0.284 C  
BRANCH   5   6
HETATM    6  C   UNL     1      -6.936  18.361  65.779  1.00  0.00    -0.288 C  
BRANCH   6   7
HETATM    7  C   UNL     1      -6.443  17.583  66.993  1.00  0.00    -0.200 C  
BRANCH   7   8
HETATM    8  C   UNL     1      -6.954  16.147  66.958  1.00  0.00    -0.234 C  
BRANCH   8   9
HETATM    9  C   UNL     1      -8.440  16.097  67.288  1.00  0.00    -0.203 C  
BRANCH   9  10
HETATM   10  C   UNL     1      -9.221  15.436  66.159  1.00  0.00    -0.362 C  
BRANCH  10  11
HETATM   11  C   UNL     1     -10.697  15.312  66.524  1.00  0.00    -0.311 C  
BRANCH  11  12
HETATM   12  C   UNL     1     -10.883  15.374  68.033  1.00  0.00    -0.292 C  
BRANCH  12  13
HETATM   13  C   UNL     1     -11.745  14.216  68.522  1.00  0.00    -0.380 C  
BRANCH  13  14
HETATM   14  C   UNL     1     -10.983  12.899  68.420  1.00  0.00    -0.285 C  
BRANCH  14  15
HETATM   15  C   UNL     1     -11.894  11.711  68.713  1.00  0.00    -0.387 C  
BRANCH  15  16
HETATM   16  C   UNL     1     -11.102  10.406  68.691  1.00  0.00    -0.313 C  
BRANCH  16  17
HETATM   17  C   UNL     1     -10.754   9.945  70.103  1.00  0.00    -0.361 C  
HETATM   18  C   UNL     1      -9.285   9.616  70.237  1.00  0.00    -0.236 C  
HETATM   19  O   UNL     1      -8.456   9.697  69.346  1.00  0.00    -0.131 OA 
HETATM   20  O   UNL     1      -8.967   9.206  71.487  1.00  0.00    -0.319 OA 
ENDBRANCH  16  17
ENDBRANCH  15  16
ENDBRANCH  14  15
ENDBRANCH  13  14
ENDBRANCH  12  13
ENDBRANCH  11  12
ENDBRANCH  10  11
ENDBRANCH   9  10
ENDBRANCH   8   9
ENDBRANCH   7   8
ENDBRANCH   6   7
ENDBRANCH   5   6
ENDBRANCH   4   5
ENDBRANCH   3   4
ENDBRANCH   2   3
TORSDOF 15
ENDMDL
MODEL      183
REMARK 921   NORMALIZED FREE ENERGY PREDICTED BY IDOCK:   -3.55 KCAL/MOL
REMARK 922        TOTAL FREE ENERGY PREDICTED BY IDOCK:   -8.46 KCAL/MOL
REMARK 923 INTER-LIGAND FREE ENERGY PREDICTED BY IDOCK:   -7.50 KCAL/MOL
REMARK 924 INTRA-LIGAND FREE ENERGY PREDICTED BY IDOCK:   -0.96 KCAL/MOL
REMARK 927      BINDING AFFINITY PREDICTED BY RF-SCORE:    0.00 PKD
ROOT
HETATM    1  C   UNL     1     -10.806   3.756  73.476  1.00  0.00    -0.324 C  
HETATM    2  C   UNL     1      -9.728   3.399  72.469  1.00  0.00    -0.207 C  
ENDROOT
BRANCH   2   3
HETATM    3  C   UNL     1      -9.569   4.496  71.419  1.00  0.00    -0.232 C  
BRANCH   3   4
HETATM    4  C   UNL     1     -10.265   5.780  71.857  1.00  0.00    -0.246 C  
BRANCH   4   5
HETATM    5  C   UNL     1     -11.287   6.225  70.815  1.00  0.00    -0.397 C  
BRANCH   5   6
HETATM    6  C   UNL     1     -12.451   6.957  71.474  1.00  0.00    -0.420 C  
BRANCH   6   7
HETATM    7  C   UNL     1     -11.948   8.115  72.324  1.00  0.00    -0.434 C  
BRANCH   7   8
HETATM    8  C   UNL     1     -12.039   9.429  71.557  1.00  0.00    -0.456 C  
BRANCH   8   9
HETATM    9  C   UNL     1     -13.267  10.220  71.989  1.00  0.00    -0.516 C  
BRANCH   9  10
HETATM   10  C   UNL     1     -13.128  11.687  71.600  1.00  0.00    -0.456 C  
BRANCH  10  11
HETATM   11  C   UNL     1     -12.225  11.838  70.379  1.00  0.00    -0.416 C  
BRANCH  11  12
HETATM   12  C   UNL     1     -12.090  13.303  69.990  1.00  0.00    -0.385 C  
BRANCH  12  13
HETATM   13  C   UNL     1     -12.369  14.210  71.182  1.00  0.00    -0.447 C  
BRANCH  13  14
HETATM   14  C   UNL     1     -12.277  15.676  70.775  1.00  0.00    -0.463 C  
BRANCH  14  15
HETATM   15  C   UNL     1     -11.771  15.820  69.342  1.00  0.00    -0.379 C  
BRANCH  15  16
HETATM   16  C   UNL     1     -10.422  16.535  69.315  1.00  0.00    -0.326 C  
BRANCH  16  17
HETATM   17  C   UNL     1     -10.371  17.579  68.204  1.00  0.00    -0.375 C  
HETATM   18  C   UNL     1      -9.797  17.009  66.928  1.00  0.00    -0.271 C  
HETATM   19  O   UNL     1      -9.412  15.861  66.773  1.00  0.00    -0.217 OA 
HETATM   20  O   UNL     1      -9.747  17.929  65.935  1.00  0.00    -0.530 OA 
ENDBRANCH  16  17
ENDBRANCH  15  16
ENDBRANCH  14  15
ENDBRANCH  13  14
ENDBRANCH  12  13
ENDBRANCH  11  12
ENDBRANCH  10  11
ENDBRANCH   9  10
ENDBRANCH   8   9
ENDBRANCH   7   8
ENDBRANCH   6   7
ENDBRANCH   5   6
ENDBRANCH   4   5
ENDBRANCH   3   4
ENDBRANCH   2   3
TORSDOF 15
ENDMDL
MODEL      184
REMARK 921   NORMALIZED FREE ENERGY PREDICTED BY IDOCK:   -3.55 KCAL/MOL
REMARK 922        TOTAL FREE ENERGY PREDICTED BY IDOCK:   -8.46 KCAL/MOL
REMARK 923 INTER-LIGAND FREE ENERGY PREDICTED BY IDOCK:   -6.17 KCAL/MOL
REMARK 924 INTRA-LIGAND FREE ENERGY PREDICTED BY IDOCK:   -2.29 KCAL/MOL
REMARK 927      BINDING AFFINITY PREDICTED BY RF-SCORE:    0.00 PKD
ROOT
HETATM    1  C   UNL     1      -9.550  17.507  66.811  1.00  0.00    -0.286 C  
HETATM    2  C   UNL     1      -8.625  16.330  66.555  1.00  0.00    -0.332 C  
ENDROOT
BRANCH   2   3
HETATM    3  C   UNL     1      -9.419  15.047  66.323  1.00  0.00    -0.342 C  
BRANCH   3   4
HETATM    4  C   UNL     1     -10.801  15.351  65.754  1.00  0.00    -0.349 C  
BRANCH   4   5
HETATM    5  C   UNL     1     -11.866  14.495  66.433  1.00  0.00    -0.361 C  
BRANCH   5   6
HETATM    6  C   UNL     1     -12.679  13.720  65.402  1.00  0.00    -0.513 C  
BRANCH   6   7
HETATM    7  C   UNL     1     -11.894  13.561  64.106  1.00  0.00    -0.483 C  
BRANCH   7   8
HETATM    8  C   UNL     1     -11.910  12.110  63.639  1.00  0.00    -0.608 C  
BRANCH   8   9
HETATM    9  C   UNL     1     -10.490  11.581  63.484  1.00  0.00    -0.486 C  
BRANCH   9  10
HETATM   10  C   UNL     1      -9.717  11.721  64.790  1.00  0.00    -0.184 C  
BRANCH  10  11
HETATM   11  C   UNL     1     -10.086  10.601  65.759  1.00  0.00    -0.327 C  
BRANCH  11  12
HETATM   12  C   UNL     1     -10.225  11.141  67.175  1.00  0.00    -0.235 C  
BRANCH  12  13
HETATM   13  C   UNL     1     -11.650  10.965  67.686  1.00  0.00    -0.171 C  
BRANCH  13  14
HETATM   14  C   UNL     1     -11.874  11.791  68.947  1.00  0.00    -0.381 C  
BRANCH  14  15
HETATM   15  C   UNL     1     -11.063  11.242  70.118  1.00  0.00    -0.020 C  
BRANCH  15  16
HETATM   16  C   UNL     1     -11.309   9.745  70.289  1.00  0.00    -0.333 C  
BRANCH  16  17
HETATM   17  C   UNL     1      -9.999   8.985  70.470  1.00  0.00    -0.263 C  
HETATM   18  C   UNL     1      -9.961   7.730  69.628  1.00  0.00    -0.190 C  
HETATM   19  O   UNL     1     -10.850   7.345  68.888  1.00  0.00    -0.166 OA 
HETATM   20  O   UNL     1      -8.801   7.048  69.782  1.00  0.00    -0.141 OA 
ENDBRANCH  16  17
ENDBRANCH  15  16
ENDBRANCH  14  15
ENDBRANCH  13  14
ENDBRANCH  12  13
ENDBRANCH  11  12
ENDBRANCH  10  11
ENDBRANCH   9  10
ENDBRANCH   8   9
ENDBRANCH   7   8
ENDBRANCH   6   7
ENDBRANCH   5   6
ENDBRANCH   4   5
ENDBRANCH   3   4
ENDBRANCH   2   3
TORSDOF 15
ENDMDL
MODEL      185
REMARK 921   NORMALIZED FREE ENERGY PREDICTED BY IDOCK:   -3.55 KCAL/MOL
REMARK 922        TOTAL FREE ENERGY PREDICTED BY IDOCK:   -8.46 KCAL/MOL
REMARK 923 INTER-LIGAND FREE ENERGY PREDICTED BY IDOCK:   -6.52 KCAL/MOL
REMARK 924 INTRA-LIGAND FREE ENERGY PREDICTED BY IDOCK:   -1.94 KCAL/MOL
REMARK 927      BINDING AFFINITY PREDICTED BY RF-SCORE:    0.00 PKD
ROOT
HETATM    1  C   UNL     1      -6.108  20.345  65.059  1.00  0.00    -0.298 C  
HETATM    2  C   UNL     1      -6.572  19.497  66.230  1.00  0.00    -0.208 C  
ENDROOT
BRANCH   2   3
HETATM    3  C   UNL     1      -8.001  19.851  66.634  1.00  0.00    -0.342 C  
BRANCH   3   4
HETATM    4  C   UNL     1      -8.775  18.608  67.063  1.00  0.00    -0.285 C  
BRANCH   4   5
HETATM    5  C   UNL     1      -8.247  17.369  66.347  1.00  0.00    -0.306 C  
BRANCH   5   6
HETATM    6  C   UNL     1      -8.360  16.136  67.238  1.00  0.00    -0.204 C  
BRANCH   6   7
HETATM    7  C   UNL     1      -8.661  16.538  68.676  1.00  0.00    -0.243 C  
BRANCH   7   8
HETATM    8  C   UNL     1      -9.831  15.733  69.229  1.00  0.00    -0.265 C  
BRANCH   8   9
HETATM    9  C   UNL     1     -11.149  16.240  68.658  1.00  0.00    -0.356 C  
BRANCH   9  10
HETATM   10  C   UNL     1     -12.018  15.078  68.192  1.00  0.00    -0.195 C  
BRANCH  10  11
HETATM   11  C   UNL     1     -11.629  14.645  66.782  1.00  0.00    -0.370 C  
BRANCH  11  12
HETATM   12  C   UNL     1     -11.852  13.150  66.599  1.00  0.00    -0.449 C  
BRANCH  12  13
HETATM   13  C   UNL     1     -10.542  12.385  66.736  1.00  0.00    -0.250 C  
BRANCH  13  14
HETATM   14  C   UNL     1     -10.709  11.198  67.678  1.00  0.00    -0.273 C  
BRANCH  14  15
HETATM   15  C   UNL     1     -11.975  11.336  68.519  1.00  0.00    -0.288 C  
BRANCH  15  16
HETATM   16  C   UNL     1     -11.634  11.365  70.007  1.00  0.00    -0.382 C  
BRANCH  16  17
HETATM   17  C   UNL     1     -12.367  12.496  70.722  1.00  0.00    -0.376 C  
HETATM   18  C   UNL     1     -13.246  11.975  71.835  1.00  0.00    -0.364 C  
HETATM   19  O   UNL     1     -13.376  10.803  72.148  1.00  0.00    -0.442 OA 
HETATM   20  O   UNL     1     -13.901  12.972  72.476  1.00  0.00    -0.625 OA 
ENDBRANCH  16  17
ENDBRANCH  15  16
ENDBRANCH  14  15
ENDBRANCH  13  14
ENDBRANCH  12  13
ENDBRANCH  11  12
ENDBRANCH  10  11
ENDBRANCH   9  10
ENDBRANCH   8   9
ENDBRANCH   7   8
ENDBRANCH   6   7
ENDBRANCH   5   6
ENDBRANCH   4   5
ENDBRANCH   3   4
ENDBRANCH   2   3
TORSDOF 15
ENDMDL
MODEL      186
REMARK 921   NORMALIZED FREE ENERGY PREDICTED BY IDOCK:   -3.55 KCAL/MOL
REMARK 922        TOTAL FREE ENERGY PREDICTED BY IDOCK:   -8.46 KCAL/MOL
REMARK 923 INTER-LIGAND FREE ENERGY PREDICTED BY IDOCK:   -6.78 KCAL/MOL
REMARK 924 INTRA-LIGAND FREE ENERGY PREDICTED BY IDOCK:   -1.68 KCAL/MOL
REMARK 927      BINDING AFFINITY PREDICTED BY RF-SCORE:    0.00 PKD
ROOT
HETATM    1  C   UNL     1      -8.516   4.786  64.367  1.00  0.00    -0.134 C  
HETATM    2  C   UNL     1      -9.898   4.240  64.678  1.00  0.00    -0.148 C  
ENDROOT
BRANCH   2   3
HETATM    3  C   UNL     1     -10.488   4.910  65.916  1.00  0.00    -0.282 C  
BRANCH   3   4
HETATM    4  C   UNL     1      -9.435   5.735  66.649  1.00  0.00    -0.161 C  
BRANCH   4   5
HETATM    5  C   UNL     1     -10.074   6.564  67.759  1.00  0.00    -0.176 C  
BRANCH   5   6
HETATM    6  C   UNL     1     -10.706   7.833  67.195  1.00  0.00    -0.337 C  
BRANCH   6   7
HETATM    7  C   UNL     1      -9.763   8.512  66.209  1.00  0.00    -0.300 C  
BRANCH   7   8
HETATM    8  C   UNL     1      -9.401   9.913  66.686  1.00  0.00    -0.196 C  
BRANCH   8   9
HETATM    9  C   UNL     1      -9.034  10.804  65.506  1.00  0.00    -0.210 C  
BRANCH   9  10
HETATM   10  C   UNL     1      -9.581  10.228  64.205  1.00  0.00    -0.376 C  
BRANCH  10  11
HETATM   11  C   UNL     1      -9.720  11.318  63.148  1.00  0.00    -0.408 C  
BRANCH  11  12
HETATM   12  C   UNL     1     -10.509  12.499  63.695  1.00  0.00    -0.418 C  
BRANCH  12  13
HETATM   13  C   UNL     1     -11.986  12.374  63.346  1.00  0.00    -0.595 C  
BRANCH  13  14
HETATM   14  C   UNL     1     -12.853  12.656  64.569  1.00  0.00    -0.356 C  
BRANCH  14  15
HETATM   15  C   UNL     1     -12.007  12.742  65.836  1.00  0.00    -0.506 C  
BRANCH  15  16
HETATM   16  C   UNL     1     -12.055  14.151  66.421  1.00  0.00    -0.475 C  
BRANCH  16  17
HETATM   17  C   UNL     1     -10.659  14.760  66.515  1.00  0.00    -0.299 C  
HETATM   18  C   UNL     1     -10.424  15.787  65.431  1.00  0.00    -0.414 C  
HETATM   19  O   UNL     1     -11.229  16.110  64.573  1.00  0.00    -0.583 OA 
HETATM   20  O   UNL     1      -9.187  16.333  65.506  1.00  0.00    -0.402 OA 
ENDBRANCH  16  17
ENDBRANCH  15  16
ENDBRANCH  14  15
ENDBRANCH  13  14
ENDBRANCH  12  13
ENDBRANCH  11  12
ENDBRANCH  10  11
ENDBRANCH   9  10
ENDBRANCH   8   9
ENDBRANCH   7   8
ENDBRANCH   6   7
ENDBRANCH   5   6
ENDBRANCH   4   5
ENDBRANCH   3   4
ENDBRANCH   2   3
TORSDOF 15
ENDMDL
MODEL      187
REMARK 921   NORMALIZED FREE ENERGY PREDICTED BY IDOCK:   -3.54 KCAL/MOL
REMARK 922        TOTAL FREE ENERGY PREDICTED BY IDOCK:   -8.44 KCAL/MOL
REMARK 923 INTER-LIGAND FREE ENERGY PREDICTED BY IDOCK:   -7.52 KCAL/MOL
REMARK 924 INTRA-LIGAND FREE ENERGY PREDICTED BY IDOCK:   -0.92 KCAL/MOL
REMARK 927      BINDING AFFINITY PREDICTED BY RF-SCORE:    0.00 PKD
ROOT
HETATM    1  C   UNL     1     -10.829   6.119  67.435  1.00  0.00    -0.431 C  
HETATM    2  C   UNL     1     -10.580   6.666  68.829  1.00  0.00    -0.271 C  
ENDROOT
BRANCH   2   3
HETATM    3  C   UNL     1     -11.010   5.665  69.899  1.00  0.00    -0.309 C  
BRANCH   3   4
HETATM    4  C   UNL     1     -10.590   6.130  71.288  1.00  0.00    -0.295 C  
BRANCH   4   5
HETATM    5  C   UNL     1     -11.753   6.806  72.008  1.00  0.00    -0.343 C  
BRANCH   5   6
HETATM    6  C   UNL     1     -11.360   8.199  72.486  1.00  0.00    -0.469 C  
BRANCH   6   7
HETATM    7  C   UNL     1     -11.859   9.262  71.515  1.00  0.00    -0.444 C  
BRANCH   7   8
HETATM    8  C   UNL     1     -13.100   9.956  72.064  1.00  0.00    -0.545 C  
BRANCH   8   9
HETATM    9  C   UNL     1     -13.133  11.417  71.634  1.00  0.00    -0.498 C  
BRANCH   9  10
HETATM   10  C   UNL     1     -12.152  11.666  70.494  1.00  0.00    -0.458 C  
BRANCH  10  11
HETATM   11  C   UNL     1     -12.271  13.098  69.983  1.00  0.00    -0.323 C  
BRANCH  11  12
HETATM   12  C   UNL     1     -12.290  14.082  71.144  1.00  0.00    -0.443 C  
BRANCH  12  13
HETATM   13  C   UNL     1     -11.592  15.383  70.765  1.00  0.00    -0.381 C  
BRANCH  13  14
HETATM   14  C   UNL     1     -11.071  15.315  69.334  1.00  0.00    -0.283 C  
BRANCH  14  15
HETATM   15  C   UNL     1     -10.151  16.493  69.026  1.00  0.00    -0.279 C  
BRANCH  15  16
HETATM   16  C   UNL     1     -10.728  17.348  67.900  1.00  0.00    -0.351 C  
BRANCH  16  17
HETATM   17  C   UNL     1      -9.646  18.199  67.241  1.00  0.00    -0.281 C  
HETATM   18  C   UNL     1      -9.523  19.553  67.899  1.00  0.00    -0.336 C  
HETATM   19  O   UNL     1     -10.191  19.948  68.841  1.00  0.00    -0.444 OA 
HETATM   20  O   UNL     1      -8.566  20.316  67.320  1.00  0.00    -0.333 OA 
ENDBRANCH  16  17
ENDBRANCH  15  16
ENDBRANCH  14  15
ENDBRANCH  13  14
ENDBRANCH  12  13
ENDBRANCH  11  12
ENDBRANCH  10  11
ENDBRANCH   9  10
ENDBRANCH   8   9
ENDBRANCH   7   8
ENDBRANCH   6   7
ENDBRANCH   5   6
ENDBRANCH   4   5
ENDBRANCH   3   4
ENDBRANCH   2   3
TORSDOF 15
ENDMDL
MODEL      188
REMARK 921   NORMALIZED FREE ENERGY PREDICTED BY IDOCK:   -3.54 KCAL/MOL
REMARK 922        TOTAL FREE ENERGY PREDICTED BY IDOCK:   -8.44 KCAL/MOL
REMARK 923 INTER-LIGAND FREE ENERGY PREDICTED BY IDOCK:   -6.52 KCAL/MOL
REMARK 924 INTRA-LIGAND FREE ENERGY PREDICTED BY IDOCK:   -1.92 KCAL/MOL
REMARK 927      BINDING AFFINITY PREDICTED BY RF-SCORE:    0.00 PKD
ROOT
HETATM    1  C   UNL     1     -10.408  16.928  67.000  1.00  0.00    -0.307 C  
HETATM    2  C   UNL     1     -10.706  15.620  66.290  1.00  0.00    -0.295 C  
ENDROOT
BRANCH   2   3
HETATM    3  C   UNL     1     -11.041  15.855  64.819  1.00  0.00    -0.397 C  
BRANCH   3   4
HETATM    4  C   UNL     1     -12.174  14.943  64.361  1.00  0.00    -0.399 C  
BRANCH   4   5
HETATM    5  C   UNL     1     -12.645  14.049  65.504  1.00  0.00    -0.543 C  
BRANCH   5   6
HETATM    6  C   UNL     1     -12.741  12.596  65.054  1.00  0.00    -0.403 C  
BRANCH   6   7
HETATM    7  C   UNL     1     -11.356  11.970  64.954  1.00  0.00    -0.366 C  
BRANCH   7   8
HETATM    8  C   UNL     1     -11.012  11.645  63.506  1.00  0.00    -0.485 C  
BRANCH   8   9
HETATM    9  C   UNL     1      -9.845  10.669  63.436  1.00  0.00    -0.376 C  
BRANCH   9  10
HETATM   10  C   UNL     1      -9.082  10.646  64.755  1.00  0.00    -0.236 C  
BRANCH  10  11
HETATM   11  C   UNL     1      -8.565   9.243  65.056  1.00  0.00    -0.200 C  
BRANCH  11  12
HETATM   12  C   UNL     1      -8.811   8.881  66.514  1.00  0.00    -0.160 C  
BRANCH  12  13
HETATM   13  C   UNL     1     -10.235   8.379  66.716  1.00  0.00    -0.376 C  
BRANCH  13  14
HETATM   14  C   UNL     1     -10.760   8.794  68.086  1.00  0.00    -0.131 C  
BRANCH  14  15
HETATM   15  C   UNL     1     -10.038  10.036  68.601  1.00  0.00    -0.187 C  
BRANCH  15  16
HETATM   16  C   UNL     1     -10.951  11.258  68.533  1.00  0.00    -0.266 C  
BRANCH  16  17
HETATM   17  C   UNL     1     -11.667  11.489  69.861  1.00  0.00    -0.420 C  
HETATM   18  C   UNL     1     -12.029  12.943  70.054  1.00  0.00    -0.309 C  
HETATM   19  O   UNL     1     -11.793  13.845  69.266  1.00  0.00    -0.303 OA 
HETATM   20  O   UNL     1     -12.665  13.158  71.230  1.00  0.00    -0.363 OA 
ENDBRANCH  16  17
ENDBRANCH  15  16
ENDBRANCH  14  15
ENDBRANCH  13  14
ENDBRANCH  12  13
ENDBRANCH  11  12
ENDBRANCH  10  11
ENDBRANCH   9  10
ENDBRANCH   8   9
ENDBRANCH   7   8
ENDBRANCH   6   7
ENDBRANCH   5   6
ENDBRANCH   4   5
ENDBRANCH   3   4
ENDBRANCH   2   3
TORSDOF 15
ENDMDL
MODEL      189
REMARK 921   NORMALIZED FREE ENERGY PREDICTED BY IDOCK:   -3.53 KCAL/MOL
REMARK 922        TOTAL FREE ENERGY PREDICTED BY IDOCK:   -8.42 KCAL/MOL
REMARK 923 INTER-LIGAND FREE ENERGY PREDICTED BY IDOCK:   -6.30 KCAL/MOL
REMARK 924 INTRA-LIGAND FREE ENERGY PREDICTED BY IDOCK:   -2.12 KCAL/MOL
REMARK 927      BINDING AFFINITY PREDICTED BY RF-SCORE:    0.00 PKD
ROOT
HETATM    1  C   UNL     1     -10.671   7.424  67.083  1.00  0.00    -0.400 C  
HETATM    2  C   UNL     1     -10.836   6.082  67.774  1.00  0.00    -0.380 C  
ENDROOT
BRANCH   2   3
HETATM    3  C   UNL     1     -10.454   6.172  69.249  1.00  0.00    -0.314 C  
BRANCH   3   4
HETATM    4  C   UNL     1     -11.652   6.571  70.104  1.00  0.00    -0.466 C  
BRANCH   4   5
HETATM    5  C   UNL     1     -11.419   7.927  70.763  1.00  0.00    -0.273 C  
BRANCH   5   6
HETATM    6  C   UNL     1      -9.930   8.179  70.974  1.00  0.00    -0.220 C  
BRANCH   6   7
HETATM    7  C   UNL     1      -9.535   9.550  70.441  1.00  0.00    -0.317 C  
BRANCH   7   8
HETATM    8  C   UNL     1     -10.673  10.165  69.634  1.00  0.00    -0.295 C  
BRANCH   8   9
HETATM    9  C   UNL     1     -10.139  10.834  68.375  1.00  0.00    -0.183 C  
BRANCH   9  10
HETATM   10  C   UNL     1     -11.242  10.983  67.334  1.00  0.00    -0.355 C  
BRANCH  10  11
HETATM   11  C   UNL     1     -10.659  11.380  65.982  1.00  0.00    -0.319 C  
BRANCH  11  12
HETATM   12  C   UNL     1     -11.649  12.229  65.198  1.00  0.00    -0.402 C  
BRANCH  12  13
HETATM   13  C   UNL     1     -11.139  13.657  65.047  1.00  0.00    -0.338 C  
BRANCH  13  14
HETATM   14  C   UNL     1     -11.762  14.564  66.102  1.00  0.00    -0.355 C  
BRANCH  14  15
HETATM   15  C   UNL     1     -10.693  15.365  66.841  1.00  0.00    -0.314 C  
BRANCH  15  16
HETATM   16  C   UNL     1     -10.054  14.524  67.943  1.00  0.00    -0.227 C  
BRANCH  16  17
HETATM   17  C   UNL     1     -10.388  15.076  69.325  1.00  0.00    -0.249 C  
HETATM   18  C   UNL     1     -11.580  14.374  69.933  1.00  0.00    -0.284 C  
HETATM   19  O   UNL     1     -12.218  13.475  69.410  1.00  0.00    -0.307 OA 
HETATM   20  O   UNL     1     -11.885  14.857  71.161  1.00  0.00    -0.302 OA 
ENDBRANCH  16  17
ENDBRANCH  15  16
ENDBRANCH  14  15
ENDBRANCH  13  14
ENDBRANCH  12  13
ENDBRANCH  11  12
ENDBRANCH  10  11
ENDBRANCH   9  10
ENDBRANCH   8   9
ENDBRANCH   7   8
ENDBRANCH   6   7
ENDBRANCH   5   6
ENDBRANCH   4   5
ENDBRANCH   3   4
ENDBRANCH   2   3
TORSDOF 15
ENDMDL
MODEL      190
REMARK 921   NORMALIZED FREE ENERGY PREDICTED BY IDOCK:   -3.53 KCAL/MOL
REMARK 922        TOTAL FREE ENERGY PREDICTED BY IDOCK:   -8.41 KCAL/MOL
REMARK 923 INTER-LIGAND FREE ENERGY PREDICTED BY IDOCK:   -6.21 KCAL/MOL
REMARK 924 INTRA-LIGAND FREE ENERGY PREDICTED BY IDOCK:   -2.20 KCAL/MOL
REMARK 927      BINDING AFFINITY PREDICTED BY RF-SCORE:    0.00 PKD
ROOT
HETATM    1  C   UNL     1      -5.987  14.334  69.030  1.00  0.00    -0.090 C  
HETATM    2  C   UNL     1      -6.900  14.879  67.947  1.00  0.00    -0.171 C  
ENDROOT
BRANCH   2   3
HETATM    3  C   UNL     1      -8.154  14.020  67.800  1.00  0.00    -0.170 C  
BRANCH   3   4
HETATM    4  C   UNL     1      -7.808  12.628  67.282  1.00  0.00    -0.155 C  
BRANCH   4   5
HETATM    5  C   UNL     1      -8.175  11.562  68.310  1.00  0.00    -0.152 C  
BRANCH   5   6
HETATM    6  C   UNL     1      -9.438  10.816  67.892  1.00  0.00    -0.165 C  
BRANCH   6   7
HETATM    7  C   UNL     1      -9.090   9.456  67.301  1.00  0.00    -0.150 C  
BRANCH   7   8
HETATM    8  C   UNL     1      -9.907   9.188  66.043  1.00  0.00    -0.342 C  
BRANCH   8   9
HETATM    9  C   UNL     1     -10.395  10.494  65.431  1.00  0.00    -0.292 C  
BRANCH   9  10
HETATM   10  C   UNL     1      -9.679  10.774  64.115  1.00  0.00    -0.364 C  
BRANCH  10  11
HETATM   11  C   UNL     1     -10.288  11.985  63.415  1.00  0.00    -0.468 C  
BRANCH  11  12
HETATM   12  C   UNL     1     -10.565  13.099  64.415  1.00  0.00    -0.441 C  
BRANCH  12  13
HETATM   13  C   UNL     1     -11.998  13.601  64.284  1.00  0.00    -0.488 C  
BRANCH  13  14
HETATM   14  C   UNL     1     -12.643  13.746  65.659  1.00  0.00    -0.551 C  
BRANCH  14  15
HETATM   15  C   UNL     1     -11.610  14.131  66.714  1.00  0.00    -0.409 C  
BRANCH  15  16
HETATM   16  C   UNL     1     -11.802  13.304  67.983  1.00  0.00    -0.392 C  
BRANCH  16  17
HETATM   17  C   UNL     1     -12.094  14.195  69.187  1.00  0.00    -0.362 C  
HETATM   18  C   UNL     1     -12.181  13.396  70.466  1.00  0.00    -0.352 C  
HETATM   19  O   UNL     1     -12.041  12.187  70.558  1.00  0.00    -0.364 OA 
HETATM   20  O   UNL     1     -12.439  14.179  71.540  1.00  0.00    -0.336 OA 
ENDBRANCH  16  17
ENDBRANCH  15  16
ENDBRANCH  14  15
ENDBRANCH  13  14
ENDBRANCH  12  13
ENDBRANCH  11  12
ENDBRANCH  10  11
ENDBRANCH   9  10
ENDBRANCH   8   9
ENDBRANCH   7   8
ENDBRANCH   6   7
ENDBRANCH   5   6
ENDBRANCH   4   5
ENDBRANCH   3   4
ENDBRANCH   2   3
TORSDOF 15
ENDMDL
MODEL      191
REMARK 921   NORMALIZED FREE ENERGY PREDICTED BY IDOCK:   -3.52 KCAL/MOL
REMARK 922        TOTAL FREE ENERGY PREDICTED BY IDOCK:   -8.41 KCAL/MOL
REMARK 923 INTER-LIGAND FREE ENERGY PREDICTED BY IDOCK:   -6.82 KCAL/MOL
REMARK 924 INTRA-LIGAND FREE ENERGY PREDICTED BY IDOCK:   -1.59 KCAL/MOL
REMARK 927      BINDING AFFINITY PREDICTED BY RF-SCORE:    0.00 PKD
ROOT
HETATM    1  C   UNL     1     -11.259   4.610  73.435  1.00  0.00    -0.423 C  
HETATM    2  C   UNL     1     -11.027   5.961  72.783  1.00  0.00    -0.303 C  
ENDROOT
BRANCH   2   3
HETATM    3  C   UNL     1     -12.060   6.229  71.690  1.00  0.00    -0.229 C  
BRANCH   3   4
HETATM    4  C   UNL     1     -12.648   7.630  71.822  1.00  0.00    -0.359 C  
BRANCH   4   5
HETATM    5  C   UNL     1     -11.566   8.637  72.199  1.00  0.00    -0.440 C  
BRANCH   5   6
HETATM    6  C   UNL     1     -11.086   9.404  70.971  1.00  0.00    -0.414 C  
BRANCH   6   7
HETATM    7  C   UNL     1      -9.596   9.180  70.745  1.00  0.00    -0.338 C  
BRANCH   7   8
HETATM    8  C   UNL     1      -9.363   8.016  69.789  1.00  0.00    -0.159 C  
BRANCH   8   9
HETATM    9  C   UNL     1     -10.398   8.023  68.672  1.00  0.00    -0.224 C  
BRANCH   9  10
HETATM   10  C   UNL     1      -9.821   8.647  67.406  1.00  0.00    -0.249 C  
BRANCH  10  11
HETATM   11  C   UNL     1     -10.801   9.649  66.804  1.00  0.00    -0.051 C  
BRANCH  11  12
HETATM   12  C   UNL     1     -10.693  10.995  67.506  1.00  0.00    -0.289 C  
BRANCH  12  13
HETATM   13  C   UNL     1     -11.616  12.020  66.859  1.00  0.00    -0.389 C  
BRANCH  13  14
HETATM   14  C   UNL     1     -11.176  12.312  65.429  1.00  0.00    -0.372 C  
BRANCH  14  15
HETATM   15  C   UNL     1     -10.370  13.605  65.352  1.00  0.00    -0.345 C  
BRANCH  15  16
HETATM   16  C   UNL     1     -11.224  14.799  65.772  1.00  0.00    -0.337 C  
BRANCH  16  17
HETATM   17  C   UNL     1     -10.356  15.982  66.190  1.00  0.00    -0.340 C  
HETATM   18  C   UNL     1     -10.596  17.189  65.313  1.00  0.00    -0.043 C  
HETATM   19  O   UNL     1     -11.379  17.243  64.379  1.00  0.00    -1.052 OA 
HETATM   20  O   UNL     1      -9.829  18.244  65.676  1.00  0.00    -0.462 OA 
ENDBRANCH  16  17
ENDBRANCH  15  16
ENDBRANCH  14  15
ENDBRANCH  13  14
ENDBRANCH  12  13
ENDBRANCH  11  12
ENDBRANCH  10  11
ENDBRANCH   9  10
ENDBRANCH   8   9
ENDBRANCH   7   8
ENDBRANCH   6   7
ENDBRANCH   5   6
ENDBRANCH   4   5
ENDBRANCH   3   4
ENDBRANCH   2   3
TORSDOF 15
ENDMDL
MODEL      192
REMARK 921   NORMALIZED FREE ENERGY PREDICTED BY IDOCK:   -3.52 KCAL/MOL
REMARK 922        TOTAL FREE ENERGY PREDICTED BY IDOCK:   -8.40 KCAL/MOL
REMARK 923 INTER-LIGAND FREE ENERGY PREDICTED BY IDOCK:   -6.49 KCAL/MOL
REMARK 924 INTRA-LIGAND FREE ENERGY PREDICTED BY IDOCK:   -1.91 KCAL/MOL
REMARK 927      BINDING AFFINITY PREDICTED BY RF-SCORE:    0.00 PKD
ROOT
HETATM    1  C   UNL     1      -6.929  12.506  68.830  1.00  0.00    -0.088 C  
HETATM    2  C   UNL     1      -7.394  11.150  68.330  1.00  0.00    -0.094 C  
ENDROOT
BRANCH   2   3
HETATM    3  C   UNL     1      -8.432  10.543  69.271  1.00  0.00    -0.138 C  
BRANCH   3   4
HETATM    4  C   UNL     1      -7.762   9.814  70.431  1.00  0.00    -0.159 C  
BRANCH   4   5
HETATM    5  C   UNL     1      -8.385   8.436  70.635  1.00  0.00    -0.129 C  
BRANCH   5   6
HETATM    6  C   UNL     1      -9.683   8.539  71.430  1.00  0.00    -0.287 C  
BRANCH   6   7
HETATM    7  C   UNL     1     -10.855   8.002  70.618  1.00  0.00    -0.240 C  
BRANCH   7   8
HETATM    8  C   UNL     1     -11.875   9.101  70.349  1.00  0.00    -0.057 C  
BRANCH   8   9
HETATM    9  C   UNL     1     -12.086   9.955  71.593  1.00  0.00    -0.457 C  
BRANCH   9  10
HETATM   10  C   UNL     1     -12.720  11.292  71.229  1.00  0.00    -0.510 C  
BRANCH  10  11
HETATM   11  C   UNL     1     -11.937  11.973  70.110  1.00  0.00    -0.401 C  
BRANCH  11  12
HETATM   12  C   UNL     1     -12.014  13.487  70.246  1.00  0.00    -0.386 C  
BRANCH  12  13
HETATM   13  C   UNL     1     -11.431  14.173  69.017  1.00  0.00    -0.322 C  
BRANCH  13  14
HETATM   14  C   UNL     1     -10.745  13.157  68.110  1.00  0.00    -0.258 C  
BRANCH  14  15
HETATM   15  C   UNL     1      -9.872  13.850  67.068  1.00  0.00    -0.257 C  
BRANCH  15  16
HETATM   16  C   UNL     1     -10.684  14.873  66.278  1.00  0.00    -0.320 C  
BRANCH  16  17
HETATM   17  C   UNL     1     -10.893  14.420  64.836  1.00  0.00    -0.430 C  
HETATM   18  C   UNL     1     -12.324  14.005  64.584  1.00  0.00    -0.397 C  
HETATM   19  O   UNL     1     -13.223  14.018  65.408  1.00  0.00    -0.761 OA 
HETATM   20  O   UNL     1     -12.520  13.601  63.306  1.00  0.00    -0.801 OA 
ENDBRANCH  16  17
ENDBRANCH  15  16
ENDBRANCH  14  15
ENDBRANCH  13  14
ENDBRANCH  12  13
ENDBRANCH  11  12
ENDBRANCH  10  11
ENDBRANCH   9  10
ENDBRANCH   8   9
ENDBRANCH   7   8
ENDBRANCH   6   7
ENDBRANCH   5   6
ENDBRANCH   4   5
ENDBRANCH   3   4
ENDBRANCH   2   3
TORSDOF 15
ENDMDL
MODEL      193
REMARK 921   NORMALIZED FREE ENERGY PREDICTED BY IDOCK:   -3.51 KCAL/MOL
REMARK 922        TOTAL FREE ENERGY PREDICTED BY IDOCK:   -8.39 KCAL/MOL
REMARK 923 INTER-LIGAND FREE ENERGY PREDICTED BY IDOCK:   -6.40 KCAL/MOL
REMARK 924 INTRA-LIGAND FREE ENERGY PREDICTED BY IDOCK:   -1.99 KCAL/MOL
REMARK 927      BINDING AFFINITY PREDICTED BY RF-SCORE:    0.00 PKD
ROOT
HETATM    1  C   UNL     1     -10.681   9.464  67.903  1.00  0.00    -0.269 C  
HETATM    2  C   UNL     1      -9.925   9.444  69.219  1.00  0.00    -0.182 C  
ENDROOT
BRANCH   2   3
HETATM    3  C   UNL     1     -10.704  10.172  70.312  1.00  0.00    -0.352 C  
BRANCH   3   4
HETATM    4  C   UNL     1     -11.782   9.274  70.909  1.00  0.00    -0.360 C  
BRANCH   4   5
HETATM    5  C   UNL     1     -12.833  10.103  71.639  1.00  0.00    -0.559 C  
BRANCH   5   6
HETATM    6  C   UNL     1     -12.659  11.588  71.340  1.00  0.00    -0.419 C  
BRANCH   6   7
HETATM    7  C   UNL     1     -13.685  12.416  72.103  1.00  0.00    -0.271 C  
BRANCH   7   8
HETATM    8  C   UNL     1     -13.057  13.699  72.635  1.00  0.00    -0.452 C  
BRANCH   8   9
HETATM    9  C   UNL     1     -13.890  14.910  72.237  1.00  0.00    -0.588 C  
BRANCH   9  10
HETATM   10  C   UNL     1     -13.252  15.641  71.061  1.00  0.00    -0.435 C  
BRANCH  10  11
HETATM   11  C   UNL     1     -11.737  15.707  71.225  1.00  0.00    -0.478 C  
BRANCH  11  12
HETATM   12  C   UNL     1     -11.043  15.489  69.888  1.00  0.00    -0.318 C  
BRANCH  12  13
HETATM   13  C   UNL     1     -11.961  14.764  68.911  1.00  0.00    -0.298 C  
BRANCH  13  14
HETATM   14  C   UNL     1     -11.149  14.095  67.807  1.00  0.00    -0.292 C  
BRANCH  14  15
HETATM   15  C   UNL     1     -10.158  13.088  68.385  1.00  0.00    -0.225 C  
BRANCH  15  16
HETATM   16  C   UNL     1      -8.893  13.026  67.533  1.00  0.00    -0.195 C  
BRANCH  16  17
HETATM   17  C   UNL     1      -7.880  14.080  67.968  1.00  0.00    -0.152 C  
HETATM   18  C   UNL     1      -6.470  13.688  67.592  1.00  0.00    -0.153 C  
HETATM   19  O   UNL     1      -6.148  12.662  67.014  1.00  0.00    -0.281 OA 
HETATM   20  O   UNL     1      -5.563  14.617  67.975  1.00  0.00    -0.123 OA 
ENDBRANCH  16  17
ENDBRANCH  15  16
ENDBRANCH  14  15
ENDBRANCH  13  14
ENDBRANCH  12  13
ENDBRANCH  11  12
ENDBRANCH  10  11
ENDBRANCH   9  10
ENDBRANCH   8   9
ENDBRANCH   7   8
ENDBRANCH   6   7
ENDBRANCH   5   6
ENDBRANCH   4   5
ENDBRANCH   3   4
ENDBRANCH   2   3
TORSDOF 15
ENDMDL
MODEL      194
REMARK 921   NORMALIZED FREE ENERGY PREDICTED BY IDOCK:   -3.51 KCAL/MOL
REMARK 922        TOTAL FREE ENERGY PREDICTED BY IDOCK:   -8.39 KCAL/MOL
REMARK 923 INTER-LIGAND FREE ENERGY PREDICTED BY IDOCK:   -6.43 KCAL/MOL
REMARK 924 INTRA-LIGAND FREE ENERGY PREDICTED BY IDOCK:   -1.96 KCAL/MOL
REMARK 927      BINDING AFFINITY PREDICTED BY RF-SCORE:    0.00 PKD
ROOT
HETATM    1  C   UNL     1     -10.120  19.173  68.576  1.00  0.00    -0.499 C  
HETATM    2  C   UNL     1     -10.725  19.463  67.214  1.00  0.00    -0.603 C  
ENDROOT
BRANCH   2   3
HETATM    3  C   UNL     1      -9.664  19.959  66.235  1.00  0.00    -0.551 C  
BRANCH   3   4
HETATM    4  C   UNL     1      -8.368  20.307  66.960  1.00  0.00    -0.373 C  
BRANCH   4   5
HETATM    5  C   UNL     1      -7.162  20.063  66.059  1.00  0.00    -0.320 C  
BRANCH   5   6
HETATM    6  C   UNL     1      -6.982  18.574  65.782  1.00  0.00    -0.287 C  
BRANCH   6   7
HETATM    7  C   UNL     1      -6.708  17.815  67.074  1.00  0.00    -0.200 C  
BRANCH   7   8
HETATM    8  C   UNL     1      -7.091  16.347  66.931  1.00  0.00    -0.256 C  
BRANCH   8   9
HETATM    9  C   UNL     1      -8.548  16.132  67.320  1.00  0.00    -0.198 C  
BRANCH   9  10
HETATM   10  C   UNL     1      -9.447  16.180  66.091  1.00  0.00    -0.362 C  
BRANCH  10  11
HETATM   11  C   UNL     1     -10.885  15.828  66.459  1.00  0.00    -0.230 C  
BRANCH  11  12
HETATM   12  C   UNL     1     -10.944  14.477  67.158  1.00  0.00    -0.304 C  
BRANCH  12  13
HETATM   13  C   UNL     1     -12.190  13.705  66.745  1.00  0.00    -0.416 C  
BRANCH  13  14
HETATM   14  C   UNL     1     -11.820  12.527  65.849  1.00  0.00    -0.489 C  
BRANCH  14  15
HETATM   15  C   UNL     1     -10.309  12.311  65.819  1.00  0.00    -0.287 C  
BRANCH  15  16
HETATM   16  C   UNL     1      -9.896  11.571  64.550  1.00  0.00    -0.278 C  
BRANCH  16  17
HETATM   17  C   UNL     1      -9.910  10.060  64.760  1.00  0.00    -0.325 C  
HETATM   18  C   UNL     1      -8.513   9.504  64.916  1.00  0.00    -0.158 C  
HETATM   19  O   UNL     1      -7.482  10.156  64.881  1.00  0.00    -0.137 OA 
HETATM   20  O   UNL     1      -8.515   8.163  65.103  1.00  0.00    -0.155 OA 
ENDBRANCH  16  17
ENDBRANCH  15  16
ENDBRANCH  14  15
ENDBRANCH  13  14
ENDBRANCH  12  13
ENDBRANCH  11  12
ENDBRANCH  10  11
ENDBRANCH   9  10
ENDBRANCH   8   9
ENDBRANCH   7   8
ENDBRANCH   6   7
ENDBRANCH   5   6
ENDBRANCH   4   5
ENDBRANCH   3   4
ENDBRANCH   2   3
TORSDOF 15
ENDMDL
MODEL      195
REMARK 921   NORMALIZED FREE ENERGY PREDICTED BY IDOCK:   -3.51 KCAL/MOL
REMARK 922        TOTAL FREE ENERGY PREDICTED BY IDOCK:   -8.39 KCAL/MOL
REMARK 923 INTER-LIGAND FREE ENERGY PREDICTED BY IDOCK:   -6.53 KCAL/MOL
REMARK 924 INTRA-LIGAND FREE ENERGY PREDICTED BY IDOCK:   -1.86 KCAL/MOL
REMARK 927      BINDING AFFINITY PREDICTED BY RF-SCORE:    0.00 PKD
ROOT
HETATM    1  C   UNL     1     -11.323  12.384  63.364  1.00  0.00    -0.507 C  
HETATM    2  C   UNL     1     -12.359  13.297  63.994  1.00  0.00    -0.415 C  
ENDROOT
BRANCH   2   3
HETATM    3  C   UNL     1     -12.483  13.037  65.494  1.00  0.00    -0.496 C  
BRANCH   3   4
HETATM    4  C   UNL     1     -11.622  11.853  65.919  1.00  0.00    -0.291 C  
BRANCH   4   5
HETATM    5  C   UNL     1     -11.470  11.811  67.436  1.00  0.00    -0.375 C  
BRANCH   5   6
HETATM    6  C   UNL     1     -10.006  11.651  67.832  1.00  0.00    -0.190 C  
BRANCH   6   7
HETATM    7  C   UNL     1      -9.677  10.187  68.095  1.00  0.00    -0.155 C  
BRANCH   7   8
HETATM    8  C   UNL     1      -8.857   9.603  66.951  1.00  0.00    -0.143 C  
BRANCH   8   9
HETATM    9  C   UNL     1      -9.490   8.318  66.436  1.00  0.00    -0.287 C  
BRANCH   9  10
HETATM   10  C   UNL     1     -10.548   7.811  67.410  1.00  0.00    -0.345 C  
BRANCH  10  11
HETATM   11  C   UNL     1     -10.674   6.293  67.328  1.00  0.00    -0.424 C  
BRANCH  11  12
HETATM   12  C   UNL     1     -10.451   5.660  68.694  1.00  0.00    -0.277 C  
BRANCH  12  13
HETATM   13  C   UNL     1      -9.657   6.592  69.601  1.00  0.00    -0.156 C  
BRANCH  13  14
HETATM   14  C   UNL     1      -9.959   6.301  71.067  1.00  0.00    -0.213 C  
BRANCH  14  15
HETATM   15  C   UNL     1     -10.537   7.528  71.765  1.00  0.00    -0.237 C  
BRANCH  15  16
HETATM   16  C   UNL     1     -11.750   8.060  71.005  1.00  0.00    -0.295 C  
BRANCH  16  17
HETATM   17  C   UNL     1     -11.800   9.584  71.038  1.00  0.00    -0.408 C  
HETATM   18  C   UNL     1     -13.053  10.087  71.715  1.00  0.00    -0.457 C  
HETATM   19  O   UNL     1     -13.935   9.388  72.186  1.00  0.00    -0.379 OA 
HETATM   20  O   UNL     1     -13.107  11.440  71.749  1.00  0.00    -0.480 OA 
ENDBRANCH  16  17
ENDBRANCH  15  16
ENDBRANCH  14  15
ENDBRANCH  13  14
ENDBRANCH  12  13
ENDBRANCH  11  12
ENDBRANCH  10  11
ENDBRANCH   9  10
ENDBRANCH   8   9
ENDBRANCH   7   8
ENDBRANCH   6   7
ENDBRANCH   5   6
ENDBRANCH   4   5
ENDBRANCH   3   4
ENDBRANCH   2   3
TORSDOF 15
ENDMDL
MODEL      196
REMARK 921   NORMALIZED FREE ENERGY PREDICTED BY IDOCK:   -3.51 KCAL/MOL
REMARK 922        TOTAL FREE ENERGY PREDICTED BY IDOCK:   -8.38 KCAL/MOL
REMARK 923 INTER-LIGAND FREE ENERGY PREDICTED BY IDOCK:   -6.66 KCAL/MOL
REMARK 924 INTRA-LIGAND FREE ENERGY PREDICTED BY IDOCK:   -1.72 KCAL/MOL
REMARK 927      BINDING AFFINITY PREDICTED BY RF-SCORE:    0.00 PKD
ROOT
HETATM    1  C   UNL     1     -10.219   7.995  69.532  1.00  0.00    -0.209 C  
HETATM    2  C   UNL     1      -9.553   8.852  68.472  1.00  0.00    -0.165 C  
ENDROOT
BRANCH   2   3
HETATM    3  C   UNL     1     -10.410   8.934  67.211  1.00  0.00    -0.350 C  
BRANCH   3   4
HETATM    4  C   UNL     1     -10.723  10.383  66.852  1.00  0.00    -0.272 C  
BRANCH   4   5
HETATM    5  C   UNL     1      -9.465  11.108  66.384  1.00  0.00    -0.216 C  
BRANCH   5   6
HETATM    6  C   UNL     1      -9.076  10.668  64.977  1.00  0.00    -0.229 C  
BRANCH   6   7
HETATM    7  C   UNL     1     -10.273  10.749  64.037  1.00  0.00    -0.390 C  
BRANCH   7   8
HETATM    8  C   UNL     1     -10.455  12.169  63.515  1.00  0.00    -0.490 C  
BRANCH   8   9
HETATM    9  C   UNL     1     -11.933  12.520  63.415  1.00  0.00    -0.602 C  
BRANCH   9  10
HETATM   10  C   UNL     1     -12.236  13.801  64.182  1.00  0.00    -0.443 C  
BRANCH  10  11
HETATM   11  C   UNL     1     -11.970  13.615  65.672  1.00  0.00    -0.422 C  
BRANCH  11  12
HETATM   12  C   UNL     1     -11.305  14.853  66.257  1.00  0.00    -0.306 C  
BRANCH  12  13
HETATM   13  C   UNL     1      -9.874  14.990  65.753  1.00  0.00    -0.386 C  
BRANCH  13  14
HETATM   14  C   UNL     1      -9.287  16.336  66.164  1.00  0.00    -0.374 C  
BRANCH  14  15
HETATM   15  C   UNL     1     -10.341  17.217  66.829  1.00  0.00    -0.308 C  
BRANCH  15  16
HETATM   16  C   UNL     1     -10.106  18.688  66.491  1.00  0.00    -0.426 C  
BRANCH  16  17
HETATM   17  C   UNL     1      -8.624  18.976  66.270  1.00  0.00    -0.281 C  
HETATM   18  C   UNL     1      -7.985  19.584  67.497  1.00  0.00    -0.273 C  
HETATM   19  O   UNL     1      -8.555  19.827  68.548  1.00  0.00    -0.314 OA 
HETATM   20  O   UNL     1      -6.669  19.843  67.310  1.00  0.00    -0.204 OA 
ENDBRANCH  16  17
ENDBRANCH  15  16
ENDBRANCH  14  15
ENDBRANCH  13  14
ENDBRANCH  12  13
ENDBRANCH  11  12
ENDBRANCH  10  11
ENDBRANCH   9  10
ENDBRANCH   8   9
ENDBRANCH   7   8
ENDBRANCH   6   7
ENDBRANCH   5   6
ENDBRANCH   4   5
ENDBRANCH   3   4
ENDBRANCH   2   3
TORSDOF 15
ENDMDL
MODEL      197
REMARK 921   NORMALIZED FREE ENERGY PREDICTED BY IDOCK:   -3.51 KCAL/MOL
REMARK 922        TOTAL FREE ENERGY PREDICTED BY IDOCK:   -8.38 KCAL/MOL
REMARK 923 INTER-LIGAND FREE ENERGY PREDICTED BY IDOCK:   -6.77 KCAL/MOL
REMARK 924 INTRA-LIGAND FREE ENERGY PREDICTED BY IDOCK:   -1.60 KCAL/MOL
REMARK 927      BINDING AFFINITY PREDICTED BY RF-SCORE:    0.00 PKD
ROOT
HETATM    1  C   UNL     1     -12.047  12.828  63.528  1.00  0.00    -0.642 C  
HETATM    2  C   UNL     1     -11.549  11.607  64.279  1.00  0.00    -0.306 C  
ENDROOT
BRANCH   2   3
HETATM    3  C   UNL     1     -10.035  11.656  64.468  1.00  0.00    -0.290 C  
BRANCH   3   4
HETATM    4  C   UNL     1      -9.656  11.438  65.929  1.00  0.00    -0.254 C  
BRANCH   4   5
HETATM    5  C   UNL     1      -9.949  12.686  66.756  1.00  0.00    -0.237 C  
BRANCH   5   6
HETATM    6  C   UNL     1      -9.950  12.363  68.246  1.00  0.00    -0.224 C  
BRANCH   6   7
HETATM    7  C   UNL     1      -9.957  10.856  68.471  1.00  0.00    -0.188 C  
BRANCH   7   8
HETATM    8  C   UNL     1     -11.025  10.466  69.486  1.00  0.00    -0.307 C  
BRANCH   8   9
HETATM    9  C   UNL     1     -12.087  11.551  69.593  1.00  0.00    -0.363 C  
BRANCH   9  10
HETATM   10  C   UNL     1     -12.542  11.720  71.038  1.00  0.00    -0.409 C  
BRANCH  10  11
HETATM   11  C   UNL     1     -12.855  13.182  71.339  1.00  0.00    -0.401 C  
BRANCH  11  12
HETATM   12  C   UNL     1     -12.521  14.060  70.141  1.00  0.00    -0.380 C  
BRANCH  12  13
HETATM   13  C   UNL     1     -11.317  14.945  70.435  1.00  0.00    -0.287 C  
BRANCH  13  14
HETATM   14  C   UNL     1     -10.896  15.712  69.185  1.00  0.00    -0.246 C  
BRANCH  14  15
HETATM   15  C   UNL     1     -10.497  17.145  69.526  1.00  0.00    -0.122 C  
BRANCH  15  16
HETATM   16  C   UNL     1      -9.624  17.738  68.423  1.00  0.00    -0.323 C  
BRANCH  16  17
HETATM   17  C   UNL     1     -10.459  18.531  67.422  1.00  0.00    -0.455 C  
HETATM   18  C   UNL     1     -10.186  18.098  66.000  1.00  0.00    -0.320 C  
HETATM   19  O   UNL     1      -9.401  17.227  65.662  1.00  0.00    -0.506 OA 
HETATM   20  O   UNL     1     -10.923  18.797  65.104  1.00  0.00    -0.514 OA 
ENDBRANCH  16  17
ENDBRANCH  15  16
ENDBRANCH  14  15
ENDBRANCH  13  14
ENDBRANCH  12  13
ENDBRANCH  11  12
ENDBRANCH  10  11
ENDBRANCH   9  10
ENDBRANCH   8   9
ENDBRANCH   7   8
ENDBRANCH   6   7
ENDBRANCH   5   6
ENDBRANCH   4   5
ENDBRANCH   3   4
ENDBRANCH   2   3
TORSDOF 15
ENDMDL
MODEL      198
REMARK 921   NORMALIZED FREE ENERGY PREDICTED BY IDOCK:   -3.50 KCAL/MOL
REMARK 922        TOTAL FREE ENERGY PREDICTED BY IDOCK:   -8.37 KCAL/MOL
REMARK 923 INTER-LIGAND FREE ENERGY PREDICTED BY IDOCK:   -6.60 KCAL/MOL
REMARK 924 INTRA-LIGAND FREE ENERGY PREDICTED BY IDOCK:   -1.77 KCAL/MOL
REMARK 927      BINDING AFFINITY PREDICTED BY RF-SCORE:    0.00 PKD
ROOT
HETATM    1  C   UNL     1      -8.167   8.376  64.822  1.00  0.00    -0.162 C  
HETATM    2  C   UNL     1      -8.426   9.822  65.205  1.00  0.00    -0.157 C  
ENDROOT
BRANCH   2   3
HETATM    3  C   UNL     1      -9.898  10.048  65.541  1.00  0.00    -0.373 C  
BRANCH   3   4
HETATM    4  C   UNL     1     -10.054  10.714  66.904  1.00  0.00    -0.260 C  
BRANCH   4   5
HETATM    5  C   UNL     1     -10.833   9.815  67.859  1.00  0.00    -0.298 C  
BRANCH   5   6
HETATM    6  C   UNL     1      -9.988   9.455  69.076  1.00  0.00    -0.182 C  
BRANCH   6   7
HETATM    7  C   UNL     1      -8.758   8.657  68.662  1.00  0.00    -0.138 C  
BRANCH   7   8
HETATM    8  C   UNL     1      -9.109   7.187  68.465  1.00  0.00    -0.132 C  
BRANCH   8   9
HETATM    9  C   UNL     1      -9.646   6.585  69.756  1.00  0.00    -0.161 C  
BRANCH   9  10
HETATM   10  C   UNL     1     -11.032   5.990  69.537  1.00  0.00    -0.467 C  
BRANCH  10  11
HETATM   11  C   UNL     1     -12.005   6.482  70.604  1.00  0.00    -0.345 C  
BRANCH  11  12
HETATM   12  C   UNL     1     -11.252   7.093  71.777  1.00  0.00    -0.278 C  
BRANCH  12  13
HETATM   13  C   UNL     1     -12.076   8.190  72.439  1.00  0.00    -0.406 C  
BRANCH  13  14
HETATM   14  C   UNL     1     -11.875   9.520  71.721  1.00  0.00    -0.430 C  
BRANCH  14  15
HETATM   15  C   UNL     1     -13.107  10.411  71.854  1.00  0.00    -0.563 C  
BRANCH  15  16
HETATM   16  C   UNL     1     -12.800  11.831  71.385  1.00  0.00    -0.440 C  
BRANCH  16  17
HETATM   17  C   UNL     1     -13.566  12.864  72.206  1.00  0.00    -0.611 C  
HETATM   18  C   UNL     1     -13.555  14.223  71.545  1.00  0.00    -0.355 C  
HETATM   19  O   UNL     1     -13.009  14.493  70.487  1.00  0.00    -0.350 OA 
HETATM   20  O   UNL     1     -14.232  15.147  72.266  1.00  0.00    -0.494 OA 
ENDBRANCH  16  17
ENDBRANCH  15  16
ENDBRANCH  14  15
ENDBRANCH  13  14
ENDBRANCH  12  13
ENDBRANCH  11  12
ENDBRANCH  10  11
ENDBRANCH   9  10
ENDBRANCH   8   9
ENDBRANCH   7   8
ENDBRANCH   6   7
ENDBRANCH   5   6
ENDBRANCH   4   5
ENDBRANCH   3   4
ENDBRANCH   2   3
TORSDOF 15
ENDMDL
MODEL      199
REMARK 921   NORMALIZED FREE ENERGY PREDICTED BY IDOCK:   -3.50 KCAL/MOL
REMARK 922        TOTAL FREE ENERGY PREDICTED BY IDOCK:   -8.37 KCAL/MOL
REMARK 923 INTER-LIGAND FREE ENERGY PREDICTED BY IDOCK:   -6.00 KCAL/MOL
REMARK 924 INTRA-LIGAND FREE ENERGY PREDICTED BY IDOCK:   -2.37 KCAL/MOL
REMARK 927      BINDING AFFINITY PREDICTED BY RF-SCORE:    0.00 PKD
ROOT
HETATM    1  C   UNL     1      -9.492   7.895  73.416  1.00  0.00    -0.341 C  
HETATM    2  C   UNL     1     -10.896   7.536  72.964  1.00  0.00    -0.445 C  
ENDROOT
BRANCH   2   3
HETATM    3  C   UNL     1     -11.009   6.046  72.651  1.00  0.00    -0.301 C  
BRANCH   3   4
HETATM    4  C   UNL     1     -10.725   5.772  71.178  1.00  0.00    -0.327 C  
BRANCH   4   5
HETATM    5  C   UNL     1     -11.726   6.502  70.288  1.00  0.00    -0.430 C  
BRANCH   5   6
HETATM    6  C   UNL     1     -11.252   6.520  68.839  1.00  0.00    -0.341 C  
BRANCH   6   7
HETATM    7  C   UNL     1      -9.740   6.356  68.764  1.00  0.00    -0.135 C  
BRANCH   7   8
HETATM    8  C   UNL     1      -9.096   7.573  68.110  1.00  0.00    -0.128 C  
BRANCH   8   9
HETATM    9  C   UNL     1      -7.967   8.115  68.977  1.00  0.00    -0.113 C  
BRANCH   9  10
HETATM   10  C   UNL     1      -8.525   8.862  70.182  1.00  0.00    -0.150 C  
BRANCH  10  11
HETATM   11  C   UNL     1      -9.391  10.036  69.736  1.00  0.00    -0.233 C  
BRANCH  11  12
HETATM   12  C   UNL     1     -10.754   9.985  70.412  1.00  0.00    -0.369 C  
BRANCH  12  13
HETATM   13  C   UNL     1     -11.810  10.674  69.557  1.00  0.00    -0.345 C  
BRANCH  13  14
HETATM   14  C   UNL     1     -11.284  10.916  68.146  1.00  0.00    -0.363 C  
BRANCH  14  15
HETATM   15  C   UNL     1     -11.725  12.279  67.620  1.00  0.00    -0.403 C  
BRANCH  15  16
HETATM   16  C   UNL     1     -11.194  13.399  68.512  1.00  0.00    -0.316 C  
BRANCH  16  17
HETATM   17  C   UNL     1     -11.362  14.763  67.849  1.00  0.00    -0.331 C  
HETATM   18  C   UNL     1     -10.790  15.872  68.700  1.00  0.00    -0.291 C  
HETATM   19  O   UNL     1     -10.254  15.729  69.786  1.00  0.00    -0.271 OA 
HETATM   20  O   UNL     1     -10.935  17.087  68.119  1.00  0.00    -0.367 OA 
ENDBRANCH  16  17
ENDBRANCH  15  16
ENDBRANCH  14  15
ENDBRANCH  13  14
ENDBRANCH  12  13
ENDBRANCH  11  12
ENDBRANCH  10  11
ENDBRANCH   9  10
ENDBRANCH   8   9
ENDBRANCH   7   8
ENDBRANCH   6   7
ENDBRANCH   5   6
ENDBRANCH   4   5
ENDBRANCH   3   4
ENDBRANCH   2   3
TORSDOF 15
ENDMDL
MODEL      200
REMARK 921   NORMALIZED FREE ENERGY PREDICTED BY IDOCK:   -3.50 KCAL/MOL
REMARK 922        TOTAL FREE ENERGY PREDICTED BY IDOCK:   -8.36 KCAL/MOL
REMARK 923 INTER-LIGAND FREE ENERGY PREDICTED BY IDOCK:   -5.84 KCAL/MOL
REMARK 924 INTRA-LIGAND FREE ENERGY PREDICTED BY IDOCK:   -2.52 KCAL/MOL
REMARK 927      BINDING AFFINITY PREDICTED BY RF-SCORE:    0.00 PKD
ROOT
HETATM    1  C   UNL     1     -12.702  13.440  65.190  1.00  0.00    -0.459 C  
HETATM    2  C   UNL     1     -12.064  13.380  63.814  1.00  0.00    -0.516 C  
ENDROOT
BRANCH   2   3
HETATM    3  C   UNL     1     -11.644  11.955  63.462  1.00  0.00    -0.537 C  
BRANCH   3   4
HETATM    4  C   UNL     1     -10.126  11.810  63.479  1.00  0.00    -0.463 C  
BRANCH   4   5
HETATM    5  C   UNL     1      -9.704  10.643  64.367  1.00  0.00    -0.368 C  
BRANCH   5   6
HETATM    6  C   UNL     1     -10.388  10.721  65.728  1.00  0.00    -0.295 C  
BRANCH   6   7
HETATM    7  C   UNL     1     -10.032   9.509  66.580  1.00  0.00    -0.329 C  
BRANCH   7   8
HETATM    8  C   UNL     1     -10.440   9.730  68.031  1.00  0.00    -0.271 C  
BRANCH   8   9
HETATM    9  C   UNL     1      -9.314  10.395  68.811  1.00  0.00    -0.175 C  
BRANCH   9  10
HETATM   10  C   UNL     1      -7.959   9.857  68.366  1.00  0.00    -0.096 C  
BRANCH  10  11
HETATM   11  C   UNL     1      -6.914  10.969  68.354  1.00  0.00    -0.071 C  
BRANCH  11  12
HETATM   12  C   UNL     1      -7.165  11.929  67.200  1.00  0.00    -0.144 C  
BRANCH  12  13
HETATM   13  C   UNL     1      -6.897  13.368  67.623  1.00  0.00    -0.172 C  
BRANCH  13  14
HETATM   14  C   UNL     1      -8.191  14.052  68.050  1.00  0.00    -0.155 C  
BRANCH  14  15
HETATM   15  C   UNL     1      -9.301  13.820  67.029  1.00  0.00    -0.250 C  
BRANCH  15  16
HETATM   16  C   UNL     1      -9.504  15.060  66.161  1.00  0.00    -0.347 C  
BRANCH  16  17
HETATM   17  C   UNL     1     -10.561  15.985  66.756  1.00  0.00    -0.297 C  
HETATM   18  C   UNL     1      -9.956  17.278  67.252  1.00  0.00    -0.283 C  
HETATM   19  O   UNL     1      -8.773  17.574  67.200  1.00  0.00    -0.227 OA 
HETATM   20  O   UNL     1     -10.887  18.106  67.783  1.00  0.00    -0.385 OA 
ENDBRANCH  16  17
ENDBRANCH  15  16
ENDBRANCH  14  15
ENDBRANCH  13  14
ENDBRANCH  12  13
ENDBRANCH  11  12
ENDBRANCH  10  11
ENDBRANCH   9  10
ENDBRANCH   8   9
ENDBRANCH   7   8
ENDBRANCH   6   7
ENDBRANCH   5   6
ENDBRANCH   4   5
ENDBRANCH   3   4
ENDBRANCH   2   3
TORSDOF 15
ENDMDL
MODEL      201
REMARK 921   NORMALIZED FREE ENERGY PREDICTED BY IDOCK:   -3.49 KCAL/MOL
REMARK 922        TOTAL FREE ENERGY PREDICTED BY IDOCK:   -8.35 KCAL/MOL
REMARK 923 INTER-LIGAND FREE ENERGY PREDICTED BY IDOCK:   -6.59 KCAL/MOL
REMARK 924 INTRA-LIGAND FREE ENERGY PREDICTED BY IDOCK:   -1.76 KCAL/MOL
REMARK 927      BINDING AFFINITY PREDICTED BY RF-SCORE:    0.00 PKD
ROOT
HETATM    1  C   UNL     1      -7.297  18.682  68.778  1.00  0.00    -0.326 C  
HETATM    2  C   UNL     1      -7.346  19.047  67.306  1.00  0.00    -0.237 C  
ENDROOT
BRANCH   2   3
HETATM    3  C   UNL     1      -8.368  20.152  67.046  1.00  0.00    -0.382 C  
BRANCH   3   4
HETATM    4  C   UNL     1      -9.636  19.930  67.864  1.00  0.00    -0.490 C  
BRANCH   4   5
HETATM    5  C   UNL     1     -10.779  19.458  66.972  1.00  0.00    -0.582 C  
BRANCH   5   6
HETATM    6  C   UNL     1     -10.522  18.043  66.463  1.00  0.00    -0.341 C  
BRANCH   6   7
HETATM    7  C   UNL     1     -10.657  17.031  67.594  1.00  0.00    -0.333 C  
BRANCH   7   8
HETATM    8  C   UNL     1      -9.512  16.026  67.560  1.00  0.00    -0.223 C  
BRANCH   8   9
HETATM    9  C   UNL     1     -10.042  14.616  67.333  1.00  0.00    -0.232 C  
BRANCH   9  10
HETATM   10  C   UNL     1     -11.565  14.615  67.275  1.00  0.00    -0.404 C  
BRANCH  10  11
HETATM   11  C   UNL     1     -12.056  13.927  66.005  1.00  0.00    -0.465 C  
BRANCH  11  12
HETATM   12  C   UNL     1     -11.077  14.149  64.861  1.00  0.00    -0.389 C  
BRANCH  12  13
HETATM   13  C   UNL     1     -10.859  12.862  64.076  1.00  0.00    -0.443 C  
BRANCH  13  14
HETATM   14  C   UNL     1     -10.771  11.666  65.018  1.00  0.00    -0.351 C  
BRANCH  14  15
HETATM   15  C   UNL     1      -9.363  11.515  65.587  1.00  0.00    -0.221 C  
BRANCH  15  16
HETATM   16  C   UNL     1      -9.334  10.445  66.677  1.00  0.00    -0.185 C  
BRANCH  16  17
HETATM   17  C   UNL     1     -10.311   9.314  66.369  1.00  0.00    -0.238 C  
HETATM   18  C   UNL     1     -10.137   8.152  67.320  1.00  0.00    -0.241 C  
HETATM   19  O   UNL     1      -9.325   8.094  68.229  1.00  0.00    -0.135 OA 
HETATM   20  O   UNL     1     -11.000   7.143  67.054  1.00  0.00    -0.369 OA 
ENDBRANCH  16  17
ENDBRANCH  15  16
ENDBRANCH  14  15
ENDBRANCH  13  14
ENDBRANCH  12  13
ENDBRANCH  11  12
ENDBRANCH  10  11
ENDBRANCH   9  10
ENDBRANCH   8   9
ENDBRANCH   7   8
ENDBRANCH   6   7
ENDBRANCH   5   6
ENDBRANCH   4   5
ENDBRANCH   3   4
ENDBRANCH   2   3
TORSDOF 15
ENDMDL
MODEL      202
REMARK 921   NORMALIZED FREE ENERGY PREDICTED BY IDOCK:   -3.49 KCAL/MOL
REMARK 922        TOTAL FREE ENERGY PREDICTED BY IDOCK:   -8.34 KCAL/MOL
REMARK 923 INTER-LIGAND FREE ENERGY PREDICTED BY IDOCK:   -6.87 KCAL/MOL
REMARK 924 INTRA-LIGAND FREE ENERGY PREDICTED BY IDOCK:   -1.47 KCAL/MOL
REMARK 927      BINDING AFFINITY PREDICTED BY RF-SCORE:    0.00 PKD
ROOT
HETATM    1  C   UNL     1      -9.186   5.659  72.048  1.00  0.00    -0.155 C  
HETATM    2  C   UNL     1     -10.692   5.479  72.112  1.00  0.00    -0.288 C  
ENDROOT
BRANCH   2   3
HETATM    3  C   UNL     1     -11.398   6.391  71.112  1.00  0.00    -0.376 C  
BRANCH   3   4
HETATM    4  C   UNL     1     -12.728   6.890  71.668  1.00  0.00    -0.396 C  
BRANCH   4   5
HETATM    5  C   UNL     1     -12.904   8.380  71.396  1.00  0.00    -0.262 C  
BRANCH   5   6
HETATM    6  C   UNL     1     -11.713   9.173  71.925  1.00  0.00    -0.436 C  
BRANCH   6   7
HETATM    7  C   UNL     1     -11.299  10.251  70.930  1.00  0.00    -0.376 C  
BRANCH   7   8
HETATM    8  C   UNL     1     -10.155   9.763  70.049  1.00  0.00    -0.301 C  
BRANCH   8   9
HETATM    9  C   UNL     1     -10.542   9.835  68.578  1.00  0.00    -0.252 C  
BRANCH   9  10
HETATM   10  C   UNL     1     -11.629  10.880  68.357  1.00  0.00    -0.346 C  
BRANCH  10  11
HETATM   11  C   UNL     1     -11.329  11.717  67.117  1.00  0.00    -0.373 C  
BRANCH  11  12
HETATM   12  C   UNL     1     -11.565  13.194  67.397  1.00  0.00    -0.403 C  
BRANCH  12  13
HETATM   13  C   UNL     1     -10.790  13.644  68.629  1.00  0.00    -0.283 C  
BRANCH  13  14
HETATM   14  C   UNL     1      -9.469  14.292  68.225  1.00  0.00    -0.209 C  
BRANCH  14  15
HETATM   15  C   UNL     1      -9.305  15.662  68.877  1.00  0.00    -0.223 C  
BRANCH  15  16
HETATM   16  C   UNL     1      -9.180  16.753  67.816  1.00  0.00    -0.222 C  
BRANCH  16  17
HETATM   17  C   UNL     1      -9.863  16.342  66.516  1.00  0.00    -0.287 C  
HETATM   18  C   UNL     1     -10.457  17.531  65.797  1.00  0.00    -0.207 C  
HETATM   19  O   UNL     1     -10.414  18.688  66.182  1.00  0.00    -0.433 OA 
HETATM   20  O   UNL     1     -11.066  17.176  64.641  1.00  0.00    -1.036 OA 
ENDBRANCH  16  17
ENDBRANCH  15  16
ENDBRANCH  14  15
ENDBRANCH  13  14
ENDBRANCH  12  13
ENDBRANCH  11  12
ENDBRANCH  10  11
ENDBRANCH   9  10
ENDBRANCH   8   9
ENDBRANCH   7   8
ENDBRANCH   6   7
ENDBRANCH   5   6
ENDBRANCH   4   5
ENDBRANCH   3   4
ENDBRANCH   2   3
TORSDOF 15
ENDMDL
MODEL      203
REMARK 921   NORMALIZED FREE ENERGY PREDICTED BY IDOCK:   -3.49 KCAL/MOL
REMARK 922        TOTAL FREE ENERGY PREDICTED BY IDOCK:   -8.34 KCAL/MOL
REMARK 923 INTER-LIGAND FREE ENERGY PREDICTED BY IDOCK:   -6.67 KCAL/MOL
REMARK 924 INTRA-LIGAND FREE ENERGY PREDICTED BY IDOCK:   -1.67 KCAL/MOL
REMARK 927      BINDING AFFINITY PREDICTED BY RF-SCORE:    0.00 PKD
ROOT
HETATM    1  C   UNL     1     -12.148  10.873  69.856  1.00  0.00    -0.428 C  
HETATM    2  C   UNL     1     -11.097  10.124  70.656  1.00  0.00    -0.397 C  
ENDROOT
BRANCH   2   3
HETATM    3  C   UNL     1     -11.740   9.078  71.564  1.00  0.00    -0.415 C  
BRANCH   3   4
HETATM    4  C   UNL     1     -10.948   7.775  71.548  1.00  0.00    -0.267 C  
BRANCH   4   5
HETATM    5  C   UNL     1     -11.457   6.846  70.450  1.00  0.00    -0.387 C  
BRANCH   5   6
HETATM    6  C   UNL     1     -10.337   6.484  69.481  1.00  0.00    -0.237 C  
BRANCH   6   7
HETATM    7  C   UNL     1      -9.031   7.150  69.894  1.00  0.00    -0.142 C  
BRANCH   7   8
HETATM    8  C   UNL     1      -8.033   7.143  68.743  1.00  0.00    -0.123 C  
BRANCH   8   9
HETATM    9  C   UNL     1      -7.499   8.546  68.486  1.00  0.00    -0.094 C  
BRANCH   9  10
HETATM   10  C   UNL     1      -8.645   9.523  68.248  1.00  0.00    -0.120 C  
BRANCH  10  11
HETATM   11  C   UNL     1      -9.254   9.315  66.865  1.00  0.00    -0.178 C  
BRANCH  11  12
HETATM   12  C   UNL     1      -9.415  10.645  66.143  1.00  0.00    -0.218 C  
BRANCH  12  13
HETATM   13  C   UNL     1     -10.244  11.617  66.974  1.00  0.00    -0.240 C  
BRANCH  13  14
HETATM   14  C   UNL     1     -11.472  12.076  66.196  1.00  0.00    -0.401 C  
BRANCH  14  15
HETATM   15  C   UNL     1     -11.659  13.587  66.302  1.00  0.00    -0.374 C  
BRANCH  15  16
HETATM   16  C   UNL     1     -10.729  14.314  65.333  1.00  0.00    -0.353 C  
BRANCH  16  17
HETATM   17  C   UNL     1     -10.335  15.687  65.868  1.00  0.00    -0.368 C  
HETATM   18  C   UNL     1     -10.829  16.799  64.972  1.00  0.00    -0.117 C  
HETATM   19  O   UNL     1     -11.466  16.651  63.942  1.00  0.00    -1.186 OA 
HETATM   20  O   UNL     1     -10.484  18.022  65.439  1.00  0.00    -0.621 OA 
ENDBRANCH  16  17
ENDBRANCH  15  16
ENDBRANCH  14  15
ENDBRANCH  13  14
ENDBRANCH  12  13
ENDBRANCH  11  12
ENDBRANCH  10  11
ENDBRANCH   9  10
ENDBRANCH   8   9
ENDBRANCH   7   8
ENDBRANCH   6   7
ENDBRANCH   5   6
ENDBRANCH   4   5
ENDBRANCH   3   4
ENDBRANCH   2   3
TORSDOF 15
ENDMDL
MODEL      204
REMARK 921   NORMALIZED FREE ENERGY PREDICTED BY IDOCK:   -3.48 KCAL/MOL
REMARK 922        TOTAL FREE ENERGY PREDICTED BY IDOCK:   -8.32 KCAL/MOL
REMARK 923 INTER-LIGAND FREE ENERGY PREDICTED BY IDOCK:   -6.31 KCAL/MOL
REMARK 924 INTRA-LIGAND FREE ENERGY PREDICTED BY IDOCK:   -2.01 KCAL/MOL
REMARK 927      BINDING AFFINITY PREDICTED BY RF-SCORE:    0.00 PKD
ROOT
HETATM    1  C   UNL     1     -10.191   7.334  71.285  1.00  0.00    -0.198 C  
HETATM    2  C   UNL     1      -9.518   8.658  71.596  1.00  0.00    -0.339 C  
ENDROOT
BRANCH   2   3
HETATM    3  C   UNL     1      -8.877   9.256  70.345  1.00  0.00    -0.271 C  
BRANCH   3   4
HETATM    4  C   UNL     1      -8.912   8.268  69.184  1.00  0.00    -0.147 C  
BRANCH   4   5
HETATM    5  C   UNL     1      -9.228   8.984  67.875  1.00  0.00    -0.151 C  
BRANCH   5   6
HETATM    6  C   UNL     1     -10.670   9.480  67.860  1.00  0.00    -0.285 C  
BRANCH   6   7
HETATM    7  C   UNL     1     -10.718  10.993  67.698  1.00  0.00    -0.281 C  
BRANCH   7   8
HETATM    8  C   UNL     1     -11.890  11.584  68.472  1.00  0.00    -0.365 C  
BRANCH   8   9
HETATM    9  C   UNL     1     -12.129  10.808  69.761  1.00  0.00    -0.389 C  
BRANCH   9  10
HETATM   10  C   UNL     1     -12.392  11.759  70.922  1.00  0.00    -0.420 C  
BRANCH  10  11
HETATM   11  C   UNL     1     -12.068  13.196  70.527  1.00  0.00    -0.385 C  
BRANCH  11  12
HETATM   12  C   UNL     1     -12.440  14.158  71.647  1.00  0.00    -0.395 C  
BRANCH  12  13
HETATM   13  C   UNL     1     -11.940  15.564  71.343  1.00  0.00    -0.455 C  
BRANCH  13  14
HETATM   14  C   UNL     1     -11.953  15.826  69.841  1.00  0.00    -0.346 C  
BRANCH  14  15
HETATM   15  C   UNL     1     -10.562  16.194  69.333  1.00  0.00    -0.300 C  
BRANCH  15  16
HETATM   16  C   UNL     1      -9.969  15.053  68.509  1.00  0.00    -0.219 C  
BRANCH  16  17
HETATM   17  C   UNL     1     -10.721  14.869  67.195  1.00  0.00    -0.296 C  
HETATM   18  C   UNL     1      -9.920  15.375  66.018  1.00  0.00    -0.324 C  
HETATM   19  O   UNL     1      -8.809  15.874  66.077  1.00  0.00    -0.333 OA 
HETATM   20  O   UNL     1     -10.581  15.216  64.846  1.00  0.00    -0.411 OA 
ENDBRANCH  16  17
ENDBRANCH  15  16
ENDBRANCH  14  15
ENDBRANCH  13  14
ENDBRANCH  12  13
ENDBRANCH  11  12
ENDBRANCH  10  11
ENDBRANCH   9  10
ENDBRANCH   8   9
ENDBRANCH   7   8
ENDBRANCH   6   7
ENDBRANCH   5   6
ENDBRANCH   4   5
ENDBRANCH   3   4
ENDBRANCH   2   3
TORSDOF 15
ENDMDL
MODEL      205
REMARK 921   NORMALIZED FREE ENERGY PREDICTED BY IDOCK:   -3.47 KCAL/MOL
REMARK 922        TOTAL FREE ENERGY PREDICTED BY IDOCK:   -8.31 KCAL/MOL
REMARK 923 INTER-LIGAND FREE ENERGY PREDICTED BY IDOCK:   -6.67 KCAL/MOL
REMARK 924 INTRA-LIGAND FREE ENERGY PREDICTED BY IDOCK:   -1.64 KCAL/MOL
REMARK 927      BINDING AFFINITY PREDICTED BY RF-SCORE:    0.00 PKD
ROOT
HETATM    1  C   UNL     1      -7.580  11.112  68.917  1.00  0.00    -0.133 C  
HETATM    2  C   UNL     1      -7.151   9.851  68.188  1.00  0.00    -0.077 C  
ENDROOT
BRANCH   2   3
HETATM    3  C   UNL     1      -8.033   8.666  68.574  1.00  0.00    -0.116 C  
BRANCH   3   4
HETATM    4  C   UNL     1      -8.172   7.685  67.414  1.00  0.00    -0.116 C  
BRANCH   4   5
HETATM    5  C   UNL     1      -9.617   7.623  66.929  1.00  0.00    -0.249 C  
BRANCH   5   6
HETATM    6  C   UNL     1     -10.147   9.018  66.617  1.00  0.00    -0.355 C  
BRANCH   6   7
HETATM    7  C   UNL     1      -9.642   9.494  65.261  1.00  0.00    -0.314 C  
BRANCH   7   8
HETATM    8  C   UNL     1      -9.486  11.010  65.243  1.00  0.00    -0.259 C  
BRANCH   8   9
HETATM    9  C   UNL     1     -10.753  11.674  64.720  1.00  0.00    -0.365 C  
BRANCH   9  10
HETATM   10  C   UNL     1     -11.456  12.444  65.832  1.00  0.00    -0.422 C  
BRANCH  10  11
HETATM   11  C   UNL     1     -10.457  12.894  66.893  1.00  0.00    -0.252 C  
BRANCH  11  12
HETATM   12  C   UNL     1     -11.026  12.686  68.289  1.00  0.00    -0.275 C  
BRANCH  12  13
HETATM   13  C   UNL     1     -12.147  13.678  68.572  1.00  0.00    -0.321 C  
BRANCH  13  14
HETATM   14  C   UNL     1     -11.704  15.098  68.238  1.00  0.00    -0.336 C  
BRANCH  14  15
HETATM   15  C   UNL     1     -11.561  15.942  69.502  1.00  0.00    -0.337 C  
BRANCH  15  16
HETATM   16  C   UNL     1     -12.461  15.407  70.613  1.00  0.00    -0.478 C  
BRANCH  16  17
HETATM   17  C   UNL     1     -11.867  15.687  71.990  1.00  0.00    -0.548 C  
HETATM   18  C   UNL     1     -12.708  15.089  73.093  1.00  0.00    -0.486 C  
HETATM   19  O   UNL     1     -13.740  14.456  72.936  1.00  0.00    -0.598 OA 
HETATM   20  O   UNL     1     -12.189  15.332  74.320  1.00  0.00    -0.630 OA 
ENDBRANCH  16  17
ENDBRANCH  15  16
ENDBRANCH  14  15
ENDBRANCH  13  14
ENDBRANCH  12  13
ENDBRANCH  11  12
ENDBRANCH  10  11
ENDBRANCH   9  10
ENDBRANCH   8   9
ENDBRANCH   7   8
ENDBRANCH   6   7
ENDBRANCH   5   6
ENDBRANCH   4   5
ENDBRANCH   3   4
ENDBRANCH   2   3
TORSDOF 15
ENDMDL
MODEL      206
REMARK 921   NORMALIZED FREE ENERGY PREDICTED BY IDOCK:   -3.47 KCAL/MOL
REMARK 922        TOTAL FREE ENERGY PREDICTED BY IDOCK:   -8.31 KCAL/MOL
REMARK 923 INTER-LIGAND FREE ENERGY PREDICTED BY IDOCK:   -6.02 KCAL/MOL
REMARK 924 INTRA-LIGAND FREE ENERGY PREDICTED BY IDOCK:   -2.29 KCAL/MOL
REMARK 927      BINDING AFFINITY PREDICTED BY RF-SCORE:    0.00 PKD
ROOT
HETATM    1  C   UNL     1     -10.615   8.433  67.618  1.00  0.00    -0.265 C  
HETATM    2  C   UNL     1      -9.702   8.778  68.781  1.00  0.00    -0.171 C  
ENDROOT
BRANCH   2   3
HETATM    3  C   UNL     1      -9.843  10.246  69.176  1.00  0.00    -0.228 C  
BRANCH   3   4
HETATM    4  C   UNL     1     -11.122  10.479  69.974  1.00  0.00    -0.376 C  
BRANCH   4   5
HETATM    5  C   UNL     1     -11.756  11.815  69.601  1.00  0.00    -0.413 C  
BRANCH   5   6
HETATM    6  C   UNL     1     -11.475  12.162  68.143  1.00  0.00    -0.375 C  
BRANCH   6   7
HETATM    7  C   UNL     1     -11.963  13.568  67.820  1.00  0.00    -0.369 C  
BRANCH   7   8
HETATM    8  C   UNL     1     -11.502  13.995  66.431  1.00  0.00    -0.361 C  
BRANCH   8   9
HETATM    9  C   UNL     1     -12.621  13.818  65.414  1.00  0.00    -0.534 C  
BRANCH   9  10
HETATM   10  C   UNL     1     -12.468  12.497  64.669  1.00  0.00    -0.539 C  
BRANCH  10  11
HETATM   11  C   UNL     1     -11.554  12.663  63.460  1.00  0.00    -0.584 C  
BRANCH  11  12
HETATM   12  C   UNL     1     -10.437  11.629  63.485  1.00  0.00    -0.498 C  
BRANCH  12  13
HETATM   13  C   UNL     1     -10.448  10.850  64.795  1.00  0.00    -0.373 C  
BRANCH  13  14
HETATM   14  C   UNL     1      -9.105  10.978  65.507  1.00  0.00    -0.225 C  
BRANCH  14  15
HETATM   15  C   UNL     1      -8.041  10.113  64.837  1.00  0.00    -0.153 C  
BRANCH  15  16
HETATM   16  C   UNL     1      -8.456   8.644  64.848  1.00  0.00    -0.180 C  
BRANCH  16  17
HETATM   17  C   UNL     1      -7.401   7.775  65.525  1.00  0.00    -0.073 C  
HETATM   18  C   UNL     1      -7.943   6.409  65.876  1.00  0.00    -0.117 C  
HETATM   19  O   UNL     1      -9.078   6.019  65.659  1.00  0.00    -0.124 OA 
HETATM   20  O   UNL     1      -7.013   5.630  66.478  1.00  0.00    -0.061 OA 
ENDBRANCH  16  17
ENDBRANCH  15  16
ENDBRANCH  14  15
ENDBRANCH  13  14
ENDBRANCH  12  13
ENDBRANCH  11  12
ENDBRANCH  10  11
ENDBRANCH   9  10
ENDBRANCH   8   9
ENDBRANCH   7   8
ENDBRANCH   6   7
ENDBRANCH   5   6
ENDBRANCH   4   5
ENDBRANCH   3   4
ENDBRANCH   2   3
TORSDOF 15
ENDMDL
MODEL      207
REMARK 921   NORMALIZED FREE ENERGY PREDICTED BY IDOCK:   -3.47 KCAL/MOL
REMARK 922        TOTAL FREE ENERGY PREDICTED BY IDOCK:   -8.31 KCAL/MOL
REMARK 923 INTER-LIGAND FREE ENERGY PREDICTED BY IDOCK:   -6.17 KCAL/MOL
REMARK 924 INTRA-LIGAND FREE ENERGY PREDICTED BY IDOCK:   -2.13 KCAL/MOL
REMARK 927      BINDING AFFINITY PREDICTED BY RF-SCORE:    0.00 PKD
ROOT
HETATM    1  C   UNL     1      -6.620  13.651  69.310  1.00  0.00    -0.110 C  
HETATM    2  C   UNL     1      -7.106  14.550  68.188  1.00  0.00    -0.125 C  
ENDROOT
BRANCH   2   3
HETATM    3  C   UNL     1      -8.291  13.924  67.456  1.00  0.00    -0.202 C  
BRANCH   3   4
HETATM    4  C   UNL     1      -9.565  14.020  68.289  1.00  0.00    -0.224 C  
BRANCH   4   5
HETATM    5  C   UNL     1     -10.713  14.586  67.459  1.00  0.00    -0.276 C  
BRANCH   5   6
HETATM    6  C   UNL     1     -11.490  15.634  68.250  1.00  0.00    -0.353 C  
BRANCH   6   7
HETATM    7  C   UNL     1     -10.567  16.386  69.199  1.00  0.00    -0.308 C  
BRANCH   7   8
HETATM    8  C   UNL     1     -11.173  16.462  70.596  1.00  0.00    -0.211 C  
BRANCH   8   9
HETATM    9  C   UNL     1     -12.373  15.532  70.711  1.00  0.00    -0.463 C  
BRANCH   9  10
HETATM   10  C   UNL     1     -12.909  15.519  72.138  1.00  0.00    -0.492 C  
BRANCH  10  11
HETATM   11  C   UNL     1     -13.375  14.119  72.527  1.00  0.00    -0.616 C  
BRANCH  11  12
HETATM   12  C   UNL     1     -12.957  13.103  71.474  1.00  0.00    -0.412 C  
BRANCH  12  13
HETATM   13  C   UNL     1     -13.095  11.682  72.006  1.00  0.00    -0.433 C  
BRANCH  13  14
HETATM   14  C   UNL     1     -12.492  10.681  71.026  1.00  0.00    -0.515 C  
BRANCH  14  15
HETATM   15  C   UNL     1     -11.619  11.382  69.990  1.00  0.00    -0.382 C  
BRANCH  15  16
HETATM   16  C   UNL     1     -11.807  10.752  68.611  1.00  0.00    -0.208 C  
BRANCH  16  17
HETATM   17  C   UNL     1     -10.465  10.443  67.955  1.00  0.00    -0.232 C  
HETATM   18  C   UNL     1     -10.442  10.864  66.504  1.00  0.00    -0.253 C  
HETATM   19  O   UNL     1     -11.365  11.388  65.903  1.00  0.00    -0.190 OA 
HETATM   20  O   UNL     1      -9.254  10.593  65.913  1.00  0.00    -0.169 OA 
ENDBRANCH  16  17
ENDBRANCH  15  16
ENDBRANCH  14  15
ENDBRANCH  13  14
ENDBRANCH  12  13
ENDBRANCH  11  12
ENDBRANCH  10  11
ENDBRANCH   9  10
ENDBRANCH   8   9
ENDBRANCH   7   8
ENDBRANCH   6   7
ENDBRANCH   5   6
ENDBRANCH   4   5
ENDBRANCH   3   4
ENDBRANCH   2   3
TORSDOF 15
ENDMDL
MODEL      208
REMARK 921   NORMALIZED FREE ENERGY PREDICTED BY IDOCK:   -3.46 KCAL/MOL
REMARK 922        TOTAL FREE ENERGY PREDICTED BY IDOCK:   -8.30 KCAL/MOL
REMARK 923 INTER-LIGAND FREE ENERGY PREDICTED BY IDOCK:   -6.98 KCAL/MOL
REMARK 924 INTRA-LIGAND FREE ENERGY PREDICTED BY IDOCK:   -1.32 KCAL/MOL
REMARK 927      BINDING AFFINITY PREDICTED BY RF-SCORE:    0.00 PKD
ROOT
HETATM    1  C   UNL     1     -11.455   6.719  72.237  1.00  0.00    -0.314 C  
HETATM    2  C   UNL     1     -11.953   8.152  72.203  1.00  0.00    -0.413 C  
ENDROOT
BRANCH   2   3
HETATM    3  C   UNL     1     -10.969   9.060  71.468  1.00  0.00    -0.418 C  
BRANCH   3   4
HETATM    4  C   UNL     1     -11.700  10.169  70.718  1.00  0.00    -0.446 C  
BRANCH   4   5
HETATM    5  C   UNL     1     -12.821  10.752  71.573  1.00  0.00    -0.567 C  
BRANCH   5   6
HETATM    6  C   UNL     1     -13.029  12.230  71.260  1.00  0.00    -0.299 C  
BRANCH   6   7
HETATM    7  C   UNL     1     -13.505  12.980  72.498  1.00  0.00    -0.522 C  
BRANCH   7   8
HETATM    8  C   UNL     1     -12.972  14.408  72.504  1.00  0.00    -0.501 C  
BRANCH   8   9
HETATM    9  C   UNL     1     -12.016  14.629  71.339  1.00  0.00    -0.405 C  
BRANCH   9  10
HETATM   10  C   UNL     1     -12.579  15.659  70.367  1.00  0.00    -0.376 C  
BRANCH  10  11
HETATM   11  C   UNL     1     -11.657  15.827  69.164  1.00  0.00    -0.399 C  
BRANCH  11  12
HETATM   12  C   UNL     1     -10.865  14.552  68.912  1.00  0.00    -0.262 C  
BRANCH  12  13
HETATM   13  C   UNL     1      -9.500  14.869  68.314  1.00  0.00    -0.210 C  
BRANCH  13  14
HETATM   14  C   UNL     1      -8.506  15.236  69.411  1.00  0.00    -0.231 C  
BRANCH  14  15
HETATM   15  C   UNL     1      -7.705  16.480  69.035  1.00  0.00    -0.228 C  
BRANCH  15  16
HETATM   16  C   UNL     1      -8.417  17.269  67.939  1.00  0.00    -0.218 C  
BRANCH  16  17
HETATM   17  C   UNL     1      -8.407  18.765  68.237  1.00  0.00    -0.360 C  
HETATM   18  C   UNL     1      -7.626  19.536  67.197  1.00  0.00    -0.244 C  
HETATM   19  O   UNL     1      -7.063  19.052  66.229  1.00  0.00    -0.219 OA 
HETATM   20  O   UNL     1      -7.611  20.866  67.454  1.00  0.00    -0.345 OA 
ENDBRANCH  16  17
ENDBRANCH  15  16
ENDBRANCH  14  15
ENDBRANCH  13  14
ENDBRANCH  12  13
ENDBRANCH  11  12
ENDBRANCH  10  11
ENDBRANCH   9  10
ENDBRANCH   8   9
ENDBRANCH   7   8
ENDBRANCH   6   7
ENDBRANCH   5   6
ENDBRANCH   4   5
ENDBRANCH   3   4
ENDBRANCH   2   3
TORSDOF 15
ENDMDL
MODEL      209
REMARK 921   NORMALIZED FREE ENERGY PREDICTED BY IDOCK:   -3.46 KCAL/MOL
REMARK 922        TOTAL FREE ENERGY PREDICTED BY IDOCK:   -8.29 KCAL/MOL
REMARK 923 INTER-LIGAND FREE ENERGY PREDICTED BY IDOCK:   -6.71 KCAL/MOL
REMARK 924 INTRA-LIGAND FREE ENERGY PREDICTED BY IDOCK:   -1.58 KCAL/MOL
REMARK 927      BINDING AFFINITY PREDICTED BY RF-SCORE:    0.00 PKD
ROOT
HETATM    1  C   UNL     1      -7.926  10.102  63.739  1.00  0.00    -0.153 C  
HETATM    2  C   UNL     1      -9.424  10.125  63.985  1.00  0.00    -0.341 C  
ENDROOT
BRANCH   2   3
HETATM    3  C   UNL     1      -9.741   9.976  65.471  1.00  0.00    -0.355 C  
BRANCH   3   4
HETATM    4  C   UNL     1      -9.776  11.334  66.164  1.00  0.00    -0.251 C  
BRANCH   4   5
HETATM    5  C   UNL     1     -11.185  11.655  66.654  1.00  0.00    -0.362 C  
BRANCH   5   6
HETATM    6  C   UNL     1     -11.981  12.387  65.578  1.00  0.00    -0.453 C  
BRANCH   6   7
HETATM    7  C   UNL     1     -12.401  13.768  66.066  1.00  0.00    -0.499 C  
BRANCH   7   8
HETATM    8  C   UNL     1     -11.894  14.019  67.481  1.00  0.00    -0.442 C  
BRANCH   8   9
HETATM    9  C   UNL     1     -10.868  15.144  67.493  1.00  0.00    -0.301 C  
BRANCH   9  10
HETATM   10  C   UNL     1     -10.657  15.696  66.088  1.00  0.00    -0.325 C  
BRANCH  10  11
HETATM   11  C   UNL     1      -9.274  16.325  65.958  1.00  0.00    -0.351 C  
BRANCH  11  12
HETATM   12  C   UNL     1      -8.482  16.152  67.246  1.00  0.00    -0.203 C  
BRANCH  12  13
HETATM   13  C   UNL     1      -7.002  16.432  67.016  1.00  0.00    -0.254 C  
BRANCH  13  14
HETATM   14  C   UNL     1      -6.676  17.889  67.329  1.00  0.00    -0.192 C  
BRANCH  14  15
HETATM   15  C   UNL     1      -6.548  18.712  66.050  1.00  0.00    -0.277 C  
BRANCH  15  16
HETATM   16  C   UNL     1      -7.643  19.773  65.979  1.00  0.00    -0.340 C  
BRANCH  16  17
HETATM   17  C   UNL     1      -8.320  19.963  67.334  1.00  0.00    -0.366 C  
HETATM   18  C   UNL     1      -9.826  19.936  67.215  1.00  0.00    -0.403 C  
HETATM   19  O   UNL     1     -10.453  19.784  66.179  1.00  0.00    -0.471 OA 
HETATM   20  O   UNL     1     -10.435  20.104  68.412  1.00  0.00    -0.373 OA 
ENDBRANCH  16  17
ENDBRANCH  15  16
ENDBRANCH  14  15
ENDBRANCH  13  14
ENDBRANCH  12  13
ENDBRANCH  11  12
ENDBRANCH  10  11
ENDBRANCH   9  10
ENDBRANCH   8   9
ENDBRANCH   7   8
ENDBRANCH   6   7
ENDBRANCH   5   6
ENDBRANCH   4   5
ENDBRANCH   3   4
ENDBRANCH   2   3
TORSDOF 15
ENDMDL
MODEL      210
REMARK 921   NORMALIZED FREE ENERGY PREDICTED BY IDOCK:   -3.46 KCAL/MOL
REMARK 922        TOTAL FREE ENERGY PREDICTED BY IDOCK:   -8.29 KCAL/MOL
REMARK 923 INTER-LIGAND FREE ENERGY PREDICTED BY IDOCK:   -5.85 KCAL/MOL
REMARK 924 INTRA-LIGAND FREE ENERGY PREDICTED BY IDOCK:   -2.44 KCAL/MOL
REMARK 927      BINDING AFFINITY PREDICTED BY RF-SCORE:    0.00 PKD
ROOT
HETATM    1  C   UNL     1     -10.905   6.240  67.411  1.00  0.00    -0.448 C  
HETATM    2  C   UNL     1     -10.744   7.740  67.239  1.00  0.00    -0.326 C  
ENDROOT
BRANCH   2   3
HETATM    3  C   UNL     1      -9.389   8.082  66.624  1.00  0.00    -0.249 C  
BRANCH   3   4
HETATM    4  C   UNL     1      -8.531   8.884  67.596  1.00  0.00    -0.121 C  
BRANCH   4   5
HETATM    5  C   UNL     1      -7.526   7.981  68.303  1.00  0.00    -0.100 C  
BRANCH   5   6
HETATM    6  C   UNL     1      -7.811   7.918  69.800  1.00  0.00    -0.104 C  
BRANCH   6   7
HETATM    7  C   UNL     1      -8.451   9.213  70.282  1.00  0.00    -0.208 C  
BRANCH   7   8
HETATM    8  C   UNL     1      -9.457   8.939  71.394  1.00  0.00    -0.344 C  
BRANCH   8   9
HETATM    9  C   UNL     1     -10.292   7.707  71.071  1.00  0.00    -0.208 C  
BRANCH   9  10
HETATM   10  C   UNL     1     -11.776   8.056  71.035  1.00  0.00    -0.295 C  
BRANCH  10  11
HETATM   11  C   UNL     1     -12.035   9.384  71.739  1.00  0.00    -0.452 C  
BRANCH  11  12
HETATM   12  C   UNL     1     -12.913  10.284  70.881  1.00  0.00    -0.456 C  
BRANCH  12  13
HETATM   13  C   UNL     1     -12.093  11.403  70.252  1.00  0.00    -0.459 C  
BRANCH  13  14
HETATM   14  C   UNL     1     -11.438  10.929  68.960  1.00  0.00    -0.371 C  
BRANCH  14  15
HETATM   15  C   UNL     1     -11.144  12.101  68.028  1.00  0.00    -0.292 C  
BRANCH  15  16
HETATM   16  C   UNL     1     -11.373  13.430  68.744  1.00  0.00    -0.332 C  
BRANCH  16  17
HETATM   17  C   UNL     1     -10.188  14.372  68.554  1.00  0.00    -0.243 C  
HETATM   18  C   UNL     1     -10.627  15.817  68.499  1.00  0.00    -0.253 C  
HETATM   19  O   UNL     1     -11.778  16.213  68.591  1.00  0.00    -0.362 OA 
HETATM   20  O   UNL     1      -9.582  16.662  68.331  1.00  0.00    -0.220 OA 
ENDBRANCH  16  17
ENDBRANCH  15  16
ENDBRANCH  14  15
ENDBRANCH  13  14
ENDBRANCH  12  13
ENDBRANCH  11  12
ENDBRANCH  10  11
ENDBRANCH   9  10
ENDBRANCH   8   9
ENDBRANCH   7   8
ENDBRANCH   6   7
ENDBRANCH   5   6
ENDBRANCH   4   5
ENDBRANCH   3   4
ENDBRANCH   2   3
TORSDOF 15
ENDMDL
MODEL      211
REMARK 921   NORMALIZED FREE ENERGY PREDICTED BY IDOCK:   -3.45 KCAL/MOL
REMARK 922        TOTAL FREE ENERGY PREDICTED BY IDOCK:   -8.27 KCAL/MOL
REMARK 923 INTER-LIGAND FREE ENERGY PREDICTED BY IDOCK:   -5.40 KCAL/MOL
REMARK 924 INTRA-LIGAND FREE ENERGY PREDICTED BY IDOCK:   -2.87 KCAL/MOL
REMARK 927      BINDING AFFINITY PREDICTED BY RF-SCORE:    0.00 PKD
ROOT
HETATM    1  C   UNL     1     -13.411   9.747  71.537  1.00  0.00    -0.468 C  
HETATM    2  C   UNL     1     -14.323   8.688  72.128  1.00  0.00    -0.518 C  
ENDROOT
BRANCH   2   3
HETATM    3  C   UNL     1     -13.946   7.296  71.627  1.00  0.00    -0.488 C  
BRANCH   3   4
HETATM    4  C   UNL     1     -12.480   7.239  71.213  1.00  0.00    -0.402 C  
BRANCH   4   5
HETATM    5  C   UNL     1     -11.750   6.125  71.957  1.00  0.00    -0.354 C  
BRANCH   5   6
HETATM    6  C   UNL     1     -10.883   6.696  73.074  1.00  0.00    -0.297 C  
BRANCH   6   7
HETATM    7  C   UNL     1     -10.375   8.084  72.707  1.00  0.00    -0.408 C  
BRANCH   7   8
HETATM    8  C   UNL     1      -8.852   8.126  72.725  1.00  0.00    -0.297 C  
BRANCH   8   9
HETATM    9  C   UNL     1      -8.311   8.594  71.381  1.00  0.00    -0.217 C  
BRANCH   9  10
HETATM   10  C   UNL     1      -9.398   9.300  70.578  1.00  0.00    -0.316 C  
BRANCH  10  11
HETATM   11  C   UNL     1      -8.860   9.755  69.226  1.00  0.00    -0.171 C  
BRANCH  11  12
HETATM   12  C   UNL     1      -8.982   8.641  68.196  1.00  0.00    -0.141 C  
BRANCH  12  13
HETATM   13  C   UNL     1     -10.402   8.088  68.160  1.00  0.00    -0.250 C  
BRANCH  13  14
HETATM   14  C   UNL     1     -10.396   6.579  68.381  1.00  0.00    -0.220 C  
BRANCH  14  15
HETATM   15  C   UNL     1      -8.975   6.023  68.354  1.00  0.00    -0.114 C  
BRANCH  15  16
HETATM   16  C   UNL     1      -8.631   5.360  69.686  1.00  0.00    -0.103 C  
BRANCH  16  17
HETATM   17  C   UNL     1      -9.554   4.180  69.973  1.00  0.00    -0.274 C  
HETATM   18  C   UNL     1      -9.261   3.555  71.317  1.00  0.00    -0.125 C  
HETATM   19  O   UNL     1      -8.400   3.924  72.098  1.00  0.00    -0.089 OA 
HETATM   20  O   UNL     1     -10.077   2.507  71.580  1.00  0.00    -0.144 OA 
ENDBRANCH  16  17
ENDBRANCH  15  16
ENDBRANCH  14  15
ENDBRANCH  13  14
ENDBRANCH  12  13
ENDBRANCH  11  12
ENDBRANCH  10  11
ENDBRANCH   9  10
ENDBRANCH   8   9
ENDBRANCH   7   8
ENDBRANCH   6   7
ENDBRANCH   5   6
ENDBRANCH   4   5
ENDBRANCH   3   4
ENDBRANCH   2   3
TORSDOF 15
ENDMDL
MODEL      212
REMARK 921   NORMALIZED FREE ENERGY PREDICTED BY IDOCK:   -3.44 KCAL/MOL
REMARK 922        TOTAL FREE ENERGY PREDICTED BY IDOCK:   -8.25 KCAL/MOL
REMARK 923 INTER-LIGAND FREE ENERGY PREDICTED BY IDOCK:   -6.77 KCAL/MOL
REMARK 924 INTRA-LIGAND FREE ENERGY PREDICTED BY IDOCK:   -1.48 KCAL/MOL
REMARK 927      BINDING AFFINITY PREDICTED BY RF-SCORE:    0.00 PKD
ROOT
HETATM    1  C   UNL     1      -9.743  20.100  67.121  1.00  0.00    -0.576 C  
HETATM    2  C   UNL     1     -10.188  19.522  68.452  1.00  0.00    -0.536 C  
ENDROOT
BRANCH   2   3
HETATM    3  C   UNL     1     -10.399  18.013  68.353  1.00  0.00    -0.377 C  
BRANCH   3   4
HETATM    4  C   UNL     1     -10.162  17.517  66.931  1.00  0.00    -0.329 C  
BRANCH   4   5
HETATM    5  C   UNL     1      -9.942  16.007  66.914  1.00  0.00    -0.255 C  
BRANCH   5   6
HETATM    6  C   UNL     1      -9.690  15.511  65.494  1.00  0.00    -0.307 C  
BRANCH   6   7
HETATM    7  C   UNL     1     -10.833  15.915  64.571  1.00  0.00    -0.072 C  
BRANCH   7   8
HETATM    8  C   UNL     1     -11.676  14.704  64.191  1.00  0.00    -0.196 C  
BRANCH   8   9
HETATM    9  C   UNL     1     -10.817  13.447  64.140  1.00  0.00    -0.313 C  
BRANCH   9  10
HETATM   10  C   UNL     1     -11.462  12.321  64.940  1.00  0.00    -0.382 C  
BRANCH  10  11
HETATM   11  C   UNL     1     -12.302  12.884  66.082  1.00  0.00    -0.266 C  
BRANCH  11  12
HETATM   12  C   UNL     1     -11.757  12.424  67.427  1.00  0.00    -0.417 C  
BRANCH  12  13
HETATM   13  C   UNL     1     -10.453  11.656  67.251  1.00  0.00    -0.247 C  
BRANCH  13  14
HETATM   14  C   UNL     1     -10.034  11.002  68.563  1.00  0.00    -0.198 C  
BRANCH  14  15
HETATM   15  C   UNL     1     -10.987  11.376  69.694  1.00  0.00    -0.174 C  
BRANCH  15  16
HETATM   16  C   UNL     1     -11.183  10.198  70.646  1.00  0.00    -0.418 C  
BRANCH  16  17
HETATM   17  C   UNL     1     -12.540  10.265  71.339  1.00  0.00    -0.539 C  
HETATM   18  C   UNL     1     -12.952   8.921  71.893  1.00  0.00    -0.382 C  
HETATM   19  O   UNL     1     -12.303   7.891  71.811  1.00  0.00    -0.299 OA 
HETATM   20  O   UNL     1     -14.156   8.970  72.510  1.00  0.00    -0.483 OA 
ENDBRANCH  16  17
ENDBRANCH  15  16
ENDBRANCH  14  15
ENDBRANCH  13  14
ENDBRANCH  12  13
ENDBRANCH  11  12
ENDBRANCH  10  11
ENDBRANCH   9  10
ENDBRANCH   8   9
ENDBRANCH   7   8
ENDBRANCH   6   7
ENDBRANCH   5   6
ENDBRANCH   4   5
ENDBRANCH   3   4
ENDBRANCH   2   3
TORSDOF 15
ENDMDL
MODEL      213
REMARK 921   NORMALIZED FREE ENERGY PREDICTED BY IDOCK:   -3.44 KCAL/MOL
REMARK 922        TOTAL FREE ENERGY PREDICTED BY IDOCK:   -8.25 KCAL/MOL
REMARK 923 INTER-LIGAND FREE ENERGY PREDICTED BY IDOCK:   -6.39 KCAL/MOL
REMARK 924 INTRA-LIGAND FREE ENERGY PREDICTED BY IDOCK:   -1.86 KCAL/MOL
REMARK 927      BINDING AFFINITY PREDICTED BY RF-SCORE:    0.00 PKD
ROOT
HETATM    1  C   UNL     1     -11.064  13.946  65.330  1.00  0.00    -0.310 C  
HETATM    2  C   UNL     1     -12.090  13.491  66.353  1.00  0.00    -0.467 C  
ENDROOT
BRANCH   2   3
HETATM    3  C   UNL     1     -11.987  14.310  67.637  1.00  0.00    -0.400 C  
BRANCH   3   4
HETATM    4  C   UNL     1     -11.087  13.621  68.658  1.00  0.00    -0.299 C  
BRANCH   4   5
HETATM    5  C   UNL     1     -11.865  12.567  69.440  1.00  0.00    -0.368 C  
BRANCH   5   6
HETATM    6  C   UNL     1     -12.508  13.177  70.681  1.00  0.00    -0.363 C  
BRANCH   6   7
HETATM    7  C   UNL     1     -12.986  12.086  71.631  1.00  0.00    -0.439 C  
BRANCH   7   8
HETATM    8  C   UNL     1     -12.554  10.711  71.137  1.00  0.00    -0.526 C  
BRANCH   8   9
HETATM    9  C   UNL     1     -13.371   9.616  71.809  1.00  0.00    -0.505 C  
BRANCH   9  10
HETATM   10  C   UNL     1     -12.544   8.345  71.967  1.00  0.00    -0.400 C  
BRANCH  10  11
HETATM   11  C   UNL     1     -11.080   8.683  72.229  1.00  0.00    -0.395 C  
BRANCH  11  12
HETATM   12  C   UNL     1     -10.168   7.822  71.367  1.00  0.00    -0.211 C  
BRANCH  12  13
HETATM   13  C   UNL     1      -8.937   8.605  70.927  1.00  0.00    -0.227 C  
BRANCH  13  14
HETATM   14  C   UNL     1      -9.337   9.774  70.031  1.00  0.00    -0.274 C  
BRANCH  14  15
HETATM   15  C   UNL     1      -8.264  10.057  68.984  1.00  0.00    -0.124 C  
BRANCH  15  16
HETATM   16  C   UNL     1      -8.561  11.360  68.246  1.00  0.00    -0.156 C  
BRANCH  16  17
HETATM   17  C   UNL     1      -8.574  11.151  66.735  1.00  0.00    -0.157 C  
HETATM   18  C   UNL     1      -9.891  10.581  66.262  1.00  0.00    -0.217 C  
HETATM   19  O   UNL     1     -10.844  10.311  66.974  1.00  0.00    -0.248 OA 
HETATM   20  O   UNL     1      -9.912  10.392  64.921  1.00  0.00    -0.306 OA 
ENDBRANCH  16  17
ENDBRANCH  15  16
ENDBRANCH  14  15
ENDBRANCH  13  14
ENDBRANCH  12  13
ENDBRANCH  11  12
ENDBRANCH  10  11
ENDBRANCH   9  10
ENDBRANCH   8   9
ENDBRANCH   7   8
ENDBRANCH   6   7
ENDBRANCH   5   6
ENDBRANCH   4   5
ENDBRANCH   3   4
ENDBRANCH   2   3
TORSDOF 15
ENDMDL
MODEL      214
REMARK 921   NORMALIZED FREE ENERGY PREDICTED BY IDOCK:   -3.44 KCAL/MOL
REMARK 922        TOTAL FREE ENERGY PREDICTED BY IDOCK:   -8.25 KCAL/MOL
REMARK 923 INTER-LIGAND FREE ENERGY PREDICTED BY IDOCK:   -5.84 KCAL/MOL
REMARK 924 INTRA-LIGAND FREE ENERGY PREDICTED BY IDOCK:   -2.40 KCAL/MOL
REMARK 927      BINDING AFFINITY PREDICTED BY RF-SCORE:    0.00 PKD
ROOT
HETATM    1  C   UNL     1      -7.401  15.237  68.825  1.00  0.00    -0.131 C  
HETATM    2  C   UNL     1      -7.498  14.836  67.364  1.00  0.00    -0.221 C  
ENDROOT
BRANCH   2   3
HETATM    3  C   UNL     1      -8.106  13.443  67.215  1.00  0.00    -0.147 C  
BRANCH   3   4
HETATM    4  C   UNL     1      -7.915  12.622  68.485  1.00  0.00    -0.093 C  
BRANCH   4   5
HETATM    5  C   UNL     1      -8.274  11.159  68.242  1.00  0.00    -0.134 C  
BRANCH   5   6
HETATM    6  C   UNL     1      -9.786  10.963  68.242  1.00  0.00    -0.179 C  
BRANCH   6   7
HETATM    7  C   UNL     1     -10.226  10.168  67.019  1.00  0.00    -0.290 C  
BRANCH   7   8
HETATM    8  C   UNL     1     -10.568  11.099  65.862  1.00  0.00    -0.294 C  
BRANCH   8   9
HETATM    9  C   UNL     1     -11.648  12.091  66.272  1.00  0.00    -0.378 C  
BRANCH   9  10
HETATM   10  C   UNL     1     -12.354  12.657  65.045  1.00  0.00    -0.561 C  
BRANCH  10  11
HETATM   11  C   UNL     1     -11.426  13.586  64.269  1.00  0.00    -0.414 C  
BRANCH  11  12
HETATM   12  C   UNL     1     -11.719  15.041  64.607  1.00  0.00    -0.383 C  
BRANCH  12  13
HETATM   13  C   UNL     1     -10.637  15.617  65.511  1.00  0.00    -0.422 C  
BRANCH  13  14
HETATM   14  C   UNL     1     -11.082  15.583  66.970  1.00  0.00    -0.238 C  
BRANCH  14  15
HETATM   15  C   UNL     1     -10.615  16.828  67.718  1.00  0.00    -0.341 C  
BRANCH  15  16
HETATM   16  C   UNL     1     -10.172  17.912  66.738  1.00  0.00    -0.360 C  
BRANCH  16  17
HETATM   17  C   UNL     1      -9.036  18.751  67.315  1.00  0.00    -0.287 C  
HETATM   18  C   UNL     1      -7.758  18.580  66.526  1.00  0.00    -0.255 C  
HETATM   19  O   UNL     1      -7.620  17.868  65.545  1.00  0.00    -0.518 OA 
HETATM   20  O   UNL     1      -6.744  19.321  67.032  1.00  0.00    -0.197 OA 
ENDBRANCH  16  17
ENDBRANCH  15  16
ENDBRANCH  14  15
ENDBRANCH  13  14
ENDBRANCH  12  13
ENDBRANCH  11  12
ENDBRANCH  10  11
ENDBRANCH   9  10
ENDBRANCH   8   9
ENDBRANCH   7   8
ENDBRANCH   6   7
ENDBRANCH   5   6
ENDBRANCH   4   5
ENDBRANCH   3   4
ENDBRANCH   2   3
TORSDOF 15
ENDMDL
MODEL      215
REMARK 921   NORMALIZED FREE ENERGY PREDICTED BY IDOCK:   -3.42 KCAL/MOL
REMARK 922        TOTAL FREE ENERGY PREDICTED BY IDOCK:   -8.22 KCAL/MOL
REMARK 923 INTER-LIGAND FREE ENERGY PREDICTED BY IDOCK:   -7.09 KCAL/MOL
REMARK 924 INTRA-LIGAND FREE ENERGY PREDICTED BY IDOCK:   -1.13 KCAL/MOL
REMARK 927      BINDING AFFINITY PREDICTED BY RF-SCORE:    0.00 PKD
ROOT
HETATM    1  C   UNL     1     -10.166   6.491  74.175  1.00  0.00    -0.380 C  
HETATM    2  C   UNL     1      -9.934   7.752  73.362  1.00  0.00    -0.348 C  
ENDROOT
BRANCH   2   3
HETATM    3  C   UNL     1      -9.676   7.420  71.894  1.00  0.00    -0.179 C  
BRANCH   3   4
HETATM    4  C   UNL     1      -9.945   8.628  71.003  1.00  0.00    -0.272 C  
BRANCH   4   5
HETATM    5  C   UNL     1     -11.195   9.372  71.463  1.00  0.00    -0.457 C  
BRANCH   5   6
HETATM    6  C   UNL     1     -11.702  10.309  70.371  1.00  0.00    -0.404 C  
BRANCH   6   7
HETATM    7  C   UNL     1     -12.500  11.457  70.975  1.00  0.00    -0.486 C  
BRANCH   7   8
HETATM    8  C   UNL     1     -12.212  12.762  70.241  1.00  0.00    -0.351 C  
BRANCH   8   9
HETATM    9  C   UNL     1     -11.397  12.500  68.981  1.00  0.00    -0.342 C  
BRANCH   9  10
HETATM   10  C   UNL     1     -10.674  13.766  68.534  1.00  0.00    -0.274 C  
BRANCH  10  11
HETATM   11  C   UNL     1     -11.321  14.341  67.279  1.00  0.00    -0.350 C  
BRANCH  11  12
HETATM   12  C   UNL     1     -12.089  13.263  66.527  1.00  0.00    -0.435 C  
BRANCH  12  13
HETATM   13  C   UNL     1     -12.823  13.853  65.330  1.00  0.00    -0.466 C  
BRANCH  13  14
HETATM   14  C   UNL     1     -12.106  13.498  64.032  1.00  0.00    -0.494 C  
BRANCH  14  15
HETATM   15  C   UNL     1     -11.586  12.064  64.064  1.00  0.00    -0.495 C  
BRANCH  15  16
HETATM   16  C   UNL     1     -10.145  12.002  63.562  1.00  0.00    -0.448 C  
BRANCH  16  17
HETATM   17  C   UNL     1      -9.714  10.563  63.293  1.00  0.00    -0.361 C  
HETATM   18  C   UNL     1      -8.840  10.026  64.402  1.00  0.00    -0.213 C  
HETATM   19  O   UNL     1      -8.502  10.640  65.401  1.00  0.00    -0.168 OA 
HETATM   20  O   UNL     1      -8.452   8.749  64.172  1.00  0.00    -0.168 OA 
ENDBRANCH  16  17
ENDBRANCH  15  16
ENDBRANCH  14  15
ENDBRANCH  13  14
ENDBRANCH  12  13
ENDBRANCH  11  12
ENDBRANCH  10  11
ENDBRANCH   9  10
ENDBRANCH   8   9
ENDBRANCH   7   8
ENDBRANCH   6   7
ENDBRANCH   5   6
ENDBRANCH   4   5
ENDBRANCH   3   4
ENDBRANCH   2   3
TORSDOF 15
ENDMDL
MODEL      216
REMARK 921   NORMALIZED FREE ENERGY PREDICTED BY IDOCK:   -3.42 KCAL/MOL
REMARK 922        TOTAL FREE ENERGY PREDICTED BY IDOCK:   -8.21 KCAL/MOL
REMARK 923 INTER-LIGAND FREE ENERGY PREDICTED BY IDOCK:   -6.60 KCAL/MOL
REMARK 924 INTRA-LIGAND FREE ENERGY PREDICTED BY IDOCK:   -1.61 KCAL/MOL
REMARK 927      BINDING AFFINITY PREDICTED BY RF-SCORE:    0.00 PKD
ROOT
HETATM    1  C   UNL     1     -12.256  14.766  64.402  1.00  0.00    -0.447 C  
HETATM    2  C   UNL     1     -11.403  13.540  64.128  1.00  0.00    -0.370 C  
ENDROOT
BRANCH   2   3
HETATM    3  C   UNL     1     -12.073  12.274  64.658  1.00  0.00    -0.449 C  
BRANCH   3   4
HETATM    4  C   UNL     1     -11.159  11.536  65.631  1.00  0.00    -0.261 C  
BRANCH   4   5
HETATM    5  C   UNL     1      -9.762  12.149  65.632  1.00  0.00    -0.223 C  
BRANCH   5   6
HETATM    6  C   UNL     1      -9.036  11.842  66.938  1.00  0.00    -0.196 C  
BRANCH   6   7
HETATM    7  C   UNL     1      -8.517  13.123  67.579  1.00  0.00    -0.198 C  
BRANCH   7   8
HETATM    8  C   UNL     1      -9.193  14.345  66.969  1.00  0.00    -0.246 C  
BRANCH   8   9
HETATM    9  C   UNL     1      -8.198  15.488  66.814  1.00  0.00    -0.277 C  
BRANCH   9  10
HETATM   10  C   UNL     1      -8.924  16.822  66.690  1.00  0.00    -0.278 C  
BRANCH  10  11
HETATM   11  C   UNL     1      -9.185  17.424  68.067  1.00  0.00    -0.266 C  
BRANCH  11  12
HETATM   12  C   UNL     1     -10.651  17.275  68.448  1.00  0.00    -0.368 C  
BRANCH  12  13
HETATM   13  C   UNL     1     -10.799  16.470  69.733  1.00  0.00    -0.302 C  
BRANCH  13  14
HETATM   14  C   UNL     1     -11.897  15.422  69.587  1.00  0.00    -0.368 C  
BRANCH  14  15
HETATM   15  C   UNL     1     -12.859  15.464  70.770  1.00  0.00    -0.524 C  
BRANCH  15  16
HETATM   16  C   UNL     1     -12.288  14.692  71.958  1.00  0.00    -0.398 C  
BRANCH  16  17
HETATM   17  C   UNL     1     -13.185  13.519  72.340  1.00  0.00    -0.577 C  
HETATM   18  C   UNL     1     -12.853  12.279  71.544  1.00  0.00    -0.280 C  
HETATM   19  O   UNL     1     -11.982  12.194  70.693  1.00  0.00    -0.322 OA 
HETATM   20  O   UNL     1     -13.645  11.232  71.877  1.00  0.00    -0.253 OA 
ENDBRANCH  16  17
ENDBRANCH  15  16
ENDBRANCH  14  15
ENDBRANCH  13  14
ENDBRANCH  12  13
ENDBRANCH  11  12
ENDBRANCH  10  11
ENDBRANCH   9  10
ENDBRANCH   8   9
ENDBRANCH   7   8
ENDBRANCH   6   7
ENDBRANCH   5   6
ENDBRANCH   4   5
ENDBRANCH   3   4
ENDBRANCH   2   3
TORSDOF 15
ENDMDL
MODEL      217
REMARK 921   NORMALIZED FREE ENERGY PREDICTED BY IDOCK:   -3.41 KCAL/MOL
REMARK 922        TOTAL FREE ENERGY PREDICTED BY IDOCK:   -8.20 KCAL/MOL
REMARK 923 INTER-LIGAND FREE ENERGY PREDICTED BY IDOCK:   -6.03 KCAL/MOL
REMARK 924 INTRA-LIGAND FREE ENERGY PREDICTED BY IDOCK:   -2.17 KCAL/MOL
REMARK 927      BINDING AFFINITY PREDICTED BY RF-SCORE:    0.00 PKD
ROOT
HETATM    1  C   UNL     1     -10.942  15.726  67.695  1.00  0.00    -0.302 C  
HETATM    2  C   UNL     1     -11.631  14.374  67.687  1.00  0.00    -0.396 C  
ENDROOT
BRANCH   2   3
HETATM    3  C   UNL     1     -12.045  13.976  66.272  1.00  0.00    -0.482 C  
BRANCH   3   4
HETATM    4  C   UNL     1     -11.631  12.541  65.962  1.00  0.00    -0.456 C  
BRANCH   4   5
HETATM    5  C   UNL     1     -10.631  12.031  66.995  1.00  0.00    -0.258 C  
BRANCH   5   6
HETATM    6  C   UNL     1     -11.077  10.689  67.567  1.00  0.00    -0.367 C  
BRANCH   6   7
HETATM    7  C   UNL     1     -11.868  10.888  68.853  1.00  0.00    -0.340 C  
BRANCH   7   8
HETATM    8  C   UNL     1     -11.012  10.559  70.071  1.00  0.00    -0.351 C  
BRANCH   8   9
HETATM    9  C   UNL     1     -11.883  10.083  71.226  1.00  0.00    -0.471 C  
BRANCH   9  10
HETATM   10  C   UNL     1     -11.274   8.853  71.888  1.00  0.00    -0.447 C  
BRANCH  10  11
HETATM   11  C   UNL     1     -12.114   7.613  71.599  1.00  0.00    -0.336 C  
BRANCH  11  12
HETATM   12  C   UNL     1     -11.241   6.483  71.073  1.00  0.00    -0.362 C  
BRANCH  12  13
HETATM   13  C   UNL     1     -11.502   6.238  69.593  1.00  0.00    -0.425 C  
BRANCH  13  14
HETATM   14  C   UNL     1     -10.648   7.166  68.736  1.00  0.00    -0.219 C  
BRANCH  14  15
HETATM   15  C   UNL     1      -9.186   6.726  68.736  1.00  0.00    -0.130 C  
BRANCH  15  16
HETATM   16  C   UNL     1      -8.301   7.796  69.371  1.00  0.00    -0.133 C  
BRANCH  16  17
HETATM   17  C   UNL     1      -8.104   8.982  68.431  1.00  0.00    -0.108 C  
HETATM   18  C   UNL     1      -7.638  10.212  69.173  1.00  0.00    -0.103 C  
HETATM   19  O   UNL     1      -7.436  10.282  70.375  1.00  0.00    -0.250 OA 
HETATM   20  O   UNL     1      -7.460  11.270  68.347  1.00  0.00    -0.095 OA 
ENDBRANCH  16  17
ENDBRANCH  15  16
ENDBRANCH  14  15
ENDBRANCH  13  14
ENDBRANCH  12  13
ENDBRANCH  11  12
ENDBRANCH  10  11
ENDBRANCH   9  10
ENDBRANCH   8   9
ENDBRANCH   7   8
ENDBRANCH   6   7
ENDBRANCH   5   6
ENDBRANCH   4   5
ENDBRANCH   3   4
ENDBRANCH   2   3
TORSDOF 15
ENDMDL
MODEL      218
REMARK 921   NORMALIZED FREE ENERGY PREDICTED BY IDOCK:   -3.39 KCAL/MOL
REMARK 922        TOTAL FREE ENERGY PREDICTED BY IDOCK:   -8.17 KCAL/MOL
REMARK 923 INTER-LIGAND FREE ENERGY PREDICTED BY IDOCK:   -6.57 KCAL/MOL
REMARK 924 INTRA-LIGAND FREE ENERGY PREDICTED BY IDOCK:   -1.59 KCAL/MOL
REMARK 927      BINDING AFFINITY PREDICTED BY RF-SCORE:    0.00 PKD
ROOT
HETATM    1  C   UNL     1     -11.246   5.044  73.102  1.00  0.00    -0.408 C  
HETATM    2  C   UNL     1     -10.912   6.318  72.348  1.00  0.00    -0.291 C  
ENDROOT
BRANCH   2   3
HETATM    3  C   UNL     1     -11.869   6.531  71.177  1.00  0.00    -0.383 C  
BRANCH   3   4
HETATM    4  C   UNL     1     -12.739   7.764  71.397  1.00  0.00    -0.333 C  
BRANCH   4   5
HETATM    5  C   UNL     1     -11.921   8.905  71.993  1.00  0.00    -0.439 C  
BRANCH   5   6
HETATM    6  C   UNL     1     -11.655   9.985  70.950  1.00  0.00    -0.463 C  
BRANCH   6   7
HETATM    7  C   UNL     1     -10.220   9.906  70.445  1.00  0.00    -0.299 C  
BRANCH   7   8
HETATM    8  C   UNL     1     -10.164   9.235  69.078  1.00  0.00    -0.217 C  
BRANCH   8   9
HETATM    9  C   UNL     1     -11.273   9.760  68.175  1.00  0.00    -0.073 C  
BRANCH   9  10
HETATM   10  C   UNL     1     -10.796  10.973  67.385  1.00  0.00    -0.327 C  
BRANCH  10  11
HETATM   11  C   UNL     1     -11.561  12.224  67.804  1.00  0.00    -0.416 C  
BRANCH  11  12
HETATM   12  C   UNL     1     -10.655  13.177  68.570  1.00  0.00    -0.274 C  
BRANCH  12  13
HETATM   13  C   UNL     1     -11.451  14.344  69.140  1.00  0.00    -0.328 C  
BRANCH  13  14
HETATM   14  C   UNL     1     -11.594  15.453  68.103  1.00  0.00    -0.331 C  
BRANCH  14  15
HETATM   15  C   UNL     1     -10.312  15.618  67.291  1.00  0.00    -0.277 C  
BRANCH  15  16
HETATM   16  C   UNL     1     -10.233  17.018  66.686  1.00  0.00    -0.310 C  
BRANCH  16  17
HETATM   17  C   UNL     1     -10.675  18.080  67.688  1.00  0.00    -0.360 C  
HETATM   18  C   UNL     1      -9.496  18.703  68.398  1.00  0.00    -0.343 C  
HETATM   19  O   UNL     1      -8.325  18.413  68.217  1.00  0.00    -0.286 OA 
HETATM   20  O   UNL     1      -9.879  19.647  69.290  1.00  0.00    -0.416 OA 
ENDBRANCH  16  17
ENDBRANCH  15  16
ENDBRANCH  14  15
ENDBRANCH  13  14
ENDBRANCH  12  13
ENDBRANCH  11  12
ENDBRANCH  10  11
ENDBRANCH   9  10
ENDBRANCH   8   9
ENDBRANCH   7   8
ENDBRANCH   6   7
ENDBRANCH   5   6
ENDBRANCH   4   5
ENDBRANCH   3   4
ENDBRANCH   2   3
TORSDOF 15
ENDMDL
MODEL      219
REMARK 921   NORMALIZED FREE ENERGY PREDICTED BY IDOCK:   -3.39 KCAL/MOL
REMARK 922        TOTAL FREE ENERGY PREDICTED BY IDOCK:   -8.15 KCAL/MOL
REMARK 923 INTER-LIGAND FREE ENERGY PREDICTED BY IDOCK:   -6.76 KCAL/MOL
REMARK 924 INTRA-LIGAND FREE ENERGY PREDICTED BY IDOCK:   -1.39 KCAL/MOL
REMARK 927      BINDING AFFINITY PREDICTED BY RF-SCORE:    0.00 PKD
ROOT
HETATM    1  C   UNL     1     -12.693  15.363  70.543  1.00  0.00    -0.455 C  
HETATM    2  C   UNL     1     -12.026  14.521  69.470  1.00  0.00    -0.363 C  
ENDROOT
BRANCH   2   3
HETATM    3  C   UNL     1     -11.273  15.398  68.472  1.00  0.00    -0.321 C  
BRANCH   3   4
HETATM    4  C   UNL     1     -11.094  14.681  67.138  1.00  0.00    -0.328 C  
BRANCH   4   5
HETATM    5  C   UNL     1     -12.382  13.977  66.724  1.00  0.00    -0.368 C  
BRANCH   5   6
HETATM    6  C   UNL     1     -12.504  13.914  65.205  1.00  0.00    -0.504 C  
BRANCH   6   7
HETATM    7  C   UNL     1     -12.188  12.513  64.697  1.00  0.00    -0.524 C  
BRANCH   7   8
HETATM    8  C   UNL     1     -10.745  12.426  64.214  1.00  0.00    -0.390 C  
BRANCH   8   9
HETATM    9  C   UNL     1     -10.026  11.259  64.877  1.00  0.00    -0.323 C  
BRANCH   9  10
HETATM   10  C   UNL     1     -10.560  11.026  66.285  1.00  0.00    -0.295 C  
BRANCH  10  11
HETATM   11  C   UNL     1      -9.459  11.231  67.321  1.00  0.00    -0.184 C  
BRANCH  11  12
HETATM   12  C   UNL     1     -10.002  11.031  68.728  1.00  0.00    -0.215 C  
BRANCH  12  13
HETATM   13  C   UNL     1      -9.508   9.717  69.320  1.00  0.00    -0.184 C  
BRANCH  13  14
HETATM   14  C   UNL     1     -10.084   9.506  70.716  1.00  0.00    -0.352 C  
BRANCH  14  15
HETATM   15  C   UNL     1      -9.083   8.798  71.624  1.00  0.00    -0.314 C  
BRANCH  15  16
HETATM   16  C   UNL     1      -9.804   7.878  72.608  1.00  0.00    -0.316 C  
BRANCH  16  17
HETATM   17  C   UNL     1     -11.318   8.030  72.500  1.00  0.00    -0.469 C  
HETATM   18  C   UNL     1     -11.969   6.771  71.974  1.00  0.00    -0.317 C  
HETATM   19  O   UNL     1     -11.384   5.746  71.664  1.00  0.00    -0.242 OA 
HETATM   20  O   UNL     1     -13.313   6.896  71.874  1.00  0.00    -0.294 OA 
ENDBRANCH  16  17
ENDBRANCH  15  16
ENDBRANCH  14  15
ENDBRANCH  13  14
ENDBRANCH  12  13
ENDBRANCH  11  12
ENDBRANCH  10  11
ENDBRANCH   9  10
ENDBRANCH   8   9
ENDBRANCH   7   8
ENDBRANCH   6   7
ENDBRANCH   5   6
ENDBRANCH   4   5
ENDBRANCH   3   4
ENDBRANCH   2   3
TORSDOF 15
ENDMDL
MODEL      220
REMARK 921   NORMALIZED FREE ENERGY PREDICTED BY IDOCK:   -3.39 KCAL/MOL
REMARK 922        TOTAL FREE ENERGY PREDICTED BY IDOCK:   -8.15 KCAL/MOL
REMARK 923 INTER-LIGAND FREE ENERGY PREDICTED BY IDOCK:   -5.78 KCAL/MOL
REMARK 924 INTRA-LIGAND FREE ENERGY PREDICTED BY IDOCK:   -2.37 KCAL/MOL
REMARK 927      BINDING AFFINITY PREDICTED BY RF-SCORE:    0.00 PKD
ROOT
HETATM    1  C   UNL     1      -8.421   9.279  70.196  1.00  0.00    -0.206 C  
HETATM    2  C   UNL     1      -7.681  10.548  69.811  1.00  0.00    -0.079 C  
ENDROOT
BRANCH   2   3
HETATM    3  C   UNL     1      -7.279  10.525  68.338  1.00  0.00    -0.080 C  
BRANCH   3   4
HETATM    4  C   UNL     1      -6.457   9.282  68.012  1.00  0.00    -0.059 C  
BRANCH   4   5
HETATM    5  C   UNL     1      -6.782   8.771  66.612  1.00  0.00    -0.072 C  
BRANCH   5   6
HETATM    6  C   UNL     1      -8.176   8.154  66.569  1.00  0.00    -0.107 C  
BRANCH   6   7
HETATM    7  C   UNL     1      -8.980   8.719  65.406  1.00  0.00    -0.211 C  
BRANCH   7   8
HETATM    8  C   UNL     1      -9.948   9.792  65.888  1.00  0.00    -0.345 C  
BRANCH   8   9
HETATM    9  C   UNL     1     -10.634   9.357  67.176  1.00  0.00    -0.294 C  
BRANCH   9  10
HETATM   10  C   UNL     1     -11.059  10.570  67.997  1.00  0.00    -0.361 C  
BRANCH  10  11
HETATM   11  C   UNL     1     -10.668  11.864  67.290  1.00  0.00    -0.276 C  
BRANCH  11  12
HETATM   12  C   UNL     1     -11.900  12.705  66.989  1.00  0.00    -0.415 C  
BRANCH  12  13
HETATM   13  C   UNL     1     -12.052  12.930  65.490  1.00  0.00    -0.507 C  
BRANCH  13  14
HETATM   14  C   UNL     1     -10.768  13.506  64.902  1.00  0.00    -0.391 C  
BRANCH  14  15
HETATM   15  C   UNL     1     -10.777  15.031  64.948  1.00  0.00    -0.420 C  
BRANCH  15  16
HETATM   16  C   UNL     1      -9.742  15.546  65.945  1.00  0.00    -0.392 C  
BRANCH  16  17
HETATM   17  C   UNL     1     -10.390  16.422  67.013  1.00  0.00    -0.293 C  
HETATM   18  C   UNL     1     -10.244  17.892  66.695  1.00  0.00    -0.371 C  
HETATM   19  O   UNL     1      -9.683  18.353  65.714  1.00  0.00    -0.483 OA 
HETATM   20  O   UNL     1     -10.816  18.677  67.638  1.00  0.00    -0.418 OA 
ENDBRANCH  16  17
ENDBRANCH  15  16
ENDBRANCH  14  15
ENDBRANCH  13  14
ENDBRANCH  12  13
ENDBRANCH  11  12
ENDBRANCH  10  11
ENDBRANCH   9  10
ENDBRANCH   8   9
ENDBRANCH   7   8
ENDBRANCH   6   7
ENDBRANCH   5   6
ENDBRANCH   4   5
ENDBRANCH   3   4
ENDBRANCH   2   3
TORSDOF 15
ENDMDL
MODEL      221
REMARK 921   NORMALIZED FREE ENERGY PREDICTED BY IDOCK:   -3.38 KCAL/MOL
REMARK 922        TOTAL FREE ENERGY PREDICTED BY IDOCK:   -8.15 KCAL/MOL
REMARK 923 INTER-LIGAND FREE ENERGY PREDICTED BY IDOCK:   -6.15 KCAL/MOL
REMARK 924 INTRA-LIGAND FREE ENERGY PREDICTED BY IDOCK:   -1.99 KCAL/MOL
REMARK 927      BINDING AFFINITY PREDICTED BY RF-SCORE:    0.00 PKD
ROOT
HETATM    1  C   UNL     1     -10.188  10.478  64.056  1.00  0.00    -0.238 C  
HETATM    2  C   UNL     1      -9.639  11.429  65.104  1.00  0.00    -0.258 C  
ENDROOT
BRANCH   2   3
HETATM    3  C   UNL     1     -10.755  12.263  65.729  1.00  0.00    -0.298 C  
BRANCH   3   4
HETATM    4  C   UNL     1     -10.918  13.594  65.003  1.00  0.00    -0.350 C  
BRANCH   4   5
HETATM    5  C   UNL     1     -11.505  14.650  65.934  1.00  0.00    -0.338 C  
BRANCH   5   6
HETATM    6  C   UNL     1     -11.181  14.331  67.390  1.00  0.00    -0.330 C  
BRANCH   6   7
HETATM    7  C   UNL     1     -10.668  15.571  68.111  1.00  0.00    -0.282 C  
BRANCH   7   8
HETATM    8  C   UNL     1      -9.178  15.446  68.409  1.00  0.00    -0.192 C  
BRANCH   8   9
HETATM    9  C   UNL     1      -8.391  15.212  67.126  1.00  0.00    -0.247 C  
BRANCH   9  10
HETATM   10  C   UNL     1      -7.885  16.531  66.555  1.00  0.00    -0.338 C  
BRANCH  10  11
HETATM   11  C   UNL     1      -6.992  17.247  67.563  1.00  0.00    -0.178 C  
BRANCH  11  12
HETATM   12  C   UNL     1      -6.622  18.636  67.061  1.00  0.00    -0.201 C  
BRANCH  12  13
HETATM   13  C   UNL     1      -7.554  19.690  67.644  1.00  0.00    -0.311 C  
BRANCH  13  14
HETATM   14  C   UNL     1      -7.933  19.338  69.079  1.00  0.00    -0.299 C  
BRANCH  14  15
HETATM   15  C   UNL     1      -9.442  19.167  69.225  1.00  0.00    -0.162 C  
BRANCH  15  16
HETATM   16  C   UNL     1     -10.175  19.825  68.058  1.00  0.00    -0.581 C  
BRANCH  16  17
HETATM   17  C   UNL     1     -10.854  18.786  67.172  1.00  0.00    -0.375 C  
HETATM   18  C   UNL     1     -10.523  18.993  65.712  1.00  0.00    -0.309 C  
HETATM   19  O   UNL     1      -9.806  19.874  65.265  1.00  0.00    -0.129 OA 
HETATM   20  O   UNL     1     -11.122  18.075  64.918  1.00  0.00    -0.738 OA 
ENDBRANCH  16  17
ENDBRANCH  15  16
ENDBRANCH  14  15
ENDBRANCH  13  14
ENDBRANCH  12  13
ENDBRANCH  11  12
ENDBRANCH  10  11
ENDBRANCH   9  10
ENDBRANCH   8   9
ENDBRANCH   7   8
ENDBRANCH   6   7
ENDBRANCH   5   6
ENDBRANCH   4   5
ENDBRANCH   3   4
ENDBRANCH   2   3
TORSDOF 15
ENDMDL
MODEL      222
REMARK 921   NORMALIZED FREE ENERGY PREDICTED BY IDOCK:   -3.38 KCAL/MOL
REMARK 922        TOTAL FREE ENERGY PREDICTED BY IDOCK:   -8.14 KCAL/MOL
REMARK 923 INTER-LIGAND FREE ENERGY PREDICTED BY IDOCK:   -5.97 KCAL/MOL
REMARK 924 INTRA-LIGAND FREE ENERGY PREDICTED BY IDOCK:   -2.17 KCAL/MOL
REMARK 927      BINDING AFFINITY PREDICTED BY RF-SCORE:    0.00 PKD
ROOT
HETATM    1  C   UNL     1     -11.350   5.373  73.033  1.00  0.00    -0.355 C  
HETATM    2  C   UNL     1     -11.275   6.805  72.532  1.00  0.00    -0.305 C  
ENDROOT
BRANCH   2   3
HETATM    3  C   UNL     1     -12.317   7.063  71.446  1.00  0.00    -0.419 C  
BRANCH   3   4
HETATM    4  C   UNL     1     -12.730   8.531  71.421  1.00  0.00    -0.294 C  
BRANCH   4   5
HETATM    5  C   UNL     1     -11.518   9.438  71.606  1.00  0.00    -0.463 C  
BRANCH   5   6
HETATM    6  C   UNL     1     -11.004   9.940  70.261  1.00  0.00    -0.366 C  
BRANCH   6   7
HETATM    7  C   UNL     1      -9.489   9.803  70.178  1.00  0.00    -0.277 C  
BRANCH   7   8
HETATM    8  C   UNL     1      -9.101   8.478  69.533  1.00  0.00    -0.150 C  
BRANCH   8   9
HETATM    9  C   UNL     1     -10.079   8.113  68.424  1.00  0.00    -0.226 C  
BRANCH   9  10
HETATM   10  C   UNL     1      -9.349   7.933  67.099  1.00  0.00    -0.190 C  
BRANCH  10  11
HETATM   11  C   UNL     1      -9.790   8.990  66.092  1.00  0.00    -0.349 C  
BRANCH  11  12
HETATM   12  C   UNL     1      -8.898  10.220  66.179  1.00  0.00    -0.166 C  
BRANCH  12  13
HETATM   13  C   UNL     1      -9.719  11.497  66.054  1.00  0.00    -0.253 C  
BRANCH  13  14
HETATM   14  C   UNL     1      -9.977  12.106  67.429  1.00  0.00    -0.206 C  
BRANCH  14  15
HETATM   15  C   UNL     1     -11.471  12.274  67.686  1.00  0.00    -0.401 C  
BRANCH  15  16
HETATM   16  C   UNL     1     -11.714  13.242  68.842  1.00  0.00    -0.369 C  
BRANCH  16  17
HETATM   17  C   UNL     1     -11.869  14.675  68.342  1.00  0.00    -0.330 C  
HETATM   18  C   UNL     1     -10.824  15.590  68.937  1.00  0.00    -0.254 C  
HETATM   19  O   UNL     1      -9.952  15.255  69.722  1.00  0.00    -0.251 OA 
HETATM   20  O   UNL     1     -10.953  16.864  68.499  1.00  0.00    -0.350 OA 
ENDBRANCH  16  17
ENDBRANCH  15  16
ENDBRANCH  14  15
ENDBRANCH  13  14
ENDBRANCH  12  13
ENDBRANCH  11  12
ENDBRANCH  10  11
ENDBRANCH   9  10
ENDBRANCH   8   9
ENDBRANCH   7   8
ENDBRANCH   6   7
ENDBRANCH   5   6
ENDBRANCH   4   5
ENDBRANCH   3   4
ENDBRANCH   2   3
TORSDOF 15
ENDMDL
MODEL      223
REMARK 921   NORMALIZED FREE ENERGY PREDICTED BY IDOCK:   -3.38 KCAL/MOL
REMARK 922        TOTAL FREE ENERGY PREDICTED BY IDOCK:   -8.14 KCAL/MOL
REMARK 923 INTER-LIGAND FREE ENERGY PREDICTED BY IDOCK:   -6.06 KCAL/MOL
REMARK 924 INTRA-LIGAND FREE ENERGY PREDICTED BY IDOCK:   -2.08 KCAL/MOL
REMARK 927      BINDING AFFINITY PREDICTED BY RF-SCORE:    0.00 PKD
ROOT
HETATM    1  C   UNL     1      -7.906   7.620  64.148  1.00  0.00    -0.133 C  
HETATM    2  C   UNL     1      -7.929   9.136  64.224  1.00  0.00    -0.139 C  
ENDROOT
BRANCH   2   3
HETATM    3  C   UNL     1      -9.293   9.643  64.685  1.00  0.00    -0.271 C  
BRANCH   3   4
HETATM    4  C   UNL     1      -9.208  10.260  66.077  1.00  0.00    -0.200 C  
BRANCH   4   5
HETATM    5  C   UNL     1      -9.925   9.387  67.101  1.00  0.00    -0.263 C  
BRANCH   5   6
HETATM    6  C   UNL     1      -9.008   9.060  68.275  1.00  0.00    -0.133 C  
BRANCH   6   7
HETATM    7  C   UNL     1      -8.118   7.868  67.947  1.00  0.00    -0.129 C  
BRANCH   7   8
HETATM    8  C   UNL     1      -8.803   6.561  68.328  1.00  0.00    -0.119 C  
BRANCH   8   9
HETATM    9  C   UNL     1      -9.412   6.659  69.721  1.00  0.00    -0.150 C  
BRANCH   9  10
HETATM   10  C   UNL     1     -10.681   5.820  69.815  1.00  0.00    -0.418 C  
BRANCH  10  11
HETATM   11  C   UNL     1     -11.767   6.568  70.581  1.00  0.00    -0.436 C  
BRANCH  11  12
HETATM   12  C   UNL     1     -11.154   7.444  71.664  1.00  0.00    -0.264 C  
BRANCH  12  13
HETATM   13  C   UNL     1     -11.925   8.751  71.806  1.00  0.00    -0.418 C  
BRANCH  13  14
HETATM   14  C   UNL     1     -11.214   9.877  71.063  1.00  0.00    -0.435 C  
BRANCH  14  15
HETATM   15  C   UNL     1     -12.200  10.956  70.624  1.00  0.00    -0.472 C  
BRANCH  15  16
HETATM   16  C   UNL     1     -12.028  11.273  69.141  1.00  0.00    -0.405 C  
BRANCH  16  17
HETATM   17  C   UNL     1     -11.773  12.761  68.918  1.00  0.00    -0.370 C  
HETATM   18  C   UNL     1     -11.806  13.119  67.450  1.00  0.00    -0.361 C  
HETATM   19  O   UNL     1     -12.006  12.340  66.534  1.00  0.00    -0.596 OA 
HETATM   20  O   UNL     1     -11.581  14.438  67.243  1.00  0.00    -0.344 OA 
ENDBRANCH  16  17
ENDBRANCH  15  16
ENDBRANCH  14  15
ENDBRANCH  13  14
ENDBRANCH  12  13
ENDBRANCH  11  12
ENDBRANCH  10  11
ENDBRANCH   9  10
ENDBRANCH   8   9
ENDBRANCH   7   8
ENDBRANCH   6   7
ENDBRANCH   5   6
ENDBRANCH   4   5
ENDBRANCH   3   4
ENDBRANCH   2   3
TORSDOF 15
ENDMDL
MODEL      224
REMARK 921   NORMALIZED FREE ENERGY PREDICTED BY IDOCK:   -3.37 KCAL/MOL
REMARK 922        TOTAL FREE ENERGY PREDICTED BY IDOCK:   -8.13 KCAL/MOL
REMARK 923 INTER-LIGAND FREE ENERGY PREDICTED BY IDOCK:   -6.03 KCAL/MOL
REMARK 924 INTRA-LIGAND FREE ENERGY PREDICTED BY IDOCK:   -2.09 KCAL/MOL
REMARK 927      BINDING AFFINITY PREDICTED BY RF-SCORE:    0.00 PKD
ROOT
HETATM    1  C   UNL     1      -9.056   5.327  67.345  1.00  0.00    -0.112 C  
HETATM    2  C   UNL     1     -10.052   5.682  68.434  1.00  0.00    -0.224 C  
ENDROOT
BRANCH   2   3
HETATM    3  C   UNL     1     -10.366   7.176  68.428  1.00  0.00    -0.220 C  
BRANCH   3   4
HETATM    4  C   UNL     1     -10.443   7.716  67.003  1.00  0.00    -0.419 C  
BRANCH   4   5
HETATM    5  C   UNL     1     -10.411   9.241  67.000  1.00  0.00    -0.303 C  
BRANCH   5   6
HETATM    6  C   UNL     1     -10.235   9.784  68.414  1.00  0.00    -0.210 C  
BRANCH   6   7
HETATM    7  C   UNL     1      -9.022  10.703  68.491  1.00  0.00    -0.156 C  
BRANCH   7   8
HETATM    8  C   UNL     1      -8.680  11.262  67.115  1.00  0.00    -0.151 C  
BRANCH   8   9
HETATM    9  C   UNL     1      -8.034  12.636  67.238  1.00  0.00    -0.166 C  
BRANCH   9  10
HETATM   10  C   UNL     1      -8.810  13.510  68.217  1.00  0.00    -0.179 C  
BRANCH  10  11
HETATM   11  C   UNL     1      -9.516  14.646  67.484  1.00  0.00    -0.198 C  
BRANCH  11  12
HETATM   12  C   UNL     1     -10.962  14.765  67.943  1.00  0.00    -0.282 C  
BRANCH  12  13
HETATM   13  C   UNL     1     -11.623  13.394  68.014  1.00  0.00    -0.369 C  
BRANCH  13  14
HETATM   14  C   UNL     1     -11.979  12.897  66.618  1.00  0.00    -0.436 C  
BRANCH  14  15
HETATM   15  C   UNL     1     -12.738  13.961  65.830  1.00  0.00    -0.503 C  
BRANCH  15  16
HETATM   16  C   UNL     1     -12.004  14.299  64.534  1.00  0.00    -0.478 C  
BRANCH  16  17
HETATM   17  C   UNL     1     -10.857  13.327  64.278  1.00  0.00    -0.414 C  
HETATM   18  C   UNL     1     -11.304  12.138  63.460  1.00  0.00    -0.453 C  
HETATM   19  O   UNL     1     -12.435  11.948  63.043  1.00  0.00    -0.398 OA 
HETATM   20  O   UNL     1     -10.292  11.269  63.227  1.00  0.00    -0.362 OA 
ENDBRANCH  16  17
ENDBRANCH  15  16
ENDBRANCH  14  15
ENDBRANCH  13  14
ENDBRANCH  12  13
ENDBRANCH  11  12
ENDBRANCH  10  11
ENDBRANCH   9  10
ENDBRANCH   8   9
ENDBRANCH   7   8
ENDBRANCH   6   7
ENDBRANCH   5   6
ENDBRANCH   4   5
ENDBRANCH   3   4
ENDBRANCH   2   3
TORSDOF 15
ENDMDL
MODEL      225
REMARK 921   NORMALIZED FREE ENERGY PREDICTED BY IDOCK:   -3.37 KCAL/MOL
REMARK 922        TOTAL FREE ENERGY PREDICTED BY IDOCK:   -8.12 KCAL/MOL
REMARK 923 INTER-LIGAND FREE ENERGY PREDICTED BY IDOCK:   -6.57 KCAL/MOL
REMARK 924 INTRA-LIGAND FREE ENERGY PREDICTED BY IDOCK:   -1.55 KCAL/MOL
REMARK 927      BINDING AFFINITY PREDICTED BY RF-SCORE:    0.00 PKD
ROOT
HETATM    1  C   UNL     1      -8.190  10.099  63.651  1.00  0.00    -0.166 C  
HETATM    2  C   UNL     1      -9.593  10.663  63.777  1.00  0.00    -0.354 C  
ENDROOT
BRANCH   2   3
HETATM    3  C   UNL     1     -10.168  10.405  65.167  1.00  0.00    -0.326 C  
BRANCH   3   4
HETATM    4  C   UNL     1      -9.776  11.514  66.138  1.00  0.00    -0.249 C  
BRANCH   4   5
HETATM    5  C   UNL     1     -11.005  12.067  66.852  1.00  0.00    -0.328 C  
BRANCH   5   6
HETATM    6  C   UNL     1     -11.958  12.727  65.861  1.00  0.00    -0.506 C  
BRANCH   6   7
HETATM    7  C   UNL     1     -12.280  14.153  66.291  1.00  0.00    -0.474 C  
BRANCH   7   8
HETATM    8  C   UNL     1     -11.505  14.526  67.549  1.00  0.00    -0.375 C  
BRANCH   8   9
HETATM    9  C   UNL     1     -10.834  15.883  67.384  1.00  0.00    -0.291 C  
BRANCH   9  10
HETATM   10  C   UNL     1     -10.669  16.571  68.734  1.00  0.00    -0.339 C  
BRANCH  10  11
HETATM   11  C   UNL     1     -10.236  18.022  68.551  1.00  0.00    -0.392 C  
BRANCH  11  12
HETATM   12  C   UNL     1     -10.760  18.577  67.235  1.00  0.00    -0.417 C  
BRANCH  12  13
HETATM   13  C   UNL     1     -10.176  19.956  66.955  1.00  0.00    -0.588 C  
BRANCH  13  14
HETATM   14  C   UNL     1      -8.873  19.837  66.171  1.00  0.00    -0.378 C  
BRANCH  14  15
HETATM   15  C   UNL     1      -7.670  20.178  67.046  1.00  0.00    -0.350 C  
BRANCH  15  16
HETATM   16  C   UNL     1      -6.513  19.221  66.769  1.00  0.00    -0.191 C  
BRANCH  16  17
HETATM   17  C   UNL     1      -7.018  17.868  66.278  1.00  0.00    -0.310 C  
HETATM   18  C   UNL     1      -7.062  16.850  67.394  1.00  0.00    -0.158 C  
HETATM   19  O   UNL     1      -6.740  17.053  68.553  1.00  0.00    -0.158 OA 
HETATM   20  O   UNL     1      -7.510  15.645  66.968  1.00  0.00    -0.216 OA 
ENDBRANCH  16  17
ENDBRANCH  15  16
ENDBRANCH  14  15
ENDBRANCH  13  14
ENDBRANCH  12  13
ENDBRANCH  11  12
ENDBRANCH  10  11
ENDBRANCH   9  10
ENDBRANCH   8   9
ENDBRANCH   7   8
ENDBRANCH   6   7
ENDBRANCH   5   6
ENDBRANCH   4   5
ENDBRANCH   3   4
ENDBRANCH   2   3
TORSDOF 15
ENDMDL
MODEL      226
REMARK 921   NORMALIZED FREE ENERGY PREDICTED BY IDOCK:   -3.37 KCAL/MOL
REMARK 922        TOTAL FREE ENERGY PREDICTED BY IDOCK:   -8.12 KCAL/MOL
REMARK 923 INTER-LIGAND FREE ENERGY PREDICTED BY IDOCK:   -6.51 KCAL/MOL
REMARK 924 INTRA-LIGAND FREE ENERGY PREDICTED BY IDOCK:   -1.60 KCAL/MOL
REMARK 927      BINDING AFFINITY PREDICTED BY RF-SCORE:    0.00 PKD
ROOT
HETATM    1  C   UNL     1     -10.643  14.384  64.892  1.00  0.00    -0.456 C  
HETATM    2  C   UNL     1     -10.483  14.269  66.398  1.00  0.00    -0.282 C  
ENDROOT
BRANCH   2   3
HETATM    3  C   UNL     1     -11.825  14.432  67.107  1.00  0.00    -0.437 C  
BRANCH   3   4
HETATM    4  C   UNL     1     -11.921  13.510  68.319  1.00  0.00    -0.377 C  
BRANCH   4   5
HETATM    5  C   UNL     1     -11.728  12.054  67.907  1.00  0.00    -0.393 C  
BRANCH   5   6
HETATM    6  C   UNL     1     -11.084  11.252  69.032  1.00  0.00    -0.301 C  
BRANCH   6   7
HETATM    7  C   UNL     1     -12.094  10.964  70.136  1.00  0.00    -0.431 C  
BRANCH   7   8
HETATM    8  C   UNL     1     -11.533   9.957  71.133  1.00  0.00    -0.459 C  
BRANCH   8   9
HETATM    9  C   UNL     1     -12.626   9.014  71.617  1.00  0.00    -0.414 C  
BRANCH   9  10
HETATM   10  C   UNL     1     -12.023   7.728  72.169  1.00  0.00    -0.362 C  
BRANCH  10  11
HETATM   11  C   UNL     1     -10.639   7.988  72.755  1.00  0.00    -0.420 C  
BRANCH  11  12
HETATM   12  C   UNL     1     -10.305   6.956  73.822  1.00  0.00    -0.409 C  
BRANCH  12  13
HETATM   13  C   UNL     1     -10.864   5.589  73.449  1.00  0.00    -0.332 C  
BRANCH  13  14
HETATM   14  C   UNL     1      -9.739   4.639  73.052  1.00  0.00    -0.163 C  
BRANCH  14  15
HETATM   15  C   UNL     1     -10.049   3.937  71.733  1.00  0.00    -0.186 C  
BRANCH  15  16
HETATM   16  C   UNL     1      -9.326   4.620  70.574  1.00  0.00    -0.222 C  
BRANCH  16  17
HETATM   17  C   UNL     1     -10.291   5.444  69.728  1.00  0.00    -0.375 C  
HETATM   18  C   UNL     1      -9.767   6.841  69.483  1.00  0.00    -0.150 C  
HETATM   19  O   UNL     1      -8.709   7.284  69.898  1.00  0.00    -0.140 OA 
HETATM   20  O   UNL     1     -10.618   7.580  68.733  1.00  0.00    -0.206 OA 
ENDBRANCH  16  17
ENDBRANCH  15  16
ENDBRANCH  14  15
ENDBRANCH  13  14
ENDBRANCH  12  13
ENDBRANCH  11  12
ENDBRANCH  10  11
ENDBRANCH   9  10
ENDBRANCH   8   9
ENDBRANCH   7   8
ENDBRANCH   6   7
ENDBRANCH   5   6
ENDBRANCH   4   5
ENDBRANCH   3   4
ENDBRANCH   2   3
TORSDOF 15
ENDMDL
MODEL      227
REMARK 921   NORMALIZED FREE ENERGY PREDICTED BY IDOCK:   -3.36 KCAL/MOL
REMARK 922        TOTAL FREE ENERGY PREDICTED BY IDOCK:   -8.10 KCAL/MOL
REMARK 923 INTER-LIGAND FREE ENERGY PREDICTED BY IDOCK:   -5.66 KCAL/MOL
REMARK 924 INTRA-LIGAND FREE ENERGY PREDICTED BY IDOCK:   -2.44 KCAL/MOL
REMARK 927      BINDING AFFINITY PREDICTED BY RF-SCORE:    0.00 PKD
ROOT
HETATM    1  C   UNL     1      -9.393  12.950  67.017  1.00  0.00    -0.235 C  
HETATM    2  C   UNL     1     -10.124  13.736  65.943  1.00  0.00    -0.325 C  
ENDROOT
BRANCH   2   3
HETATM    3  C   UNL     1     -11.066  12.836  65.147  1.00  0.00    -0.323 C  
BRANCH   3   4
HETATM    4  C   UNL     1     -10.378  12.286  63.903  1.00  0.00    -0.455 C  
BRANCH   4   5
HETATM    5  C   UNL     1     -10.210  10.773  64.002  1.00  0.00    -0.390 C  
BRANCH   5   6
HETATM    6  C   UNL     1      -8.860  10.416  64.616  1.00  0.00    -0.216 C  
BRANCH   6   7
HETATM    7  C   UNL     1      -9.007   9.274  65.614  1.00  0.00    -0.243 C  
BRANCH   7   8
HETATM    8  C   UNL     1     -10.397   9.279  66.240  1.00  0.00    -0.192 C  
BRANCH   8   9
HETATM    9  C   UNL     1     -10.658   7.972  66.977  1.00  0.00    -0.364 C  
BRANCH   9  10
HETATM   10  C   UNL     1      -9.375   7.160  67.106  1.00  0.00    -0.166 C  
BRANCH  10  11
HETATM   11  C   UNL     1      -9.078   6.849  68.570  1.00  0.00    -0.127 C  
BRANCH  11  12
HETATM   12  C   UNL     1      -8.171   7.913  69.172  1.00  0.00    -0.132 C  
BRANCH  12  13
HETATM   13  C   UNL     1      -8.932   8.772  70.174  1.00  0.00    -0.173 C  
BRANCH  13  14
HETATM   14  C   UNL     1      -9.176  10.167  69.610  1.00  0.00    -0.206 C  
BRANCH  14  15
HETATM   15  C   UNL     1     -10.628  10.596  69.806  1.00  0.00    -0.233 C  
BRANCH  15  16
HETATM   16  C   UNL     1     -11.498   9.398  70.179  1.00  0.00    -0.175 C  
BRANCH  16  17
HETATM   17  C   UNL     1     -12.651   9.811  71.087  1.00  0.00    -0.438 C  
HETATM   18  C   UNL     1     -13.194   8.639  71.870  1.00  0.00    -0.375 C  
HETATM   19  O   UNL     1     -12.784   7.491  71.806  1.00  0.00    -0.322 OA 
HETATM   20  O   UNL     1     -14.219   8.996  72.680  1.00  0.00    -0.574 OA 
ENDBRANCH  16  17
ENDBRANCH  15  16
ENDBRANCH  14  15
ENDBRANCH  13  14
ENDBRANCH  12  13
ENDBRANCH  11  12
ENDBRANCH  10  11
ENDBRANCH   9  10
ENDBRANCH   8   9
ENDBRANCH   7   8
ENDBRANCH   6   7
ENDBRANCH   5   6
ENDBRANCH   4   5
ENDBRANCH   3   4
ENDBRANCH   2   3
TORSDOF 15
ENDMDL
MODEL      228
REMARK 921   NORMALIZED FREE ENERGY PREDICTED BY IDOCK:   -3.36 KCAL/MOL
REMARK 922        TOTAL FREE ENERGY PREDICTED BY IDOCK:   -8.10 KCAL/MOL
REMARK 923 INTER-LIGAND FREE ENERGY PREDICTED BY IDOCK:   -5.56 KCAL/MOL
REMARK 924 INTRA-LIGAND FREE ENERGY PREDICTED BY IDOCK:   -2.54 KCAL/MOL
REMARK 927      BINDING AFFINITY PREDICTED BY RF-SCORE:    0.00 PKD
ROOT
HETATM    1  C   UNL     1     -11.990  12.755  67.642  1.00  0.00    -0.331 C  
HETATM    2  C   UNL     1     -11.561  12.254  66.275  1.00  0.00    -0.446 C  
ENDROOT
BRANCH   2   3
HETATM    3  C   UNL     1     -12.602  12.596  65.211  1.00  0.00    -0.388 C  
BRANCH   3   4
HETATM    4  C   UNL     1     -11.971  13.359  64.051  1.00  0.00    -0.520 C  
BRANCH   4   5
HETATM    5  C   UNL     1     -10.748  14.141  64.519  1.00  0.00    -0.323 C  
BRANCH   5   6
HETATM    6  C   UNL     1     -11.116  15.585  64.842  1.00  0.00    -0.428 C  
BRANCH   6   7
HETATM    7  C   UNL     1     -10.449  16.035  66.135  1.00  0.00    -0.334 C  
BRANCH   7   8
HETATM    8  C   UNL     1      -9.056  15.430  66.264  1.00  0.00    -0.355 C  
BRANCH   8   9
HETATM    9  C   UNL     1      -8.849  14.847  67.656  1.00  0.00    -0.184 C  
BRANCH   9  10
HETATM   10  C   UNL     1      -7.738  13.804  67.644  1.00  0.00    -0.187 C  
BRANCH  10  11
HETATM   11  C   UNL     1      -8.301  12.412  67.912  1.00  0.00    -0.165 C  
BRANCH  11  12
HETATM   12  C   UNL     1      -7.345  11.340  67.406  1.00  0.00    -0.115 C  
BRANCH  12  13
HETATM   13  C   UNL     1      -7.783  10.824  66.041  1.00  0.00    -0.139 C  
BRANCH  13  14
HETATM   14  C   UNL     1      -8.253   9.376  66.140  1.00  0.00    -0.111 C  
BRANCH  14  15
HETATM   15  C   UNL     1      -9.755   9.267  65.897  1.00  0.00    -0.355 C  
BRANCH  15  16
HETATM   16  C   UNL     1     -10.433   8.514  67.039  1.00  0.00    -0.362 C  
BRANCH  16  17
HETATM   17  C   UNL     1     -10.402   9.323  68.332  1.00  0.00    -0.244 C  
HETATM   18  C   UNL     1      -9.802   8.532  69.472  1.00  0.00    -0.187 C  
HETATM   19  O   UNL     1      -9.387   7.387  69.399  1.00  0.00    -0.155 OA 
HETATM   20  O   UNL     1      -9.770   9.242  70.624  1.00  0.00    -0.232 OA 
ENDBRANCH  16  17
ENDBRANCH  15  16
ENDBRANCH  14  15
ENDBRANCH  13  14
ENDBRANCH  12  13
ENDBRANCH  11  12
ENDBRANCH  10  11
ENDBRANCH   9  10
ENDBRANCH   8   9
ENDBRANCH   7   8
ENDBRANCH   6   7
ENDBRANCH   5   6
ENDBRANCH   4   5
ENDBRANCH   3   4
ENDBRANCH   2   3
TORSDOF 15
ENDMDL
MODEL      229
REMARK 921   NORMALIZED FREE ENERGY PREDICTED BY IDOCK:   -3.36 KCAL/MOL
REMARK 922        TOTAL FREE ENERGY PREDICTED BY IDOCK:   -8.10 KCAL/MOL
REMARK 923 INTER-LIGAND FREE ENERGY PREDICTED BY IDOCK:   -5.47 KCAL/MOL
REMARK 924 INTRA-LIGAND FREE ENERGY PREDICTED BY IDOCK:   -2.63 KCAL/MOL
REMARK 927      BINDING AFFINITY PREDICTED BY RF-SCORE:    0.00 PKD
ROOT
HETATM    1  C   UNL     1     -10.970  12.277  65.135  1.00  0.00    -0.344 C  
HETATM    2  C   UNL     1     -10.527  11.037  64.381  1.00  0.00    -0.422 C  
ENDROOT
BRANCH   2   3
HETATM    3  C   UNL     1      -9.797  10.063  65.303  1.00  0.00    -0.388 C  
BRANCH   3   4
HETATM    4  C   UNL     1     -10.410  10.066  66.700  1.00  0.00    -0.281 C  
BRANCH   4   5
HETATM    5  C   UNL     1      -9.321  10.110  67.768  1.00  0.00    -0.153 C  
BRANCH   5   6
HETATM    6  C   UNL     1      -9.564  11.257  68.744  1.00  0.00    -0.160 C  
BRANCH   6   7
HETATM    7  C   UNL     1     -11.051  11.572  68.845  1.00  0.00    -0.288 C  
BRANCH   7   8
HETATM    8  C   UNL     1     -11.577  11.254  70.240  1.00  0.00    -0.366 C  
BRANCH   8   9
HETATM    9  C   UNL     1     -12.241   9.884  70.264  1.00  0.00    -0.118 C  
BRANCH   9  10
HETATM   10  C   UNL     1     -11.889   9.137  71.545  1.00  0.00    -0.428 C  
BRANCH  10  11
HETATM   11  C   UNL     1     -10.379   8.964  71.672  1.00  0.00    -0.416 C  
BRANCH  11  12
HETATM   12  C   UNL     1      -9.884   7.873  70.733  1.00  0.00    -0.188 C  
BRANCH  12  13
HETATM   13  C   UNL     1     -10.695   6.595  70.909  1.00  0.00    -0.278 C  
BRANCH  13  14
HETATM   14  C   UNL     1     -10.842   5.865  69.578  1.00  0.00    -0.442 C  
BRANCH  14  15
HETATM   15  C   UNL     1     -10.987   6.851  68.422  1.00  0.00    -0.198 C  
BRANCH  15  16
HETATM   16  C   UNL     1     -10.915   6.124  67.081  1.00  0.00    -0.420 C  
BRANCH  16  17
HETATM   17  C   UNL     1      -9.491   6.109  66.535  1.00  0.00    -0.178 C  
HETATM   18  C   UNL     1      -9.011   4.703  66.262  1.00  0.00    -0.118 C  
HETATM   19  O   UNL     1      -9.658   3.684  66.446  1.00  0.00    -0.189 OA 
HETATM   20  O   UNL     1      -7.747   4.680  65.777  1.00  0.00    -0.092 OA 
ENDBRANCH  16  17
ENDBRANCH  15  16
ENDBRANCH  14  15
ENDBRANCH  13  14
ENDBRANCH  12  13
ENDBRANCH  11  12
ENDBRANCH  10  11
ENDBRANCH   9  10
ENDBRANCH   8   9
ENDBRANCH   7   8
ENDBRANCH   6   7
ENDBRANCH   5   6
ENDBRANCH   4   5
ENDBRANCH   3   4
ENDBRANCH   2   3
TORSDOF 15
ENDMDL
MODEL      230
REMARK 921   NORMALIZED FREE ENERGY PREDICTED BY IDOCK:   -3.35 KCAL/MOL
REMARK 922        TOTAL FREE ENERGY PREDICTED BY IDOCK:   -8.08 KCAL/MOL
REMARK 923 INTER-LIGAND FREE ENERGY PREDICTED BY IDOCK:   -6.81 KCAL/MOL
REMARK 924 INTRA-LIGAND FREE ENERGY PREDICTED BY IDOCK:   -1.28 KCAL/MOL
REMARK 927      BINDING AFFINITY PREDICTED BY RF-SCORE:    0.00 PKD
ROOT
HETATM    1  C   UNL     1     -10.270   5.078  68.802  1.00  0.00    -0.164 C  
HETATM    2  C   UNL     1     -10.601   5.715  70.140  1.00  0.00    -0.380 C  
ENDROOT
BRANCH   2   3
HETATM    3  C   UNL     1      -9.996   4.920  71.294  1.00  0.00    -0.271 C  
BRANCH   3   4
HETATM    4  C   UNL     1     -10.529   5.408  72.637  1.00  0.00    -0.261 C  
BRANCH   4   5
HETATM    5  C   UNL     1     -11.113   6.811  72.509  1.00  0.00    -0.299 C  
BRANCH   5   6
HETATM    6  C   UNL     1     -10.301   7.815  73.321  1.00  0.00    -0.364 C  
BRANCH   6   7
HETATM    7  C   UNL     1      -9.165   8.390  72.484  1.00  0.00    -0.338 C  
BRANCH   7   8
HETATM    8  C   UNL     1      -9.707   9.314  71.400  1.00  0.00    -0.269 C  
BRANCH   8   9
HETATM    9  C   UNL     1      -9.076   8.988  70.053  1.00  0.00    -0.187 C  
BRANCH   9  10
HETATM   10  C   UNL     1      -9.690   9.842  68.949  1.00  0.00    -0.176 C  
BRANCH  10  11
HETATM   11  C   UNL     1     -10.736  10.793  69.522  1.00  0.00    -0.268 C  
BRANCH  11  12
HETATM   12  C   UNL     1     -11.879  10.991  68.536  1.00  0.00    -0.286 C  
BRANCH  12  13
HETATM   13  C   UNL     1     -11.904  12.422  68.014  1.00  0.00    -0.376 C  
BRANCH  13  14
HETATM   14  C   UNL     1     -11.749  12.443  66.497  1.00  0.00    -0.443 C  
BRANCH  14  15
HETATM   15  C   UNL     1     -12.520  13.607  65.880  1.00  0.00    -0.502 C  
BRANCH  15  16
HETATM   16  C   UNL     1     -11.924  13.992  64.528  1.00  0.00    -0.470 C  
BRANCH  16  17
HETATM   17  C   UNL     1     -12.026  15.495  64.285  1.00  0.00    -0.161 C  
HETATM   18  C   UNL     1     -10.906  16.248  64.964  1.00  0.00    -0.320 C  
HETATM   19  O   UNL     1     -10.016  15.746  65.631  1.00  0.00    -0.325 OA 
HETATM   20  O   UNL     1     -10.989  17.583  64.755  1.00  0.00    -0.950 OA 
ENDBRANCH  16  17
ENDBRANCH  15  16
ENDBRANCH  14  15
ENDBRANCH  13  14
ENDBRANCH  12  13
ENDBRANCH  11  12
ENDBRANCH  10  11
ENDBRANCH   9  10
ENDBRANCH   8   9
ENDBRANCH   7   8
ENDBRANCH   6   7
ENDBRANCH   5   6
ENDBRANCH   4   5
ENDBRANCH   3   4
ENDBRANCH   2   3
TORSDOF 15
ENDMDL
MODEL      231
REMARK 921   NORMALIZED FREE ENERGY PREDICTED BY IDOCK:   -3.34 KCAL/MOL
REMARK 922        TOTAL FREE ENERGY PREDICTED BY IDOCK:   -8.07 KCAL/MOL
REMARK 923 INTER-LIGAND FREE ENERGY PREDICTED BY IDOCK:   -6.98 KCAL/MOL
REMARK 924 INTRA-LIGAND FREE ENERGY PREDICTED BY IDOCK:   -1.09 KCAL/MOL
REMARK 927      BINDING AFFINITY PREDICTED BY RF-SCORE:    0.00 PKD
ROOT
HETATM    1  C   UNL     1      -7.175   4.161  66.711  1.00  0.00    -0.072 C  
HETATM    2  C   UNL     1      -8.135   5.070  65.965  1.00  0.00    -0.108 C  
ENDROOT
BRANCH   2   3
HETATM    3  C   UNL     1      -9.289   5.508  66.864  1.00  0.00    -0.129 C  
BRANCH   3   4
HETATM    4  C   UNL     1      -8.840   5.621  68.317  1.00  0.00    -0.108 C  
BRANCH   4   5
HETATM    5  C   UNL     1      -9.685   4.724  69.216  1.00  0.00    -0.266 C  
BRANCH   5   6
HETATM    6  C   UNL     1     -10.718   5.541  69.984  1.00  0.00    -0.356 C  
BRANCH   6   7
HETATM    7  C   UNL     1     -10.545   5.354  71.485  1.00  0.00    -0.285 C  
BRANCH   7   8
HETATM    8  C   UNL     1     -11.551   6.202  72.255  1.00  0.00    -0.362 C  
BRANCH   8   9
HETATM    9  C   UNL     1     -12.590   6.793  71.312  1.00  0.00    -0.328 C  
BRANCH   9  10
HETATM   10  C   UNL     1     -12.827   8.266  71.625  1.00  0.00    -0.350 C  
BRANCH  10  11
HETATM   11  C   UNL     1     -11.533   8.938  72.070  1.00  0.00    -0.431 C  
BRANCH  11  12
HETATM   12  C   UNL     1     -10.939   9.764  70.938  1.00  0.00    -0.411 C  
BRANCH  12  13
HETATM   13  C   UNL     1     -12.032  10.498  70.171  1.00  0.00    -0.398 C  
BRANCH  13  14
HETATM   14  C   UNL     1     -12.238  11.898  70.740  1.00  0.00    -0.401 C  
BRANCH  14  15
HETATM   15  C   UNL     1     -13.291  11.895  71.844  1.00  0.00    -0.405 C  
BRANCH  15  16
HETATM   16  C   UNL     1     -13.611  13.320  72.289  1.00  0.00    -0.703 C  
BRANCH  16  17
HETATM   17  C   UNL     1     -12.441  14.261  72.017  1.00  0.00    -0.337 C  
HETATM   18  C   UNL     1     -12.703  15.648  72.558  1.00  0.00    -0.433 C  
HETATM   19  O   UNL     1     -13.713  16.003  73.142  1.00  0.00    -0.597 OA 
HETATM   20  O   UNL     1     -11.670  16.490  72.321  1.00  0.00    -0.501 OA 
ENDBRANCH  16  17
ENDBRANCH  15  16
ENDBRANCH  14  15
ENDBRANCH  13  14
ENDBRANCH  12  13
ENDBRANCH  11  12
ENDBRANCH  10  11
ENDBRANCH   9  10
ENDBRANCH   8   9
ENDBRANCH   7   8
ENDBRANCH   6   7
ENDBRANCH   5   6
ENDBRANCH   4   5
ENDBRANCH   3   4
ENDBRANCH   2   3
TORSDOF 15
ENDMDL
MODEL      232
REMARK 921   NORMALIZED FREE ENERGY PREDICTED BY IDOCK:   -3.34 KCAL/MOL
REMARK 922        TOTAL FREE ENERGY PREDICTED BY IDOCK:   -8.07 KCAL/MOL
REMARK 923 INTER-LIGAND FREE ENERGY PREDICTED BY IDOCK:   -5.50 KCAL/MOL
REMARK 924 INTRA-LIGAND FREE ENERGY PREDICTED BY IDOCK:   -2.57 KCAL/MOL
REMARK 927      BINDING AFFINITY PREDICTED BY RF-SCORE:    0.00 PKD
ROOT
HETATM    1  C   UNL     1     -11.483   9.376  71.195  1.00  0.00    -0.422 C  
HETATM    2  C   UNL     1      -9.966   9.332  71.141  1.00  0.00    -0.356 C  
ENDROOT
BRANCH   2   3
HETATM    3  C   UNL     1      -9.440   7.965  71.573  1.00  0.00    -0.184 C  
BRANCH   3   4
HETATM    4  C   UNL     1      -9.098   7.101  70.364  1.00  0.00    -0.156 C  
BRANCH   4   5
HETATM    5  C   UNL     1     -10.011   5.880  70.296  1.00  0.00    -0.247 C  
BRANCH   5   6
HETATM    6  C   UNL     1     -11.168   6.121  69.333  1.00  0.00    -0.466 C  
BRANCH   6   7
HETATM    7  C   UNL     1     -10.745   7.051  68.203  1.00  0.00    -0.242 C  
BRANCH   7   8
HETATM    8  C   UNL     1     -11.112   6.458  66.848  1.00  0.00    -0.346 C  
BRANCH   8   9
HETATM    9  C   UNL     1     -10.511   5.068  66.689  1.00  0.00    -0.301 C  
BRANCH   9  10
HETATM   10  C   UNL     1      -9.224   5.127  65.876  1.00  0.00    -0.163 C  
BRANCH  10  11
HETATM   11  C   UNL     1      -8.007   5.169  66.795  1.00  0.00    -0.104 C  
BRANCH  11  12
HETATM   12  C   UNL     1      -7.119   6.359  66.456  1.00  0.00    -0.068 C  
BRANCH  12  13
HETATM   13  C   UNL     1      -7.819   7.298  65.481  1.00  0.00    -0.115 C  
BRANCH  13  14
HETATM   14  C   UNL     1      -8.184   8.609  66.168  1.00  0.00    -0.121 C  
BRANCH  14  15
HETATM   15  C   UNL     1      -9.226   9.381  65.364  1.00  0.00    -0.305 C  
BRANCH  15  16
HETATM   16  C   UNL     1      -9.466  10.760  65.975  1.00  0.00    -0.230 C  
BRANCH  16  17
HETATM   17  C   UNL     1     -10.214  10.656  67.300  1.00  0.00    -0.250 C  
HETATM   18  C   UNL     1     -11.531  11.396  67.258  1.00  0.00    -0.224 C  
HETATM   19  O   UNL     1     -11.970  12.011  66.299  1.00  0.00    -0.596 OA 
HETATM   20  O   UNL     1     -12.202  11.310  68.430  1.00  0.00    -0.604 OA 
ENDBRANCH  16  17
ENDBRANCH  15  16
ENDBRANCH  14  15
ENDBRANCH  13  14
ENDBRANCH  12  13
ENDBRANCH  11  12
ENDBRANCH  10  11
ENDBRANCH   9  10
ENDBRANCH   8   9
ENDBRANCH   7   8
ENDBRANCH   6   7
ENDBRANCH   5   6
ENDBRANCH   4   5
ENDBRANCH   3   4
ENDBRANCH   2   3
TORSDOF 15
ENDMDL
MODEL      233
REMARK 921   NORMALIZED FREE ENERGY PREDICTED BY IDOCK:   -3.34 KCAL/MOL
REMARK 922        TOTAL FREE ENERGY PREDICTED BY IDOCK:   -8.07 KCAL/MOL
REMARK 923 INTER-LIGAND FREE ENERGY PREDICTED BY IDOCK:   -6.08 KCAL/MOL
REMARK 924 INTRA-LIGAND FREE ENERGY PREDICTED BY IDOCK:   -1.99 KCAL/MOL
REMARK 927      BINDING AFFINITY PREDICTED BY RF-SCORE:    0.00 PKD
ROOT
HETATM    1  C   UNL     1     -13.478   9.136  71.542  1.00  0.00    -0.417 C  
HETATM    2  C   UNL     1     -12.916  10.546  71.559  1.00  0.00    -0.565 C  
ENDROOT
BRANCH   2   3
HETATM    3  C   UNL     1     -11.797  10.705  70.532  1.00  0.00    -0.453 C  
BRANCH   3   4
HETATM    4  C   UNL     1     -12.243  11.583  69.367  1.00  0.00    -0.273 C  
BRANCH   4   5
HETATM    5  C   UNL     1     -11.795  13.026  69.574  1.00  0.00    -0.385 C  
BRANCH   5   6
HETATM    6  C   UNL     1     -11.794  13.790  68.254  1.00  0.00    -0.413 C  
BRANCH   6   7
HETATM    7  C   UNL     1     -10.542  14.648  68.129  1.00  0.00    -0.237 C  
BRANCH   7   8
HETATM    8  C   UNL     1      -9.287  13.787  68.206  1.00  0.00    -0.209 C  
BRANCH   8   9
HETATM    9  C   UNL     1      -9.026  13.097  66.873  1.00  0.00    -0.213 C  
BRANCH   9  10
HETATM   10  C   UNL     1      -9.057  11.582  67.036  1.00  0.00    -0.175 C  
BRANCH  10  11
HETATM   11  C   UNL     1     -10.103  10.962  66.114  1.00  0.00    -0.291 C  
BRANCH  11  12
HETATM   12  C   UNL     1     -10.042   9.442  66.178  1.00  0.00    -0.324 C  
BRANCH  12  13
HETATM   13  C   UNL     1     -10.380   8.944  67.578  1.00  0.00    -0.328 C  
BRANCH  13  14
HETATM   14  C   UNL     1     -10.419   7.420  67.610  1.00  0.00    -0.310 C  
BRANCH  14  15
HETATM   15  C   UNL     1      -9.983   6.886  68.971  1.00  0.00    -0.160 C  
BRANCH  15  16
HETATM   16  C   UNL     1     -11.166   6.835  69.935  1.00  0.00    -0.379 C  
BRANCH  16  17
HETATM   17  C   UNL     1     -10.916   5.844  71.068  1.00  0.00    -0.335 C  
HETATM   18  C   UNL     1     -10.505   6.544  72.342  1.00  0.00    -0.205 C  
HETATM   19  O   UNL     1     -10.379   7.750  72.481  1.00  0.00    -0.223 OA 
HETATM   20  O   UNL     1     -10.280   5.672  73.354  1.00  0.00    -0.182 OA 
ENDBRANCH  16  17
ENDBRANCH  15  16
ENDBRANCH  14  15
ENDBRANCH  13  14
ENDBRANCH  12  13
ENDBRANCH  11  12
ENDBRANCH  10  11
ENDBRANCH   9  10
ENDBRANCH   8   9
ENDBRANCH   7   8
ENDBRANCH   6   7
ENDBRANCH   5   6
ENDBRANCH   4   5
ENDBRANCH   3   4
ENDBRANCH   2   3
TORSDOF 15
ENDMDL
MODEL      234
REMARK 921   NORMALIZED FREE ENERGY PREDICTED BY IDOCK:   -3.32 KCAL/MOL
REMARK 922        TOTAL FREE ENERGY PREDICTED BY IDOCK:   -8.04 KCAL/MOL
REMARK 923 INTER-LIGAND FREE ENERGY PREDICTED BY IDOCK:   -6.29 KCAL/MOL
REMARK 924 INTRA-LIGAND FREE ENERGY PREDICTED BY IDOCK:   -1.74 KCAL/MOL
REMARK 927      BINDING AFFINITY PREDICTED BY RF-SCORE:    0.00 PKD
ROOT
HETATM    1  C   UNL     1      -9.032   9.159  71.034  1.00  0.00    -0.281 C  
HETATM    2  C   UNL     1      -8.210   8.070  71.700  1.00  0.00    -0.143 C  
ENDROOT
BRANCH   2   3
HETATM    3  C   UNL     1      -9.095   6.911  72.153  1.00  0.00    -0.139 C  
BRANCH   3   4
HETATM    4  C   UNL     1      -9.098   5.788  71.121  1.00  0.00    -0.157 C  
BRANCH   4   5
HETATM    5  C   UNL     1     -10.521   5.316  70.839  1.00  0.00    -0.285 C  
BRANCH   5   6
HETATM    6  C   UNL     1     -11.143   6.118  69.701  1.00  0.00    -0.489 C  
BRANCH   6   7
HETATM    7  C   UNL     1     -10.155   6.281  68.553  1.00  0.00    -0.182 C  
BRANCH   7   8
HETATM    8  C   UNL     1     -10.880   6.642  67.262  1.00  0.00    -0.456 C  
BRANCH   8   9
HETATM    9  C   UNL     1     -10.280   7.897  66.642  1.00  0.00    -0.303 C  
BRANCH   9  10
HETATM   10  C   UNL     1      -9.141   8.432  67.502  1.00  0.00    -0.145 C  
BRANCH  10  11
HETATM   11  C   UNL     1      -8.451   9.606  66.815  1.00  0.00    -0.129 C  
BRANCH  11  12
HETATM   12  C   UNL     1      -7.554   9.115  65.687  1.00  0.00    -0.094 C  
BRANCH  12  13
HETATM   13  C   UNL     1      -7.631  10.049  64.486  1.00  0.00    -0.142 C  
BRANCH  13  14
HETATM   14  C   UNL     1      -8.734   9.605  63.531  1.00  0.00    -0.236 C  
BRANCH  14  15
HETATM   15  C   UNL     1      -9.623  10.780  63.131  1.00  0.00    -0.385 C  
BRANCH  15  16
HETATM   16  C   UNL     1     -10.621  11.103  64.241  1.00  0.00    -0.425 C  
BRANCH  16  17
HETATM   17  C   UNL     1     -11.477  12.314  63.880  1.00  0.00    -0.512 C  
HETATM   18  C   UNL     1     -12.239  12.835  65.076  1.00  0.00    -0.473 C  
HETATM   19  O   UNL     1     -12.197  12.368  66.203  1.00  0.00    -0.635 OA 
HETATM   20  O   UNL     1     -13.002  13.909  64.766  1.00  0.00    -0.686 OA 
ENDBRANCH  16  17
ENDBRANCH  15  16
ENDBRANCH  14  15
ENDBRANCH  13  14
ENDBRANCH  12  13
ENDBRANCH  11  12
ENDBRANCH  10  11
ENDBRANCH   9  10
ENDBRANCH   8   9
ENDBRANCH   7   8
ENDBRANCH   6   7
ENDBRANCH   5   6
ENDBRANCH   4   5
ENDBRANCH   3   4
ENDBRANCH   2   3
TORSDOF 15
ENDMDL
MODEL      235
REMARK 921   NORMALIZED FREE ENERGY PREDICTED BY IDOCK:   -3.32 KCAL/MOL
REMARK 922        TOTAL FREE ENERGY PREDICTED BY IDOCK:   -8.03 KCAL/MOL
REMARK 923 INTER-LIGAND FREE ENERGY PREDICTED BY IDOCK:   -7.02 KCAL/MOL
REMARK 924 INTRA-LIGAND FREE ENERGY PREDICTED BY IDOCK:   -1.01 KCAL/MOL
REMARK 927      BINDING AFFINITY PREDICTED BY RF-SCORE:    0.00 PKD
ROOT
HETATM    1  C   UNL     1     -10.995   3.976  73.436  1.00  0.00    -0.342 C  
HETATM    2  C   UNL     1      -9.805   3.899  72.497  1.00  0.00    -0.216 C  
ENDROOT
BRANCH   2   3
HETATM    3  C   UNL     1      -9.867   4.996  71.438  1.00  0.00    -0.245 C  
BRANCH   3   4
HETATM    4  C   UNL     1     -10.707   6.176  71.918  1.00  0.00    -0.277 C  
BRANCH   4   5
HETATM    5  C   UNL     1     -11.655   6.647  70.820  1.00  0.00    -0.432 C  
BRANCH   5   6
HETATM    6  C   UNL     1     -12.739   7.555  71.391  1.00  0.00    -0.382 C  
BRANCH   6   7
HETATM    7  C   UNL     1     -12.127   8.817  71.984  1.00  0.00    -0.447 C  
BRANCH   7   8
HETATM    8  C   UNL     1     -11.673   9.767  70.882  1.00  0.00    -0.429 C  
BRANCH   8   9
HETATM    9  C   UNL     1     -12.695  10.877  70.675  1.00  0.00    -0.396 C  
BRANCH   9  10
HETATM   10  C   UNL     1     -12.062  12.067  69.963  1.00  0.00    -0.355 C  
BRANCH  10  11
HETATM   11  C   UNL     1     -11.073  11.597  68.901  1.00  0.00    -0.287 C  
BRANCH  11  12
HETATM   12  C   UNL     1     -10.846  12.685  67.861  1.00  0.00    -0.244 C  
BRANCH  12  13
HETATM   13  C   UNL     1     -11.890  13.787  67.990  1.00  0.00    -0.408 C  
BRANCH  13  14
HETATM   14  C   UNL     1     -12.203  14.392  66.625  1.00  0.00    -0.340 C  
BRANCH  14  15
HETATM   15  C   UNL     1     -10.953  14.462  65.753  1.00  0.00    -0.314 C  
BRANCH  15  16
HETATM   16  C   UNL     1     -10.678  15.899  65.318  1.00  0.00    -0.442 C  
BRANCH  16  17
HETATM   17  C   UNL     1      -9.662  16.572  66.237  1.00  0.00    -0.328 C  
HETATM   18  C   UNL     1      -9.840  18.072  66.263  1.00  0.00    -0.307 C  
HETATM   19  O   UNL     1     -10.681  18.698  65.638  1.00  0.00    -0.555 OA 
HETATM   20  O   UNL     1      -8.942  18.678  67.076  1.00  0.00    -0.272 OA 
ENDBRANCH  16  17
ENDBRANCH  15  16
ENDBRANCH  14  15
ENDBRANCH  13  14
ENDBRANCH  12  13
ENDBRANCH  11  12
ENDBRANCH  10  11
ENDBRANCH   9  10
ENDBRANCH   8   9
ENDBRANCH   7   8
ENDBRANCH   6   7
ENDBRANCH   5   6
ENDBRANCH   4   5
ENDBRANCH   3   4
ENDBRANCH   2   3
TORSDOF 15
ENDMDL
MODEL      236
REMARK 921   NORMALIZED FREE ENERGY PREDICTED BY IDOCK:   -3.32 KCAL/MOL
REMARK 922        TOTAL FREE ENERGY PREDICTED BY IDOCK:   -8.03 KCAL/MOL
REMARK 923 INTER-LIGAND FREE ENERGY PREDICTED BY IDOCK:   -6.77 KCAL/MOL
REMARK 924 INTRA-LIGAND FREE ENERGY PREDICTED BY IDOCK:   -1.25 KCAL/MOL
REMARK 927      BINDING AFFINITY PREDICTED BY RF-SCORE:    0.00 PKD
ROOT
HETATM    1  C   UNL     1     -10.252   7.759  73.155  1.00  0.00    -0.398 C  
HETATM    2  C   UNL     1     -10.334   6.394  72.495  1.00  0.00    -0.212 C  
ENDROOT
BRANCH   2   3
HETATM    3  C   UNL     1     -11.768   6.063  72.090  1.00  0.00    -0.335 C  
BRANCH   3   4
HETATM    4  C   UNL     1     -12.366   7.172  71.231  1.00  0.00    -0.418 C  
BRANCH   4   5
HETATM    5  C   UNL     1     -13.833   7.399  71.584  1.00  0.00    -0.490 C  
BRANCH   5   6
HETATM    6  C   UNL     1     -14.040   8.787  72.180  1.00  0.00    -0.519 C  
BRANCH   6   7
HETATM    7  C   UNL     1     -13.583   9.865  71.205  1.00  0.00    -0.265 C  
BRANCH   7   8
HETATM    8  C   UNL     1     -12.614  10.828  71.880  1.00  0.00    -0.262 C  
BRANCH   8   9
HETATM    9  C   UNL     1     -13.270  12.185  72.101  1.00  0.00    -0.438 C  
BRANCH   9  10
HETATM   10  C   UNL     1     -12.740  13.208  71.104  1.00  0.00    -0.386 C  
BRANCH  10  11
HETATM   11  C   UNL     1     -12.286  14.476  71.821  1.00  0.00    -0.385 C  
BRANCH  11  12
HETATM   12  C   UNL     1     -11.514  15.382  70.872  1.00  0.00    -0.396 C  
BRANCH  12  13
HETATM   13  C   UNL     1     -12.073  15.289  69.458  1.00  0.00    -0.320 C  
BRANCH  13  14
HETATM   14  C   UNL     1     -10.975  14.903  68.472  1.00  0.00    -0.260 C  
BRANCH  14  15
HETATM   15  C   UNL     1     -11.539  14.714  67.066  1.00  0.00    -0.385 C  
BRANCH  15  16
HETATM   16  C   UNL     1     -11.730  13.231  66.757  1.00  0.00    -0.434 C  
BRANCH  16  17
HETATM   17  C   UNL     1     -11.173  12.355  67.875  1.00  0.00    -0.316 C  
HETATM   18  C   UNL     1      -9.891  11.670  67.462  1.00  0.00    -0.188 C  
HETATM   19  O   UNL     1      -9.345  11.781  66.377  1.00  0.00    -0.209 OA 
HETATM   20  O   UNL     1      -9.390  10.890  68.448  1.00  0.00    -0.157 OA 
ENDBRANCH  16  17
ENDBRANCH  15  16
ENDBRANCH  14  15
ENDBRANCH  13  14
ENDBRANCH  12  13
ENDBRANCH  11  12
ENDBRANCH  10  11
ENDBRANCH   9  10
ENDBRANCH   8   9
ENDBRANCH   7   8
ENDBRANCH   6   7
ENDBRANCH   5   6
ENDBRANCH   4   5
ENDBRANCH   3   4
ENDBRANCH   2   3
TORSDOF 15
ENDMDL
MODEL      237
REMARK 921   NORMALIZED FREE ENERGY PREDICTED BY IDOCK:   -3.32 KCAL/MOL
REMARK 922        TOTAL FREE ENERGY PREDICTED BY IDOCK:   -8.02 KCAL/MOL
REMARK 923 INTER-LIGAND FREE ENERGY PREDICTED BY IDOCK:   -6.69 KCAL/MOL
REMARK 924 INTRA-LIGAND FREE ENERGY PREDICTED BY IDOCK:   -1.33 KCAL/MOL
REMARK 927      BINDING AFFINITY PREDICTED BY RF-SCORE:    0.00 PKD
ROOT
HETATM    1  C   UNL     1     -13.043  11.885  71.646  1.00  0.00    -0.433 C  
HETATM    2  C   UNL     1     -12.777  13.258  72.235  1.00  0.00    -0.125 C  
ENDROOT
BRANCH   2   3
HETATM    3  C   UNL     1     -14.052  14.098  72.271  1.00  0.00    -0.630 C  
BRANCH   3   4
HETATM    4  C   UNL     1     -13.801  15.502  71.732  1.00  0.00    -0.575 C  
BRANCH   4   5
HETATM    5  C   UNL     1     -12.381  15.627  71.188  1.00  0.00    -0.482 C  
BRANCH   5   6
HETATM    6  C   UNL     1     -12.361  15.437  69.674  1.00  0.00    -0.250 C  
BRANCH   6   7
HETATM    7  C   UNL     1     -10.945  15.163  69.185  1.00  0.00    -0.260 C  
BRANCH   7   8
HETATM    8  C   UNL     1     -10.730  15.752  67.796  1.00  0.00    -0.307 C  
BRANCH   8   9
HETATM    9  C   UNL     1     -10.403  14.654  66.792  1.00  0.00    -0.268 C  
BRANCH   9  10
HETATM   10  C   UNL     1     -11.659  14.211  66.050  1.00  0.00    -0.364 C  
BRANCH  10  11
HETATM   11  C   UNL     1     -11.863  12.705  66.186  1.00  0.00    -0.477 C  
BRANCH  11  12
HETATM   12  C   UNL     1     -11.083  12.163  67.376  1.00  0.00    -0.330 C  
BRANCH  12  13
HETATM   13  C   UNL     1     -10.932  10.650  67.282  1.00  0.00    -0.348 C  
BRANCH  13  14
HETATM   14  C   UNL     1     -11.448   9.979  68.550  1.00  0.00    -0.024 C  
BRANCH  14  15
HETATM   15  C   UNL     1     -10.378   9.092  69.179  1.00  0.00    -0.229 C  
BRANCH  15  16
HETATM   16  C   UNL     1     -10.140   9.484  70.636  1.00  0.00    -0.353 C  
BRANCH  16  17
HETATM   17  C   UNL     1      -9.835   8.262  71.496  1.00  0.00    -0.250 C  
HETATM   18  C   UNL     1     -10.931   7.999  72.502  1.00  0.00    -0.364 C  
HETATM   19  O   UNL     1     -11.946   8.663  72.635  1.00  0.00    -0.340 OA 
HETATM   20  O   UNL     1     -10.669   6.916  73.271  1.00  0.00    -0.284 OA 
ENDBRANCH  16  17
ENDBRANCH  15  16
ENDBRANCH  14  15
ENDBRANCH  13  14
ENDBRANCH  12  13
ENDBRANCH  11  12
ENDBRANCH  10  11
ENDBRANCH   9  10
ENDBRANCH   8   9
ENDBRANCH   7   8
ENDBRANCH   6   7
ENDBRANCH   5   6
ENDBRANCH   4   5
ENDBRANCH   3   4
ENDBRANCH   2   3
TORSDOF 15
ENDMDL
MODEL      238
REMARK 921   NORMALIZED FREE ENERGY PREDICTED BY IDOCK:   -3.31 KCAL/MOL
REMARK 922        TOTAL FREE ENERGY PREDICTED BY IDOCK:   -8.02 KCAL/MOL
REMARK 923 INTER-LIGAND FREE ENERGY PREDICTED BY IDOCK:   -6.14 KCAL/MOL
REMARK 924 INTRA-LIGAND FREE ENERGY PREDICTED BY IDOCK:   -1.88 KCAL/MOL
REMARK 927      BINDING AFFINITY PREDICTED BY RF-SCORE:    0.00 PKD
ROOT
HETATM    1  C   UNL     1     -10.082  19.660  68.663  1.00  0.00    -0.547 C  
HETATM    2  C   UNL     1     -10.593  19.465  67.247  1.00  0.00    -0.599 C  
ENDROOT
BRANCH   2   3
HETATM    3  C   UNL     1      -9.442  19.458  66.243  1.00  0.00    -0.422 C  
BRANCH   3   4
HETATM    4  C   UNL     1      -8.244  20.237  66.775  1.00  0.00    -0.317 C  
BRANCH   4   5
HETATM    5  C   UNL     1      -7.115  20.260  65.749  1.00  0.00    -0.284 C  
BRANCH   5   6
HETATM    6  C   UNL     1      -6.670  18.844  65.399  1.00  0.00    -0.253 C  
BRANCH   6   7
HETATM    7  C   UNL     1      -5.906  18.218  66.559  1.00  0.00    -0.188 C  
BRANCH   7   8
HETATM    8  C   UNL     1      -6.505  16.868  66.935  1.00  0.00    -0.249 C  
BRANCH   8   9
HETATM    9  C   UNL     1      -7.313  16.979  68.222  1.00  0.00    -0.203 C  
BRANCH   9  10
HETATM   10  C   UNL     1      -7.942  15.638  68.581  1.00  0.00    -0.152 C  
BRANCH  10  11
HETATM   11  C   UNL     1      -9.253  15.841  69.334  1.00  0.00    -0.263 C  
BRANCH  11  12
HETATM   12  C   UNL     1     -10.404  16.053  68.360  1.00  0.00    -0.251 C  
BRANCH  12  13
HETATM   13  C   UNL     1     -11.673  15.378  68.865  1.00  0.00    -0.377 C  
BRANCH  13  14
HETATM   14  C   UNL     1     -11.348  14.383  69.973  1.00  0.00    -0.253 C  
BRANCH  14  15
HETATM   15  C   UNL     1     -12.522  13.443  70.232  1.00  0.00    -0.285 C  
BRANCH  15  16
HETATM   16  C   UNL     1     -12.107  11.989  70.017  1.00  0.00    -0.355 C  
BRANCH  16  17
HETATM   17  C   UNL     1     -10.799  11.896  69.237  1.00  0.00    -0.157 C  
HETATM   18  C   UNL     1     -11.043  11.665  67.764  1.00  0.00    -0.249 C  
HETATM   19  O   UNL     1     -12.137  11.560  67.233  1.00  0.00    -0.548 OA 
HETATM   20  O   UNL     1      -9.888  11.580  67.062  1.00  0.00    -0.189 OA 
ENDBRANCH  16  17
ENDBRANCH  15  16
ENDBRANCH  14  15
ENDBRANCH  13  14
ENDBRANCH  12  13
ENDBRANCH  11  12
ENDBRANCH  10  11
ENDBRANCH   9  10
ENDBRANCH   8   9
ENDBRANCH   7   8
ENDBRANCH   6   7
ENDBRANCH   5   6
ENDBRANCH   4   5
ENDBRANCH   3   4
ENDBRANCH   2   3
TORSDOF 15
ENDMDL
MODEL      239
REMARK 921   NORMALIZED FREE ENERGY PREDICTED BY IDOCK:   -3.31 KCAL/MOL
REMARK 922        TOTAL FREE ENERGY PREDICTED BY IDOCK:   -8.01 KCAL/MOL
REMARK 923 INTER-LIGAND FREE ENERGY PREDICTED BY IDOCK:   -6.46 KCAL/MOL
REMARK 924 INTRA-LIGAND FREE ENERGY PREDICTED BY IDOCK:   -1.55 KCAL/MOL
REMARK 927      BINDING AFFINITY PREDICTED BY RF-SCORE:    0.00 PKD
ROOT
HETATM    1  C   UNL     1      -8.164   8.437  64.517  1.00  0.00    -0.149 C  
HETATM    2  C   UNL     1      -9.177   9.207  65.344  1.00  0.00    -0.266 C  
ENDROOT
BRANCH   2   3
HETATM    3  C   UNL     1      -9.867   8.296  66.357  1.00  0.00    -0.283 C  
BRANCH   3   4
HETATM    4  C   UNL     1      -9.307   8.510  67.759  1.00  0.00    -0.153 C  
BRANCH   4   5
HETATM    5  C   UNL     1     -10.434   8.596  68.784  1.00  0.00    -0.209 C  
BRANCH   5   6
HETATM    6  C   UNL     1      -9.939   8.196  70.170  1.00  0.00    -0.187 C  
BRANCH   6   7
HETATM    7  C   UNL     1     -10.025   6.687  70.358  1.00  0.00    -0.193 C  
BRANCH   7   8
HETATM    8  C   UNL     1     -11.452   6.262  70.682  1.00  0.00    -0.397 C  
BRANCH   8   9
HETATM    9  C   UNL     1     -12.061   7.182  71.732  1.00  0.00    -0.363 C  
BRANCH   9  10
HETATM   10  C   UNL     1     -13.560   7.342  71.504  1.00  0.00    -0.454 C  
BRANCH  10  11
HETATM   11  C   UNL     1     -13.997   8.778  71.778  1.00  0.00    -0.475 C  
BRANCH  11  12
HETATM   12  C   UNL     1     -12.866   9.751  71.475  1.00  0.00    -0.502 C  
BRANCH  12  13
HETATM   13  C   UNL     1     -13.223  11.158  71.937  1.00  0.00    -0.488 C  
BRANCH  13  14
HETATM   14  C   UNL     1     -12.645  12.198  70.983  1.00  0.00    -0.359 C  
BRANCH  14  15
HETATM   15  C   UNL     1     -11.910  11.534  69.822  1.00  0.00    -0.429 C  
BRANCH  15  16
HETATM   16  C   UNL     1     -11.440  12.579  68.812  1.00  0.00    -0.353 C  
BRANCH  16  17
HETATM   17  C   UNL     1     -11.991  13.961  69.148  1.00  0.00    -0.404 C  
HETATM   18  C   UNL     1     -10.895  15.000  69.206  1.00  0.00    -0.261 C  
HETATM   19  O   UNL     1      -9.709  14.791  69.013  1.00  0.00    -0.218 OA 
HETATM   20  O   UNL     1     -11.375  16.231  69.504  1.00  0.00    -0.320 OA 
ENDBRANCH  16  17
ENDBRANCH  15  16
ENDBRANCH  14  15
ENDBRANCH  13  14
ENDBRANCH  12  13
ENDBRANCH  11  12
ENDBRANCH  10  11
ENDBRANCH   9  10
ENDBRANCH   8   9
ENDBRANCH   7   8
ENDBRANCH   6   7
ENDBRANCH   5   6
ENDBRANCH   4   5
ENDBRANCH   3   4
ENDBRANCH   2   3
TORSDOF 15
ENDMDL
MODEL      240
REMARK 921   NORMALIZED FREE ENERGY PREDICTED BY IDOCK:   -3.31 KCAL/MOL
REMARK 922        TOTAL FREE ENERGY PREDICTED BY IDOCK:   -8.01 KCAL/MOL
REMARK 923 INTER-LIGAND FREE ENERGY PREDICTED BY IDOCK:   -6.38 KCAL/MOL
REMARK 924 INTRA-LIGAND FREE ENERGY PREDICTED BY IDOCK:   -1.63 KCAL/MOL
REMARK 927      BINDING AFFINITY PREDICTED BY RF-SCORE:    0.00 PKD
ROOT
HETATM    1  C   UNL     1     -12.266  16.380  73.365  1.00  0.00    -0.561 C  
HETATM    2  C   UNL     1     -12.618  14.933  73.067  1.00  0.00    -0.529 C  
ENDROOT
BRANCH   2   3
HETATM    3  C   UNL     1     -13.148  14.778  71.644  1.00  0.00    -0.418 C  
BRANCH   3   4
HETATM    4  C   UNL     1     -12.193  15.401  70.631  1.00  0.00    -0.431 C  
BRANCH   4   5
HETATM    5  C   UNL     1     -12.381  14.775  69.253  1.00  0.00    -0.148 C  
BRANCH   5   6
HETATM    6  C   UNL     1     -11.284  13.754  68.966  1.00  0.00    -0.313 C  
BRANCH   6   7
HETATM    7  C   UNL     1     -10.568  14.085  67.664  1.00  0.00    -0.249 C  
BRANCH   7   8
HETATM    8  C   UNL     1     -11.562  14.201  66.514  1.00  0.00    -0.389 C  
BRANCH   8   9
HETATM    9  C   UNL     1     -11.041  13.478  65.279  1.00  0.00    -0.307 C  
BRANCH   9  10
HETATM   10  C   UNL     1     -10.941  11.979  65.535  1.00  0.00    -0.345 C  
BRANCH  10  11
HETATM   11  C   UNL     1      -9.503  11.498  65.366  1.00  0.00    -0.220 C  
BRANCH  11  12
HETATM   12  C   UNL     1      -9.146  10.484  66.444  1.00  0.00    -0.181 C  
BRANCH  12  13
HETATM   13  C   UNL     1      -8.094  11.047  67.392  1.00  0.00    -0.122 C  
BRANCH  13  14
HETATM   14  C   UNL     1      -8.513  10.840  68.843  1.00  0.00    -0.149 C  
BRANCH  14  15
HETATM   15  C   UNL     1      -9.661   9.840  68.948  1.00  0.00    -0.172 C  
BRANCH  15  16
HETATM   16  C   UNL     1      -9.957   9.510  70.410  1.00  0.00    -0.325 C  
BRANCH  16  17
HETATM   17  C   UNL     1     -11.320  10.047  70.834  1.00  0.00    -0.439 C  
HETATM   18  C   UNL     1     -12.028   9.097  71.771  1.00  0.00    -0.379 C  
HETATM   19  O   UNL     1     -11.592   8.025  72.158  1.00  0.00    -0.297 OA 
HETATM   20  O   UNL     1     -13.239   9.566  72.154  1.00  0.00    -0.407 OA 
ENDBRANCH  16  17
ENDBRANCH  15  16
ENDBRANCH  14  15
ENDBRANCH  13  14
ENDBRANCH  12  13
ENDBRANCH  11  12
ENDBRANCH  10  11
ENDBRANCH   9  10
ENDBRANCH   8   9
ENDBRANCH   7   8
ENDBRANCH   6   7
ENDBRANCH   5   6
ENDBRANCH   4   5
ENDBRANCH   3   4
ENDBRANCH   2   3
TORSDOF 15
ENDMDL
MODEL      241
REMARK 921   NORMALIZED FREE ENERGY PREDICTED BY IDOCK:   -3.30 KCAL/MOL
REMARK 922        TOTAL FREE ENERGY PREDICTED BY IDOCK:   -7.99 KCAL/MOL
REMARK 923 INTER-LIGAND FREE ENERGY PREDICTED BY IDOCK:   -6.42 KCAL/MOL
REMARK 924 INTRA-LIGAND FREE ENERGY PREDICTED BY IDOCK:   -1.57 KCAL/MOL
REMARK 927      BINDING AFFINITY PREDICTED BY RF-SCORE:    0.00 PKD
ROOT
HETATM    1  C   UNL     1      -8.923   8.995  71.304  1.00  0.00    -0.281 C  
HETATM    2  C   UNL     1      -8.546   8.269  72.583  1.00  0.00    -0.264 C  
ENDROOT
BRANCH   2   3
HETATM    3  C   UNL     1      -9.672   7.346  73.044  1.00  0.00    -0.255 C  
BRANCH   3   4
HETATM    4  C   UNL     1      -9.899   6.215  72.046  1.00  0.00    -0.174 C  
BRANCH   4   5
HETATM    5  C   UNL     1     -11.385   6.044  71.751  1.00  0.00    -0.324 C  
BRANCH   5   6
HETATM    6  C   UNL     1     -11.733   6.592  70.371  1.00  0.00    -0.439 C  
BRANCH   6   7
HETATM    7  C   UNL     1     -10.536   6.488  69.434  1.00  0.00    -0.291 C  
BRANCH   7   8
HETATM    8  C   UNL     1     -10.981   6.094  68.030  1.00  0.00    -0.399 C  
BRANCH   8   9
HETATM    9  C   UNL     1     -10.590   7.166  67.022  1.00  0.00    -0.413 C  
BRANCH   9  10
HETATM   10  C   UNL     1      -9.935   8.351  67.721  1.00  0.00    -0.236 C  
BRANCH  10  11
HETATM   11  C   UNL     1     -10.289   9.657  67.017  1.00  0.00    -0.315 C  
BRANCH  11  12
HETATM   12  C   UNL     1      -9.752   9.662  65.593  1.00  0.00    -0.363 C  
BRANCH  12  13
HETATM   13  C   UNL     1      -9.678  11.082  65.045  1.00  0.00    -0.303 C  
BRANCH  13  14
HETATM   14  C   UNL     1     -10.872  11.372  64.143  1.00  0.00    -0.431 C  
BRANCH  14  15
HETATM   15  C   UNL     1     -11.829  12.364  64.798  1.00  0.00    -0.442 C  
BRANCH  15  16
HETATM   16  C   UNL     1     -11.149  13.083  65.961  1.00  0.00    -0.301 C  
BRANCH  16  17
HETATM   17  C   UNL     1     -11.990  13.002  67.231  1.00  0.00    -0.379 C  
HETATM   18  C   UNL     1     -11.253  13.560  68.426  1.00  0.00    -0.278 C  
HETATM   19  O   UNL     1     -10.124  14.024  68.410  1.00  0.00    -0.226 OA 
HETATM   20  O   UNL     1     -11.992  13.492  69.558  1.00  0.00    -0.311 OA 
ENDBRANCH  16  17
ENDBRANCH  15  16
ENDBRANCH  14  15
ENDBRANCH  13  14
ENDBRANCH  12  13
ENDBRANCH  11  12
ENDBRANCH  10  11
ENDBRANCH   9  10
ENDBRANCH   8   9
ENDBRANCH   7   8
ENDBRANCH   6   7
ENDBRANCH   5   6
ENDBRANCH   4   5
ENDBRANCH   3   4
ENDBRANCH   2   3
TORSDOF 15
ENDMDL
MODEL      242
REMARK 921   NORMALIZED FREE ENERGY PREDICTED BY IDOCK:   -3.29 KCAL/MOL
REMARK 922        TOTAL FREE ENERGY PREDICTED BY IDOCK:   -7.98 KCAL/MOL
REMARK 923 INTER-LIGAND FREE ENERGY PREDICTED BY IDOCK:   -6.87 KCAL/MOL
REMARK 924 INTRA-LIGAND FREE ENERGY PREDICTED BY IDOCK:   -1.11 KCAL/MOL
REMARK 927      BINDING AFFINITY PREDICTED BY RF-SCORE:    0.00 PKD
ROOT
HETATM    1  C   UNL     1      -9.740  20.115  67.140  1.00  0.00    -0.576 C  
HETATM    2  C   UNL     1     -10.185  19.597  68.495  1.00  0.00    -0.529 C  
ENDROOT
BRANCH   2   3
HETATM    3  C   UNL     1     -10.468  18.097  68.446  1.00  0.00    -0.308 C  
BRANCH   3   4
HETATM    4  C   UNL     1     -10.325  17.558  67.026  1.00  0.00    -0.324 C  
BRANCH   4   5
HETATM    5  C   UNL     1     -10.185  16.039  67.036  1.00  0.00    -0.282 C  
BRANCH   5   6
HETATM    6  C   UNL     1     -10.074  15.494  65.616  1.00  0.00    -0.406 C  
BRANCH   6   7
HETATM    7  C   UNL     1     -11.262  15.940  64.773  1.00  0.00    -0.364 C  
BRANCH   7   8
HETATM    8  C   UNL     1     -12.222  14.780  64.536  1.00  0.00    -0.443 C  
BRANCH   8   9
HETATM    9  C   UNL     1     -11.472  13.455  64.526  1.00  0.00    -0.402 C  
BRANCH   9  10
HETATM   10  C   UNL     1     -12.174  12.431  65.411  1.00  0.00    -0.386 C  
BRANCH  10  11
HETATM   11  C   UNL     1     -11.656  12.510  66.843  1.00  0.00    -0.436 C  
BRANCH  11  12
HETATM   12  C   UNL     1     -10.959  11.214  67.234  1.00  0.00    -0.354 C  
BRANCH  12  13
HETATM   13  C   UNL     1     -10.553  10.422  65.998  1.00  0.00    -0.136 C  
BRANCH  13  14
HETATM   14  C   UNL     1     -10.018   9.049  66.392  1.00  0.00    -0.370 C  
BRANCH  14  15
HETATM   15  C   UNL     1      -9.935   8.905  67.909  1.00  0.00    -0.223 C  
BRANCH  15  16
HETATM   16  C   UNL     1     -10.264   7.475  68.334  1.00  0.00    -0.211 C  
BRANCH  16  17
HETATM   17  C   UNL     1     -10.803   7.432  69.760  1.00  0.00    -0.246 C  
HETATM   18  C   UNL     1     -10.824   6.023  70.307  1.00  0.00    -0.329 C  
HETATM   19  O   UNL     1     -10.462   5.024  69.707  1.00  0.00    -0.263 OA 
HETATM   20  O   UNL     1     -11.301   5.974  71.573  1.00  0.00    -0.285 OA 
ENDBRANCH  16  17
ENDBRANCH  15  16
ENDBRANCH  14  15
ENDBRANCH  13  14
ENDBRANCH  12  13
ENDBRANCH  11  12
ENDBRANCH  10  11
ENDBRANCH   9  10
ENDBRANCH   8   9
ENDBRANCH   7   8
ENDBRANCH   6   7
ENDBRANCH   5   6
ENDBRANCH   4   5
ENDBRANCH   3   4
ENDBRANCH   2   3
TORSDOF 15
ENDMDL
MODEL      243
REMARK 921   NORMALIZED FREE ENERGY PREDICTED BY IDOCK:   -3.28 KCAL/MOL
REMARK 922        TOTAL FREE ENERGY PREDICTED BY IDOCK:   -7.96 KCAL/MOL
REMARK 923 INTER-LIGAND FREE ENERGY PREDICTED BY IDOCK:   -5.95 KCAL/MOL
REMARK 924 INTRA-LIGAND FREE ENERGY PREDICTED BY IDOCK:   -2.01 KCAL/MOL
REMARK 927      BINDING AFFINITY PREDICTED BY RF-SCORE:    0.00 PKD
ROOT
HETATM    1  C   UNL     1      -9.146  10.829  69.199  1.00  0.00    -0.109 C  
HETATM    2  C   UNL     1      -9.437  11.631  67.944  1.00  0.00    -0.181 C  
ENDROOT
BRANCH   2   3
HETATM    3  C   UNL     1     -10.368  10.867  67.005  1.00  0.00    -0.276 C  
BRANCH   3   4
HETATM    4  C   UNL     1      -9.599  10.286  65.823  1.00  0.00    -0.279 C  
BRANCH   4   5
HETATM    5  C   UNL     1      -9.626   8.761  65.857  1.00  0.00    -0.255 C  
BRANCH   5   6
HETATM    6  C   UNL     1      -8.486   8.217  66.712  1.00  0.00    -0.123 C  
BRANCH   6   7
HETATM    7  C   UNL     1      -9.008   7.207  67.726  1.00  0.00    -0.122 C  
BRANCH   7   8
HETATM    8  C   UNL     1     -10.532   7.191  67.738  1.00  0.00    -0.284 C  
BRANCH   8   9
HETATM    9  C   UNL     1     -11.051   6.257  68.823  1.00  0.00    -0.424 C  
BRANCH   9  10
HETATM   10  C   UNL     1      -9.917   5.814  69.741  1.00  0.00    -0.250 C  
BRANCH  10  11
HETATM   11  C   UNL     1     -10.294   6.025  71.204  1.00  0.00    -0.267 C  
BRANCH  11  12
HETATM   12  C   UNL     1      -9.723   7.338  71.722  1.00  0.00    -0.167 C  
BRANCH  12  13
HETATM   13  C   UNL     1     -10.773   8.116  72.505  1.00  0.00    -0.419 C  
BRANCH  13  14
HETATM   14  C   UNL     1     -11.346   9.247  71.658  1.00  0.00    -0.467 C  
BRANCH  14  15
HETATM   15  C   UNL     1     -12.864   9.324  71.795  1.00  0.00    -0.461 C  
BRANCH  15  16
HETATM   16  C   UNL     1     -13.309  10.759  72.068  1.00  0.00    -0.403 C  
BRANCH  16  17
HETATM   17  C   UNL     1     -12.847  11.703  70.962  1.00  0.00    -0.339 C  
HETATM   18  C   UNL     1     -12.984  13.151  71.370  1.00  0.00    -0.298 C  
HETATM   19  O   UNL     1     -13.409  13.549  72.442  1.00  0.00    -0.493 OA 
HETATM   20  O   UNL     1     -12.577  13.997  70.394  1.00  0.00    -0.336 OA 
ENDBRANCH  16  17
ENDBRANCH  15  16
ENDBRANCH  14  15
ENDBRANCH  13  14
ENDBRANCH  12  13
ENDBRANCH  11  12
ENDBRANCH  10  11
ENDBRANCH   9  10
ENDBRANCH   8   9
ENDBRANCH   7   8
ENDBRANCH   6   7
ENDBRANCH   5   6
ENDBRANCH   4   5
ENDBRANCH   3   4
ENDBRANCH   2   3
TORSDOF 15
ENDMDL
MODEL      244
REMARK 921   NORMALIZED FREE ENERGY PREDICTED BY IDOCK:   -3.28 KCAL/MOL
REMARK 922        TOTAL FREE ENERGY PREDICTED BY IDOCK:   -7.95 KCAL/MOL
REMARK 923 INTER-LIGAND FREE ENERGY PREDICTED BY IDOCK:   -6.33 KCAL/MOL
REMARK 924 INTRA-LIGAND FREE ENERGY PREDICTED BY IDOCK:   -1.62 KCAL/MOL
REMARK 927      BINDING AFFINITY PREDICTED BY RF-SCORE:    0.00 PKD
ROOT
HETATM    1  C   UNL     1     -11.488   6.365  72.095  1.00  0.00    -0.344 C  
HETATM    2  C   UNL     1     -12.003   7.095  70.868  1.00  0.00    -0.375 C  
ENDROOT
BRANCH   2   3
HETATM    3  C   UNL     1     -11.978   8.607  71.076  1.00  0.00    -0.278 C  
BRANCH   3   4
HETATM    4  C   UNL     1     -10.557   9.152  70.979  1.00  0.00    -0.362 C  
BRANCH   4   5
HETATM    5  C   UNL     1     -10.467  10.246  69.920  1.00  0.00    -0.304 C  
BRANCH   5   6
HETATM    6  C   UNL     1     -10.960   9.737  68.569  1.00  0.00    -0.195 C  
BRANCH   6   7
HETATM    7  C   UNL     1      -9.825   9.077  67.797  1.00  0.00    -0.209 C  
BRANCH   7   8
HETATM    8  C   UNL     1     -10.150   9.012  66.309  1.00  0.00    -0.311 C  
BRANCH   8   9
HETATM    9  C   UNL     1      -9.470  10.150  65.560  1.00  0.00    -0.286 C  
BRANCH   9  10
HETATM   10  C   UNL     1     -10.463  10.870  64.657  1.00  0.00    -0.384 C  
BRANCH  10  11
HETATM   11  C   UNL     1     -10.496  12.362  64.972  1.00  0.00    -0.324 C  
BRANCH  11  12
HETATM   12  C   UNL     1     -11.582  12.671  65.993  1.00  0.00    -0.443 C  
BRANCH  12  13
HETATM   13  C   UNL     1     -10.972  13.045  67.338  1.00  0.00    -0.284 C  
BRANCH  13  14
HETATM   14  C   UNL     1     -12.009  13.721  68.229  1.00  0.00    -0.392 C  
BRANCH  14  15
HETATM   15  C   UNL     1     -11.558  13.737  69.687  1.00  0.00    -0.343 C  
BRANCH  15  16
HETATM   16  C   UNL     1     -11.230  15.160  70.134  1.00  0.00    -0.299 C  
BRANCH  16  17
HETATM   17  C   UNL     1     -11.392  16.153  68.988  1.00  0.00    -0.340 C  
HETATM   18  C   UNL     1     -10.066  16.744  68.569  1.00  0.00    -0.281 C  
HETATM   19  O   UNL     1      -8.983  16.482  69.067  1.00  0.00    -0.257 OA 
HETATM   20  O   UNL     1     -10.200  17.627  67.552  1.00  0.00    -0.320 OA 
ENDBRANCH  16  17
ENDBRANCH  15  16
ENDBRANCH  14  15
ENDBRANCH  13  14
ENDBRANCH  12  13
ENDBRANCH  11  12
ENDBRANCH  10  11
ENDBRANCH   9  10
ENDBRANCH   8   9
ENDBRANCH   7   8
ENDBRANCH   6   7
ENDBRANCH   5   6
ENDBRANCH   4   5
ENDBRANCH   3   4
ENDBRANCH   2   3
TORSDOF 15
ENDMDL
MODEL      245
REMARK 921   NORMALIZED FREE ENERGY PREDICTED BY IDOCK:   -3.28 KCAL/MOL
REMARK 922        TOTAL FREE ENERGY PREDICTED BY IDOCK:   -7.94 KCAL/MOL
REMARK 923 INTER-LIGAND FREE ENERGY PREDICTED BY IDOCK:   -5.70 KCAL/MOL
REMARK 924 INTRA-LIGAND FREE ENERGY PREDICTED BY IDOCK:   -2.24 KCAL/MOL
REMARK 927      BINDING AFFINITY PREDICTED BY RF-SCORE:    0.00 PKD
ROOT
HETATM    1  C   UNL     1     -13.509   9.821  71.413  1.00  0.00    -0.397 C  
HETATM    2  C   UNL     1     -14.371   8.711  71.989  1.00  0.00    -0.512 C  
ENDROOT
BRANCH   2   3
HETATM    3  C   UNL     1     -13.918   7.344  71.481  1.00  0.00    -0.517 C  
BRANCH   3   4
HETATM    4  C   UNL     1     -12.468   7.385  71.010  1.00  0.00    -0.285 C  
BRANCH   4   5
HETATM    5  C   UNL     1     -11.604   6.438  71.837  1.00  0.00    -0.367 C  
BRANCH   5   6
HETATM    6  C   UNL     1     -10.782   7.210  72.863  1.00  0.00    -0.339 C  
BRANCH   6   7
HETATM    7  C   UNL     1     -10.255   8.508  72.266  1.00  0.00    -0.395 C  
BRANCH   7   8
HETATM    8  C   UNL     1      -8.791   8.366  71.867  1.00  0.00    -0.267 C  
BRANCH   8   9
HETATM    9  C   UNL     1      -8.484   9.211  70.638  1.00  0.00    -0.246 C  
BRANCH   9  10
HETATM   10  C   UNL     1      -9.765   9.789  70.048  1.00  0.00    -0.292 C  
BRANCH  10  11
HETATM   11  C   UNL     1      -9.446  10.852  69.001  1.00  0.00    -0.160 C  
BRANCH  11  12
HETATM   12  C   UNL     1      -9.356  10.231  67.615  1.00  0.00    -0.158 C  
BRANCH  12  13
HETATM   13  C   UNL     1     -10.436   9.174  67.423  1.00  0.00    -0.339 C  
BRANCH  13  14
HETATM   14  C   UNL     1      -9.841   7.897  66.839  1.00  0.00    -0.309 C  
BRANCH  14  15
HETATM   15  C   UNL     1      -9.513   6.889  67.937  1.00  0.00    -0.120 C  
BRANCH  15  16
HETATM   16  C   UNL     1     -10.474   5.704  67.886  1.00  0.00    -0.274 C  
BRANCH  16  17
HETATM   17  C   UNL     1     -10.995   5.474  66.471  1.00  0.00    -0.120 C  
HETATM   18  C   UNL     1     -10.324   4.290  65.814  1.00  0.00    -0.153 C  
HETATM   19  O   UNL     1      -9.468   3.586  66.324  1.00  0.00    -0.181 OA 
HETATM   20  O   UNL     1     -10.781   4.077  64.557  1.00  0.00    -0.269 OA 
ENDBRANCH  16  17
ENDBRANCH  15  16
ENDBRANCH  14  15
ENDBRANCH  13  14
ENDBRANCH  12  13
ENDBRANCH  11  12
ENDBRANCH  10  11
ENDBRANCH   9  10
ENDBRANCH   8   9
ENDBRANCH   7   8
ENDBRANCH   6   7
ENDBRANCH   5   6
ENDBRANCH   4   5
ENDBRANCH   3   4
ENDBRANCH   2   3
TORSDOF 15
ENDMDL
MODEL      246
REMARK 921   NORMALIZED FREE ENERGY PREDICTED BY IDOCK:   -3.27 KCAL/MOL
REMARK 922        TOTAL FREE ENERGY PREDICTED BY IDOCK:   -7.94 KCAL/MOL
REMARK 923 INTER-LIGAND FREE ENERGY PREDICTED BY IDOCK:   -6.31 KCAL/MOL
REMARK 924 INTRA-LIGAND FREE ENERGY PREDICTED BY IDOCK:   -1.63 KCAL/MOL
REMARK 927      BINDING AFFINITY PREDICTED BY RF-SCORE:    0.00 PKD
ROOT
HETATM    1  C   UNL     1     -10.891   6.908  68.422  1.00  0.00    -0.238 C  
HETATM    2  C   UNL     1     -11.205   6.104  69.671  1.00  0.00    -0.488 C  
ENDROOT
BRANCH   2   3
HETATM    3  C   UNL     1     -10.304   6.516  70.832  1.00  0.00    -0.243 C  
BRANCH   3   4
HETATM    4  C   UNL     1     -11.074   7.339  71.860  1.00  0.00    -0.270 C  
BRANCH   4   5
HETATM    5  C   UNL     1     -10.576   8.781  71.881  1.00  0.00    -0.425 C  
BRANCH   5   6
HETATM    6  C   UNL     1      -9.109   8.855  71.471  1.00  0.00    -0.299 C  
BRANCH   6   7
HETATM    7  C   UNL     1      -8.927   9.801  70.291  1.00  0.00    -0.198 C  
BRANCH   7   8
HETATM    8  C   UNL     1     -10.274  10.314  69.796  1.00  0.00    -0.262 C  
BRANCH   8   9
HETATM    9  C   UNL     1     -10.094  11.197  68.568  1.00  0.00    -0.208 C  
BRANCH   9  10
HETATM   10  C   UNL     1     -11.396  11.298  67.783  1.00  0.00    -0.354 C  
BRANCH  10  11
HETATM   11  C   UNL     1     -11.224  12.204  66.567  1.00  0.00    -0.378 C  
BRANCH  11  12
HETATM   12  C   UNL     1     -12.145  13.412  66.662  1.00  0.00    -0.429 C  
BRANCH  12  13
HETATM   13  C   UNL     1     -11.340  14.703  66.734  1.00  0.00    -0.360 C  
BRANCH  13  14
HETATM   14  C   UNL     1     -11.479  15.346  68.110  1.00  0.00    -0.352 C  
BRANCH  14  15
HETATM   15  C   UNL     1     -10.154  15.319  68.867  1.00  0.00    -0.225 C  
BRANCH  15  16
HETATM   16  C   UNL     1      -9.545  16.718  68.938  1.00  0.00    -0.249 C  
BRANCH  16  17
HETATM   17  C   UNL     1      -8.484  16.915  67.860  1.00  0.00    -0.203 C  
HETATM   18  C   UNL     1      -9.001  17.751  66.713  1.00  0.00    -0.259 C  
HETATM   19  O   UNL     1     -10.123  18.224  66.629  1.00  0.00    -0.333 OA 
HETATM   20  O   UNL     1      -8.066  17.931  65.751  1.00  0.00    -0.537 OA 
ENDBRANCH  16  17
ENDBRANCH  15  16
ENDBRANCH  14  15
ENDBRANCH  13  14
ENDBRANCH  12  13
ENDBRANCH  11  12
ENDBRANCH  10  11
ENDBRANCH   9  10
ENDBRANCH   8   9
ENDBRANCH   7   8
ENDBRANCH   6   7
ENDBRANCH   5   6
ENDBRANCH   4   5
ENDBRANCH   3   4
ENDBRANCH   2   3
TORSDOF 15
ENDMDL
MODEL      247
REMARK 921   NORMALIZED FREE ENERGY PREDICTED BY IDOCK:   -3.27 KCAL/MOL
REMARK 922        TOTAL FREE ENERGY PREDICTED BY IDOCK:   -7.94 KCAL/MOL
REMARK 923 INTER-LIGAND FREE ENERGY PREDICTED BY IDOCK:   -6.30 KCAL/MOL
REMARK 924 INTRA-LIGAND FREE ENERGY PREDICTED BY IDOCK:   -1.63 KCAL/MOL
REMARK 927      BINDING AFFINITY PREDICTED BY RF-SCORE:    0.00 PKD
ROOT
HETATM    1  C   UNL     1     -13.778   9.059  71.326  1.00  0.00    -0.246 C  
HETATM    2  C   UNL     1     -12.534   9.081  72.196  1.00  0.00    -0.450 C  
ENDROOT
BRANCH   2   3
HETATM    3  C   UNL     1     -11.862   7.710  72.229  1.00  0.00    -0.354 C  
BRANCH   3   4
HETATM    4  C   UNL     1     -10.487   7.789  72.883  1.00  0.00    -0.412 C  
BRANCH   4   5
HETATM    5  C   UNL     1      -9.412   7.236  71.952  1.00  0.00    -0.163 C  
BRANCH   5   6
HETATM    6  C   UNL     1      -9.731   7.566  70.498  1.00  0.00    -0.179 C  
BRANCH   6   7
HETATM    7  C   UNL     1      -8.964   8.802  70.045  1.00  0.00    -0.162 C  
BRANCH   7   8
HETATM    8  C   UNL     1      -9.905   9.988  69.869  1.00  0.00    -0.266 C  
BRANCH   8   9
HETATM    9  C   UNL     1     -10.754   9.819  68.616  1.00  0.00    -0.247 C  
BRANCH   9  10
HETATM   10  C   UNL     1     -11.875  10.851  68.582  1.00  0.00    -0.269 C  
BRANCH  10  11
HETATM   11  C   UNL     1     -11.435  12.101  67.826  1.00  0.00    -0.398 C  
BRANCH  11  12
HETATM   12  C   UNL     1     -11.344  11.821  66.333  1.00  0.00    -0.361 C  
BRANCH  12  13
HETATM   13  C   UNL     1     -12.392  12.619  65.567  1.00  0.00    -0.455 C  
BRANCH  13  14
HETATM   14  C   UNL     1     -12.122  14.115  65.688  1.00  0.00    -0.425 C  
BRANCH  14  15
HETATM   15  C   UNL     1     -11.222  14.607  64.559  1.00  0.00    -0.290 C  
BRANCH  15  16
HETATM   16  C   UNL     1      -9.946  15.232  65.120  1.00  0.00    -0.260 C  
BRANCH  16  17
HETATM   17  C   UNL     1     -10.218  15.965  66.429  1.00  0.00    -0.311 C  
HETATM   18  C   UNL     1      -9.357  17.200  66.567  1.00  0.00    -0.265 C  
HETATM   19  O   UNL     1      -8.537  17.588  65.751  1.00  0.00    -0.521 OA 
HETATM   20  O   UNL     1      -9.591  17.857  67.727  1.00  0.00    -0.267 OA 
ENDBRANCH  16  17
ENDBRANCH  15  16
ENDBRANCH  14  15
ENDBRANCH  13  14
ENDBRANCH  12  13
ENDBRANCH  11  12
ENDBRANCH  10  11
ENDBRANCH   9  10
ENDBRANCH   8   9
ENDBRANCH   7   8
ENDBRANCH   6   7
ENDBRANCH   5   6
ENDBRANCH   4   5
ENDBRANCH   3   4
ENDBRANCH   2   3
TORSDOF 15
ENDMDL
MODEL      248
REMARK 921   NORMALIZED FREE ENERGY PREDICTED BY IDOCK:   -3.27 KCAL/MOL
REMARK 922        TOTAL FREE ENERGY PREDICTED BY IDOCK:   -7.93 KCAL/MOL
REMARK 923 INTER-LIGAND FREE ENERGY PREDICTED BY IDOCK:   -5.81 KCAL/MOL
REMARK 924 INTRA-LIGAND FREE ENERGY PREDICTED BY IDOCK:   -2.12 KCAL/MOL
REMARK 927      BINDING AFFINITY PREDICTED BY RF-SCORE:    0.00 PKD
ROOT
HETATM    1  C   UNL     1     -10.019  19.082  68.863  1.00  0.00    -0.460 C  
HETATM    2  C   UNL     1     -10.479  19.772  67.592  1.00  0.00    -0.564 C  
ENDROOT
BRANCH   2   3
HETATM    3  C   UNL     1      -9.294  20.126  66.697  1.00  0.00    -0.490 C  
BRANCH   3   4
HETATM    4  C   UNL     1      -7.971  19.872  67.412  1.00  0.00    -0.324 C  
BRANCH   4   5
HETATM    5  C   UNL     1      -6.929  19.323  66.442  1.00  0.00    -0.229 C  
BRANCH   5   6
HETATM    6  C   UNL     1      -7.274  17.899  66.022  1.00  0.00    -0.325 C  
BRANCH   6   7
HETATM    7  C   UNL     1      -6.976  16.918  67.149  1.00  0.00    -0.217 C  
BRANCH   7   8
HETATM    8  C   UNL     1      -7.842  15.670  67.022  1.00  0.00    -0.266 C  
BRANCH   8   9
HETATM    9  C   UNL     1      -8.964  15.687  68.052  1.00  0.00    -0.178 C  
BRANCH   9  10
HETATM   10  C   UNL     1     -10.306  15.957  67.382  1.00  0.00    -0.288 C  
BRANCH  10  11
HETATM   11  C   UNL     1     -11.427  15.997  68.416  1.00  0.00    -0.331 C  
BRANCH  11  12
HETATM   12  C   UNL     1     -11.130  15.046  69.566  1.00  0.00    -0.292 C  
BRANCH  12  13
HETATM   13  C   UNL     1     -12.332  14.156  69.858  1.00  0.00    -0.382 C  
BRANCH  13  14
HETATM   14  C   UNL     1     -11.977  12.688  69.644  1.00  0.00    -0.352 C  
BRANCH  14  15
HETATM   15  C   UNL     1     -11.970  12.333  68.160  1.00  0.00    -0.256 C  
BRANCH  15  16
HETATM   16  C   UNL     1     -10.855  11.337  67.848  1.00  0.00    -0.278 C  
BRANCH  16  17
HETATM   17  C   UNL     1      -9.648  12.033  67.227  1.00  0.00    -0.185 C  
HETATM   18  C   UNL     1      -8.385  11.220  67.399  1.00  0.00    -0.137 C  
HETATM   19  O   UNL     1      -8.308  10.139  67.960  1.00  0.00    -0.115 OA 
HETATM   20  O   UNL     1      -7.308  11.830  66.851  1.00  0.00    -0.144 OA 
ENDBRANCH  16  17
ENDBRANCH  15  16
ENDBRANCH  14  15
ENDBRANCH  13  14
ENDBRANCH  12  13
ENDBRANCH  11  12
ENDBRANCH  10  11
ENDBRANCH   9  10
ENDBRANCH   8   9
ENDBRANCH   7   8
ENDBRANCH   6   7
ENDBRANCH   5   6
ENDBRANCH   4   5
ENDBRANCH   3   4
ENDBRANCH   2   3
TORSDOF 15
ENDMDL
MODEL      249
REMARK 921   NORMALIZED FREE ENERGY PREDICTED BY IDOCK:   -3.26 KCAL/MOL
REMARK 922        TOTAL FREE ENERGY PREDICTED BY IDOCK:   -7.92 KCAL/MOL
REMARK 923 INTER-LIGAND FREE ENERGY PREDICTED BY IDOCK:   -5.51 KCAL/MOL
REMARK 924 INTRA-LIGAND FREE ENERGY PREDICTED BY IDOCK:   -2.41 KCAL/MOL
REMARK 927      BINDING AFFINITY PREDICTED BY RF-SCORE:    0.00 PKD
ROOT
HETATM    1  C   UNL     1     -10.356  15.459  65.890  1.00  0.00    -0.359 C  
HETATM    2  C   UNL     1     -11.010  14.975  67.172  1.00  0.00    -0.329 C  
ENDROOT
BRANCH   2   3
HETATM    3  C   UNL     1     -11.992  13.840  66.895  1.00  0.00    -0.460 C  
BRANCH   3   4
HETATM    4  C   UNL     1     -12.532  13.916  65.471  1.00  0.00    -0.541 C  
BRANCH   4   5
HETATM    5  C   UNL     1     -12.533  12.538  64.818  1.00  0.00    -0.532 C  
BRANCH   5   6
HETATM    6  C   UNL     1     -11.458  12.446  63.740  1.00  0.00    -0.544 C  
BRANCH   6   7
HETATM    7  C   UNL     1     -10.642  11.170  63.900  1.00  0.00    -0.431 C  
BRANCH   7   8
HETATM    8  C   UNL     1      -9.737  11.256  65.123  1.00  0.00    -0.285 C  
BRANCH   8   9
HETATM    9  C   UNL     1      -9.996  10.089  66.067  1.00  0.00    -0.334 C  
BRANCH   9  10
HETATM   10  C   UNL     1     -10.401  10.592  67.448  1.00  0.00    -0.269 C  
BRANCH  10  11
HETATM   11  C   UNL     1      -9.343  11.536  68.009  1.00  0.00    -0.175 C  
BRANCH  11  12
HETATM   12  C   UNL     1      -8.041  10.791  68.267  1.00  0.00    -0.121 C  
BRANCH  12  13
HETATM   13  C   UNL     1      -8.000  10.244  69.688  1.00  0.00    -0.164 C  
BRANCH  13  14
HETATM   14  C   UNL     1      -7.182   8.958  69.745  1.00  0.00    -0.055 C  
BRANCH  14  15
HETATM   15  C   UNL     1      -7.413   8.103  68.502  1.00  0.00    -0.099 C  
BRANCH  15  16
HETATM   16  C   UNL     1      -8.268   6.883  68.838  1.00  0.00    -0.121 C  
BRANCH  16  17
HETATM   17  C   UNL     1      -9.715   7.082  68.398  1.00  0.00    -0.139 C  
HETATM   18  C   UNL     1     -10.023   6.320  67.130  1.00  0.00    -0.151 C  
HETATM   19  O   UNL     1      -9.235   5.624  66.510  1.00  0.00    -0.135 OA 
HETATM   20  O   UNL     1     -11.306   6.491  66.731  1.00  0.00    -0.272 OA 
ENDBRANCH  16  17
ENDBRANCH  15  16
ENDBRANCH  14  15
ENDBRANCH  13  14
ENDBRANCH  12  13
ENDBRANCH  11  12
ENDBRANCH  10  11
ENDBRANCH   9  10
ENDBRANCH   8   9
ENDBRANCH   7   8
ENDBRANCH   6   7
ENDBRANCH   5   6
ENDBRANCH   4   5
ENDBRANCH   3   4
ENDBRANCH   2   3
TORSDOF 15
ENDMDL
MODEL      250
REMARK 921   NORMALIZED FREE ENERGY PREDICTED BY IDOCK:   -3.26 KCAL/MOL
REMARK 922        TOTAL FREE ENERGY PREDICTED BY IDOCK:   -7.92 KCAL/MOL
REMARK 923 INTER-LIGAND FREE ENERGY PREDICTED BY IDOCK:   -5.97 KCAL/MOL
REMARK 924 INTRA-LIGAND FREE ENERGY PREDICTED BY IDOCK:   -1.95 KCAL/MOL
REMARK 927      BINDING AFFINITY PREDICTED BY RF-SCORE:    0.00 PKD
ROOT
HETATM    1  C   UNL     1      -7.913   6.343  68.512  1.00  0.00    -0.106 C  
HETATM    2  C   UNL     1      -8.996   5.663  67.693  1.00  0.00    -0.107 C  
ENDROOT
BRANCH   2   3
HETATM    3  C   UNL     1      -9.781   4.664  68.540  1.00  0.00    -0.208 C  
BRANCH   3   4
HETATM    4  C   UNL     1     -10.175   5.272  69.882  1.00  0.00    -0.364 C  
BRANCH   4   5
HETATM    5  C   UNL     1      -9.892   4.298  71.021  1.00  0.00    -0.251 C  
BRANCH   5   6
HETATM    6  C   UNL     1     -10.407   4.848  72.347  1.00  0.00    -0.262 C  
BRANCH   6   7
HETATM    7  C   UNL     1     -11.065   6.207  72.147  1.00  0.00    -0.321 C  
BRANCH   7   8
HETATM    8  C   UNL     1     -10.522   7.223  73.146  1.00  0.00    -0.385 C  
BRANCH   8   9
HETATM    9  C   UNL     1     -10.259   8.559  72.463  1.00  0.00    -0.323 C  
BRANCH   9  10
HETATM   10  C   UNL     1      -9.046   8.465  71.545  1.00  0.00    -0.254 C  
BRANCH  10  11
HETATM   11  C   UNL     1      -9.198   9.403  70.352  1.00  0.00    -0.305 C  
BRANCH  11  12
HETATM   12  C   UNL     1     -10.286   8.904  69.411  1.00  0.00    -0.210 C  
BRANCH  12  13
HETATM   13  C   UNL     1     -11.253  10.025  69.055  1.00  0.00    -0.180 C  
BRANCH  13  14
HETATM   14  C   UNL     1     -11.023  11.237  69.951  1.00  0.00    -0.096 C  
BRANCH  14  15
HETATM   15  C   UNL     1     -11.669  12.489  69.363  1.00  0.00    -0.383 C  
BRANCH  15  16
HETATM   16  C   UNL     1     -11.524  12.507  67.843  1.00  0.00    -0.369 C  
BRANCH  16  17
HETATM   17  C   UNL     1     -12.206  13.729  67.236  1.00  0.00    -0.315 C  
HETATM   18  C   UNL     1     -12.652  13.472  65.815  1.00  0.00    -0.434 C  
HETATM   19  O   UNL     1     -12.499  12.428  65.201  1.00  0.00    -0.583 OA 
HETATM   20  O   UNL     1     -13.258  14.551  65.268  1.00  0.00    -0.512 OA 
ENDBRANCH  16  17
ENDBRANCH  15  16
ENDBRANCH  14  15
ENDBRANCH  13  14
ENDBRANCH  12  13
ENDBRANCH  11  12
ENDBRANCH  10  11
ENDBRANCH   9  10
ENDBRANCH   8   9
ENDBRANCH   7   8
ENDBRANCH   6   7
ENDBRANCH   5   6
ENDBRANCH   4   5
ENDBRANCH   3   4
ENDBRANCH   2   3
TORSDOF 15
ENDMDL
MODEL      251
REMARK 921   NORMALIZED FREE ENERGY PREDICTED BY IDOCK:   -3.24 KCAL/MOL
REMARK 922        TOTAL FREE ENERGY PREDICTED BY IDOCK:   -7.89 KCAL/MOL
REMARK 923 INTER-LIGAND FREE ENERGY PREDICTED BY IDOCK:   -5.95 KCAL/MOL
REMARK 924 INTRA-LIGAND FREE ENERGY PREDICTED BY IDOCK:   -1.94 KCAL/MOL
REMARK 927      BINDING AFFINITY PREDICTED BY RF-SCORE:    0.00 PKD
ROOT
HETATM    1  C   UNL     1     -10.621  19.787  68.001  1.00  0.00    -0.439 C  
HETATM    2  C   UNL     1     -10.449  19.978  66.504  1.00  0.00    -0.525 C  
ENDROOT
BRANCH   2   3
HETATM    3  C   UNL     1      -9.171  19.307  66.007  1.00  0.00    -0.162 C  
BRANCH   3   4
HETATM    4  C   UNL     1      -7.957  20.200  66.238  1.00  0.00    -0.278 C  
BRANCH   4   5
HETATM    5  C   UNL     1      -6.691  19.541  65.698  1.00  0.00    -0.299 C  
BRANCH   5   6
HETATM    6  C   UNL     1      -5.946  18.804  66.806  1.00  0.00    -0.173 C  
BRANCH   6   7
HETATM    7  C   UNL     1      -5.931  19.629  68.086  1.00  0.00    -0.244 C  
BRANCH   7   8
HETATM    8  C   UNL     1      -6.554  18.851  69.239  1.00  0.00    -0.311 C  
BRANCH   8   9
HETATM    9  C   UNL     1      -6.823  17.408  68.830  1.00  0.00    -0.228 C  
BRANCH   9  10
HETATM   10  C   UNL     1      -8.320  17.127  68.800  1.00  0.00    -0.236 C  
BRANCH  10  11
HETATM   11  C   UNL     1      -8.696  16.339  67.548  1.00  0.00    -0.192 C  
BRANCH  11  12
HETATM   12  C   UNL     1      -7.682  15.236  67.283  1.00  0.00    -0.243 C  
BRANCH  12  13
HETATM   13  C   UNL     1      -8.292  13.864  67.538  1.00  0.00    -0.202 C  
BRANCH  13  14
HETATM   14  C   UNL     1      -9.728  13.999  68.034  1.00  0.00    -0.221 C  
BRANCH  14  15
HETATM   15  C   UNL     1     -10.363  12.631  68.265  1.00  0.00    -0.246 C  
BRANCH  15  16
HETATM   16  C   UNL     1     -11.644  12.762  69.086  1.00  0.00    -0.373 C  
BRANCH  16  17
HETATM   17  C   UNL     1     -11.942  14.220  69.418  1.00  0.00    -0.381 C  
HETATM   18  C   UNL     1     -12.661  14.356  70.740  1.00  0.00    -0.357 C  
HETATM   19  O   UNL     1     -12.978  13.434  71.474  1.00  0.00    -0.350 OA 
HETATM   20  O   UNL     1     -12.931  15.648  71.044  1.00  0.00    -0.487 OA 
ENDBRANCH  16  17
ENDBRANCH  15  16
ENDBRANCH  14  15
ENDBRANCH  13  14
ENDBRANCH  12  13
ENDBRANCH  11  12
ENDBRANCH  10  11
ENDBRANCH   9  10
ENDBRANCH   8   9
ENDBRANCH   7   8
ENDBRANCH   6   7
ENDBRANCH   5   6
ENDBRANCH   4   5
ENDBRANCH   3   4
ENDBRANCH   2   3
TORSDOF 15
ENDMDL
MODEL      252
REMARK 921   NORMALIZED FREE ENERGY PREDICTED BY IDOCK:   -3.24 KCAL/MOL
REMARK 922        TOTAL FREE ENERGY PREDICTED BY IDOCK:   -7.88 KCAL/MOL
REMARK 923 INTER-LIGAND FREE ENERGY PREDICTED BY IDOCK:   -5.64 KCAL/MOL
REMARK 924 INTRA-LIGAND FREE ENERGY PREDICTED BY IDOCK:   -2.24 KCAL/MOL
REMARK 927      BINDING AFFINITY PREDICTED BY RF-SCORE:    0.00 PKD
ROOT
HETATM    1  C   UNL     1      -9.174   4.035  70.249  1.00  0.00    -0.210 C  
HETATM    2  C   UNL     1     -10.145   4.973  70.942  1.00  0.00    -0.302 C  
ENDROOT
BRANCH   2   3
HETATM    3  C   UNL     1     -10.875   5.855  69.932  1.00  0.00    -0.439 C  
BRANCH   3   4
HETATM    4  C   UNL     1     -11.507   7.064  70.614  1.00  0.00    -0.367 C  
BRANCH   4   5
HETATM    5  C   UNL     1     -10.442   8.088  70.994  1.00  0.00    -0.229 C  
BRANCH   5   6
HETATM    6  C   UNL     1     -11.045   9.216  71.825  1.00  0.00    -0.437 C  
BRANCH   6   7
HETATM    7  C   UNL     1     -12.567   9.166  71.777  1.00  0.00    -0.446 C  
BRANCH   7   8
HETATM    8  C   UNL     1     -13.114  10.246  70.851  1.00  0.00    -0.423 C  
BRANCH   8   9
HETATM    9  C   UNL     1     -12.103  11.372  70.682  1.00  0.00    -0.469 C  
BRANCH   9  10
HETATM   10  C   UNL     1     -11.922  11.717  69.208  1.00  0.00    -0.382 C  
BRANCH  10  11
HETATM   11  C   UNL     1     -10.518  11.350  68.737  1.00  0.00    -0.228 C  
BRANCH  11  12
HETATM   12  C   UNL     1     -10.574  10.611  67.408  1.00  0.00    -0.304 C  
BRANCH  12  13
HETATM   13  C   UNL     1     -10.697   9.108  67.627  1.00  0.00    -0.257 C  
BRANCH  13  14
HETATM   14  C   UNL     1      -9.779   8.350  66.675  1.00  0.00    -0.320 C  
BRANCH  14  15
HETATM   15  C   UNL     1      -8.672   7.626  67.437  1.00  0.00    -0.124 C  
BRANCH  15  16
HETATM   16  C   UNL     1      -8.770   6.117  67.228  1.00  0.00    -0.108 C  
BRANCH  16  17
HETATM   17  C   UNL     1     -10.015   5.748  66.427  1.00  0.00    -0.173 C  
HETATM   18  C   UNL     1      -9.894   4.376  65.806  1.00  0.00    -0.225 C  
HETATM   19  O   UNL     1      -8.933   3.632  65.911  1.00  0.00    -0.129 OA 
HETATM   20  O   UNL     1     -10.995   4.041  65.093  1.00  0.00    -0.065 OA 
ENDBRANCH  16  17
ENDBRANCH  15  16
ENDBRANCH  14  15
ENDBRANCH  13  14
ENDBRANCH  12  13
ENDBRANCH  11  12
ENDBRANCH  10  11
ENDBRANCH   9  10
ENDBRANCH   8   9
ENDBRANCH   7   8
ENDBRANCH   6   7
ENDBRANCH   5   6
ENDBRANCH   4   5
ENDBRANCH   3   4
ENDBRANCH   2   3
TORSDOF 15
ENDMDL
MODEL      253
REMARK 921   NORMALIZED FREE ENERGY PREDICTED BY IDOCK:   -3.23 KCAL/MOL
REMARK 922        TOTAL FREE ENERGY PREDICTED BY IDOCK:   -7.86 KCAL/MOL
REMARK 923 INTER-LIGAND FREE ENERGY PREDICTED BY IDOCK:   -5.35 KCAL/MOL
REMARK 924 INTRA-LIGAND FREE ENERGY PREDICTED BY IDOCK:   -2.51 KCAL/MOL
REMARK 927      BINDING AFFINITY PREDICTED BY RF-SCORE:    0.00 PKD
ROOT
HETATM    1  C   UNL     1      -8.488   5.380  67.446  1.00  0.00    -0.106 C  
HETATM    2  C   UNL     1      -9.681   5.132  68.352  1.00  0.00    -0.200 C  
ENDROOT
BRANCH   2   3
HETATM    3  C   UNL     1     -10.540   6.387  68.487  1.00  0.00    -0.302 C  
BRANCH   3   4
HETATM    4  C   UNL     1     -10.932   6.934  67.119  1.00  0.00    -0.427 C  
BRANCH   4   5
HETATM    5  C   UNL     1     -10.638   8.429  67.030  1.00  0.00    -0.316 C  
BRANCH   5   6
HETATM    6  C   UNL     1      -9.582   8.712  65.966  1.00  0.00    -0.265 C  
BRANCH   6   7
HETATM    7  C   UNL     1      -9.623  10.175  65.543  1.00  0.00    -0.310 C  
BRANCH   7   8
HETATM    8  C   UNL     1     -10.660  10.943  66.354  1.00  0.00    -0.289 C  
BRANCH   8   9
HETATM    9  C   UNL     1     -10.030  12.162  67.014  1.00  0.00    -0.213 C  
BRANCH   9  10
HETATM   10  C   UNL     1      -8.509  12.060  66.995  1.00  0.00    -0.183 C  
BRANCH  10  11
HETATM   11  C   UNL     1      -7.931  12.353  68.376  1.00  0.00    -0.149 C  
BRANCH  11  12
HETATM   12  C   UNL     1      -6.993  11.237  68.813  1.00  0.00    -0.091 C  
BRANCH  12  13
HETATM   13  C   UNL     1      -7.704   9.890  68.791  1.00  0.00    -0.086 C  
BRANCH  13  14
HETATM   14  C   UNL     1      -8.288   9.568  70.162  1.00  0.00    -0.212 C  
BRANCH  14  15
HETATM   15  C   UNL     1      -9.802   9.756  70.175  1.00  0.00    -0.306 C  
BRANCH  15  16
HETATM   16  C   UNL     1     -10.427   9.026  71.362  1.00  0.00    -0.395 C  
BRANCH  16  17
HETATM   17  C   UNL     1     -11.914   9.344  71.488  1.00  0.00    -0.456 C  
HETATM   18  C   UNL     1     -12.750   8.087  71.545  1.00  0.00    -0.307 C  
HETATM   19  O   UNL     1     -12.321   6.946  71.498  1.00  0.00    -0.343 OA 
HETATM   20  O   UNL     1     -14.072   8.359  71.657  1.00  0.00    -0.398 OA 
ENDBRANCH  16  17
ENDBRANCH  15  16
ENDBRANCH  14  15
ENDBRANCH  13  14
ENDBRANCH  12  13
ENDBRANCH  11  12
ENDBRANCH  10  11
ENDBRANCH   9  10
ENDBRANCH   8   9
ENDBRANCH   7   8
ENDBRANCH   6   7
ENDBRANCH   5   6
ENDBRANCH   4   5
ENDBRANCH   3   4
ENDBRANCH   2   3
TORSDOF 15
ENDMDL
MODEL      254
REMARK 921   NORMALIZED FREE ENERGY PREDICTED BY IDOCK:   -3.22 KCAL/MOL
REMARK 922        TOTAL FREE ENERGY PREDICTED BY IDOCK:   -7.84 KCAL/MOL
REMARK 923 INTER-LIGAND FREE ENERGY PREDICTED BY IDOCK:   -6.16 KCAL/MOL
REMARK 924 INTRA-LIGAND FREE ENERGY PREDICTED BY IDOCK:   -1.68 KCAL/MOL
REMARK 927      BINDING AFFINITY PREDICTED BY RF-SCORE:    0.00 PKD
ROOT
HETATM    1  C   UNL     1      -6.800  15.088  67.962  1.00  0.00    -0.152 C  
HETATM    2  C   UNL     1      -8.308  15.146  68.125  1.00  0.00    -0.147 C  
ENDROOT
BRANCH   2   3
HETATM    3  C   UNL     1      -9.017  14.572  66.901  1.00  0.00    -0.267 C  
BRANCH   3   4
HETATM    4  C   UNL     1      -9.235  15.644  65.838  1.00  0.00    -0.330 C  
BRANCH   4   5
HETATM    5  C   UNL     1     -10.724  15.890  65.615  1.00  0.00    -0.350 C  
BRANCH   5   6
HETATM    6  C   UNL     1     -11.291  14.906  64.597  1.00  0.00    -0.362 C  
BRANCH   6   7
HETATM    7  C   UNL     1     -12.498  14.175  65.169  1.00  0.00    -0.453 C  
BRANCH   7   8
HETATM    8  C   UNL     1     -12.646  12.796  64.535  1.00  0.00    -0.463 C  
BRANCH   8   9
HETATM    9  C   UNL     1     -11.700  12.645  63.352  1.00  0.00    -0.571 C  
BRANCH   9  10
HETATM   10  C   UNL     1     -10.904  11.350  63.460  1.00  0.00    -0.430 C  
BRANCH  10  11
HETATM   11  C   UNL     1     -10.098  11.318  64.755  1.00  0.00    -0.338 C  
BRANCH  11  12
HETATM   12  C   UNL     1      -9.745   9.887  65.133  1.00  0.00    -0.376 C  
BRANCH  12  13
HETATM   13  C   UNL     1     -10.324   9.527  66.496  1.00  0.00    -0.263 C  
BRANCH  13  14
HETATM   14  C   UNL     1     -11.007  10.737  67.125  1.00  0.00    -0.324 C  
BRANCH  14  15
HETATM   15  C   UNL     1     -11.108  10.586  68.641  1.00  0.00    -0.319 C  
BRANCH  15  16
HETATM   16  C   UNL     1      -9.718  10.508  69.269  1.00  0.00    -0.215 C  
BRANCH  16  17
HETATM   17  C   UNL     1      -9.511   9.181  69.992  1.00  0.00    -0.218 C  
HETATM   18  C   UNL     1      -8.166   9.123  70.679  1.00  0.00    -0.190 C  
HETATM   19  O   UNL     1      -7.327  10.009  70.673  1.00  0.00    -0.308 OA 
HETATM   20  O   UNL     1      -7.973   7.948  71.324  1.00  0.00    -0.086 OA 
ENDBRANCH  16  17
ENDBRANCH  15  16
ENDBRANCH  14  15
ENDBRANCH  13  14
ENDBRANCH  12  13
ENDBRANCH  11  12
ENDBRANCH  10  11
ENDBRANCH   9  10
ENDBRANCH   8   9
ENDBRANCH   7   8
ENDBRANCH   6   7
ENDBRANCH   5   6
ENDBRANCH   4   5
ENDBRANCH   3   4
ENDBRANCH   2   3
TORSDOF 15
ENDMDL
MODEL      255
REMARK 921   NORMALIZED FREE ENERGY PREDICTED BY IDOCK:   -3.22 KCAL/MOL
REMARK 922        TOTAL FREE ENERGY PREDICTED BY IDOCK:   -7.84 KCAL/MOL
REMARK 923 INTER-LIGAND FREE ENERGY PREDICTED BY IDOCK:   -5.89 KCAL/MOL
REMARK 924 INTRA-LIGAND FREE ENERGY PREDICTED BY IDOCK:   -1.95 KCAL/MOL
REMARK 927      BINDING AFFINITY PREDICTED BY RF-SCORE:    0.00 PKD
ROOT
HETATM    1  C   UNL     1     -14.360   8.369  71.762  1.00  0.00    -0.558 C  
HETATM    2  C   UNL     1     -12.865   8.105  71.741  1.00  0.00    -0.355 C  
ENDROOT
BRANCH   2   3
HETATM    3  C   UNL     1     -12.526   6.943  70.811  1.00  0.00    -0.251 C  
BRANCH   3   4
HETATM    4  C   UNL     1     -11.050   6.571  70.913  1.00  0.00    -0.345 C  
BRANCH   4   5
HETATM    5  C   UNL     1     -10.433   6.420  69.526  1.00  0.00    -0.279 C  
BRANCH   5   6
HETATM    6  C   UNL     1     -10.431   7.753  68.784  1.00  0.00    -0.201 C  
BRANCH   6   7
HETATM    7  C   UNL     1      -9.464   8.732  69.437  1.00  0.00    -0.161 C  
BRANCH   7   8
HETATM    8  C   UNL     1     -10.207   9.952  69.969  1.00  0.00    -0.319 C  
BRANCH   8   9
HETATM    9  C   UNL     1     -10.663  10.844  68.822  1.00  0.00    -0.243 C  
BRANCH   9  10
HETATM   10  C   UNL     1      -9.469  11.339  68.015  1.00  0.00    -0.173 C  
BRANCH  10  11
HETATM   11  C   UNL     1      -9.778  11.316  66.522  1.00  0.00    -0.230 C  
BRANCH  11  12
HETATM   12  C   UNL     1     -11.222  11.723  66.267  1.00  0.00    -0.370 C  
BRANCH  12  13
HETATM   13  C   UNL     1     -11.288  13.034  65.493  1.00  0.00    -0.330 C  
BRANCH  13  14
HETATM   14  C   UNL     1     -11.685  14.182  66.415  1.00  0.00    -0.404 C  
BRANCH  14  15
HETATM   15  C   UNL     1     -10.509  15.124  66.660  1.00  0.00    -0.287 C  
BRANCH  15  16
HETATM   16  C   UNL     1     -10.493  15.601  68.110  1.00  0.00    -0.259 C  
BRANCH  16  17
HETATM   17  C   UNL     1     -11.150  14.582  69.036  1.00  0.00    -0.279 C  
HETATM   18  C   UNL     1     -11.763  15.244  70.249  1.00  0.00    -0.308 C  
HETATM   19  O   UNL     1     -11.750  16.440  70.488  1.00  0.00    -0.221 OA 
HETATM   20  O   UNL     1     -12.348  14.347  71.077  1.00  0.00    -0.312 OA 
ENDBRANCH  16  17
ENDBRANCH  15  16
ENDBRANCH  14  15
ENDBRANCH  13  14
ENDBRANCH  12  13
ENDBRANCH  11  12
ENDBRANCH  10  11
ENDBRANCH   9  10
ENDBRANCH   8   9
ENDBRANCH   7   8
ENDBRANCH   6   7
ENDBRANCH   5   6
ENDBRANCH   4   5
ENDBRANCH   3   4
ENDBRANCH   2   3
TORSDOF 15
ENDMDL
MODEL      256
REMARK 921   NORMALIZED FREE ENERGY PREDICTED BY IDOCK:   -3.21 KCAL/MOL
REMARK 922        TOTAL FREE ENERGY PREDICTED BY IDOCK:   -7.82 KCAL/MOL
REMARK 923 INTER-LIGAND FREE ENERGY PREDICTED BY IDOCK:   -6.15 KCAL/MOL
REMARK 924 INTRA-LIGAND FREE ENERGY PREDICTED BY IDOCK:   -1.66 KCAL/MOL
REMARK 927      BINDING AFFINITY PREDICTED BY RF-SCORE:    0.00 PKD
ROOT
HETATM    1  C   UNL     1     -10.055  10.595  64.840  1.00  0.00    -0.402 C  
HETATM    2  C   UNL     1      -9.579  11.525  65.941  1.00  0.00    -0.254 C  
ENDROOT
BRANCH   2   3
HETATM    3  C   UNL     1     -10.758  12.105  66.720  1.00  0.00    -0.269 C  
BRANCH   3   4
HETATM    4  C   UNL     1     -11.113  13.501  66.220  1.00  0.00    -0.308 C  
BRANCH   4   5
HETATM    5  C   UNL     1     -12.139  14.159  67.136  1.00  0.00    -0.432 C  
BRANCH   5   6
HETATM    6  C   UNL     1     -11.881  13.791  68.594  1.00  0.00    -0.409 C  
BRANCH   6   7
HETATM    7  C   UNL     1     -12.226  14.956  69.513  1.00  0.00    -0.268 C  
BRANCH   7   8
HETATM    8  C   UNL     1     -11.027  15.339  70.373  1.00  0.00    -0.317 C  
BRANCH   8   9
HETATM    9  C   UNL     1      -9.920  15.937  69.515  1.00  0.00    -0.274 C  
BRANCH   9  10
HETATM   10  C   UNL     1     -10.214  17.397  69.194  1.00  0.00    -0.273 C  
BRANCH  10  11
HETATM   11  C   UNL     1     -10.368  17.599  67.690  1.00  0.00    -0.368 C  
BRANCH  11  12
HETATM   12  C   UNL     1     -10.966  18.967  67.391  1.00  0.00    -0.371 C  
BRANCH  12  13
HETATM   13  C   UNL     1      -9.874  20.024  67.283  1.00  0.00    -0.563 C  
BRANCH  13  14
HETATM   14  C   UNL     1      -9.307  20.068  65.868  1.00  0.00    -0.243 C  
BRANCH  14  15
HETATM   15  C   UNL     1      -7.784  20.173  65.888  1.00  0.00    -0.247 C  
BRANCH  15  16
HETATM   16  C   UNL     1      -7.265  20.215  67.323  1.00  0.00    -0.306 C  
BRANCH  16  17
HETATM   17  C   UNL     1      -6.567  18.911  67.698  1.00  0.00    -0.212 C  
HETATM   18  C   UNL     1      -6.533  18.706  69.195  1.00  0.00    -0.269 C  
HETATM   19  O   UNL     1      -6.996  19.469  70.026  1.00  0.00    -0.145 OA 
HETATM   20  O   UNL     1      -5.915  17.551  69.537  1.00  0.00    -0.222 OA 
ENDBRANCH  16  17
ENDBRANCH  15  16
ENDBRANCH  14  15
ENDBRANCH  13  14
ENDBRANCH  12  13
ENDBRANCH  11  12
ENDBRANCH  10  11
ENDBRANCH   9  10
ENDBRANCH   8   9
ENDBRANCH   7   8
ENDBRANCH   6   7
ENDBRANCH   5   6
ENDBRANCH   4   5
ENDBRANCH   3   4
ENDBRANCH   2   3
TORSDOF 15
ENDMDL
MODEL      257
REMARK 921   NORMALIZED FREE ENERGY PREDICTED BY IDOCK:   -3.20 KCAL/MOL
REMARK 922        TOTAL FREE ENERGY PREDICTED BY IDOCK:   -7.80 KCAL/MOL
REMARK 923 INTER-LIGAND FREE ENERGY PREDICTED BY IDOCK:   -6.51 KCAL/MOL
REMARK 924 INTRA-LIGAND FREE ENERGY PREDICTED BY IDOCK:   -1.29 KCAL/MOL
REMARK 927      BINDING AFFINITY PREDICTED BY RF-SCORE:    0.00 PKD
ROOT
HETATM    1  C   UNL     1      -9.981   3.252  72.001  1.00  0.00    -0.222 C  
HETATM    2  C   UNL     1     -10.349   4.173  73.150  1.00  0.00    -0.237 C  
ENDROOT
BRANCH   2   3
HETATM    3  C   UNL     1     -10.302   5.637  72.719  1.00  0.00    -0.224 C  
BRANCH   3   4
HETATM    4  C   UNL     1     -11.653   6.096  72.182  1.00  0.00    -0.369 C  
BRANCH   4   5
HETATM    5  C   UNL     1     -11.495   6.766  70.821  1.00  0.00    -0.392 C  
BRANCH   5   6
HETATM    6  C   UNL     1     -11.369   8.278  70.970  1.00  0.00    -0.299 C  
BRANCH   6   7
HETATM    7  C   UNL     1     -10.262   8.818  70.074  1.00  0.00    -0.208 C  
BRANCH   7   8
HETATM    8  C   UNL     1     -10.843   9.645  68.934  1.00  0.00    -0.201 C  
BRANCH   8   9
HETATM    9  C   UNL     1     -10.530  11.123  69.128  1.00  0.00    -0.211 C  
BRANCH   9  10
HETATM   10  C   UNL     1     -10.006  11.737  67.835  1.00  0.00    -0.187 C  
BRANCH  10  11
HETATM   11  C   UNL     1     -10.080  10.731  66.691  1.00  0.00    -0.265 C  
BRANCH  11  12
HETATM   12  C   UNL     1      -9.448  11.304  65.430  1.00  0.00    -0.251 C  
BRANCH  12  13
HETATM   13  C   UNL     1     -10.016  10.634  64.185  1.00  0.00    -0.406 C  
BRANCH  13  14
HETATM   14  C   UNL     1     -10.577  11.676  63.224  1.00  0.00    -0.420 C  
BRANCH  14  15
HETATM   15  C   UNL     1     -12.055  11.938  63.497  1.00  0.00    -0.575 C  
BRANCH  15  16
HETATM   16  C   UNL     1     -12.265  13.361  64.012  1.00  0.00    -0.466 C  
BRANCH  16  17
HETATM   17  C   UNL     1     -12.651  13.365  65.487  1.00  0.00    -0.520 C  
HETATM   18  C   UNL     1     -11.930  14.451  66.251  1.00  0.00    -0.376 C  
HETATM   19  O   UNL     1     -11.131  15.242  65.775  1.00  0.00    -0.338 OA 
HETATM   20  O   UNL     1     -12.266  14.463  67.562  1.00  0.00    -0.342 OA 
ENDBRANCH  16  17
ENDBRANCH  15  16
ENDBRANCH  14  15
ENDBRANCH  13  14
ENDBRANCH  12  13
ENDBRANCH  11  12
ENDBRANCH  10  11
ENDBRANCH   9  10
ENDBRANCH   8   9
ENDBRANCH   7   8
ENDBRANCH   6   7
ENDBRANCH   5   6
ENDBRANCH   4   5
ENDBRANCH   3   4
ENDBRANCH   2   3
TORSDOF 15
ENDMDL
MODEL      258
REMARK 921   NORMALIZED FREE ENERGY PREDICTED BY IDOCK:   -3.20 KCAL/MOL
REMARK 922        TOTAL FREE ENERGY PREDICTED BY IDOCK:   -7.80 KCAL/MOL
REMARK 923 INTER-LIGAND FREE ENERGY PREDICTED BY IDOCK:   -5.91 KCAL/MOL
REMARK 924 INTRA-LIGAND FREE ENERGY PREDICTED BY IDOCK:   -1.88 KCAL/MOL
REMARK 927      BINDING AFFINITY PREDICTED BY RF-SCORE:    0.00 PKD
ROOT
HETATM    1  C   UNL     1     -12.036  13.817  63.788  1.00  0.00    -0.385 C  
HETATM    2  C   UNL     1     -12.196  12.493  64.511  1.00  0.00    -0.528 C  
ENDROOT
BRANCH   2   3
HETATM    3  C   UNL     1     -10.841  11.922  64.922  1.00  0.00    -0.356 C  
BRANCH   3   4
HETATM    4  C   UNL     1     -10.811  11.592  66.410  1.00  0.00    -0.334 C  
BRANCH   4   5
HETATM    5  C   UNL     1     -10.545  12.845  67.237  1.00  0.00    -0.243 C  
BRANCH   5   6
HETATM    6  C   UNL     1      -9.198  13.461  66.873  1.00  0.00    -0.251 C  
BRANCH   6   7
HETATM    7  C   UNL     1      -8.061  12.502  67.200  1.00  0.00    -0.156 C  
BRANCH   7   8
HETATM    8  C   UNL     1      -6.785  13.267  67.529  1.00  0.00    -0.156 C  
BRANCH   8   9
HETATM    9  C   UNL     1      -7.109  14.564  68.259  1.00  0.00    -0.113 C  
BRANCH   9  10
HETATM   10  C   UNL     1      -6.231  15.702  67.752  1.00  0.00    -0.179 C  
BRANCH  10  11
HETATM   11  C   UNL     1      -6.865  17.053  68.067  1.00  0.00    -0.166 C  
BRANCH  11  12
HETATM   12  C   UNL     1      -8.117  16.875  68.913  1.00  0.00    -0.219 C  
BRANCH  12  13
HETATM   13  C   UNL     1      -9.318  17.540  68.252  1.00  0.00    -0.281 C  
BRANCH  13  14
HETATM   14  C   UNL     1     -10.558  17.401  69.128  1.00  0.00    -0.161 C  
BRANCH  14  15
HETATM   15  C   UNL     1     -11.253  16.063  68.893  1.00  0.00    -0.353 C  
BRANCH  15  16
HETATM   16  C   UNL     1     -11.039  15.128  70.080  1.00  0.00    -0.298 C  
BRANCH  16  17
HETATM   17  C   UNL     1     -12.366  14.609  70.624  1.00  0.00    -0.398 C  
HETATM   18  C   UNL     1     -12.793  15.359  71.864  1.00  0.00    -0.396 C  
HETATM   19  O   UNL     1     -12.175  16.270  72.391  1.00  0.00    -0.490 OA 
HETATM   20  O   UNL     1     -13.971  14.905  72.355  1.00  0.00    -0.449 OA 
ENDBRANCH  16  17
ENDBRANCH  15  16
ENDBRANCH  14  15
ENDBRANCH  13  14
ENDBRANCH  12  13
ENDBRANCH  11  12
ENDBRANCH  10  11
ENDBRANCH   9  10
ENDBRANCH   8   9
ENDBRANCH   7   8
ENDBRANCH   6   7
ENDBRANCH   5   6
ENDBRANCH   4   5
ENDBRANCH   3   4
ENDBRANCH   2   3
TORSDOF 15
ENDMDL
MODEL      259
REMARK 921   NORMALIZED FREE ENERGY PREDICTED BY IDOCK:   -3.20 KCAL/MOL
REMARK 922        TOTAL FREE ENERGY PREDICTED BY IDOCK:   -7.80 KCAL/MOL
REMARK 923 INTER-LIGAND FREE ENERGY PREDICTED BY IDOCK:   -6.42 KCAL/MOL
REMARK 924 INTRA-LIGAND FREE ENERGY PREDICTED BY IDOCK:   -1.37 KCAL/MOL
REMARK 927      BINDING AFFINITY PREDICTED BY RF-SCORE:    0.00 PKD
ROOT
HETATM    1  C   UNL     1      -8.495  16.516  68.256  1.00  0.00    -0.199 C  
HETATM    2  C   UNL     1      -9.036  15.300  67.525  1.00  0.00    -0.192 C  
ENDROOT
BRANCH   2   3
HETATM    3  C   UNL     1      -9.492  15.663  66.114  1.00  0.00    -0.376 C  
BRANCH   3   4
HETATM    4  C   UNL     1     -10.940  15.246  65.880  1.00  0.00    -0.325 C  
BRANCH   4   5
HETATM    5  C   UNL     1     -11.653  15.001  67.206  1.00  0.00    -0.285 C  
BRANCH   5   6
HETATM    6  C   UNL     1     -12.189  13.575  67.279  1.00  0.00    -0.305 C  
BRANCH   6   7
HETATM    7  C   UNL     1     -11.228  12.677  68.047  1.00  0.00    -0.308 C  
BRANCH   7   8
HETATM    8  C   UNL     1     -11.710  11.231  68.032  1.00  0.00    -0.305 C  
BRANCH   8   9
HETATM    9  C   UNL     1     -11.530  10.590  69.401  1.00  0.00    -0.329 C  
BRANCH   9  10
HETATM   10  C   UNL     1     -12.059  11.505  70.499  1.00  0.00    -0.472 C  
BRANCH  10  11
HETATM   11  C   UNL     1     -12.797  10.700  71.564  1.00  0.00    -0.567 C  
BRANCH  11  12
HETATM   12  C   UNL     1     -13.372   9.423  70.968  1.00  0.00    -0.186 C  
BRANCH  12  13
HETATM   13  C   UNL     1     -13.953   8.530  72.057  1.00  0.00    -0.494 C  
BRANCH  13  14
HETATM   14  C   UNL     1     -13.450   7.099  71.903  1.00  0.00    -0.276 C  
BRANCH  14  15
HETATM   15  C   UNL     1     -12.311   7.021  70.890  1.00  0.00    -0.361 C  
BRANCH  15  16
HETATM   16  C   UNL     1     -11.116   6.273  71.478  1.00  0.00    -0.333 C  
BRANCH  16  17
HETATM   17  C   UNL     1      -9.932   7.208  71.703  1.00  0.00    -0.186 C  
HETATM   18  C   UNL     1      -9.829   7.640  73.147  1.00  0.00    -0.279 C  
HETATM   19  O   UNL     1     -10.583   7.303  74.045  1.00  0.00    -0.313 OA 
HETATM   20  O   UNL     1      -8.780   8.471  73.356  1.00  0.00    -0.331 OA 
ENDBRANCH  16  17
ENDBRANCH  15  16
ENDBRANCH  14  15
ENDBRANCH  13  14
ENDBRANCH  12  13
ENDBRANCH  11  12
ENDBRANCH  10  11
ENDBRANCH   9  10
ENDBRANCH   8   9
ENDBRANCH   7   8
ENDBRANCH   6   7
ENDBRANCH   5   6
ENDBRANCH   4   5
ENDBRANCH   3   4
ENDBRANCH   2   3
TORSDOF 15
ENDMDL
MODEL      260
REMARK 921   NORMALIZED FREE ENERGY PREDICTED BY IDOCK:   -3.19 KCAL/MOL
REMARK 922        TOTAL FREE ENERGY PREDICTED BY IDOCK:   -7.79 KCAL/MOL
REMARK 923 INTER-LIGAND FREE ENERGY PREDICTED BY IDOCK:   -6.43 KCAL/MOL
REMARK 924 INTRA-LIGAND FREE ENERGY PREDICTED BY IDOCK:   -1.36 KCAL/MOL
REMARK 927      BINDING AFFINITY PREDICTED BY RF-SCORE:    0.00 PKD
ROOT
HETATM    1  C   UNL     1     -10.682   6.291  67.512  1.00  0.00    -0.398 C  
HETATM    2  C   UNL     1     -10.027   5.180  68.313  1.00  0.00    -0.208 C  
ENDROOT
BRANCH   2   3
HETATM    3  C   UNL     1     -10.335   5.319  69.802  1.00  0.00    -0.369 C  
BRANCH   3   4
HETATM    4  C   UNL     1     -11.522   6.249  70.032  1.00  0.00    -0.460 C  
BRANCH   4   5
HETATM    5  C   UNL     1     -11.882   6.309  71.513  1.00  0.00    -0.291 C  
BRANCH   5   6
HETATM    6  C   UNL     1     -10.900   7.192  72.276  1.00  0.00    -0.264 C  
BRANCH   6   7
HETATM    7  C   UNL     1     -11.552   8.514  72.661  1.00  0.00    -0.284 C  
BRANCH   7   8
HETATM    8  C   UNL     1     -12.970   8.598  72.110  1.00  0.00    -0.432 C  
BRANCH   8   9
HETATM    9  C   UNL     1     -13.132   9.830  71.229  1.00  0.00    -0.465 C  
BRANCH   9  10
HETATM   10  C   UNL     1     -11.844  10.644  71.198  1.00  0.00    -0.339 C  
BRANCH  10  11
HETATM   11  C   UNL     1     -11.230  10.630  69.802  1.00  0.00    -0.363 C  
BRANCH  11  12
HETATM   12  C   UNL     1     -12.046  11.491  68.848  1.00  0.00    -0.270 C  
BRANCH  12  13
HETATM   13  C   UNL     1     -11.697  12.964  69.013  1.00  0.00    -0.375 C  
BRANCH  13  14
HETATM   14  C   UNL     1     -11.186  13.545  67.699  1.00  0.00    -0.304 C  
BRANCH  14  15
HETATM   15  C   UNL     1     -11.986  13.015  66.513  1.00  0.00    -0.457 C  
BRANCH  15  16
HETATM   16  C   UNL     1     -11.166  12.001  65.719  1.00  0.00    -0.383 C  
BRANCH  16  17
HETATM   17  C   UNL     1      -9.685  12.087  66.073  1.00  0.00    -0.256 C  
HETATM   18  C   UNL     1      -9.078  10.717  66.271  1.00  0.00    -0.175 C  
HETATM   19  O   UNL     1      -9.671   9.656  66.169  1.00  0.00    -0.212 OA 
HETATM   20  O   UNL     1      -7.763  10.783  66.587  1.00  0.00    -0.127 OA 
ENDBRANCH  16  17
ENDBRANCH  15  16
ENDBRANCH  14  15
ENDBRANCH  13  14
ENDBRANCH  12  13
ENDBRANCH  11  12
ENDBRANCH  10  11
ENDBRANCH   9  10
ENDBRANCH   8   9
ENDBRANCH   7   8
ENDBRANCH   6   7
ENDBRANCH   5   6
ENDBRANCH   4   5
ENDBRANCH   3   4
ENDBRANCH   2   3
TORSDOF 15
ENDMDL
MODEL      261
REMARK 921   NORMALIZED FREE ENERGY PREDICTED BY IDOCK:   -3.19 KCAL/MOL
REMARK 922        TOTAL FREE ENERGY PREDICTED BY IDOCK:   -7.79 KCAL/MOL
REMARK 923 INTER-LIGAND FREE ENERGY PREDICTED BY IDOCK:   -6.68 KCAL/MOL
REMARK 924 INTRA-LIGAND FREE ENERGY PREDICTED BY IDOCK:   -1.11 KCAL/MOL
REMARK 927      BINDING AFFINITY PREDICTED BY RF-SCORE:    0.00 PKD
ROOT
HETATM    1  C   UNL     1      -8.251   4.441  70.386  1.00  0.00    -0.074 C  
HETATM    2  C   UNL     1      -9.037   5.647  69.903  1.00  0.00    -0.155 C  
ENDROOT
BRANCH   2   3
HETATM    3  C   UNL     1     -10.228   5.221  69.049  1.00  0.00    -0.269 C  
BRANCH   3   4
HETATM    4  C   UNL     1     -11.095   6.420  68.678  1.00  0.00    -0.393 C  
BRANCH   4   5
HETATM    5  C   UNL     1     -11.036   6.687  67.177  1.00  0.00    -0.478 C  
BRANCH   5   6
HETATM    6  C   UNL     1     -10.179   7.912  66.877  1.00  0.00    -0.380 C  
BRANCH   6   7
HETATM    7  C   UNL     1     -10.761   9.153  67.540  1.00  0.00    -0.255 C  
BRANCH   7   8
HETATM    8  C   UNL     1     -10.438  10.402  66.730  1.00  0.00    -0.287 C  
BRANCH   8   9
HETATM    9  C   UNL     1      -9.882  10.027  65.362  1.00  0.00    -0.384 C  
BRANCH   9  10
HETATM   10  C   UNL     1     -10.262  11.072  64.320  1.00  0.00    -0.414 C  
BRANCH  10  11
HETATM   11  C   UNL     1     -11.566  11.765  64.702  1.00  0.00    -0.270 C  
BRANCH  11  12
HETATM   12  C   UNL     1     -11.852  12.926  63.759  1.00  0.00    -0.571 C  
BRANCH  12  13
HETATM   13  C   UNL     1     -12.059  14.219  64.538  1.00  0.00    -0.499 C  
BRANCH  13  14
HETATM   14  C   UNL     1     -10.746  14.692  65.152  1.00  0.00    -0.430 C  
BRANCH  14  15
HETATM   15  C   UNL     1     -10.742  16.205  65.347  1.00  0.00    -0.374 C  
BRANCH  15  16
HETATM   16  C   UNL     1      -9.774  16.604  66.459  1.00  0.00    -0.291 C  
BRANCH  16  17
HETATM   17  C   UNL     1     -10.521  17.083  67.699  1.00  0.00    -0.343 C  
HETATM   18  C   UNL     1     -10.539  16.030  68.782  1.00  0.00    -0.262 C  
HETATM   19  O   UNL     1     -10.030  14.924  68.705  1.00  0.00    -0.215 OA 
HETATM   20  O   UNL     1     -11.201  16.446  69.888  1.00  0.00    -0.332 OA 
ENDBRANCH  16  17
ENDBRANCH  15  16
ENDBRANCH  14  15
ENDBRANCH  13  14
ENDBRANCH  12  13
ENDBRANCH  11  12
ENDBRANCH  10  11
ENDBRANCH   9  10
ENDBRANCH   8   9
ENDBRANCH   7   8
ENDBRANCH   6   7
ENDBRANCH   5   6
ENDBRANCH   4   5
ENDBRANCH   3   4
ENDBRANCH   2   3
TORSDOF 15
ENDMDL
MODEL      262
REMARK 921   NORMALIZED FREE ENERGY PREDICTED BY IDOCK:   -3.19 KCAL/MOL
REMARK 922        TOTAL FREE ENERGY PREDICTED BY IDOCK:   -7.78 KCAL/MOL
REMARK 923 INTER-LIGAND FREE ENERGY PREDICTED BY IDOCK:   -6.51 KCAL/MOL
REMARK 924 INTRA-LIGAND FREE ENERGY PREDICTED BY IDOCK:   -1.27 KCAL/MOL
REMARK 927      BINDING AFFINITY PREDICTED BY RF-SCORE:    0.00 PKD
ROOT
HETATM    1  C   UNL     1     -12.528  14.744  70.458  1.00  0.00    -0.411 C  
HETATM    2  C   UNL     1     -11.625  14.190  69.371  1.00  0.00    -0.353 C  
ENDROOT
BRANCH   2   3
HETATM    3  C   UNL     1     -11.127  15.302  68.450  1.00  0.00    -0.289 C  
BRANCH   3   4
HETATM    4  C   UNL     1     -11.052  14.824  67.003  1.00  0.00    -0.333 C  
BRANCH   4   5
HETATM    5  C   UNL     1     -12.133  13.786  66.720  1.00  0.00    -0.460 C  
BRANCH   5   6
HETATM    6  C   UNL     1     -12.607  13.875  65.273  1.00  0.00    -0.508 C  
BRANCH   6   7
HETATM    7  C   UNL     1     -12.533  12.511  64.597  1.00  0.00    -0.539 C  
BRANCH   7   8
HETATM    8  C   UNL     1     -11.515  12.524  63.463  1.00  0.00    -0.570 C  
BRANCH   8   9
HETATM    9  C   UNL     1     -10.685  11.247  63.471  1.00  0.00    -0.408 C  
BRANCH   9  10
HETATM   10  C   UNL     1     -10.151  10.960  64.869  1.00  0.00    -0.374 C  
BRANCH  10  11
HETATM   11  C   UNL     1      -9.167   9.795  64.842  1.00  0.00    -0.314 C  
BRANCH  11  12
HETATM   12  C   UNL     1      -8.994   9.206  66.235  1.00  0.00    -0.194 C  
BRANCH  12  13
HETATM   13  C   UNL     1     -10.310   8.639  66.751  1.00  0.00    -0.336 C  
BRANCH  13  14
HETATM   14  C   UNL     1     -10.598   9.149  68.160  1.00  0.00    -0.235 C  
BRANCH  14  15
HETATM   15  C   UNL     1      -9.308   9.507  68.891  1.00  0.00    -0.149 C  
BRANCH  15  16
HETATM   16  C   UNL     1      -9.607   9.987  70.310  1.00  0.00    -0.075 C  
BRANCH  16  17
HETATM   17  C   UNL     1      -9.915   8.815  71.237  1.00  0.00    -0.333 C  
HETATM   18  C   UNL     1      -8.695   8.383  72.015  1.00  0.00    -0.202 C  
HETATM   19  O   UNL     1      -7.586   8.886  71.934  1.00  0.00    -0.303 OA 
HETATM   20  O   UNL     1      -8.959   7.343  72.841  1.00  0.00    -0.128 OA 
ENDBRANCH  16  17
ENDBRANCH  15  16
ENDBRANCH  14  15
ENDBRANCH  13  14
ENDBRANCH  12  13
ENDBRANCH  11  12
ENDBRANCH  10  11
ENDBRANCH   9  10
ENDBRANCH   8   9
ENDBRANCH   7   8
ENDBRANCH   6   7
ENDBRANCH   5   6
ENDBRANCH   4   5
ENDBRANCH   3   4
ENDBRANCH   2   3
TORSDOF 15
ENDMDL
MODEL      263
REMARK 921   NORMALIZED FREE ENERGY PREDICTED BY IDOCK:   -3.19 KCAL/MOL
REMARK 922        TOTAL FREE ENERGY PREDICTED BY IDOCK:   -7.77 KCAL/MOL
REMARK 923 INTER-LIGAND FREE ENERGY PREDICTED BY IDOCK:   -5.58 KCAL/MOL
REMARK 924 INTRA-LIGAND FREE ENERGY PREDICTED BY IDOCK:   -2.20 KCAL/MOL
REMARK 927      BINDING AFFINITY PREDICTED BY RF-SCORE:    0.00 PKD
ROOT
HETATM    1  C   UNL     1     -12.664   8.896  71.744  1.00  0.00    -0.421 C  
HETATM    2  C   UNL     1     -11.467   9.659  71.207  1.00  0.00    -0.463 C  
ENDROOT
BRANCH   2   3
HETATM    3  C   UNL     1     -10.158   8.993  71.625  1.00  0.00    -0.405 C  
BRANCH   3   4
HETATM    4  C   UNL     1      -9.706   7.972  70.586  1.00  0.00    -0.180 C  
BRANCH   4   5
HETATM    5  C   UNL     1      -9.861   6.552  71.121  1.00  0.00    -0.198 C  
BRANCH   5   6
HETATM    6  C   UNL     1     -10.698   5.701  70.172  1.00  0.00    -0.376 C  
BRANCH   6   7
HETATM    7  C   UNL     1     -11.348   6.570  69.102  1.00  0.00    -0.330 C  
BRANCH   7   8
HETATM    8  C   UNL     1     -11.023   6.044  67.709  1.00  0.00    -0.333 C  
BRANCH   8   9
HETATM    9  C   UNL     1      -9.518   6.031  67.476  1.00  0.00    -0.113 C  
BRANCH   9  10
HETATM   10  C   UNL     1      -9.115   7.123  66.492  1.00  0.00    -0.182 C  
BRANCH  10  11
HETATM   11  C   UNL     1      -7.995   7.983  67.069  1.00  0.00    -0.108 C  
BRANCH  11  12
HETATM   12  C   UNL     1      -8.484   9.402  67.323  1.00  0.00    -0.125 C  
BRANCH  12  13
HETATM   13  C   UNL     1      -9.816   9.650  66.626  1.00  0.00    -0.285 C  
BRANCH  13  14
HETATM   14  C   UNL     1     -10.685  10.594  67.450  1.00  0.00    -0.326 C  
BRANCH  14  15
HETATM   15  C   UNL     1     -11.095  11.818  66.637  1.00  0.00    -0.364 C  
BRANCH  15  16
HETATM   16  C   UNL     1     -10.093  12.954  66.831  1.00  0.00    -0.241 C  
BRANCH  16  17
HETATM   17  C   UNL     1     -10.796  14.306  66.907  1.00  0.00    -0.298 C  
HETATM   18  C   UNL     1     -10.993  14.755  68.336  1.00  0.00    -0.252 C  
HETATM   19  O   UNL     1     -10.646  14.136  69.328  1.00  0.00    -0.205 OA 
HETATM   20  O   UNL     1     -11.617  15.954  68.413  1.00  0.00    -0.371 OA 
ENDBRANCH  16  17
ENDBRANCH  15  16
ENDBRANCH  14  15
ENDBRANCH  13  14
ENDBRANCH  12  13
ENDBRANCH  11  12
ENDBRANCH  10  11
ENDBRANCH   9  10
ENDBRANCH   8   9
ENDBRANCH   7   8
ENDBRANCH   6   7
ENDBRANCH   5   6
ENDBRANCH   4   5
ENDBRANCH   3   4
ENDBRANCH   2   3
TORSDOF 15
ENDMDL
MODEL      264
REMARK 921   NORMALIZED FREE ENERGY PREDICTED BY IDOCK:   -3.18 KCAL/MOL
REMARK 922        TOTAL FREE ENERGY PREDICTED BY IDOCK:   -7.77 KCAL/MOL
REMARK 923 INTER-LIGAND FREE ENERGY PREDICTED BY IDOCK:   -5.78 KCAL/MOL
REMARK 924 INTRA-LIGAND FREE ENERGY PREDICTED BY IDOCK:   -1.99 KCAL/MOL
REMARK 927      BINDING AFFINITY PREDICTED BY RF-SCORE:    0.00 PKD
ROOT
HETATM    1  C   UNL     1     -10.580   8.786  67.719  1.00  0.00    -0.256 C  
HETATM    2  C   UNL     1      -9.626   8.740  68.899  1.00  0.00    -0.158 C  
ENDROOT
BRANCH   2   3
HETATM    3  C   UNL     1      -9.757   9.992  69.762  1.00  0.00    -0.259 C  
BRANCH   3   4
HETATM    4  C   UNL     1     -11.094  10.017  70.495  1.00  0.00    -0.400 C  
BRANCH   4   5
HETATM    5  C   UNL     1     -11.881  11.275  70.142  1.00  0.00    -0.449 C  
BRANCH   5   6
HETATM    6  C   UNL     1     -11.607  11.702  68.704  1.00  0.00    -0.373 C  
BRANCH   6   7
HETATM    7  C   UNL     1     -11.956  13.171  68.502  1.00  0.00    -0.324 C  
BRANCH   7   8
HETATM    8  C   UNL     1     -11.369  13.692  67.196  1.00  0.00    -0.340 C  
BRANCH   8   9
HETATM    9  C   UNL     1     -12.475  13.990  66.191  1.00  0.00    -0.467 C  
BRANCH   9  10
HETATM   10  C   UNL     1     -12.626  12.841  65.201  1.00  0.00    -0.513 C  
BRANCH  10  11
HETATM   11  C   UNL     1     -11.823  13.112  63.933  1.00  0.00    -0.533 C  
BRANCH  11  12
HETATM   12  C   UNL     1     -10.904  11.941  63.618  1.00  0.00    -0.510 C  
BRANCH  12  13
HETATM   13  C   UNL     1     -10.556  11.169  64.885  1.00  0.00    -0.356 C  
BRANCH  13  14
HETATM   14  C   UNL     1      -9.053  11.205  65.141  1.00  0.00    -0.161 C  
BRANCH  14  15
HETATM   15  C   UNL     1      -8.751  11.385  66.626  1.00  0.00    -0.178 C  
BRANCH  15  16
HETATM   16  C   UNL     1      -7.897  12.630  66.855  1.00  0.00     0.047 C  
BRANCH  16  17
HETATM   17  C   UNL     1      -7.736  12.924  68.344  1.00  0.00    -0.133 C  
HETATM   18  C   UNL     1      -6.696  13.992  68.592  1.00  0.00    -0.096 C  
HETATM   19  O   UNL     1      -6.049  14.567  67.732  1.00  0.00    -0.178 OA 
HETATM   20  O   UNL     1      -6.545  14.260  69.911  1.00  0.00    -0.143 OA 
ENDBRANCH  16  17
ENDBRANCH  15  16
ENDBRANCH  14  15
ENDBRANCH  13  14
ENDBRANCH  12  13
ENDBRANCH  11  12
ENDBRANCH  10  11
ENDBRANCH   9  10
ENDBRANCH   8   9
ENDBRANCH   7   8
ENDBRANCH   6   7
ENDBRANCH   5   6
ENDBRANCH   4   5
ENDBRANCH   3   4
ENDBRANCH   2   3
TORSDOF 15
ENDMDL
MODEL      265
REMARK 921   NORMALIZED FREE ENERGY PREDICTED BY IDOCK:   -3.18 KCAL/MOL
REMARK 922        TOTAL FREE ENERGY PREDICTED BY IDOCK:   -7.77 KCAL/MOL
REMARK 923 INTER-LIGAND FREE ENERGY PREDICTED BY IDOCK:   -5.91 KCAL/MOL
REMARK 924 INTRA-LIGAND FREE ENERGY PREDICTED BY IDOCK:   -1.86 KCAL/MOL
REMARK 927      BINDING AFFINITY PREDICTED BY RF-SCORE:    0.00 PKD
ROOT
HETATM    1  C   UNL     1      -7.048  11.134  69.476  1.00  0.00    -0.088 C  
HETATM    2  C   UNL     1      -7.834  10.651  68.270  1.00  0.00    -0.113 C  
ENDROOT
BRANCH   2   3
HETATM    3  C   UNL     1      -8.789  11.731  67.767  1.00  0.00    -0.163 C  
BRANCH   3   4
HETATM    4  C   UNL     1      -9.834  11.143  66.825  1.00  0.00    -0.230 C  
BRANCH   4   5
HETATM    5  C   UNL     1      -9.255  10.949  65.427  1.00  0.00    -0.231 C  
BRANCH   5   6
HETATM    6  C   UNL     1     -10.288  11.291  64.358  1.00  0.00    -0.388 C  
BRANCH   6   7
HETATM    7  C   UNL     1     -11.465  12.042  64.968  1.00  0.00    -0.343 C  
BRANCH   7   8
HETATM    8  C   UNL     1     -11.626  13.412  64.319  1.00  0.00    -0.442 C  
BRANCH   8   9
HETATM    9  C   UNL     1     -12.312  14.381  65.273  1.00  0.00    -0.372 C  
BRANCH   9  10
HETATM   10  C   UNL     1     -11.597  14.409  66.619  1.00  0.00    -0.396 C  
BRANCH  10  11
HETATM   11  C   UNL     1     -10.273  15.159  66.511  1.00  0.00    -0.283 C  
BRANCH  11  12
HETATM   12  C   UNL     1     -10.384  16.538  67.147  1.00  0.00    -0.298 C  
BRANCH  12  13
HETATM   13  C   UNL     1     -10.654  17.603  66.091  1.00  0.00    -0.220 C  
BRANCH  13  14
HETATM   14  C   UNL     1     -10.437  18.998  66.668  1.00  0.00    -0.517 C  
BRANCH  14  15
HETATM   15  C   UNL     1      -9.606  18.942  67.946  1.00  0.00    -0.361 C  
BRANCH  15  16
HETATM   16  C   UNL     1      -8.219  19.539  67.715  1.00  0.00    -0.333 C  
BRANCH  16  17
HETATM   17  C   UNL     1      -7.125  18.500  67.938  1.00  0.00    -0.233 C  
HETATM   18  C   UNL     1      -6.716  17.833  66.646  1.00  0.00    -0.205 C  
HETATM   19  O   UNL     1      -7.184  18.072  65.545  1.00  0.00    -0.532 OA 
HETATM   20  O   UNL     1      -5.745  16.909  66.834  1.00  0.00    -0.159 OA 
ENDBRANCH  16  17
ENDBRANCH  15  16
ENDBRANCH  14  15
ENDBRANCH  13  14
ENDBRANCH  12  13
ENDBRANCH  11  12
ENDBRANCH  10  11
ENDBRANCH   9  10
ENDBRANCH   8   9
ENDBRANCH   7   8
ENDBRANCH   6   7
ENDBRANCH   5   6
ENDBRANCH   4   5
ENDBRANCH   3   4
ENDBRANCH   2   3
TORSDOF 15
ENDMDL
MODEL      266
REMARK 921   NORMALIZED FREE ENERGY PREDICTED BY IDOCK:   -3.18 KCAL/MOL
REMARK 922        TOTAL FREE ENERGY PREDICTED BY IDOCK:   -7.77 KCAL/MOL
REMARK 923 INTER-LIGAND FREE ENERGY PREDICTED BY IDOCK:   -5.24 KCAL/MOL
REMARK 924 INTRA-LIGAND FREE ENERGY PREDICTED BY IDOCK:   -2.53 KCAL/MOL
REMARK 927      BINDING AFFINITY PREDICTED BY RF-SCORE:    0.00 PKD
ROOT
HETATM    1  C   UNL     1      -8.270  11.756  68.389  1.00  0.00    -0.154 C  
HETATM    2  C   UNL     1      -8.195  11.093  67.026  1.00  0.00    -0.146 C  
ENDROOT
BRANCH   2   3
HETATM    3  C   UNL     1      -9.492  11.294  66.245  1.00  0.00    -0.227 C  
BRANCH   3   4
HETATM    4  C   UNL     1     -10.408  10.081  66.380  1.00  0.00    -0.249 C  
BRANCH   4   5
HETATM    5  C   UNL     1      -9.593   8.793  66.443  1.00  0.00    -0.316 C  
BRANCH   5   6
HETATM    6  C   UNL     1     -10.413   7.661  67.053  1.00  0.00    -0.419 C  
BRANCH   6   7
HETATM    7  C   UNL     1      -9.587   6.887  68.072  1.00  0.00    -0.125 C  
BRANCH   7   8
HETATM    8  C   UNL     1      -8.369   7.694  68.506  1.00  0.00    -0.129 C  
BRANCH   8   9
HETATM    9  C   UNL     1      -8.062   7.453  69.978  1.00  0.00    -0.129 C  
BRANCH   9  10
HETATM   10  C   UNL     1      -8.352   6.006  70.360  1.00  0.00    -0.124 C  
BRANCH  10  11
HETATM   11  C   UNL     1      -8.716   5.899  71.837  1.00  0.00    -0.138 C  
BRANCH  11  12
HETATM   12  C   UNL     1     -10.020   5.135  72.015  1.00  0.00    -0.240 C  
BRANCH  12  13
HETATM   13  C   UNL     1     -10.964   5.882  72.948  1.00  0.00    -0.303 C  
BRANCH  13  14
HETATM   14  C   UNL     1     -10.542   7.341  73.084  1.00  0.00    -0.400 C  
BRANCH  14  15
HETATM   15  C   UNL     1     -11.587   8.276  72.483  1.00  0.00    -0.454 C  
BRANCH  15  16
HETATM   16  C   UNL     1     -11.451   8.331  70.963  1.00  0.00    -0.303 C  
BRANCH  16  17
HETATM   17  C   UNL     1     -10.962   9.700  70.499  1.00  0.00    -0.374 C  
HETATM   18  C   UNL     1     -12.098  10.691  70.388  1.00  0.00    -0.341 C  
HETATM   19  O   UNL     1     -13.270  10.456  70.631  1.00  0.00    -0.350 OA 
HETATM   20  O   UNL     1     -11.673  11.909  69.977  1.00  0.00    -0.317 OA 
ENDBRANCH  16  17
ENDBRANCH  15  16
ENDBRANCH  14  15
ENDBRANCH  13  14
ENDBRANCH  12  13
ENDBRANCH  11  12
ENDBRANCH  10  11
ENDBRANCH   9  10
ENDBRANCH   8   9
ENDBRANCH   7   8
ENDBRANCH   6   7
ENDBRANCH   5   6
ENDBRANCH   4   5
ENDBRANCH   3   4
ENDBRANCH   2   3
TORSDOF 15
ENDMDL
MODEL      267
REMARK 921   NORMALIZED FREE ENERGY PREDICTED BY IDOCK:   -3.18 KCAL/MOL
REMARK 922        TOTAL FREE ENERGY PREDICTED BY IDOCK:   -7.76 KCAL/MOL
REMARK 923 INTER-LIGAND FREE ENERGY PREDICTED BY IDOCK:   -5.77 KCAL/MOL
REMARK 924 INTRA-LIGAND FREE ENERGY PREDICTED BY IDOCK:   -2.00 KCAL/MOL
REMARK 927      BINDING AFFINITY PREDICTED BY RF-SCORE:    0.00 PKD
ROOT
HETATM    1  C   UNL     1      -7.475  10.951  69.044  1.00  0.00    -0.124 C  
HETATM    2  C   UNL     1      -7.375  10.599  67.570  1.00  0.00    -0.091 C  
ENDROOT
BRANCH   2   3
HETATM    3  C   UNL     1      -8.657  10.969  66.828  1.00  0.00    -0.152 C  
BRANCH   3   4
HETATM    4  C   UNL     1      -8.868  10.071  65.614  1.00  0.00    -0.184 C  
BRANCH   4   5
HETATM    5  C   UNL     1      -7.886  10.426  64.501  1.00  0.00    -0.066 C  
BRANCH   5   6
HETATM    6  C   UNL     1      -8.626  10.765  63.212  1.00  0.00    -0.107 C  
BRANCH   6   7
HETATM    7  C   UNL     1     -10.133  10.744  63.434  1.00  0.00    -0.345 C  
BRANCH   7   8
HETATM    8  C   UNL     1     -10.704  12.157  63.406  1.00  0.00    -0.461 C  
BRANCH   8   9
HETATM    9  C   UNL     1     -12.222  12.125  63.520  1.00  0.00    -0.670 C  
BRANCH   9  10
HETATM   10  C   UNL     1     -12.681  12.818  64.798  1.00  0.00    -0.469 C  
BRANCH  10  11
HETATM   11  C   UNL     1     -11.483  13.284  65.619  1.00  0.00    -0.342 C  
BRANCH  11  12
HETATM   12  C   UNL     1     -11.649  12.893  67.080  1.00  0.00    -0.421 C  
BRANCH  12  13
HETATM   13  C   UNL     1     -12.130  14.078  67.909  1.00  0.00    -0.314 C  
BRANCH  13  14
HETATM   14  C   UNL     1     -11.125  14.407  69.008  1.00  0.00    -0.282 C  
BRANCH  14  15
HETATM   15  C   UNL     1      -9.698  14.106  68.559  1.00  0.00    -0.219 C  
BRANCH  15  16
HETATM   16  C   UNL     1      -8.973  15.391  68.166  1.00  0.00    -0.176 C  
BRANCH  16  17
HETATM   17  C   UNL     1      -9.099  15.663  66.670  1.00  0.00    -0.313 C  
HETATM   18  C   UNL     1     -10.088  16.770  66.385  1.00  0.00    -0.317 C  
HETATM   19  O   UNL     1     -10.723  17.387  67.224  1.00  0.00    -0.315 OA 
HETATM   20  O   UNL     1     -10.206  17.018  65.059  1.00  0.00    -0.402 OA 
ENDBRANCH  16  17
ENDBRANCH  15  16
ENDBRANCH  14  15
ENDBRANCH  13  14
ENDBRANCH  12  13
ENDBRANCH  11  12
ENDBRANCH  10  11
ENDBRANCH   9  10
ENDBRANCH   8   9
ENDBRANCH   7   8
ENDBRANCH   6   7
ENDBRANCH   5   6
ENDBRANCH   4   5
ENDBRANCH   3   4
ENDBRANCH   2   3
TORSDOF 15
ENDMDL
MODEL      268
REMARK 921   NORMALIZED FREE ENERGY PREDICTED BY IDOCK:   -3.18 KCAL/MOL
REMARK 922        TOTAL FREE ENERGY PREDICTED BY IDOCK:   -7.76 KCAL/MOL
REMARK 923 INTER-LIGAND FREE ENERGY PREDICTED BY IDOCK:   -5.77 KCAL/MOL
REMARK 924 INTRA-LIGAND FREE ENERGY PREDICTED BY IDOCK:   -1.99 KCAL/MOL
REMARK 927      BINDING AFFINITY PREDICTED BY RF-SCORE:    0.00 PKD
ROOT
HETATM    1  C   UNL     1      -8.704   5.545  69.782  1.00  0.00    -0.118 C  
HETATM    2  C   UNL     1     -10.078   5.222  70.342  1.00  0.00    -0.324 C  
ENDROOT
BRANCH   2   3
HETATM    3  C   UNL     1     -11.165   6.018  69.625  1.00  0.00    -0.428 C  
BRANCH   3   4
HETATM    4  C   UNL     1     -11.994   6.831  70.615  1.00  0.00    -0.418 C  
BRANCH   4   5
HETATM    5  C   UNL     1     -11.568   6.533  72.049  1.00  0.00    -0.354 C  
BRANCH   5   6
HETATM    6  C   UNL     1     -11.300   7.824  72.815  1.00  0.00    -0.446 C  
BRANCH   6   7
HETATM    7  C   UNL     1     -11.052   8.979  71.855  1.00  0.00    -0.433 C  
BRANCH   7   8
HETATM    8  C   UNL     1      -9.597   9.005  71.403  1.00  0.00    -0.356 C  
BRANCH   8   9
HETATM    9  C   UNL     1      -9.493   9.448  69.950  1.00  0.00    -0.235 C  
BRANCH   9  10
HETATM   10  C   UNL     1      -8.078   9.915  69.628  1.00  0.00    -0.171 C  
BRANCH  10  11
HETATM   11  C   UNL     1      -7.585   9.287  68.328  1.00  0.00    -0.083 C  
BRANCH  11  12
HETATM   12  C   UNL     1      -7.604  10.307  67.199  1.00  0.00    -0.092 C  
BRANCH  12  13
HETATM   13  C   UNL     1      -7.943  11.695  67.726  1.00  0.00    -0.131 C  
BRANCH  13  14
HETATM   14  C   UNL     1      -9.142  12.274  66.983  1.00  0.00    -0.201 C  
BRANCH  14  15
HETATM   15  C   UNL     1     -10.218  11.215  66.762  1.00  0.00    -0.272 C  
BRANCH  15  16
HETATM   16  C   UNL     1     -11.582  11.727  67.219  1.00  0.00    -0.344 C  
BRANCH  16  17
HETATM   17  C   UNL     1     -11.537  12.206  68.666  1.00  0.00    -0.372 C  
HETATM   18  C   UNL     1     -11.799  13.690  68.772  1.00  0.00    -0.360 C  
HETATM   19  O   UNL     1     -12.020  14.440  67.835  1.00  0.00    -0.353 OA 
HETATM   20  O   UNL     1     -11.761  14.125  70.053  1.00  0.00    -0.276 OA 
ENDBRANCH  16  17
ENDBRANCH  15  16
ENDBRANCH  14  15
ENDBRANCH  13  14
ENDBRANCH  12  13
ENDBRANCH  11  12
ENDBRANCH  10  11
ENDBRANCH   9  10
ENDBRANCH   8   9
ENDBRANCH   7   8
ENDBRANCH   6   7
ENDBRANCH   5   6
ENDBRANCH   4   5
ENDBRANCH   3   4
ENDBRANCH   2   3
TORSDOF 15
ENDMDL
MODEL      269
REMARK 921   NORMALIZED FREE ENERGY PREDICTED BY IDOCK:   -3.17 KCAL/MOL
REMARK 922        TOTAL FREE ENERGY PREDICTED BY IDOCK:   -7.75 KCAL/MOL
REMARK 923 INTER-LIGAND FREE ENERGY PREDICTED BY IDOCK:   -6.51 KCAL/MOL
REMARK 924 INTRA-LIGAND FREE ENERGY PREDICTED BY IDOCK:   -1.24 KCAL/MOL
REMARK 927      BINDING AFFINITY PREDICTED BY RF-SCORE:    0.00 PKD
ROOT
HETATM    1  C   UNL     1     -10.566  19.657  66.115  1.00  0.00    -0.584 C  
HETATM    2  C   UNL     1      -9.229  19.473  66.811  1.00  0.00    -0.415 C  
ENDROOT
BRANCH   2   3
HETATM    3  C   UNL     1      -9.153  18.117  67.507  1.00  0.00    -0.254 C  
BRANCH   3   4
HETATM    4  C   UNL     1     -10.076  17.103  66.838  1.00  0.00    -0.298 C  
BRANCH   4   5
HETATM    5  C   UNL     1      -9.279  16.145  65.959  1.00  0.00    -0.363 C  
BRANCH   5   6
HETATM    6  C   UNL     1     -10.135  14.955  65.537  1.00  0.00    -0.400 C  
BRANCH   6   7
HETATM    7  C   UNL     1     -10.635  14.192  66.757  1.00  0.00    -0.277 C  
BRANCH   7   8
HETATM    8  C   UNL     1      -9.529  13.324  67.343  1.00  0.00    -0.218 C  
BRANCH   8   9
HETATM    9  C   UNL     1      -9.422  12.007  66.586  1.00  0.00    -0.222 C  
BRANCH   9  10
HETATM   10  C   UNL     1     -10.612  11.107  66.898  1.00  0.00    -0.304 C  
BRANCH  10  11
HETATM   11  C   UNL     1     -10.647  10.753  68.381  1.00  0.00    -0.228 C  
BRANCH  11  12
HETATM   12  C   UNL     1     -12.029  11.015  68.963  1.00  0.00    -0.364 C  
BRANCH  12  13
HETATM   13  C   UNL     1     -11.975  11.073  70.484  1.00  0.00    -0.474 C  
BRANCH  13  14
HETATM   14  C   UNL     1     -12.346   9.722  71.087  1.00  0.00    -0.451 C  
BRANCH  14  15
HETATM   15  C   UNL     1     -11.206   9.165  71.934  1.00  0.00    -0.400 C  
BRANCH  15  16
HETATM   16  C   UNL     1     -11.120   7.647  71.791  1.00  0.00    -0.281 C  
BRANCH  16  17
HETATM   17  C   UNL     1     -10.974   7.235  70.329  1.00  0.00    -0.281 C  
HETATM   18  C   UNL     1     -10.670   5.762  70.192  1.00  0.00    -0.320 C  
HETATM   19  O   UNL     1     -10.549   4.973  71.115  1.00  0.00    -0.179 OA 
HETATM   20  O   UNL     1     -10.539   5.387  68.897  1.00  0.00    -0.202 OA 
ENDBRANCH  16  17
ENDBRANCH  15  16
ENDBRANCH  14  15
ENDBRANCH  13  14
ENDBRANCH  12  13
ENDBRANCH  11  12
ENDBRANCH  10  11
ENDBRANCH   9  10
ENDBRANCH   8   9
ENDBRANCH   7   8
ENDBRANCH   6   7
ENDBRANCH   5   6
ENDBRANCH   4   5
ENDBRANCH   3   4
ENDBRANCH   2   3
TORSDOF 15
ENDMDL
MODEL      270
REMARK 921   NORMALIZED FREE ENERGY PREDICTED BY IDOCK:   -3.17 KCAL/MOL
REMARK 922        TOTAL FREE ENERGY PREDICTED BY IDOCK:   -7.74 KCAL/MOL
REMARK 923 INTER-LIGAND FREE ENERGY PREDICTED BY IDOCK:   -6.11 KCAL/MOL
REMARK 924 INTRA-LIGAND FREE ENERGY PREDICTED BY IDOCK:   -1.63 KCAL/MOL
REMARK 927      BINDING AFFINITY PREDICTED BY RF-SCORE:    0.00 PKD
ROOT
HETATM    1  C   UNL     1      -8.357   8.333  72.220  1.00  0.00    -0.229 C  
HETATM    2  C   UNL     1      -9.778   8.625  71.773  1.00  0.00    -0.361 C  
ENDROOT
BRANCH   2   3
HETATM    3  C   UNL     1     -10.794   7.953  72.694  1.00  0.00    -0.428 C  
BRANCH   3   4
HETATM    4  C   UNL     1     -11.249   6.614  72.124  1.00  0.00    -0.299 C  
BRANCH   4   5
HETATM    5  C   UNL     1     -12.223   6.821  70.968  1.00  0.00    -0.405 C  
BRANCH   5   6
HETATM    6  C   UNL     1     -11.535   6.582  69.628  1.00  0.00    -0.417 C  
BRANCH   6   7
HETATM    7  C   UNL     1     -10.484   5.487  69.750  1.00  0.00    -0.389 C  
BRANCH   7   8
HETATM    8  C   UNL     1     -10.101   4.950  68.376  1.00  0.00    -0.148 C  
BRANCH   8   9
HETATM    9  C   UNL     1      -8.588   4.842  68.243  1.00  0.00    -0.107 C  
BRANCH   9  10
HETATM   10  C   UNL     1      -7.930   6.199  68.461  1.00  0.00    -0.108 C  
BRANCH  10  11
HETATM   11  C   UNL     1      -8.556   7.255  67.555  1.00  0.00    -0.122 C  
BRANCH  11  12
HETATM   12  C   UNL     1      -8.318   8.651  68.113  1.00  0.00    -0.127 C  
BRANCH  12  13
HETATM   13  C   UNL     1      -9.565   9.514  67.968  1.00  0.00    -0.155 C  
BRANCH  13  14
HETATM   14  C   UNL     1     -10.259   9.233  66.639  1.00  0.00    -0.323 C  
BRANCH  14  15
HETATM   15  C   UNL     1      -9.538   9.922  65.484  1.00  0.00    -0.341 C  
BRANCH  15  16
HETATM   16  C   UNL     1      -9.992  11.374  65.354  1.00  0.00    -0.289 C  
BRANCH  16  17
HETATM   17  C   UNL     1     -11.125  11.512  64.341  1.00  0.00    -0.359 C  
HETATM   18  C   UNL     1     -11.437  12.960  64.045  1.00  0.00    -0.422 C  
HETATM   19  O   UNL     1     -10.872  13.923  64.538  1.00  0.00    -0.398 OA 
HETATM   20  O   UNL     1     -12.442  13.092  63.147  1.00  0.00    -0.686 OA 
ENDBRANCH  16  17
ENDBRANCH  15  16
ENDBRANCH  14  15
ENDBRANCH  13  14
ENDBRANCH  12  13
ENDBRANCH  11  12
ENDBRANCH  10  11
ENDBRANCH   9  10
ENDBRANCH   8   9
ENDBRANCH   7   8
ENDBRANCH   6   7
ENDBRANCH   5   6
ENDBRANCH   4   5
ENDBRANCH   3   4
ENDBRANCH   2   3
TORSDOF 15
ENDMDL
MODEL      271
REMARK 921   NORMALIZED FREE ENERGY PREDICTED BY IDOCK:   -3.16 KCAL/MOL
REMARK 922        TOTAL FREE ENERGY PREDICTED BY IDOCK:   -7.74 KCAL/MOL
REMARK 923 INTER-LIGAND FREE ENERGY PREDICTED BY IDOCK:   -5.59 KCAL/MOL
REMARK 924 INTRA-LIGAND FREE ENERGY PREDICTED BY IDOCK:   -2.14 KCAL/MOL
REMARK 927      BINDING AFFINITY PREDICTED BY RF-SCORE:    0.00 PKD
ROOT
HETATM    1  C   UNL     1      -9.951   7.872  72.778  1.00  0.00    -0.348 C  
HETATM    2  C   UNL     1     -10.209   6.647  71.920  1.00  0.00    -0.203 C  
ENDROOT
BRANCH   2   3
HETATM    3  C   UNL     1     -11.674   6.222  71.992  1.00  0.00    -0.374 C  
BRANCH   3   4
HETATM    4  C   UNL     1     -12.494   6.887  70.892  1.00  0.00    -0.314 C  
BRANCH   4   5
HETATM    5  C   UNL     1     -13.745   7.540  71.470  1.00  0.00    -0.460 C  
BRANCH   5   6
HETATM    6  C   UNL     1     -13.381   8.744  72.332  1.00  0.00    -0.442 C  
BRANCH   6   7
HETATM    7  C   UNL     1     -13.399  10.023  71.506  1.00  0.00    -0.451 C  
BRANCH   7   8
HETATM    8  C   UNL     1     -11.982  10.451  71.142  1.00  0.00    -0.460 C  
BRANCH   8   9
HETATM    9  C   UNL     1     -11.973  11.216  69.825  1.00  0.00    -0.428 C  
BRANCH   9  10
HETATM   10  C   UNL     1     -11.087  10.516  68.801  1.00  0.00    -0.315 C  
BRANCH  10  11
HETATM   11  C   UNL     1      -9.802  10.015  69.451  1.00  0.00    -0.240 C  
BRANCH  11  12
HETATM   12  C   UNL     1      -9.228   8.839  68.673  1.00  0.00    -0.141 C  
BRANCH  12  13
HETATM   13  C   UNL     1     -10.296   7.782  68.422  1.00  0.00    -0.231 C  
BRANCH  13  14
HETATM   14  C   UNL     1     -10.450   7.518  66.927  1.00  0.00    -0.385 C  
BRANCH  14  15
HETATM   15  C   UNL     1      -9.377   8.250  66.125  1.00  0.00    -0.254 C  
BRANCH  15  16
HETATM   16  C   UNL     1      -8.271   7.288  65.700  1.00  0.00    -0.138 C  
BRANCH  16  17
HETATM   17  C   UNL     1      -8.782   5.853  65.627  1.00  0.00    -0.149 C  
HETATM   18  C   UNL     1      -7.904   4.906  66.411  1.00  0.00    -0.099 C  
HETATM   19  O   UNL     1      -6.904   5.218  67.036  1.00  0.00    -0.060 OA 
HETATM   20  O   UNL     1      -8.350   3.629  66.351  1.00  0.00    -0.102 OA 
ENDBRANCH  16  17
ENDBRANCH  15  16
ENDBRANCH  14  15
ENDBRANCH  13  14
ENDBRANCH  12  13
ENDBRANCH  11  12
ENDBRANCH  10  11
ENDBRANCH   9  10
ENDBRANCH   8   9
ENDBRANCH   7   8
ENDBRANCH   6   7
ENDBRANCH   5   6
ENDBRANCH   4   5
ENDBRANCH   3   4
ENDBRANCH   2   3
TORSDOF 15
ENDMDL
MODEL      272
REMARK 921   NORMALIZED FREE ENERGY PREDICTED BY IDOCK:   -3.16 KCAL/MOL
REMARK 922        TOTAL FREE ENERGY PREDICTED BY IDOCK:   -7.74 KCAL/MOL
REMARK 923 INTER-LIGAND FREE ENERGY PREDICTED BY IDOCK:   -5.80 KCAL/MOL
REMARK 924 INTRA-LIGAND FREE ENERGY PREDICTED BY IDOCK:   -1.94 KCAL/MOL
REMARK 927      BINDING AFFINITY PREDICTED BY RF-SCORE:    0.00 PKD
ROOT
HETATM    1  C   UNL     1     -10.747  13.736  67.212  1.00  0.00    -0.286 C  
HETATM    2  C   UNL     1     -11.702  14.149  66.106  1.00  0.00    -0.402 C  
ENDROOT
BRANCH   2   3
HETATM    3  C   UNL     1     -12.234  12.930  65.356  1.00  0.00    -0.528 C  
BRANCH   3   4
HETATM    4  C   UNL     1     -11.388  12.631  64.123  1.00  0.00    -0.439 C  
BRANCH   4   5
HETATM    5  C   UNL     1     -10.777  11.236  64.213  1.00  0.00    -0.416 C  
BRANCH   5   6
HETATM    6  C   UNL     1      -9.392  11.288  64.849  1.00  0.00    -0.181 C  
BRANCH   6   7
HETATM    7  C   UNL     1      -9.265  10.244  65.950  1.00  0.00    -0.205 C  
BRANCH   7   8
HETATM    8  C   UNL     1     -10.603  10.028  66.647  1.00  0.00    -0.196 C  
BRANCH   8   9
HETATM    9  C   UNL     1     -10.531   8.835  67.591  1.00  0.00    -0.310 C  
BRANCH   9  10
HETATM   10  C   UNL     1      -9.081   8.458  67.874  1.00  0.00    -0.137 C  
BRANCH  10  11
HETATM   11  C   UNL     1      -8.821   8.405  69.376  1.00  0.00    -0.142 C  
BRANCH  11  12
HETATM   12  C   UNL     1      -9.367   9.651  70.060  1.00  0.00    -0.276 C  
BRANCH  12  13
HETATM   13  C   UNL     1     -10.151   9.282  71.313  1.00  0.00    -0.361 C  
BRANCH  13  14
HETATM   14  C   UNL     1     -11.642   9.528  71.105  1.00  0.00    -0.439 C  
BRANCH  14  15
HETATM   15  C   UNL     1     -12.466   8.322  71.547  1.00  0.00    -0.340 C  
BRANCH  15  16
HETATM   16  C   UNL     1     -11.717   7.023  71.260  1.00  0.00    -0.356 C  
BRANCH  16  17
HETATM   17  C   UNL     1     -11.628   6.148  72.506  1.00  0.00    -0.294 C  
HETATM   18  C   UNL     1     -10.224   5.633  72.729  1.00  0.00    -0.185 C  
HETATM   19  O   UNL     1      -9.261   5.869  72.018  1.00  0.00    -0.147 OA 
HETATM   20  O   UNL     1     -10.135   4.855  73.833  1.00  0.00    -0.156 OA 
ENDBRANCH  16  17
ENDBRANCH  15  16
ENDBRANCH  14  15
ENDBRANCH  13  14
ENDBRANCH  12  13
ENDBRANCH  11  12
ENDBRANCH  10  11
ENDBRANCH   9  10
ENDBRANCH   8   9
ENDBRANCH   7   8
ENDBRANCH   6   7
ENDBRANCH   5   6
ENDBRANCH   4   5
ENDBRANCH   3   4
ENDBRANCH   2   3
TORSDOF 15
ENDMDL
MODEL      273
REMARK 921   NORMALIZED FREE ENERGY PREDICTED BY IDOCK:   -3.16 KCAL/MOL
REMARK 922        TOTAL FREE ENERGY PREDICTED BY IDOCK:   -7.73 KCAL/MOL
REMARK 923 INTER-LIGAND FREE ENERGY PREDICTED BY IDOCK:   -5.98 KCAL/MOL
REMARK 924 INTRA-LIGAND FREE ENERGY PREDICTED BY IDOCK:   -1.75 KCAL/MOL
REMARK 927      BINDING AFFINITY PREDICTED BY RF-SCORE:    0.00 PKD
ROOT
HETATM    1  C   UNL     1     -13.717  15.639  72.692  1.00  0.00    -0.666 C  
HETATM    2  C   UNL     1     -13.724  14.579  71.604  1.00  0.00    -0.486 C  
ENDROOT
BRANCH   2   3
HETATM    3  C   UNL     1     -12.330  14.391  71.010  1.00  0.00    -0.427 C  
BRANCH   3   4
HETATM    4  C   UNL     1     -12.217  13.052  70.288  1.00  0.00    -0.368 C  
BRANCH   4   5
HETATM    5  C   UNL     1     -11.158  13.117  69.191  1.00  0.00    -0.248 C  
BRANCH   5   6
HETATM    6  C   UNL     1     -11.704  12.570  67.876  1.00  0.00    -0.416 C  
BRANCH   6   7
HETATM    7  C   UNL     1     -10.569  12.263  66.909  1.00  0.00    -0.249 C  
BRANCH   7   8
HETATM    8  C   UNL     1      -9.680  11.151  67.453  1.00  0.00    -0.191 C  
BRANCH   8   9
HETATM    9  C   UNL     1     -10.407   9.813  67.412  1.00  0.00    -0.297 C  
BRANCH   9  10
HETATM   10  C   UNL     1      -9.952   8.988  66.215  1.00  0.00    -0.352 C  
BRANCH  10  11
HETATM   11  C   UNL     1      -9.279   7.698  66.672  1.00  0.00    -0.211 C  
BRANCH  11  12
HETATM   12  C   UNL     1      -7.887   7.984  67.218  1.00  0.00    -0.109 C  
BRANCH  12  13
HETATM   13  C   UNL     1      -7.681   7.302  68.564  1.00  0.00    -0.120 C  
BRANCH  13  14
HETATM   14  C   UNL     1      -7.014   8.253  69.552  1.00  0.00    -0.046 C  
BRANCH  14  15
HETATM   15  C   UNL     1      -8.024   9.231  70.144  1.00  0.00    -0.143 C  
BRANCH  15  16
HETATM   16  C   UNL     1      -9.206   8.481  70.755  1.00  0.00    -0.204 C  
BRANCH  16  17
HETATM   17  C   UNL     1     -10.462   9.347  70.772  1.00  0.00    -0.372 C  
HETATM   18  C   UNL     1     -11.443   8.887  71.825  1.00  0.00    -0.353 C  
HETATM   19  O   UNL     1     -11.281   7.944  72.583  1.00  0.00    -0.344 OA 
HETATM   20  O   UNL     1     -12.562   9.649  71.847  1.00  0.00    -0.377 OA 
ENDBRANCH  16  17
ENDBRANCH  15  16
ENDBRANCH  14  15
ENDBRANCH  13  14
ENDBRANCH  12  13
ENDBRANCH  11  12
ENDBRANCH  10  11
ENDBRANCH   9  10
ENDBRANCH   8   9
ENDBRANCH   7   8
ENDBRANCH   6   7
ENDBRANCH   5   6
ENDBRANCH   4   5
ENDBRANCH   3   4
ENDBRANCH   2   3
TORSDOF 15
ENDMDL
MODEL      274
REMARK 921   NORMALIZED FREE ENERGY PREDICTED BY IDOCK:   -3.14 KCAL/MOL
REMARK 922        TOTAL FREE ENERGY PREDICTED BY IDOCK:   -7.69 KCAL/MOL
REMARK 923 INTER-LIGAND FREE ENERGY PREDICTED BY IDOCK:   -5.04 KCAL/MOL
REMARK 924 INTRA-LIGAND FREE ENERGY PREDICTED BY IDOCK:   -2.65 KCAL/MOL
REMARK 927      BINDING AFFINITY PREDICTED BY RF-SCORE:    0.00 PKD
ROOT
HETATM    1  C   UNL     1      -6.657   6.000  67.129  1.00  0.00    -0.056 C  
HETATM    2  C   UNL     1      -6.952   5.706  65.669  1.00  0.00    -0.065 C  
ENDROOT
BRANCH   2   3
HETATM    3  C   UNL     1      -8.448   5.498  65.440  1.00  0.00    -0.146 C  
BRANCH   3   4
HETATM    4  C   UNL     1      -9.273   6.380  66.371  1.00  0.00    -0.176 C  
BRANCH   4   5
HETATM    5  C   UNL     1     -10.554   5.668  66.795  1.00  0.00    -0.372 C  
BRANCH   5   6
HETATM    6  C   UNL     1     -11.110   6.269  68.082  1.00  0.00    -0.364 C  
BRANCH   6   7
HETATM    7  C   UNL     1     -10.147   6.046  69.240  1.00  0.00    -0.235 C  
BRANCH   7   8
HETATM    8  C   UNL     1     -10.524   6.918  70.432  1.00  0.00    -0.229 C  
BRANCH   8   9
HETATM    9  C   UNL     1     -12.035   6.948  70.619  1.00  0.00    -0.400 C  
BRANCH   9  10
HETATM   10  C   UNL     1     -12.405   7.688  71.899  1.00  0.00    -0.337 C  
BRANCH  10  11
HETATM   11  C   UNL     1     -11.784   9.081  71.916  1.00  0.00    -0.445 C  
BRANCH  11  12
HETATM   12  C   UNL     1     -12.745  10.105  71.329  1.00  0.00    -0.509 C  
BRANCH  12  13
HETATM   13  C   UNL     1     -11.989  11.183  70.564  1.00  0.00    -0.475 C  
BRANCH  13  14
HETATM   14  C   UNL     1     -10.841  10.572  69.767  1.00  0.00    -0.335 C  
BRANCH  14  15
HETATM   15  C   UNL     1     -11.274  10.241  68.342  1.00  0.00    -0.284 C  
BRANCH  15  16
HETATM   16  C   UNL     1     -10.085   9.756  67.516  1.00  0.00    -0.246 C  
BRANCH  16  17
HETATM   17  C   UNL     1      -8.839   9.592  68.381  1.00  0.00    -0.123 C  
HETATM   18  C   UNL     1      -7.582   9.544  67.545  1.00  0.00    -0.095 C  
HETATM   19  O   UNL     1      -7.535   9.622  66.328  1.00  0.00    -0.096 OA 
HETATM   20  O   UNL     1      -6.470   9.398  68.304  1.00  0.00    -0.053 OA 
ENDBRANCH  16  17
ENDBRANCH  15  16
ENDBRANCH  14  15
ENDBRANCH  13  14
ENDBRANCH  12  13
ENDBRANCH  11  12
ENDBRANCH  10  11
ENDBRANCH   9  10
ENDBRANCH   8   9
ENDBRANCH   7   8
ENDBRANCH   6   7
ENDBRANCH   5   6
ENDBRANCH   4   5
ENDBRANCH   3   4
ENDBRANCH   2   3
TORSDOF 15
ENDMDL
MODEL      275
REMARK 921   NORMALIZED FREE ENERGY PREDICTED BY IDOCK:   -3.13 KCAL/MOL
REMARK 922        TOTAL FREE ENERGY PREDICTED BY IDOCK:   -7.68 KCAL/MOL
REMARK 923 INTER-LIGAND FREE ENERGY PREDICTED BY IDOCK:   -5.64 KCAL/MOL
REMARK 924 INTRA-LIGAND FREE ENERGY PREDICTED BY IDOCK:   -2.04 KCAL/MOL
REMARK 927      BINDING AFFINITY PREDICTED BY RF-SCORE:    0.00 PKD
ROOT
HETATM    1  C   UNL     1      -7.568  11.723  68.853  1.00  0.00    -0.063 C  
HETATM    2  C   UNL     1      -7.702  10.212  68.908  1.00  0.00    -0.093 C  
ENDROOT
BRANCH   2   3
HETATM    3  C   UNL     1      -9.146   9.797  69.178  1.00  0.00    -0.166 C  
BRANCH   3   4
HETATM    4  C   UNL     1      -9.272   8.281  69.283  1.00  0.00    -0.151 C  
BRANCH   4   5
HETATM    5  C   UNL     1     -10.517   7.789  68.552  1.00  0.00    -0.202 C  
BRANCH   5   6
HETATM    6  C   UNL     1     -10.385   8.007  67.048  1.00  0.00    -0.414 C  
BRANCH   6   7
HETATM    7  C   UNL     1      -9.406   7.009  66.443  1.00  0.00    -0.182 C  
BRANCH   7   8
HETATM    8  C   UNL     1      -8.094   7.692  66.077  1.00  0.00    -0.118 C  
BRANCH   8   9
HETATM    9  C   UNL     1      -7.984   7.871  64.568  1.00  0.00    -0.140 C  
BRANCH   9  10
HETATM   10  C   UNL     1      -8.555   9.219  64.142  1.00  0.00    -0.207 C  
BRANCH  10  11
HETATM   11  C   UNL     1      -8.028  10.336  65.038  1.00  0.00    -0.144 C  
BRANCH  11  12
HETATM   12  C   UNL     1      -9.166  11.232  65.504  1.00  0.00    -0.220 C  
BRANCH  12  13
HETATM   13  C   UNL     1     -10.463  10.882  64.785  1.00  0.00    -0.373 C  
BRANCH  13  14
HETATM   14  C   UNL     1     -10.564  11.636  63.463  1.00  0.00    -0.496 C  
BRANCH  14  15
HETATM   15  C   UNL     1     -11.740  12.608  63.471  1.00  0.00    -0.604 C  
BRANCH  15  16
HETATM   16  C   UNL     1     -12.450  12.584  64.823  1.00  0.00    -0.532 C  
BRANCH  16  17
HETATM   17  C   UNL     1     -12.363  13.939  65.519  1.00  0.00    -0.506 C  
HETATM   18  C   UNL     1     -12.060  13.792  66.992  1.00  0.00    -0.397 C  
HETATM   19  O   UNL     1     -11.900  12.736  67.582  1.00  0.00    -0.356 OA 
HETATM   20  O   UNL     1     -11.981  14.990  67.618  1.00  0.00    -0.277 OA 
ENDBRANCH  16  17
ENDBRANCH  15  16
ENDBRANCH  14  15
ENDBRANCH  13  14
ENDBRANCH  12  13
ENDBRANCH  11  12
ENDBRANCH  10  11
ENDBRANCH   9  10
ENDBRANCH   8   9
ENDBRANCH   7   8
ENDBRANCH   6   7
ENDBRANCH   5   6
ENDBRANCH   4   5
ENDBRANCH   3   4
ENDBRANCH   2   3
TORSDOF 15
ENDMDL
MODEL      276
REMARK 921   NORMALIZED FREE ENERGY PREDICTED BY IDOCK:   -3.13 KCAL/MOL
REMARK 922        TOTAL FREE ENERGY PREDICTED BY IDOCK:   -7.67 KCAL/MOL
REMARK 923 INTER-LIGAND FREE ENERGY PREDICTED BY IDOCK:   -5.68 KCAL/MOL
REMARK 924 INTRA-LIGAND FREE ENERGY PREDICTED BY IDOCK:   -1.99 KCAL/MOL
REMARK 927      BINDING AFFINITY PREDICTED BY RF-SCORE:    0.00 PKD
ROOT
HETATM    1  C   UNL     1      -9.623   2.870  70.785  1.00  0.00    -0.195 C  
HETATM    2  C   UNL     1      -9.500   4.361  70.525  1.00  0.00    -0.241 C  
ENDROOT
BRANCH   2   3
HETATM    3  C   UNL     1     -10.540   5.146  71.320  1.00  0.00    -0.203 C  
BRANCH   3   4
HETATM    4  C   UNL     1     -10.580   4.688  72.774  1.00  0.00    -0.273 C  
BRANCH   4   5
HETATM    5  C   UNL     1     -10.655   5.885  73.717  1.00  0.00    -0.275 C  
BRANCH   5   6
HETATM    6  C   UNL     1      -9.671   6.972  73.295  1.00  0.00    -0.231 C  
BRANCH   6   7
HETATM    7  C   UNL     1     -10.412   8.210  72.807  1.00  0.00    -0.385 C  
BRANCH   7   8
HETATM    8  C   UNL     1      -9.808   8.722  71.505  1.00  0.00    -0.371 C  
BRANCH   8   9
HETATM    9  C   UNL     1      -8.369   8.247  71.356  1.00  0.00    -0.163 C  
BRANCH   9  10
HETATM   10  C   UNL     1      -8.073   7.868  69.909  1.00  0.00    -0.118 C  
BRANCH  10  11
HETATM   11  C   UNL     1      -9.213   8.303  68.994  1.00  0.00    -0.147 C  
BRANCH  11  12
HETATM   12  C   UNL     1      -8.679   9.108  67.817  1.00  0.00    -0.121 C  
BRANCH  12  13
HETATM   13  C   UNL     1      -9.430  10.426  67.675  1.00  0.00    -0.165 C  
BRANCH  13  14
HETATM   14  C   UNL     1     -10.924  10.175  67.493  1.00  0.00    -0.319 C  
BRANCH  14  15
HETATM   15  C   UNL     1     -11.752  11.224  68.229  1.00  0.00    -0.344 C  
BRANCH  15  16
HETATM   16  C   UNL     1     -11.426  11.220  69.721  1.00  0.00    -0.386 C  
BRANCH  16  17
HETATM   17  C   UNL     1     -12.181  12.323  70.456  1.00  0.00    -0.387 C  
HETATM   18  C   UNL     1     -13.015  11.770  71.588  1.00  0.00    -0.362 C  
HETATM   19  O   UNL     1     -13.096  10.593  71.901  1.00  0.00    -0.469 OA 
HETATM   20  O   UNL     1     -13.689  12.742  72.247  1.00  0.00    -0.527 OA 
ENDBRANCH  16  17
ENDBRANCH  15  16
ENDBRANCH  14  15
ENDBRANCH  13  14
ENDBRANCH  12  13
ENDBRANCH  11  12
ENDBRANCH  10  11
ENDBRANCH   9  10
ENDBRANCH   8   9
ENDBRANCH   7   8
ENDBRANCH   6   7
ENDBRANCH   5   6
ENDBRANCH   4   5
ENDBRANCH   3   4
ENDBRANCH   2   3
TORSDOF 15
ENDMDL
MODEL      277
REMARK 921   NORMALIZED FREE ENERGY PREDICTED BY IDOCK:   -3.13 KCAL/MOL
REMARK 922        TOTAL FREE ENERGY PREDICTED BY IDOCK:   -7.67 KCAL/MOL
REMARK 923 INTER-LIGAND FREE ENERGY PREDICTED BY IDOCK:   -5.40 KCAL/MOL
REMARK 924 INTRA-LIGAND FREE ENERGY PREDICTED BY IDOCK:   -2.27 KCAL/MOL
REMARK 927      BINDING AFFINITY PREDICTED BY RF-SCORE:    0.00 PKD
ROOT
HETATM    1  C   UNL     1     -10.686  12.882  66.150  1.00  0.00    -0.290 C  
HETATM    2  C   UNL     1     -11.515  11.941  67.006  1.00  0.00    -0.384 C  
ENDROOT
BRANCH   2   3
HETATM    3  C   UNL     1     -10.647  11.235  68.045  1.00  0.00    -0.230 C  
BRANCH   3   4
HETATM    4  C   UNL     1      -9.904  10.054  67.428  1.00  0.00    -0.226 C  
BRANCH   4   5
HETATM    5  C   UNL     1     -10.763   8.794  67.467  1.00  0.00    -0.213 C  
BRANCH   5   6
HETATM    6  C   UNL     1      -9.935   7.585  67.890  1.00  0.00    -0.203 C  
BRANCH   6   7
HETATM    7  C   UNL     1      -8.832   7.998  68.855  1.00  0.00    -0.141 C  
BRANCH   7   8
HETATM    8  C   UNL     1      -8.651   6.952  69.949  1.00  0.00    -0.141 C  
BRANCH   8   9
HETATM    9  C   UNL     1      -9.677   5.836  69.800  1.00  0.00    -0.210 C  
BRANCH   9  10
HETATM   10  C   UNL     1      -9.210   4.575  70.518  1.00  0.00    -0.190 C  
BRANCH  10  11
HETATM   11  C   UNL     1     -10.090   4.287  71.730  1.00  0.00    -0.227 C  
BRANCH  11  12
HETATM   12  C   UNL     1      -9.257   4.253  73.003  1.00  0.00    -0.126 C  
BRANCH  12  13
HETATM   13  C   UNL     1      -8.962   5.663  73.498  1.00  0.00    -0.125 C  
BRANCH  13  14
HETATM   14  C   UNL     1     -10.243   6.347  73.963  1.00  0.00    -0.349 C  
BRANCH  14  15
HETATM   15  C   UNL     1     -10.447   7.680  73.249  1.00  0.00    -0.414 C  
BRANCH  15  16
HETATM   16  C   UNL     1     -11.657   7.615  72.320  1.00  0.00    -0.370 C  
BRANCH  16  17
HETATM   17  C   UNL     1     -11.711   8.827  71.394  1.00  0.00    -0.369 C  
HETATM   18  C   UNL     1     -12.999   9.599  71.559  1.00  0.00    -0.395 C  
HETATM   19  O   UNL     1     -13.903   9.315  72.327  1.00  0.00    -0.453 OA 
HETATM   20  O   UNL     1     -13.055  10.676  70.741  1.00  0.00    -0.341 OA 
ENDBRANCH  16  17
ENDBRANCH  15  16
ENDBRANCH  14  15
ENDBRANCH  13  14
ENDBRANCH  12  13
ENDBRANCH  11  12
ENDBRANCH  10  11
ENDBRANCH   9  10
ENDBRANCH   8   9
ENDBRANCH   7   8
ENDBRANCH   6   7
ENDBRANCH   5   6
ENDBRANCH   4   5
ENDBRANCH   3   4
ENDBRANCH   2   3
TORSDOF 15
ENDMDL
MODEL      278
REMARK 921   NORMALIZED FREE ENERGY PREDICTED BY IDOCK:   -3.12 KCAL/MOL
REMARK 922        TOTAL FREE ENERGY PREDICTED BY IDOCK:   -7.66 KCAL/MOL
REMARK 923 INTER-LIGAND FREE ENERGY PREDICTED BY IDOCK:   -4.85 KCAL/MOL
REMARK 924 INTRA-LIGAND FREE ENERGY PREDICTED BY IDOCK:   -2.81 KCAL/MOL
REMARK 927      BINDING AFFINITY PREDICTED BY RF-SCORE:    0.00 PKD
ROOT
HETATM    1  C   UNL     1      -7.801   7.839  70.253  1.00  0.00    -0.091 C  
HETATM    2  C   UNL     1      -8.751   8.624  71.139  1.00  0.00    -0.244 C  
ENDROOT
BRANCH   2   3
HETATM    3  C   UNL     1     -10.063   7.871  71.342  1.00  0.00    -0.212 C  
BRANCH   3   4
HETATM    4  C   UNL     1     -11.112   8.761  72.001  1.00  0.00    -0.441 C  
BRANCH   4   5
HETATM    5  C   UNL     1     -12.395   8.786  71.177  1.00  0.00    -0.258 C  
BRANCH   5   6
HETATM    6  C   UNL     1     -12.924  10.210  71.037  1.00  0.00    -0.473 C  
BRANCH   6   7
HETATM    7  C   UNL     1     -11.856  11.125  70.451  1.00  0.00    -0.462 C  
BRANCH   7   8
HETATM    8  C   UNL     1     -11.788  10.976  68.936  1.00  0.00    -0.378 C  
BRANCH   8   9
HETATM    9  C   UNL     1     -10.411  10.488  68.505  1.00  0.00    -0.210 C  
BRANCH   9  10
HETATM   10  C   UNL     1     -10.485   9.791  67.152  1.00  0.00    -0.316 C  
BRANCH  10  11
HETATM   11  C   UNL     1      -9.940   8.370  67.246  1.00  0.00    -0.291 C  
BRANCH  11  12
HETATM   12  C   UNL     1     -10.933   7.459  67.954  1.00  0.00    -0.065 C  
BRANCH  12  13
HETATM   13  C   UNL     1     -10.682   6.000  67.597  1.00  0.00    -0.377 C  
BRANCH  13  14
HETATM   14  C   UNL     1      -9.192   5.680  67.662  1.00  0.00    -0.106 C  
BRANCH  14  15
HETATM   15  C   UNL     1      -8.928   4.457  68.535  1.00  0.00    -0.151 C  
BRANCH  15  16
HETATM   16  C   UNL     1      -9.865   4.443  69.741  1.00  0.00    -0.284 C  
BRANCH  16  17
HETATM   17  C   UNL     1      -9.083   4.387  71.050  1.00  0.00    -0.185 C  
HETATM   18  C   UNL     1      -9.351   3.106  71.805  1.00  0.00    -0.126 C  
HETATM   19  O   UNL     1     -10.094   2.209  71.442  1.00  0.00    -0.104 OA 
HETATM   20  O   UNL     1      -8.661   3.047  72.969  1.00  0.00    -0.078 OA 
ENDBRANCH  16  17
ENDBRANCH  15  16
ENDBRANCH  14  15
ENDBRANCH  13  14
ENDBRANCH  12  13
ENDBRANCH  11  12
ENDBRANCH  10  11
ENDBRANCH   9  10
ENDBRANCH   8   9
ENDBRANCH   7   8
ENDBRANCH   6   7
ENDBRANCH   5   6
ENDBRANCH   4   5
ENDBRANCH   3   4
ENDBRANCH   2   3
TORSDOF 15
ENDMDL
MODEL      279
REMARK 921   NORMALIZED FREE ENERGY PREDICTED BY IDOCK:   -3.12 KCAL/MOL
REMARK 922        TOTAL FREE ENERGY PREDICTED BY IDOCK:   -7.65 KCAL/MOL
REMARK 923 INTER-LIGAND FREE ENERGY PREDICTED BY IDOCK:   -5.54 KCAL/MOL
REMARK 924 INTRA-LIGAND FREE ENERGY PREDICTED BY IDOCK:   -2.11 KCAL/MOL
REMARK 927      BINDING AFFINITY PREDICTED BY RF-SCORE:    0.00 PKD
ROOT
HETATM    1  C   UNL     1      -7.979   7.962  72.914  1.00  0.00    -0.181 C  
HETATM    2  C   UNL     1      -9.447   8.226  72.628  1.00  0.00    -0.354 C  
ENDROOT
BRANCH   2   3
HETATM    3  C   UNL     1     -10.342   7.280  73.425  1.00  0.00    -0.410 C  
BRANCH   3   4
HETATM    4  C   UNL     1     -10.912   6.182  72.533  1.00  0.00    -0.296 C  
BRANCH   4   5
HETATM    5  C   UNL     1     -12.190   6.651  71.847  1.00  0.00    -0.381 C  
BRANCH   5   6
HETATM    6  C   UNL     1     -11.961   6.861  70.354  1.00  0.00    -0.312 C  
BRANCH   6   7
HETATM    7  C   UNL     1     -10.959   5.847  69.816  1.00  0.00    -0.452 C  
BRANCH   7   8
HETATM    8  C   UNL     1     -10.774   6.015  68.312  1.00  0.00    -0.352 C  
BRANCH   8   9
HETATM    9  C   UNL     1      -9.339   5.703  67.909  1.00  0.00    -0.112 C  
BRANCH   9  10
HETATM   10  C   UNL     1      -8.354   6.475  68.780  1.00  0.00    -0.122 C  
BRANCH  10  11
HETATM   11  C   UNL     1      -8.173   7.897  68.258  1.00  0.00    -0.124 C  
BRANCH  11  12
HETATM   12  C   UNL     1      -8.222   8.899  69.403  1.00  0.00    -0.107 C  
BRANCH  12  13
HETATM   13  C   UNL     1      -8.877  10.200  68.958  1.00  0.00    -0.166 C  
BRANCH  13  14
HETATM   14  C   UNL     1     -10.392  10.117  69.109  1.00  0.00    -0.237 C  
BRANCH  14  15
HETATM   15  C   UNL     1     -11.084  10.148  67.749  1.00  0.00    -0.293 C  
BRANCH  15  16
HETATM   16  C   UNL     1     -10.753  11.438  67.004  1.00  0.00    -0.304 C  
BRANCH  16  17
HETATM   17  C   UNL     1     -11.650  12.586  67.457  1.00  0.00    -0.424 C  
HETATM   18  C   UNL     1     -11.049  13.931  67.122  1.00  0.00    -0.300 C  
HETATM   19  O   UNL     1      -9.981  14.111  66.561  1.00  0.00    -0.266 OA 
HETATM   20  O   UNL     1     -11.839  14.956  67.521  1.00  0.00    -0.350 OA 
ENDBRANCH  16  17
ENDBRANCH  15  16
ENDBRANCH  14  15
ENDBRANCH  13  14
ENDBRANCH  12  13
ENDBRANCH  11  12
ENDBRANCH  10  11
ENDBRANCH   9  10
ENDBRANCH   8   9
ENDBRANCH   7   8
ENDBRANCH   6   7
ENDBRANCH   5   6
ENDBRANCH   4   5
ENDBRANCH   3   4
ENDBRANCH   2   3
TORSDOF 15
ENDMDL
MODEL      280
REMARK 921   NORMALIZED FREE ENERGY PREDICTED BY IDOCK:   -3.11 KCAL/MOL
REMARK 922        TOTAL FREE ENERGY PREDICTED BY IDOCK:   -7.64 KCAL/MOL
REMARK 923 INTER-LIGAND FREE ENERGY PREDICTED BY IDOCK:   -5.72 KCAL/MOL
REMARK 924 INTRA-LIGAND FREE ENERGY PREDICTED BY IDOCK:   -1.92 KCAL/MOL
REMARK 927      BINDING AFFINITY PREDICTED BY RF-SCORE:    0.00 PKD
ROOT
HETATM    1  C   UNL     1      -6.227  13.869  69.414  1.00  0.00    -0.106 C  
HETATM    2  C   UNL     1      -6.542  12.613  68.620  1.00  0.00    -0.083 C  
ENDROOT
BRANCH   2   3
HETATM    3  C   UNL     1      -8.020  12.558  68.242  1.00  0.00    -0.153 C  
BRANCH   3   4
HETATM    4  C   UNL     1      -8.386  11.200  67.653  1.00  0.00    -0.122 C  
BRANCH   4   5
HETATM    5  C   UNL     1      -7.370  10.140  68.066  1.00  0.00    -0.086 C  
BRANCH   5   6
HETATM    6  C   UNL     1      -8.049   9.000  68.819  1.00  0.00    -0.105 C  
BRANCH   6   7
HETATM    7  C   UNL     1      -8.605   9.490  70.150  1.00  0.00    -0.250 C  
BRANCH   7   8
HETATM    8  C   UNL     1      -9.537   8.451  70.762  1.00  0.00    -0.203 C  
BRANCH   8   9
HETATM    9  C   UNL     1     -10.569   9.118  71.660  1.00  0.00    -0.427 C  
BRANCH   9  10
HETATM   10  C   UNL     1     -11.896   9.281  70.929  1.00  0.00    -0.346 C  
BRANCH  10  11
HETATM   11  C   UNL     1     -12.128  10.740  70.548  1.00  0.00    -0.459 C  
BRANCH  11  12
HETATM   12  C   UNL     1     -11.837  10.962  69.071  1.00  0.00    -0.370 C  
BRANCH  12  13
HETATM   13  C   UNL     1     -11.695  12.447  68.763  1.00  0.00    -0.379 C  
BRANCH  13  14
HETATM   14  C   UNL     1     -11.633  12.680  67.257  1.00  0.00    -0.428 C  
BRANCH  14  15
HETATM   15  C   UNL     1     -12.102  14.087  66.897  1.00  0.00    -0.465 C  
BRANCH  15  16
HETATM   16  C   UNL     1     -11.237  15.138  67.589  1.00  0.00    -0.329 C  
BRANCH  16  17
HETATM   17  C   UNL     1      -9.968  15.424  66.792  1.00  0.00    -0.256 C  
HETATM   18  C   UNL     1      -9.850  16.888  66.438  1.00  0.00    -0.305 C  
HETATM   19  O   UNL     1     -10.653  17.758  66.736  1.00  0.00    -0.318 OA 
HETATM   20  O   UNL     1      -8.727  17.153  65.729  1.00  0.00    -0.527 OA 
ENDBRANCH  16  17
ENDBRANCH  15  16
ENDBRANCH  14  15
ENDBRANCH  13  14
ENDBRANCH  12  13
ENDBRANCH  11  12
ENDBRANCH  10  11
ENDBRANCH   9  10
ENDBRANCH   8   9
ENDBRANCH   7   8
ENDBRANCH   6   7
ENDBRANCH   5   6
ENDBRANCH   4   5
ENDBRANCH   3   4
ENDBRANCH   2   3
TORSDOF 15
ENDMDL
MODEL      281
REMARK 921   NORMALIZED FREE ENERGY PREDICTED BY IDOCK:   -3.11 KCAL/MOL
REMARK 922        TOTAL FREE ENERGY PREDICTED BY IDOCK:   -7.64 KCAL/MOL
REMARK 923 INTER-LIGAND FREE ENERGY PREDICTED BY IDOCK:   -6.26 KCAL/MOL
REMARK 924 INTRA-LIGAND FREE ENERGY PREDICTED BY IDOCK:   -1.38 KCAL/MOL
REMARK 927      BINDING AFFINITY PREDICTED BY RF-SCORE:    0.00 PKD
ROOT
HETATM    1  C   UNL     1     -12.118  13.373  63.691  1.00  0.00    -0.513 C  
HETATM    2  C   UNL     1     -12.018  11.862  63.802  1.00  0.00    -0.547 C  
ENDROOT
BRANCH   2   3
HETATM    3  C   UNL     1     -10.570  11.395  63.678  1.00  0.00    -0.476 C  
BRANCH   3   4
HETATM    4  C   UNL     1     -10.207  10.427  64.799  1.00  0.00    -0.319 C  
BRANCH   4   5
HETATM    5  C   UNL     1      -9.699  11.183  66.023  1.00  0.00    -0.263 C  
BRANCH   5   6
HETATM    6  C   UNL     1     -10.696  11.090  67.173  1.00  0.00    -0.313 C  
BRANCH   6   7
HETATM    7  C   UNL     1     -11.439  12.408  67.350  1.00  0.00    -0.418 C  
BRANCH   7   8
HETATM    8  C   UNL     1     -12.006  12.524  68.760  1.00  0.00    -0.283 C  
BRANCH   8   9
HETATM    9  C   UNL     1     -11.555  11.349  69.618  1.00  0.00    -0.399 C  
BRANCH   9  10
HETATM   10  C   UNL     1     -12.379  11.270  70.898  1.00  0.00    -0.490 C  
BRANCH  10  11
HETATM   11  C   UNL     1     -12.353   9.856  71.470  1.00  0.00    -0.504 C  
BRANCH  11  12
HETATM   12  C   UNL     1     -11.240   9.039  70.830  1.00  0.00    -0.348 C  
BRANCH  12  13
HETATM   13  C   UNL     1     -11.590   7.556  70.824  1.00  0.00    -0.300 C  
BRANCH  13  14
HETATM   14  C   UNL     1     -10.536   6.753  71.579  1.00  0.00    -0.236 C  
BRANCH  14  15
HETATM   15  C   UNL     1      -9.660   5.953  70.618  1.00  0.00    -0.208 C  
BRANCH  15  16
HETATM   16  C   UNL     1      -8.458   6.780  70.168  1.00  0.00    -0.139 C  
BRANCH  16  17
HETATM   17  C   UNL     1      -7.279   6.609  71.121  1.00  0.00    -0.078 C  
HETATM   18  C   UNL     1      -7.029   7.860  71.930  1.00  0.00    -0.070 C  
HETATM   19  O   UNL     1      -7.671   8.895  71.854  1.00  0.00    -0.310 OA 
HETATM   20  O   UNL     1      -5.984   7.717  72.779  1.00  0.00    -0.043 OA 
ENDBRANCH  16  17
ENDBRANCH  15  16
ENDBRANCH  14  15
ENDBRANCH  13  14
ENDBRANCH  12  13
ENDBRANCH  11  12
ENDBRANCH  10  11
ENDBRANCH   9  10
ENDBRANCH   8   9
ENDBRANCH   7   8
ENDBRANCH   6   7
ENDBRANCH   5   6
ENDBRANCH   4   5
ENDBRANCH   3   4
ENDBRANCH   2   3
TORSDOF 15
ENDMDL
MODEL      282
REMARK 921   NORMALIZED FREE ENERGY PREDICTED BY IDOCK:   -3.10 KCAL/MOL
REMARK 922        TOTAL FREE ENERGY PREDICTED BY IDOCK:   -7.62 KCAL/MOL
REMARK 923 INTER-LIGAND FREE ENERGY PREDICTED BY IDOCK:   -5.78 KCAL/MOL
REMARK 924 INTRA-LIGAND FREE ENERGY PREDICTED BY IDOCK:   -1.84 KCAL/MOL
REMARK 927      BINDING AFFINITY PREDICTED BY RF-SCORE:    0.00 PKD
ROOT
HETATM    1  C   UNL     1      -8.761   7.166  71.921  1.00  0.00    -0.126 C  
HETATM    2  C   UNL     1     -10.195   6.790  72.248  1.00  0.00    -0.210 C  
ENDROOT
BRANCH   2   3
HETATM    3  C   UNL     1     -10.588   5.478  71.573  1.00  0.00    -0.302 C  
BRANCH   3   4
HETATM    4  C   UNL     1      -9.443   4.931  70.728  1.00  0.00    -0.232 C  
BRANCH   4   5
HETATM    5  C   UNL     1      -9.931   4.555  69.333  1.00  0.00    -0.212 C  
BRANCH   5   6
HETATM    6  C   UNL     1      -9.608   5.656  68.329  1.00  0.00    -0.145 C  
BRANCH   6   7
HETATM    7  C   UNL     1     -10.885   6.309  67.815  1.00  0.00    -0.424 C  
BRANCH   7   8
HETATM    8  C   UNL     1     -10.578   7.644  67.148  1.00  0.00    -0.410 C  
BRANCH   8   9
HETATM    9  C   UNL     1      -9.797   8.550  68.091  1.00  0.00    -0.192 C  
BRANCH   9  10
HETATM   10  C   UNL     1     -10.643   8.926  69.302  1.00  0.00    -0.219 C  
BRANCH  10  11
HETATM   11  C   UNL     1     -10.488  10.407  69.629  1.00  0.00    -0.279 C  
BRANCH  11  12
HETATM   12  C   UNL     1     -11.826  11.124  69.519  1.00  0.00    -0.423 C  
BRANCH  12  13
HETATM   13  C   UNL     1     -11.806  12.140  68.383  1.00  0.00    -0.360 C  
BRANCH  13  14
HETATM   14  C   UNL     1     -10.402  12.265  67.800  1.00  0.00    -0.216 C  
BRANCH  14  15
HETATM   15  C   UNL     1     -10.422  13.015  66.471  1.00  0.00    -0.284 C  
BRANCH  15  16
HETATM   16  C   UNL     1     -11.181  12.219  65.413  1.00  0.00    -0.372 C  
BRANCH  16  17
HETATM   17  C   UNL     1     -10.557  12.395  64.032  1.00  0.00    -0.444 C  
HETATM   18  C   UNL     1      -9.861  11.136  63.569  1.00  0.00    -0.353 C  
HETATM   19  O   UNL     1      -9.790  10.092  64.197  1.00  0.00    -0.305 OA 
HETATM   20  O   UNL     1      -9.303  11.283  62.344  1.00  0.00    -0.272 OA 
ENDBRANCH  16  17
ENDBRANCH  15  16
ENDBRANCH  14  15
ENDBRANCH  13  14
ENDBRANCH  12  13
ENDBRANCH  11  12
ENDBRANCH  10  11
ENDBRANCH   9  10
ENDBRANCH   8   9
ENDBRANCH   7   8
ENDBRANCH   6   7
ENDBRANCH   5   6
ENDBRANCH   4   5
ENDBRANCH   3   4
ENDBRANCH   2   3
TORSDOF 15
ENDMDL
MODEL      283
REMARK 921   NORMALIZED FREE ENERGY PREDICTED BY IDOCK:   -3.10 KCAL/MOL
REMARK 922        TOTAL FREE ENERGY PREDICTED BY IDOCK:   -7.61 KCAL/MOL
REMARK 923 INTER-LIGAND FREE ENERGY PREDICTED BY IDOCK:   -6.60 KCAL/MOL
REMARK 924 INTRA-LIGAND FREE ENERGY PREDICTED BY IDOCK:   -1.01 KCAL/MOL
REMARK 927      BINDING AFFINITY PREDICTED BY RF-SCORE:    0.00 PKD
ROOT
HETATM    1  C   UNL     1      -8.242   4.460  70.377  1.00  0.00    -0.074 C  
HETATM    2  C   UNL     1      -8.988   5.685  69.883  1.00  0.00    -0.142 C  
ENDROOT
BRANCH   2   3
HETATM    3  C   UNL     1     -10.183   5.290  69.017  1.00  0.00    -0.269 C  
BRANCH   3   4
HETATM    4  C   UNL     1     -11.001   6.514  68.619  1.00  0.00    -0.363 C  
BRANCH   4   5
HETATM    5  C   UNL     1     -10.939   6.740  67.112  1.00  0.00    -0.458 C  
BRANCH   5   6
HETATM    6  C   UNL     1     -10.037   7.923  66.776  1.00  0.00    -0.352 C  
BRANCH   6   7
HETATM    7  C   UNL     1     -10.543   9.193  67.447  1.00  0.00    -0.315 C  
BRANCH   7   8
HETATM    8  C   UNL     1     -10.271  10.412  66.573  1.00  0.00    -0.289 C  
BRANCH   8   9
HETATM    9  C   UNL     1      -9.873   9.985  65.166  1.00  0.00    -0.388 C  
BRANCH   9  10
HETATM   10  C   UNL     1     -10.335  11.014  64.140  1.00  0.00    -0.434 C  
BRANCH  10  11
HETATM   11  C   UNL     1     -11.583  11.741  64.629  1.00  0.00    -0.270 C  
BRANCH  11  12
HETATM   12  C   UNL     1     -11.882  12.946  63.749  1.00  0.00    -0.571 C  
BRANCH  12  13
HETATM   13  C   UNL     1     -11.979  14.217  64.583  1.00  0.00    -0.459 C  
BRANCH  13  14
HETATM   14  C   UNL     1     -10.641  14.530  65.243  1.00  0.00    -0.400 C  
BRANCH  14  15
HETATM   15  C   UNL     1     -10.484  16.027  65.490  1.00  0.00    -0.426 C  
BRANCH  15  16
HETATM   16  C   UNL     1      -9.568  16.284  66.685  1.00  0.00    -0.264 C  
BRANCH  16  17
HETATM   17  C   UNL     1      -8.145  16.597  66.235  1.00  0.00    -0.361 C  
HETATM   18  C   UNL     1      -7.855  18.079  66.290  1.00  0.00    -0.253 C  
HETATM   19  O   UNL     1      -8.639  18.943  66.645  1.00  0.00    -0.286 OA 
HETATM   20  O   UNL     1      -6.593  18.367  65.892  1.00  0.00    -0.224 OA 
ENDBRANCH  16  17
ENDBRANCH  15  16
ENDBRANCH  14  15
ENDBRANCH  13  14
ENDBRANCH  12  13
ENDBRANCH  11  12
ENDBRANCH  10  11
ENDBRANCH   9  10
ENDBRANCH   8   9
ENDBRANCH   7   8
ENDBRANCH   6   7
ENDBRANCH   5   6
ENDBRANCH   4   5
ENDBRANCH   3   4
ENDBRANCH   2   3
TORSDOF 15
ENDMDL
MODEL      284
REMARK 921   NORMALIZED FREE ENERGY PREDICTED BY IDOCK:   -3.09 KCAL/MOL
REMARK 922        TOTAL FREE ENERGY PREDICTED BY IDOCK:   -7.60 KCAL/MOL
REMARK 923 INTER-LIGAND FREE ENERGY PREDICTED BY IDOCK:   -4.76 KCAL/MOL
REMARK 924 INTRA-LIGAND FREE ENERGY PREDICTED BY IDOCK:   -2.84 KCAL/MOL
REMARK 927      BINDING AFFINITY PREDICTED BY RF-SCORE:    0.00 PKD
ROOT
HETATM    1  C   UNL     1      -8.261   4.965  67.456  1.00  0.00    -0.105 C  
HETATM    2  C   UNL     1      -9.331   5.556  66.556  1.00  0.00    -0.154 C  
ENDROOT
BRANCH   2   3
HETATM    3  C   UNL     1     -10.469   6.160  67.376  1.00  0.00    -0.309 C  
BRANCH   3   4
HETATM    4  C   UNL     1     -10.781   7.581  66.919  1.00  0.00    -0.299 C  
BRANCH   4   5
HETATM    5  C   UNL     1      -9.570   8.208  66.235  1.00  0.00    -0.248 C  
BRANCH   5   6
HETATM    6  C   UNL     1      -9.218   9.548  66.873  1.00  0.00    -0.174 C  
BRANCH   6   7
HETATM    7  C   UNL     1      -7.745   9.592  67.255  1.00  0.00    -0.091 C  
BRANCH   7   8
HETATM    8  C   UNL     1      -7.441   8.585  68.358  1.00  0.00    -0.095 C  
BRANCH   8   9
HETATM    9  C   UNL     1      -8.083   9.015  69.670  1.00  0.00    -0.103 C  
BRANCH   9  10
HETATM   10  C   UNL     1      -8.944   7.895  70.242  1.00  0.00    -0.151 C  
BRANCH  10  11
HETATM   11  C   UNL     1     -10.370   8.381  70.485  1.00  0.00    -0.220 C  
BRANCH  11  12
HETATM   12  C   UNL     1     -10.463   9.888  70.298  1.00  0.00    -0.348 C  
BRANCH  12  13
HETATM   13  C   UNL     1     -11.643  10.253  69.406  1.00  0.00    -0.213 C  
BRANCH  13  14
HETATM   14  C   UNL     1     -12.539  11.278  70.094  1.00  0.00    -0.207 C  
BRANCH  14  15
HETATM   15  C   UNL     1     -11.829  12.621  70.239  1.00  0.00    -0.295 C  
BRANCH  15  16
HETATM   16  C   UNL     1     -12.160  13.536  69.062  1.00  0.00    -0.330 C  
BRANCH  16  17
HETATM   17  C   UNL     1     -10.949  13.732  68.156  1.00  0.00    -0.265 C  
HETATM   18  C   UNL     1     -11.083  12.954  66.868  1.00  0.00    -0.278 C  
HETATM   19  O   UNL     1     -12.028  12.247  66.561  1.00  0.00    -0.596 OA 
HETATM   20  O   UNL     1     -10.012  13.122  66.056  1.00  0.00    -0.278 OA 
ENDBRANCH  16  17
ENDBRANCH  15  16
ENDBRANCH  14  15
ENDBRANCH  13  14
ENDBRANCH  12  13
ENDBRANCH  11  12
ENDBRANCH  10  11
ENDBRANCH   9  10
ENDBRANCH   8   9
ENDBRANCH   7   8
ENDBRANCH   6   7
ENDBRANCH   5   6
ENDBRANCH   4   5
ENDBRANCH   3   4
ENDBRANCH   2   3
TORSDOF 15
ENDMDL
MODEL      285
REMARK 921   NORMALIZED FREE ENERGY PREDICTED BY IDOCK:   -3.08 KCAL/MOL
REMARK 922        TOTAL FREE ENERGY PREDICTED BY IDOCK:   -7.58 KCAL/MOL
REMARK 923 INTER-LIGAND FREE ENERGY PREDICTED BY IDOCK:   -5.82 KCAL/MOL
REMARK 924 INTRA-LIGAND FREE ENERGY PREDICTED BY IDOCK:   -1.76 KCAL/MOL
REMARK 927      BINDING AFFINITY PREDICTED BY RF-SCORE:    0.00 PKD
ROOT
HETATM    1  C   UNL     1      -9.906   5.586  69.111  1.00  0.00    -0.227 C  
HETATM    2  C   UNL     1      -8.863   5.306  70.178  1.00  0.00    -0.144 C  
ENDROOT
BRANCH   2   3
HETATM    3  C   UNL     1      -9.311   4.177  71.103  1.00  0.00    -0.219 C  
BRANCH   3   4
HETATM    4  C   UNL     1      -8.344   4.008  72.270  1.00  0.00    -0.098 C  
BRANCH   4   5
HETATM    5  C   UNL     1      -8.991   4.455  73.577  1.00  0.00    -0.100 C  
BRANCH   5   6
HETATM    6  C   UNL     1      -8.204   5.598  74.211  1.00  0.00    -0.104 C  
BRANCH   6   7
HETATM    7  C   UNL     1      -8.824   6.942  73.852  1.00  0.00    -0.192 C  
BRANCH   7   8
HETATM    8  C   UNL     1     -10.345   6.857  73.865  1.00  0.00    -0.398 C  
BRANCH   8   9
HETATM    9  C   UNL     1     -10.938   7.654  72.711  1.00  0.00    -0.432 C  
BRANCH   9  10
HETATM   10  C   UNL     1      -9.839   8.339  71.907  1.00  0.00    -0.300 C  
BRANCH  10  11
HETATM   11  C   UNL     1     -10.424   9.422  71.006  1.00  0.00    -0.392 C  
BRANCH  11  12
HETATM   12  C   UNL     1     -11.860   9.731  71.402  1.00  0.00    -0.488 C  
BRANCH  12  13
HETATM   13  C   UNL     1     -12.444  10.826  70.517  1.00  0.00    -0.447 C  
BRANCH  13  14
HETATM   14  C   UNL     1     -11.369  11.407  69.604  1.00  0.00    -0.347 C  
BRANCH  14  15
HETATM   15  C   UNL     1     -11.665  12.865  69.264  1.00  0.00    -0.378 C  
BRANCH  15  16
HETATM   16  C   UNL     1     -11.905  13.031  67.765  1.00  0.00    -0.395 C  
BRANCH  16  17
HETATM   17  C   UNL     1     -11.210  14.278  67.227  1.00  0.00    -0.330 C  
HETATM   18  C   UNL     1      -9.950  13.931  66.468  1.00  0.00    -0.285 C  
HETATM   19  O   UNL     1      -9.515  12.805  66.290  1.00  0.00    -0.243 OA 
HETATM   20  O   UNL     1      -9.325  15.032  65.987  1.00  0.00    -0.304 OA 
ENDBRANCH  16  17
ENDBRANCH  15  16
ENDBRANCH  14  15
ENDBRANCH  13  14
ENDBRANCH  12  13
ENDBRANCH  11  12
ENDBRANCH  10  11
ENDBRANCH   9  10
ENDBRANCH   8   9
ENDBRANCH   7   8
ENDBRANCH   6   7
ENDBRANCH   5   6
ENDBRANCH   4   5
ENDBRANCH   3   4
ENDBRANCH   2   3
TORSDOF 15
ENDMDL
MODEL      286
REMARK 921   NORMALIZED FREE ENERGY PREDICTED BY IDOCK:   -3.08 KCAL/MOL
REMARK 922        TOTAL FREE ENERGY PREDICTED BY IDOCK:   -7.58 KCAL/MOL
REMARK 923 INTER-LIGAND FREE ENERGY PREDICTED BY IDOCK:   -6.12 KCAL/MOL
REMARK 924 INTRA-LIGAND FREE ENERGY PREDICTED BY IDOCK:   -1.46 KCAL/MOL
REMARK 927      BINDING AFFINITY PREDICTED BY RF-SCORE:    0.00 PKD
ROOT
HETATM    1  C   UNL     1      -6.376  18.681  68.053  1.00  0.00    -0.209 C  
HETATM    2  C   UNL     1      -6.777  19.655  66.960  1.00  0.00    -0.212 C  
ENDROOT
BRANCH   2   3
HETATM    3  C   UNL     1      -7.852  20.622  67.452  1.00  0.00    -0.329 C  
BRANCH   3   4
HETATM    4  C   UNL     1      -8.913  19.893  68.270  1.00  0.00    -0.294 C  
BRANCH   4   5
HETATM    5  C   UNL     1     -10.267  19.945  67.569  1.00  0.00    -0.562 C  
BRANCH   5   6
HETATM    6  C   UNL     1     -10.231  19.165  66.259  1.00  0.00    -0.527 C  
BRANCH   6   7
HETATM    7  C   UNL     1     -10.456  17.679  66.510  1.00  0.00    -0.283 C  
BRANCH   7   8
HETATM    8  C   UNL     1      -9.329  16.851  65.905  1.00  0.00    -0.129 C  
BRANCH   8   9
HETATM    9  C   UNL     1      -9.737  15.388  65.793  1.00  0.00    -0.385 C  
BRANCH   9  10
HETATM   10  C   UNL     1     -11.255  15.250  65.797  1.00  0.00    -0.247 C  
BRANCH  10  11
HETATM   11  C   UNL     1     -11.682  13.964  65.097  1.00  0.00    -0.357 C  
BRANCH  11  12
HETATM   12  C   UNL     1     -10.545  13.410  64.250  1.00  0.00    -0.358 C  
BRANCH  12  13
HETATM   13  C   UNL     1     -10.581  11.888  64.220  1.00  0.00    -0.381 C  
BRANCH  13  14
HETATM   14  C   UNL     1     -10.334  11.317  65.613  1.00  0.00    -0.310 C  
BRANCH  14  15
HETATM   15  C   UNL     1      -9.222  12.078  66.331  1.00  0.00    -0.216 C  
BRANCH  15  16
HETATM   16  C   UNL     1      -9.297  11.847  67.838  1.00  0.00    -0.187 C  
BRANCH  16  17
HETATM   17  C   UNL     1     -10.433  10.894  68.197  1.00  0.00    -0.211 C  
HETATM   18  C   UNL     1     -11.519  11.590  68.985  1.00  0.00    -0.291 C  
HETATM   19  O   UNL     1     -11.516  12.766  69.310  1.00  0.00    -0.274 OA 
HETATM   20  O   UNL     1     -12.531  10.752  69.308  1.00  0.00    -0.356 OA 
ENDBRANCH  16  17
ENDBRANCH  15  16
ENDBRANCH  14  15
ENDBRANCH  13  14
ENDBRANCH  12  13
ENDBRANCH  11  12
ENDBRANCH  10  11
ENDBRANCH   9  10
ENDBRANCH   8   9
ENDBRANCH   7   8
ENDBRANCH   6   7
ENDBRANCH   5   6
ENDBRANCH   4   5
ENDBRANCH   3   4
ENDBRANCH   2   3
TORSDOF 15
ENDMDL
MODEL      287
REMARK 921   NORMALIZED FREE ENERGY PREDICTED BY IDOCK:   -3.08 KCAL/MOL
REMARK 922        TOTAL FREE ENERGY PREDICTED BY IDOCK:   -7.58 KCAL/MOL
REMARK 923 INTER-LIGAND FREE ENERGY PREDICTED BY IDOCK:   -6.51 KCAL/MOL
REMARK 924 INTRA-LIGAND FREE ENERGY PREDICTED BY IDOCK:   -1.06 KCAL/MOL
REMARK 927      BINDING AFFINITY PREDICTED BY RF-SCORE:    0.00 PKD
ROOT
HETATM    1  C   UNL     1      -9.968   4.394  71.649  1.00  0.00    -0.256 C  
HETATM    2  C   UNL     1      -9.486   5.508  70.737  1.00  0.00    -0.209 C  
ENDROOT
BRANCH   2   3
HETATM    3  C   UNL     1     -10.597   5.967  69.795  1.00  0.00    -0.374 C  
BRANCH   3   4
HETATM    4  C   UNL     1     -11.572   6.898  70.507  1.00  0.00    -0.396 C  
BRANCH   4   5
HETATM    5  C   UNL     1     -11.040   8.328  70.524  1.00  0.00    -0.259 C  
BRANCH   5   6
HETATM    6  C   UNL     1     -10.424   8.694  69.178  1.00  0.00    -0.223 C  
BRANCH   6   7
HETATM    7  C   UNL     1     -10.437  10.203  68.972  1.00  0.00    -0.239 C  
BRANCH   7   8
HETATM    8  C   UNL     1     -11.061  10.561  67.629  1.00  0.00    -0.375 C  
BRANCH   8   9
HETATM    9  C   UNL     1     -10.206  10.038  66.482  1.00  0.00    -0.291 C  
BRANCH   9  10
HETATM   10  C   UNL     1      -9.930  11.142  65.469  1.00  0.00    -0.298 C  
BRANCH  10  11
HETATM   11  C   UNL     1     -11.113  12.101  65.379  1.00  0.00    -0.362 C  
BRANCH  11  12
HETATM   12  C   UNL     1     -10.669  13.451  64.834  1.00  0.00    -0.381 C  
BRANCH  12  13
HETATM   13  C   UNL     1     -11.352  14.590  65.581  1.00  0.00    -0.336 C  
BRANCH  13  14
HETATM   14  C   UNL     1     -11.106  14.471  67.081  1.00  0.00    -0.325 C  
BRANCH  14  15
HETATM   15  C   UNL     1     -10.062  15.480  67.550  1.00  0.00    -0.241 C  
BRANCH  15  16
HETATM   16  C   UNL     1     -10.728  16.785  67.980  1.00  0.00    -0.355 C  
BRANCH  16  17
HETATM   17  C   UNL     1     -10.535  17.878  66.933  1.00  0.00    -0.334 C  
HETATM   18  C   UNL     1     -10.190  19.205  67.567  1.00  0.00    -0.403 C  
HETATM   19  O   UNL     1     -10.073  19.411  68.764  1.00  0.00    -0.432 OA 
HETATM   20  O   UNL     1     -10.016  20.181  66.645  1.00  0.00    -0.425 OA 
ENDBRANCH  16  17
ENDBRANCH  15  16
ENDBRANCH  14  15
ENDBRANCH  13  14
ENDBRANCH  12  13
ENDBRANCH  11  12
ENDBRANCH  10  11
ENDBRANCH   9  10
ENDBRANCH   8   9
ENDBRANCH   7   8
ENDBRANCH   6   7
ENDBRANCH   5   6
ENDBRANCH   4   5
ENDBRANCH   3   4
ENDBRANCH   2   3
TORSDOF 15
ENDMDL
MODEL      288
REMARK 921   NORMALIZED FREE ENERGY PREDICTED BY IDOCK:   -3.07 KCAL/MOL
REMARK 922        TOTAL FREE ENERGY PREDICTED BY IDOCK:   -7.56 KCAL/MOL
REMARK 923 INTER-LIGAND FREE ENERGY PREDICTED BY IDOCK:   -6.62 KCAL/MOL
REMARK 924 INTRA-LIGAND FREE ENERGY PREDICTED BY IDOCK:   -0.94 KCAL/MOL
REMARK 927      BINDING AFFINITY PREDICTED BY RF-SCORE:    0.00 PKD
ROOT
HETATM    1  C   UNL     1     -10.783   2.421  73.361  1.00  0.00    -0.267 C  
HETATM    2  C   UNL     1     -10.401   1.662  72.103  1.00  0.00    -0.214 C  
ENDROOT
BRANCH   2   3
HETATM    3  C   UNL     1      -9.745   2.587  71.080  1.00  0.00    -0.180 C  
BRANCH   3   4
HETATM    4  C   UNL     1      -9.544   3.985  71.654  1.00  0.00    -0.230 C  
BRANCH   4   5
HETATM    5  C   UNL     1      -9.942   5.050  70.637  1.00  0.00    -0.300 C  
BRANCH   5   6
HETATM    6  C   UNL     1      -9.937   6.437  71.271  1.00  0.00    -0.204 C  
BRANCH   6   7
HETATM    7  C   UNL     1      -9.610   7.503  70.233  1.00  0.00    -0.165 C  
BRANCH   7   8
HETATM    8  C   UNL     1     -10.798   8.434  70.022  1.00  0.00    -0.225 C  
BRANCH   8   9
HETATM    9  C   UNL     1     -10.652   9.692  70.869  1.00  0.00    -0.386 C  
BRANCH   9  10
HETATM   10  C   UNL     1     -11.704  10.725  70.485  1.00  0.00    -0.449 C  
BRANCH  10  11
HETATM   11  C   UNL     1     -11.737  10.925  68.973  1.00  0.00    -0.391 C  
BRANCH  11  12
HETATM   12  C   UNL     1     -10.965  12.177  68.580  1.00  0.00    -0.276 C  
BRANCH  12  13
HETATM   13  C   UNL     1     -11.710  13.433  69.012  1.00  0.00    -0.368 C  
BRANCH  13  14
HETATM   14  C   UNL     1     -11.285  14.628  68.165  1.00  0.00    -0.304 C  
BRANCH  14  15
HETATM   15  C   UNL     1     -10.435  14.186  66.976  1.00  0.00    -0.271 C  
BRANCH  15  16
HETATM   16  C   UNL     1     -11.118  14.550  65.660  1.00  0.00    -0.327 C  
BRANCH  16  17
HETATM   17  C   UNL     1     -10.865  13.490  64.593  1.00  0.00    -0.416 C  
HETATM   18  C   UNL     1     -12.099  12.659  64.327  1.00  0.00    -0.426 C  
HETATM   19  O   UNL     1     -13.178  12.794  64.881  1.00  0.00    -0.808 OA 
HETATM   20  O   UNL     1     -11.884  11.715  63.381  1.00  0.00    -0.415 OA 
ENDBRANCH  16  17
ENDBRANCH  15  16
ENDBRANCH  14  15
ENDBRANCH  13  14
ENDBRANCH  12  13
ENDBRANCH  11  12
ENDBRANCH  10  11
ENDBRANCH   9  10
ENDBRANCH   8   9
ENDBRANCH   7   8
ENDBRANCH   6   7
ENDBRANCH   5   6
ENDBRANCH   4   5
ENDBRANCH   3   4
ENDBRANCH   2   3
TORSDOF 15
ENDMDL
MODEL      289
REMARK 921   NORMALIZED FREE ENERGY PREDICTED BY IDOCK:   -3.07 KCAL/MOL
REMARK 922        TOTAL FREE ENERGY PREDICTED BY IDOCK:   -7.55 KCAL/MOL
REMARK 923 INTER-LIGAND FREE ENERGY PREDICTED BY IDOCK:   -6.65 KCAL/MOL
REMARK 924 INTRA-LIGAND FREE ENERGY PREDICTED BY IDOCK:   -0.90 KCAL/MOL
REMARK 927      BINDING AFFINITY PREDICTED BY RF-SCORE:    0.00 PKD
ROOT
HETATM    1  C   UNL     1     -13.766  15.291  72.769  1.00  0.00    -0.584 C  
HETATM    2  C   UNL     1     -12.451  14.812  72.181  1.00  0.00    -0.409 C  
ENDROOT
BRANCH   2   3
HETATM    3  C   UNL     1     -11.609  15.986  71.685  1.00  0.00    -0.538 C  
BRANCH   3   4
HETATM    4  C   UNL     1     -11.093  15.734  70.273  1.00  0.00    -0.372 C  
BRANCH   4   5
HETATM    5  C   UNL     1     -12.158  15.048  69.422  1.00  0.00    -0.290 C  
BRANCH   5   6
HETATM    6  C   UNL     1     -11.616  14.719  68.035  1.00  0.00    -0.367 C  
BRANCH   6   7
HETATM    7  C   UNL     1     -11.776  13.235  67.732  1.00  0.00    -0.398 C  
BRANCH   7   8
HETATM    8  C   UNL     1     -10.425  12.596  67.433  1.00  0.00    -0.233 C  
BRANCH   8   9
HETATM    9  C   UNL     1     -10.584  11.430  66.467  1.00  0.00    -0.309 C  
BRANCH   9  10
HETATM   10  C   UNL     1     -10.847  10.134  67.225  1.00  0.00    -0.295 C  
BRANCH  10  11
HETATM   11  C   UNL     1     -10.042   8.985  66.625  1.00  0.00    -0.355 C  
BRANCH  11  12
HETATM   12  C   UNL     1      -8.905   8.584  67.553  1.00  0.00    -0.139 C  
BRANCH  12  13
HETATM   13  C   UNL     1      -9.133   7.189  68.121  1.00  0.00    -0.133 C  
BRANCH  13  14
HETATM   14  C   UNL     1      -9.841   7.268  69.470  1.00  0.00    -0.163 C  
BRANCH  14  15
HETATM   15  C   UNL     1     -10.206   5.878  69.983  1.00  0.00    -0.286 C  
BRANCH  15  16
HETATM   16  C   UNL     1     -11.072   5.975  71.237  1.00  0.00    -0.337 C  
BRANCH  16  17
HETATM   17  C   UNL     1     -12.352   6.761  70.966  1.00  0.00    -0.370 C  
HETATM   18  C   UNL     1     -12.424   8.016  71.804  1.00  0.00    -0.324 C  
HETATM   19  O   UNL     1     -11.582   8.383  72.607  1.00  0.00    -0.385 OA 
HETATM   20  O   UNL     1     -13.557   8.720  71.571  1.00  0.00    -0.362 OA 
ENDBRANCH  16  17
ENDBRANCH  15  16
ENDBRANCH  14  15
ENDBRANCH  13  14
ENDBRANCH  12  13
ENDBRANCH  11  12
ENDBRANCH  10  11
ENDBRANCH   9  10
ENDBRANCH   8   9
ENDBRANCH   7   8
ENDBRANCH   6   7
ENDBRANCH   5   6
ENDBRANCH   4   5
ENDBRANCH   3   4
ENDBRANCH   2   3
TORSDOF 15
ENDMDL
MODEL      290
REMARK 921   NORMALIZED FREE ENERGY PREDICTED BY IDOCK:   -3.06 KCAL/MOL
REMARK 922        TOTAL FREE ENERGY PREDICTED BY IDOCK:   -7.54 KCAL/MOL
REMARK 923 INTER-LIGAND FREE ENERGY PREDICTED BY IDOCK:   -6.12 KCAL/MOL
REMARK 924 INTRA-LIGAND FREE ENERGY PREDICTED BY IDOCK:   -1.41 KCAL/MOL
REMARK 927      BINDING AFFINITY PREDICTED BY RF-SCORE:    0.00 PKD
ROOT
HETATM    1  C   UNL     1     -10.595   8.624  71.187  1.00  0.00    -0.291 C  
HETATM    2  C   UNL     1     -10.445   9.843  70.295  1.00  0.00    -0.348 C  
ENDROOT
BRANCH   2   3
HETATM    3  C   UNL     1     -10.827   9.519  68.852  1.00  0.00    -0.177 C  
BRANCH   3   4
HETATM    4  C   UNL     1     -11.375  10.751  68.140  1.00  0.00    -0.377 C  
BRANCH   4   5
HETATM    5  C   UNL     1     -10.303  11.390  67.262  1.00  0.00    -0.230 C  
BRANCH   5   6
HETATM    6  C   UNL     1      -9.456  10.323  66.576  1.00  0.00    -0.212 C  
BRANCH   6   7
HETATM    7  C   UNL     1      -9.938  10.086  65.151  1.00  0.00    -0.350 C  
BRANCH   7   8
HETATM    8  C   UNL     1      -9.899  11.379  64.345  1.00  0.00    -0.303 C  
BRANCH   8   9
HETATM    9  C   UNL     1     -10.998  11.388  63.290  1.00  0.00    -0.250 C  
BRANCH   9  10
HETATM   10  C   UNL     1     -11.847  12.649  63.407  1.00  0.00    -0.594 C  
BRANCH  10  11
HETATM   11  C   UNL     1     -12.719  12.598  64.658  1.00  0.00    -0.458 C  
BRANCH  11  12
HETATM   12  C   UNL     1     -12.482  13.825  65.527  1.00  0.00    -0.548 C  
BRANCH  12  13
HETATM   13  C   UNL     1     -11.001  14.174  65.582  1.00  0.00    -0.308 C  
BRANCH  13  14
HETATM   14  C   UNL     1     -10.790  15.663  65.329  1.00  0.00    -0.420 C  
BRANCH  14  15
HETATM   15  C   UNL     1     -10.010  16.311  66.470  1.00  0.00    -0.290 C  
BRANCH  15  16
HETATM   16  C   UNL     1      -8.629  15.675  66.609  1.00  0.00    -0.330 C  
BRANCH  16  17
HETATM   17  C   UNL     1      -8.176  15.646  68.066  1.00  0.00    -0.146 C  
HETATM   18  C   UNL     1      -6.972  16.531  68.294  1.00  0.00    -0.143 C  
HETATM   19  O   UNL     1      -6.409  17.196  67.440  1.00  0.00    -0.130 OA 
HETATM   20  O   UNL     1      -6.563  16.512  69.584  1.00  0.00    -0.218 OA 
ENDBRANCH  16  17
ENDBRANCH  15  16
ENDBRANCH  14  15
ENDBRANCH  13  14
ENDBRANCH  12  13
ENDBRANCH  11  12
ENDBRANCH  10  11
ENDBRANCH   9  10
ENDBRANCH   8   9
ENDBRANCH   7   8
ENDBRANCH   6   7
ENDBRANCH   5   6
ENDBRANCH   4   5
ENDBRANCH   3   4
ENDBRANCH   2   3
TORSDOF 15
ENDMDL
MODEL      291
REMARK 921   NORMALIZED FREE ENERGY PREDICTED BY IDOCK:   -3.06 KCAL/MOL
REMARK 922        TOTAL FREE ENERGY PREDICTED BY IDOCK:   -7.54 KCAL/MOL
REMARK 923 INTER-LIGAND FREE ENERGY PREDICTED BY IDOCK:   -6.05 KCAL/MOL
REMARK 924 INTRA-LIGAND FREE ENERGY PREDICTED BY IDOCK:   -1.49 KCAL/MOL
REMARK 927      BINDING AFFINITY PREDICTED BY RF-SCORE:    0.00 PKD
ROOT
HETATM    1  C   UNL     1     -10.833   6.448  67.995  1.00  0.00    -0.396 C  
HETATM    2  C   UNL     1     -11.263   6.183  69.427  1.00  0.00    -0.466 C  
ENDROOT
BRANCH   2   3
HETATM    3  C   UNL     1     -10.732   7.261  70.369  1.00  0.00    -0.253 C  
BRANCH   3   4
HETATM    4  C   UNL     1     -11.644   8.484  70.374  1.00  0.00    -0.075 C  
BRANCH   4   5
HETATM    5  C   UNL     1     -10.886   9.726  69.917  1.00  0.00    -0.306 C  
BRANCH   5   6
HETATM    6  C   UNL     1      -9.389   9.572  70.168  1.00  0.00    -0.286 C  
BRANCH   6   7
HETATM    7  C   UNL     1      -8.586  10.230  69.054  1.00  0.00    -0.162 C  
BRANCH   7   8
HETATM    8  C   UNL     1      -9.496  10.644  67.903  1.00  0.00    -0.168 C  
BRANCH   8   9
HETATM    9  C   UNL     1      -8.734  10.633  66.585  1.00  0.00    -0.144 C  
BRANCH   9  10
HETATM   10  C   UNL     1      -9.516   9.879  65.516  1.00  0.00    -0.313 C  
BRANCH  10  11
HETATM   11  C   UNL     1      -9.504  10.645  64.197  1.00  0.00    -0.327 C  
BRANCH  11  12
HETATM   12  C   UNL     1     -10.906  11.117  63.837  1.00  0.00    -0.346 C  
BRANCH  12  13
HETATM   13  C   UNL     1     -10.935  12.626  63.634  1.00  0.00    -0.464 C  
BRANCH  13  14
HETATM   14  C   UNL     1     -12.247  13.211  64.144  1.00  0.00    -0.465 C  
BRANCH  14  15
HETATM   15  C   UNL     1     -11.998  14.343  65.137  1.00  0.00    -0.391 C  
BRANCH  15  16
HETATM   16  C   UNL     1     -10.527  14.751  65.132  1.00  0.00    -0.443 C  
BRANCH  16  17
HETATM   17  C   UNL     1      -9.779  14.145  66.314  1.00  0.00    -0.315 C  
HETATM   18  C   UNL     1     -10.019  14.924  67.586  1.00  0.00    -0.226 C  
HETATM   19  O   UNL     1     -10.718  15.919  67.688  1.00  0.00    -0.301 OA 
HETATM   20  O   UNL     1      -9.358  14.393  68.642  1.00  0.00    -0.201 OA 
ENDBRANCH  16  17
ENDBRANCH  15  16
ENDBRANCH  14  15
ENDBRANCH  13  14
ENDBRANCH  12  13
ENDBRANCH  11  12
ENDBRANCH  10  11
ENDBRANCH   9  10
ENDBRANCH   8   9
ENDBRANCH   7   8
ENDBRANCH   6   7
ENDBRANCH   5   6
ENDBRANCH   4   5
ENDBRANCH   3   4
ENDBRANCH   2   3
TORSDOF 15
ENDMDL
MODEL      292
REMARK 921   NORMALIZED FREE ENERGY PREDICTED BY IDOCK:   -3.05 KCAL/MOL
REMARK 922        TOTAL FREE ENERGY PREDICTED BY IDOCK:   -7.53 KCAL/MOL
REMARK 923 INTER-LIGAND FREE ENERGY PREDICTED BY IDOCK:   -5.55 KCAL/MOL
REMARK 924 INTRA-LIGAND FREE ENERGY PREDICTED BY IDOCK:   -1.98 KCAL/MOL
REMARK 927      BINDING AFFINITY PREDICTED BY RF-SCORE:    0.00 PKD
ROOT
HETATM    1  C   UNL     1     -14.296   8.375  71.672  1.00  0.00    -0.536 C  
HETATM    2  C   UNL     1     -12.823   8.044  71.832  1.00  0.00    -0.343 C  
ENDROOT
BRANCH   2   3
HETATM    3  C   UNL     1     -12.428   6.855  70.959  1.00  0.00    -0.364 C  
BRANCH   3   4
HETATM    4  C   UNL     1     -11.051   6.324  71.343  1.00  0.00    -0.339 C  
BRANCH   4   5
HETATM    5  C   UNL     1     -10.214   6.040  70.100  1.00  0.00    -0.267 C  
BRANCH   5   6
HETATM    6  C   UNL     1      -9.783   7.339  69.426  1.00  0.00    -0.161 C  
BRANCH   6   7
HETATM    7  C   UNL     1      -8.830   8.120  70.322  1.00  0.00    -0.141 C  
BRANCH   7   8
HETATM    8  C   UNL     1      -9.454   9.442  70.752  1.00  0.00    -0.307 C  
BRANCH   8   9
HETATM    9  C   UNL     1      -9.871  10.260  69.537  1.00  0.00    -0.244 C  
BRANCH   9  10
HETATM   10  C   UNL     1     -11.390  10.353  69.445  1.00  0.00    -0.310 C  
BRANCH  10  11
HETATM   11  C   UNL     1     -11.845  11.808  69.496  1.00  0.00    -0.402 C  
BRANCH  11  12
HETATM   12  C   UNL     1     -10.836  12.712  68.802  1.00  0.00    -0.267 C  
BRANCH  12  13
HETATM   13  C   UNL     1     -11.414  13.282  67.514  1.00  0.00    -0.361 C  
BRANCH  13  14
HETATM   14  C   UNL     1     -10.614  12.803  66.307  1.00  0.00    -0.275 C  
BRANCH  14  15
HETATM   15  C   UNL     1     -11.388  11.753  65.514  1.00  0.00    -0.283 C  
BRANCH  15  16
HETATM   16  C   UNL     1     -10.436  10.723  64.911  1.00  0.00    -0.324 C  
BRANCH  16  17
HETATM   17  C   UNL     1      -9.155  10.605  65.731  1.00  0.00    -0.208 C  
HETATM   18  C   UNL     1      -7.956  10.320  64.857  1.00  0.00    -0.146 C  
HETATM   19  O   UNL     1      -7.976  10.194  63.643  1.00  0.00    -0.156 OA 
HETATM   20  O   UNL     1      -6.814  10.214  65.576  1.00  0.00    -0.116 OA 
ENDBRANCH  16  17
ENDBRANCH  15  16
ENDBRANCH  14  15
ENDBRANCH  13  14
ENDBRANCH  12  13
ENDBRANCH  11  12
ENDBRANCH  10  11
ENDBRANCH   9  10
ENDBRANCH   8   9
ENDBRANCH   7   8
ENDBRANCH   6   7
ENDBRANCH   5   6
ENDBRANCH   4   5
ENDBRANCH   3   4
ENDBRANCH   2   3
TORSDOF 15
ENDMDL
MODEL      293
REMARK 921   NORMALIZED FREE ENERGY PREDICTED BY IDOCK:   -3.05 KCAL/MOL
REMARK 922        TOTAL FREE ENERGY PREDICTED BY IDOCK:   -7.53 KCAL/MOL
REMARK 923 INTER-LIGAND FREE ENERGY PREDICTED BY IDOCK:   -5.39 KCAL/MOL
REMARK 924 INTRA-LIGAND FREE ENERGY PREDICTED BY IDOCK:   -2.14 KCAL/MOL
REMARK 927      BINDING AFFINITY PREDICTED BY RF-SCORE:    0.00 PKD
ROOT
HETATM    1  C   UNL     1      -9.119  12.676  67.623  1.00  0.00    -0.192 C  
HETATM    2  C   UNL     1      -9.706  13.577  66.552  1.00  0.00    -0.287 C  
ENDROOT
BRANCH   2   3
HETATM    3  C   UNL     1     -10.764  12.842  65.733  1.00  0.00    -0.296 C  
BRANCH   3   4
HETATM    4  C   UNL     1     -10.217  12.436  64.368  1.00  0.00    -0.342 C  
BRANCH   4   5
HETATM    5  C   UNL     1     -10.051  10.922  64.281  1.00  0.00    -0.413 C  
BRANCH   5   6
HETATM    6  C   UNL     1      -8.702  10.490  64.845  1.00  0.00    -0.192 C  
BRANCH   6   7
HETATM    7  C   UNL     1      -8.874   9.347  65.837  1.00  0.00    -0.193 C  
BRANCH   7   8
HETATM    8  C   UNL     1     -10.346   9.138  66.172  1.00  0.00    -0.059 C  
BRANCH   8   9
HETATM    9  C   UNL     1     -10.528   7.914  67.059  1.00  0.00    -0.419 C  
BRANCH   9  10
HETATM   10  C   UNL     1      -9.181   7.415  67.571  1.00  0.00    -0.140 C  
BRANCH  10  11
HETATM   11  C   UNL     1      -9.202   7.267  69.089  1.00  0.00    -0.139 C  
BRANCH  11  12
HETATM   12  C   UNL     1      -8.620   8.505  69.757  1.00  0.00    -0.131 C  
BRANCH  12  13
HETATM   13  C   UNL     1      -9.570   9.048  70.816  1.00  0.00    -0.308 C  
BRANCH  13  14
HETATM   14  C   UNL     1     -10.321  10.266  70.289  1.00  0.00    -0.151 C  
BRANCH  14  15
HETATM   15  C   UNL     1     -11.778  10.256  70.745  1.00  0.00    -0.453 C  
BRANCH  15  16
HETATM   16  C   UNL     1     -12.249  11.670  71.078  1.00  0.00    -0.336 C  
BRANCH  16  17
HETATM   17  C   UNL     1     -11.903  12.647  69.959  1.00  0.00    -0.358 C  
HETATM   18  C   UNL     1     -12.196  14.076  70.355  1.00  0.00    -0.363 C  
HETATM   19  O   UNL     1     -12.652  14.436  71.428  1.00  0.00    -0.316 OA 
HETATM   20  O   UNL     1     -11.892  14.951  69.368  1.00  0.00    -0.298 OA 
ENDBRANCH  16  17
ENDBRANCH  15  16
ENDBRANCH  14  15
ENDBRANCH  13  14
ENDBRANCH  12  13
ENDBRANCH  11  12
ENDBRANCH  10  11
ENDBRANCH   9  10
ENDBRANCH   8   9
ENDBRANCH   7   8
ENDBRANCH   6   7
ENDBRANCH   5   6
ENDBRANCH   4   5
ENDBRANCH   3   4
ENDBRANCH   2   3
TORSDOF 15
ENDMDL
MODEL      294
REMARK 921   NORMALIZED FREE ENERGY PREDICTED BY IDOCK:   -3.05 KCAL/MOL
REMARK 922        TOTAL FREE ENERGY PREDICTED BY IDOCK:   -7.52 KCAL/MOL
REMARK 923 INTER-LIGAND FREE ENERGY PREDICTED BY IDOCK:   -6.25 KCAL/MOL
REMARK 924 INTRA-LIGAND FREE ENERGY PREDICTED BY IDOCK:   -1.27 KCAL/MOL
REMARK 927      BINDING AFFINITY PREDICTED BY RF-SCORE:    0.00 PKD
ROOT
HETATM    1  C   UNL     1     -12.090  11.197  70.474  1.00  0.00    -0.474 C  
HETATM    2  C   UNL     1     -11.965   9.684  70.504  1.00  0.00    -0.241 C  
ENDROOT
BRANCH   2   3
HETATM    3  C   UNL     1     -11.003   9.233  71.600  1.00  0.00    -0.433 C  
BRANCH   3   4
HETATM    4  C   UNL     1     -11.552   8.023  72.349  1.00  0.00    -0.450 C  
BRANCH   4   5
HETATM    5  C   UNL     1     -10.482   7.411  73.247  1.00  0.00    -0.424 C  
BRANCH   5   6
HETATM    6  C   UNL     1      -9.257   7.005  72.433  1.00  0.00    -0.148 C  
BRANCH   6   7
HETATM    7  C   UNL     1      -8.012   7.719  72.941  1.00  0.00    -0.162 C  
BRANCH   7   8
HETATM    8  C   UNL     1      -6.989   7.885  71.823  1.00  0.00    -0.068 C  
BRANCH   8   9
HETATM    9  C   UNL     1      -7.515   8.829  70.750  1.00  0.00    -0.087 C  
BRANCH   9  10
HETATM   10  C   UNL     1      -8.004   8.047  69.537  1.00  0.00    -0.115 C  
BRANCH  10  11
HETATM   11  C   UNL     1      -8.612   8.985  68.499  1.00  0.00    -0.129 C  
BRANCH  11  12
HETATM   12  C   UNL     1      -7.585  10.006  68.031  1.00  0.00    -0.088 C  
BRANCH  12  13
HETATM   13  C   UNL     1      -8.268  11.230  67.434  1.00  0.00    -0.135 C  
BRANCH  13  14
HETATM   14  C   UNL     1      -8.710  10.952  66.001  1.00  0.00    -0.192 C  
BRANCH  14  15
HETATM   15  C   UNL     1     -10.230  11.006  65.873  1.00  0.00    -0.309 C  
BRANCH  15  16
HETATM   16  C   UNL     1     -10.649  10.949  64.405  1.00  0.00    -0.343 C  
BRANCH  16  17
HETATM   17  C   UNL     1     -10.794  12.349  63.816  1.00  0.00    -0.500 C  
HETATM   18  C   UNL     1     -12.229  12.820  63.841  1.00  0.00    -0.463 C  
HETATM   19  O   UNL     1     -13.178  12.184  64.271  1.00  0.00    -0.768 OA 
HETATM   20  O   UNL     1     -12.368  14.061  63.319  1.00  0.00    -0.718 OA 
ENDBRANCH  16  17
ENDBRANCH  15  16
ENDBRANCH  14  15
ENDBRANCH  13  14
ENDBRANCH  12  13
ENDBRANCH  11  12
ENDBRANCH  10  11
ENDBRANCH   9  10
ENDBRANCH   8   9
ENDBRANCH   7   8
ENDBRANCH   6   7
ENDBRANCH   5   6
ENDBRANCH   4   5
ENDBRANCH   3   4
ENDBRANCH   2   3
TORSDOF 15
ENDMDL
MODEL      295
REMARK 921   NORMALIZED FREE ENERGY PREDICTED BY IDOCK:   -3.04 KCAL/MOL
REMARK 922        TOTAL FREE ENERGY PREDICTED BY IDOCK:   -7.51 KCAL/MOL
REMARK 923 INTER-LIGAND FREE ENERGY PREDICTED BY IDOCK:   -5.40 KCAL/MOL
REMARK 924 INTRA-LIGAND FREE ENERGY PREDICTED BY IDOCK:   -2.11 KCAL/MOL
REMARK 927      BINDING AFFINITY PREDICTED BY RF-SCORE:    0.00 PKD
ROOT
HETATM    1  C   UNL     1      -8.095   8.834  69.710  1.00  0.00    -0.111 C  
HETATM    2  C   UNL     1      -8.949  10.038  70.069  1.00  0.00    -0.121 C  
ENDROOT
BRANCH   2   3
HETATM    3  C   UNL     1     -10.435   9.727  69.905  1.00  0.00    -0.298 C  
BRANCH   3   4
HETATM    4  C   UNL     1     -11.232  10.994  69.613  1.00  0.00    -0.345 C  
BRANCH   4   5
HETATM    5  C   UNL     1     -11.769  10.978  68.185  1.00  0.00    -0.277 C  
BRANCH   5   6
HETATM    6  C   UNL     1     -11.400  12.264  67.452  1.00  0.00    -0.389 C  
BRANCH   6   7
HETATM    7  C   UNL     1      -9.956  12.214  66.971  1.00  0.00    -0.213 C  
BRANCH   7   8
HETATM    8  C   UNL     1      -9.793  11.192  65.852  1.00  0.00    -0.275 C  
BRANCH   8   9
HETATM    9  C   UNL     1      -8.750  10.147  66.227  1.00  0.00    -0.152 C  
BRANCH   9  10
HETATM   10  C   UNL     1      -8.665   9.063  65.159  1.00  0.00    -0.223 C  
BRANCH  10  11
HETATM   11  C   UNL     1      -9.077   7.710  65.730  1.00  0.00    -0.042 C  
BRANCH  11  12
HETATM   12  C   UNL     1     -10.167   7.878  66.779  1.00  0.00    -0.358 C  
BRANCH  12  13
HETATM   13  C   UNL     1     -10.947   6.583  66.964  1.00  0.00    -0.466 C  
BRANCH  13  14
HETATM   14  C   UNL     1     -10.040   5.482  67.502  1.00  0.00    -0.217 C  
BRANCH  14  15
HETATM   15  C   UNL     1      -9.528   5.821  68.899  1.00  0.00    -0.149 C  
BRANCH  15  16
HETATM   16  C   UNL     1     -10.586   5.503  69.953  1.00  0.00    -0.387 C  
BRANCH  16  17
HETATM   17  C   UNL     1     -11.441   6.726  70.267  1.00  0.00    -0.414 C  
HETATM   18  C   UNL     1     -11.976   6.686  71.680  1.00  0.00    -0.347 C  
HETATM   19  O   UNL     1     -11.769   5.800  72.492  1.00  0.00    -0.309 OA 
HETATM   20  O   UNL     1     -12.737   7.768  71.968  1.00  0.00    -0.305 OA 
ENDBRANCH  16  17
ENDBRANCH  15  16
ENDBRANCH  14  15
ENDBRANCH  13  14
ENDBRANCH  12  13
ENDBRANCH  11  12
ENDBRANCH  10  11
ENDBRANCH   9  10
ENDBRANCH   8   9
ENDBRANCH   7   8
ENDBRANCH   6   7
ENDBRANCH   5   6
ENDBRANCH   4   5
ENDBRANCH   3   4
ENDBRANCH   2   3
TORSDOF 15
ENDMDL
MODEL      296
REMARK 921   NORMALIZED FREE ENERGY PREDICTED BY IDOCK:   -3.04 KCAL/MOL
REMARK 922        TOTAL FREE ENERGY PREDICTED BY IDOCK:   -7.50 KCAL/MOL
REMARK 923 INTER-LIGAND FREE ENERGY PREDICTED BY IDOCK:   -5.55 KCAL/MOL
REMARK 924 INTRA-LIGAND FREE ENERGY PREDICTED BY IDOCK:   -1.95 KCAL/MOL
REMARK 927      BINDING AFFINITY PREDICTED BY RF-SCORE:    0.00 PKD
ROOT
HETATM    1  C   UNL     1      -5.753  14.363  68.986  1.00  0.00    -0.088 C  
HETATM    2  C   UNL     1      -6.984  13.485  68.856  1.00  0.00    -0.108 C  
ENDROOT
BRANCH   2   3
HETATM    3  C   UNL     1      -7.699  13.732  67.530  1.00  0.00    -0.187 C  
BRANCH   3   4
HETATM    4  C   UNL     1      -7.605  15.198  67.120  1.00  0.00    -0.204 C  
BRANCH   4   5
HETATM    5  C   UNL     1      -8.818  15.977  67.618  1.00  0.00    -0.190 C  
BRANCH   5   6
HETATM    6  C   UNL     1      -9.930  15.978  66.574  1.00  0.00    -0.293 C  
BRANCH   6   7
HETATM    7  C   UNL     1     -11.117  15.152  67.051  1.00  0.00    -0.328 C  
BRANCH   7   8
HETATM    8  C   UNL     1     -11.607  14.221  65.948  1.00  0.00    -0.358 C  
BRANCH   8   9
HETATM    9  C   UNL     1     -10.455  13.813  65.039  1.00  0.00    -0.418 C  
BRANCH   9  10
HETATM   10  C   UNL     1     -10.186  12.316  65.148  1.00  0.00    -0.305 C  
BRANCH  10  11
HETATM   11  C   UNL     1     -11.325  11.616  65.883  1.00  0.00    -0.262 C  
BRANCH  11  12
HETATM   12  C   UNL     1     -10.778  10.611  66.887  1.00  0.00    -0.297 C  
BRANCH  12  13
HETATM   13  C   UNL     1     -11.005  11.090  68.315  1.00  0.00    -0.287 C  
BRANCH  13  14
HETATM   14  C   UNL     1      -9.709  11.023  69.117  1.00  0.00    -0.096 C  
BRANCH  14  15
HETATM   15  C   UNL     1      -9.693   9.805  70.036  1.00  0.00    -0.292 C  
BRANCH  15  16
HETATM   16  C   UNL     1     -10.914   9.804  70.953  1.00  0.00    -0.411 C  
BRANCH  16  17
HETATM   17  C   UNL     1     -11.664   8.478  70.877  1.00  0.00    -0.274 C  
HETATM   18  C   UNL     1     -12.989   8.542  71.601  1.00  0.00    -0.343 C  
HETATM   19  O   UNL     1     -13.432   9.518  72.184  1.00  0.00    -0.420 OA 
HETATM   20  O   UNL     1     -13.661   7.369  71.539  1.00  0.00    -0.385 OA 
ENDBRANCH  16  17
ENDBRANCH  15  16
ENDBRANCH  14  15
ENDBRANCH  13  14
ENDBRANCH  12  13
ENDBRANCH  11  12
ENDBRANCH  10  11
ENDBRANCH   9  10
ENDBRANCH   8   9
ENDBRANCH   7   8
ENDBRANCH   6   7
ENDBRANCH   5   6
ENDBRANCH   4   5
ENDBRANCH   3   4
ENDBRANCH   2   3
TORSDOF 15
ENDMDL
MODEL      297
REMARK 921   NORMALIZED FREE ENERGY PREDICTED BY IDOCK:   -3.03 KCAL/MOL
REMARK 922        TOTAL FREE ENERGY PREDICTED BY IDOCK:   -7.49 KCAL/MOL
REMARK 923 INTER-LIGAND FREE ENERGY PREDICTED BY IDOCK:   -6.34 KCAL/MOL
REMARK 924 INTRA-LIGAND FREE ENERGY PREDICTED BY IDOCK:   -1.16 KCAL/MOL
REMARK 927      BINDING AFFINITY PREDICTED BY RF-SCORE:    0.00 PKD
ROOT
HETATM    1  C   UNL     1     -10.741   5.418  73.750  1.00  0.00    -0.324 C  
HETATM    2  C   UNL     1     -10.377   6.319  72.584  1.00  0.00    -0.219 C  
ENDROOT
BRANCH   2   3
HETATM    3  C   UNL     1     -10.996   5.812  71.283  1.00  0.00    -0.299 C  
BRANCH   3   4
HETATM    4  C   UNL     1     -11.864   6.884  70.633  1.00  0.00    -0.418 C  
BRANCH   4   5
HETATM    5  C   UNL     1     -11.850   8.166  71.460  1.00  0.00    -0.332 C  
BRANCH   5   6
HETATM    6  C   UNL     1     -11.248   9.320  70.664  1.00  0.00    -0.333 C  
BRANCH   6   7
HETATM    7  C   UNL     1      -9.727   9.234  70.658  1.00  0.00    -0.334 C  
BRANCH   7   8
HETATM    8  C   UNL     1      -9.208   8.949  69.254  1.00  0.00    -0.145 C  
BRANCH   8   9
HETATM    9  C   UNL     1      -9.771   9.954  68.258  1.00  0.00    -0.159 C  
BRANCH   9  10
HETATM   10  C   UNL     1      -8.670  10.868  67.733  1.00  0.00    -0.129 C  
BRANCH  10  11
HETATM   11  C   UNL     1      -9.249  11.937  66.812  1.00  0.00    -0.194 C  
BRANCH  11  12
HETATM   12  C   UNL     1      -9.501  13.227  67.579  1.00  0.00    -0.220 C  
BRANCH  12  13
HETATM   13  C   UNL     1      -8.514  14.309  67.161  1.00  0.00    -0.220 C  
BRANCH  13  14
HETATM   14  C   UNL     1      -9.250  15.581  66.754  1.00  0.00    -0.272 C  
BRANCH  14  15
HETATM   15  C   UNL     1     -10.727  15.302  66.489  1.00  0.00    -0.311 C  
BRANCH  15  16
HETATM   16  C   UNL     1     -11.026  15.355  64.993  1.00  0.00    -0.450 C  
BRANCH  16  17
HETATM   17  C   UNL     1     -11.307  13.963  64.434  1.00  0.00    -0.352 C  
HETATM   18  C   UNL     1     -12.679  13.470  64.829  1.00  0.00    -0.230 C  
HETATM   19  O   UNL     1     -13.486  14.083  65.509  1.00  0.00    -0.677 OA 
HETATM   20  O   UNL     1     -12.938  12.235  64.337  1.00  0.00    -0.719 OA 
ENDBRANCH  16  17
ENDBRANCH  15  16
ENDBRANCH  14  15
ENDBRANCH  13  14
ENDBRANCH  12  13
ENDBRANCH  11  12
ENDBRANCH  10  11
ENDBRANCH   9  10
ENDBRANCH   8   9
ENDBRANCH   7   8
ENDBRANCH   6   7
ENDBRANCH   5   6
ENDBRANCH   4   5
ENDBRANCH   3   4
ENDBRANCH   2   3
TORSDOF 15
ENDMDL
MODEL      298
REMARK 921   NORMALIZED FREE ENERGY PREDICTED BY IDOCK:   -3.03 KCAL/MOL
REMARK 922        TOTAL FREE ENERGY PREDICTED BY IDOCK:   -7.48 KCAL/MOL
REMARK 923 INTER-LIGAND FREE ENERGY PREDICTED BY IDOCK:   -5.89 KCAL/MOL
REMARK 924 INTRA-LIGAND FREE ENERGY PREDICTED BY IDOCK:   -1.58 KCAL/MOL
REMARK 927      BINDING AFFINITY PREDICTED BY RF-SCORE:    0.00 PKD
ROOT
HETATM    1  C   UNL     1     -12.677  15.377  73.700  1.00  0.00    -0.713 C  
HETATM    2  C   UNL     1     -13.381  14.415  72.761  1.00  0.00    -0.606 C  
ENDROOT
BRANCH   2   3
HETATM    3  C   UNL     1     -13.456  14.983  71.346  1.00  0.00    -0.525 C  
BRANCH   3   4
HETATM    4  C   UNL     1     -12.061  15.209  70.771  1.00  0.00    -0.387 C  
BRANCH   4   5
HETATM    5  C   UNL     1     -11.999  14.766  69.312  1.00  0.00    -0.329 C  
BRANCH   5   6
HETATM    6  C   UNL     1     -10.816  13.833  69.078  1.00  0.00    -0.247 C  
BRANCH   6   7
HETATM    7  C   UNL     1     -10.032  14.257  67.842  1.00  0.00    -0.230 C  
BRANCH   7   8
HETATM    8  C   UNL     1     -10.880  15.152  66.946  1.00  0.00    -0.317 C  
BRANCH   8   9
HETATM    9  C   UNL     1     -11.047  14.528  65.567  1.00  0.00    -0.339 C  
BRANCH   9  10
HETATM   10  C   UNL     1     -12.277  13.628  65.528  1.00  0.00    -0.476 C  
BRANCH  10  11
HETATM   11  C   UNL     1     -12.001  12.373  64.705  1.00  0.00    -0.462 C  
BRANCH  11  12
HETATM   12  C   UNL     1     -11.535  11.235  65.601  1.00  0.00     0.156 C  
BRANCH  12  13
HETATM   13  C   UNL     1     -10.150  10.752  65.189  1.00  0.00    -0.363 C  
BRANCH  13  14
HETATM   14  C   UNL     1      -9.326  10.373  66.415  1.00  0.00    -0.197 C  
BRANCH  14  15
HETATM   15  C   UNL     1     -10.220  10.141  67.630  1.00  0.00    -0.246 C  
BRANCH  15  16
HETATM   16  C   UNL     1      -9.660   9.024  68.507  1.00  0.00    -0.161 C  
BRANCH  16  17
HETATM   17  C   UNL     1      -8.454   9.501  69.309  1.00  0.00    -0.139 C  
HETATM   18  C   UNL     1      -8.037   8.486  70.348  1.00  0.00    -0.108 C  
HETATM   19  O   UNL     1      -8.577   7.411  70.547  1.00  0.00    -0.136 OA 
HETATM   20  O   UNL     1      -6.967   8.902  71.066  1.00  0.00    -0.068 OA 
ENDBRANCH  16  17
ENDBRANCH  15  16
ENDBRANCH  14  15
ENDBRANCH  13  14
ENDBRANCH  12  13
ENDBRANCH  11  12
ENDBRANCH  10  11
ENDBRANCH   9  10
ENDBRANCH   8   9
ENDBRANCH   7   8
ENDBRANCH   6   7
ENDBRANCH   5   6
ENDBRANCH   4   5
ENDBRANCH   3   4
ENDBRANCH   2   3
TORSDOF 15
ENDMDL
MODEL      299
REMARK 921   NORMALIZED FREE ENERGY PREDICTED BY IDOCK:   -3.02 KCAL/MOL
REMARK 922        TOTAL FREE ENERGY PREDICTED BY IDOCK:   -7.47 KCAL/MOL
REMARK 923 INTER-LIGAND FREE ENERGY PREDICTED BY IDOCK:   -6.24 KCAL/MOL
REMARK 924 INTRA-LIGAND FREE ENERGY PREDICTED BY IDOCK:   -1.23 KCAL/MOL
REMARK 927      BINDING AFFINITY PREDICTED BY RF-SCORE:    0.00 PKD
ROOT
HETATM    1  C   UNL     1      -8.929   4.694  72.299  1.00  0.00    -0.140 C  
HETATM    2  C   UNL     1     -10.422   4.773  72.035  1.00  0.00    -0.225 C  
ENDROOT
BRANCH   2   3
HETATM    3  C   UNL     1     -10.803   6.120  71.426  1.00  0.00    -0.319 C  
BRANCH   3   4
HETATM    4  C   UNL     1     -12.225   6.515  71.811  1.00  0.00    -0.374 C  
BRANCH   4   5
HETATM    5  C   UNL     1     -12.419   8.023  71.692  1.00  0.00    -0.347 C  
BRANCH   5   6
HETATM    6  C   UNL     1     -11.088   8.755  71.829  1.00  0.00    -0.417 C  
BRANCH   6   7
HETATM    7  C   UNL     1     -10.886   9.728  70.675  1.00  0.00    -0.396 C  
BRANCH   7   8
HETATM    8  C   UNL     1      -9.843   9.199  69.698  1.00  0.00    -0.188 C  
BRANCH   8   9
HETATM    9  C   UNL     1     -10.432   9.077  68.298  1.00  0.00    -0.247 C  
BRANCH   9  10
HETATM   10  C   UNL     1     -11.150  10.362  67.901  1.00  0.00    -0.363 C  
BRANCH  10  11
HETATM   11  C   UNL     1     -10.248  11.240  67.040  1.00  0.00    -0.250 C  
BRANCH  11  12
HETATM   12  C   UNL     1     -11.059  11.952  65.966  1.00  0.00    -0.369 C  
BRANCH  12  13
HETATM   13  C   UNL     1     -11.945  13.029  66.580  1.00  0.00    -0.457 C  
BRANCH  13  14
HETATM   14  C   UNL     1     -11.690  14.377  65.914  1.00  0.00    -0.371 C  
BRANCH  14  15
HETATM   15  C   UNL     1     -10.218  14.539  65.544  1.00  0.00    -0.394 C  
BRANCH  15  16
HETATM   16  C   UNL     1      -9.441  15.181  66.691  1.00  0.00    -0.285 C  
BRANCH  16  17
HETATM   17  C   UNL     1     -10.339  16.081  67.534  1.00  0.00    -0.287 C  
HETATM   18  C   UNL     1      -9.995  15.995  69.003  1.00  0.00    -0.242 C  
HETATM   19  O   UNL     1      -9.115  15.301  69.486  1.00  0.00    -0.241 OA 
HETATM   20  O   UNL     1     -10.787  16.790  69.759  1.00  0.00    -0.325 OA 
ENDBRANCH  16  17
ENDBRANCH  15  16
ENDBRANCH  14  15
ENDBRANCH  13  14
ENDBRANCH  12  13
ENDBRANCH  11  12
ENDBRANCH  10  11
ENDBRANCH   9  10
ENDBRANCH   8   9
ENDBRANCH   7   8
ENDBRANCH   6   7
ENDBRANCH   5   6
ENDBRANCH   4   5
ENDBRANCH   3   4
ENDBRANCH   2   3
TORSDOF 15
ENDMDL
MODEL      300
REMARK 921   NORMALIZED FREE ENERGY PREDICTED BY IDOCK:   -3.02 KCAL/MOL
REMARK 922        TOTAL FREE ENERGY PREDICTED BY IDOCK:   -7.46 KCAL/MOL
REMARK 923 INTER-LIGAND FREE ENERGY PREDICTED BY IDOCK:   -6.08 KCAL/MOL
REMARK 924 INTRA-LIGAND FREE ENERGY PREDICTED BY IDOCK:   -1.38 KCAL/MOL
REMARK 927      BINDING AFFINITY PREDICTED BY RF-SCORE:    0.00 PKD
ROOT
HETATM    1  C   UNL     1      -7.208   3.293  66.273  1.00  0.00    -0.067 C  
HETATM    2  C   UNL     1      -8.569   3.403  65.609  1.00  0.00    -0.116 C  
ENDROOT
BRANCH   2   3
HETATM    3  C   UNL     1      -8.867   4.844  65.199  1.00  0.00    -0.153 C  
BRANCH   3   4
HETATM    4  C   UNL     1      -9.063   5.734  66.422  1.00  0.00    -0.152 C  
BRANCH   4   5
HETATM    5  C   UNL     1     -10.350   5.369  67.155  1.00  0.00    -0.288 C  
BRANCH   5   6
HETATM    6  C   UNL     1     -11.029   6.616  67.713  1.00  0.00    -0.367 C  
BRANCH   6   7
HETATM    7  C   UNL     1     -10.417   7.876  67.115  1.00  0.00    -0.414 C  
BRANCH   7   8
HETATM    8  C   UNL     1     -10.239   8.949  68.182  1.00  0.00    -0.245 C  
BRANCH   8   9
HETATM    9  C   UNL     1      -9.398   8.424  69.337  1.00  0.00    -0.154 C  
BRANCH   9  10
HETATM   10  C   UNL     1      -9.571   9.300  70.572  1.00  0.00    -0.317 C  
BRANCH  10  11
HETATM   11  C   UNL     1     -10.424   8.593  71.621  1.00  0.00    -0.366 C  
BRANCH  11  12
HETATM   12  C   UNL     1     -11.884   8.559  71.192  1.00  0.00    -0.322 C  
BRANCH  12  13
HETATM   13  C   UNL     1     -12.763   9.284  72.202  1.00  0.00    -0.465 C  
BRANCH  13  14
HETATM   14  C   UNL     1     -12.949  10.744  71.802  1.00  0.00    -0.568 C  
BRANCH  14  15
HETATM   15  C   UNL     1     -12.601  10.962  70.333  1.00  0.00    -0.376 C  
BRANCH  15  16
HETATM   16  C   UNL     1     -12.079  12.379  70.106  1.00  0.00    -0.366 C  
BRANCH  16  17
HETATM   17  C   UNL     1     -12.937  13.409  70.834  1.00  0.00    -0.195 C  
HETATM   18  C   UNL     1     -12.750  14.795  70.263  1.00  0.00    -0.276 C  
HETATM   19  O   UNL     1     -12.011  15.088  69.337  1.00  0.00    -0.308 OA 
HETATM   20  O   UNL     1     -13.508  15.717  70.903  1.00  0.00    -0.569 OA 
ENDBRANCH  16  17
ENDBRANCH  15  16
ENDBRANCH  14  15
ENDBRANCH  13  14
ENDBRANCH  12  13
ENDBRANCH  11  12
ENDBRANCH  10  11
ENDBRANCH   9  10
ENDBRANCH   8   9
ENDBRANCH   7   8
ENDBRANCH   6   7
ENDBRANCH   5   6
ENDBRANCH   4   5
ENDBRANCH   3   4
ENDBRANCH   2   3
TORSDOF 15
ENDMDL
MODEL      301
REMARK 921   NORMALIZED FREE ENERGY PREDICTED BY IDOCK:   -3.01 KCAL/MOL
REMARK 922        TOTAL FREE ENERGY PREDICTED BY IDOCK:   -7.44 KCAL/MOL
REMARK 923 INTER-LIGAND FREE ENERGY PREDICTED BY IDOCK:   -6.26 KCAL/MOL
REMARK 924 INTRA-LIGAND FREE ENERGY PREDICTED BY IDOCK:   -1.18 KCAL/MOL
REMARK 927      BINDING AFFINITY PREDICTED BY RF-SCORE:    0.00 PKD
ROOT
HETATM    1  C   UNL     1     -11.376  15.762  64.474  1.00  0.00    -0.324 C  
HETATM    2  C   UNL     1     -12.055  14.410  64.597  1.00  0.00    -0.485 C  
ENDROOT
BRANCH   2   3
HETATM    3  C   UNL     1     -12.018  13.904  66.037  1.00  0.00    -0.436 C  
BRANCH   3   4
HETATM    4  C   UNL     1     -11.844  12.390  66.082  1.00  0.00    -0.442 C  
BRANCH   4   5
HETATM    5  C   UNL     1     -11.185  11.882  64.804  1.00  0.00    -0.356 C  
BRANCH   5   6
HETATM    6  C   UNL     1      -9.772  11.382  65.082  1.00  0.00    -0.280 C  
BRANCH   6   7
HETATM    7  C   UNL     1      -9.470  11.422  66.574  1.00  0.00    -0.218 C  
BRANCH   7   8
HETATM    8  C   UNL     1      -9.089  10.038  67.087  1.00  0.00    -0.154 C  
BRANCH   8   9
HETATM    9  C   UNL     1      -9.606   8.957  66.147  1.00  0.00    -0.335 C  
BRANCH   9  10
HETATM   10  C   UNL     1     -10.637   8.080  66.848  1.00  0.00    -0.324 C  
BRANCH  10  11
HETATM   11  C   UNL     1      -9.992   6.800  67.368  1.00  0.00    -0.192 C  
BRANCH  11  12
HETATM   12  C   UNL     1     -10.743   6.276  68.585  1.00  0.00    -0.357 C  
BRANCH  12  13
HETATM   13  C   UNL     1      -9.947   5.181  69.284  1.00  0.00    -0.280 C  
BRANCH  13  14
HETATM   14  C   UNL     1     -10.298   5.126  70.767  1.00  0.00    -0.294 C  
BRANCH  14  15
HETATM   15  C   UNL     1     -10.128   6.493  71.425  1.00  0.00    -0.213 C  
BRANCH  15  16
HETATM   16  C   UNL     1     -11.257   6.758  72.418  1.00  0.00    -0.300 C  
BRANCH  16  17
HETATM   17  C   UNL     1     -12.430   7.467  71.747  1.00  0.00    -0.360 C  
HETATM   18  C   UNL     1     -12.153   8.939  71.550  1.00  0.00    -0.330 C  
HETATM   19  O   UNL     1     -11.130   9.519  71.876  1.00  0.00    -0.290 OA 
HETATM   20  O   UNL     1     -13.188   9.578  70.956  1.00  0.00    -0.294 OA 
ENDBRANCH  16  17
ENDBRANCH  15  16
ENDBRANCH  14  15
ENDBRANCH  13  14
ENDBRANCH  12  13
ENDBRANCH  11  12
ENDBRANCH  10  11
ENDBRANCH   9  10
ENDBRANCH   8   9
ENDBRANCH   7   8
ENDBRANCH   6   7
ENDBRANCH   5   6
ENDBRANCH   4   5
ENDBRANCH   3   4
ENDBRANCH   2   3
TORSDOF 15
ENDMDL
MODEL      302
REMARK 921   NORMALIZED FREE ENERGY PREDICTED BY IDOCK:   -3.00 KCAL/MOL
REMARK 922        TOTAL FREE ENERGY PREDICTED BY IDOCK:   -7.44 KCAL/MOL
REMARK 923 INTER-LIGAND FREE ENERGY PREDICTED BY IDOCK:   -6.48 KCAL/MOL
REMARK 924 INTRA-LIGAND FREE ENERGY PREDICTED BY IDOCK:   -0.96 KCAL/MOL
REMARK 927      BINDING AFFINITY PREDICTED BY RF-SCORE:    0.00 PKD
ROOT
HETATM    1  C   UNL     1     -10.249   3.602  72.860  1.00  0.00    -0.236 C  
HETATM    2  C   UNL     1      -9.826   2.586  71.815  1.00  0.00    -0.226 C  
ENDROOT
BRANCH   2   3
HETATM    3  C   UNL     1      -9.518   3.263  70.482  1.00  0.00    -0.242 C  
BRANCH   3   4
HETATM    4  C   UNL     1      -9.429   4.777  70.643  1.00  0.00    -0.238 C  
BRANCH   4   5
HETATM    5  C   UNL     1     -10.432   5.478  69.732  1.00  0.00    -0.389 C  
BRANCH   5   6
HETATM    6  C   UNL     1     -10.565   6.951  70.101  1.00  0.00    -0.249 C  
BRANCH   6   7
HETATM    7  C   UNL     1     -10.627   7.817  68.849  1.00  0.00    -0.168 C  
BRANCH   7   8
HETATM    8  C   UNL     1      -9.268   7.869  68.160  1.00  0.00    -0.136 C  
BRANCH   8   9
HETATM    9  C   UNL     1      -9.322   7.161  66.813  1.00  0.00    -0.199 C  
BRANCH   9  10
HETATM   10  C   UNL     1      -8.821   8.077  65.703  1.00  0.00    -0.133 C  
BRANCH  10  11
HETATM   11  C   UNL     1      -8.858   9.535  66.148  1.00  0.00    -0.177 C  
BRANCH  11  12
HETATM   12  C   UNL     1      -9.944  10.297  65.402  1.00  0.00    -0.371 C  
BRANCH  12  13
HETATM   13  C   UNL     1      -9.464  10.712  64.017  1.00  0.00    -0.329 C  
BRANCH  13  14
HETATM   14  C   UNL     1      -9.967  12.109  63.670  1.00  0.00    -0.347 C  
BRANCH  14  15
HETATM   15  C   UNL     1     -11.492  12.153  63.636  1.00  0.00    -0.566 C  
BRANCH  15  16
HETATM   16  C   UNL     1     -12.032  13.031  64.762  1.00  0.00    -0.443 C  
BRANCH  16  17
HETATM   17  C   UNL     1     -11.159  14.264  64.971  1.00  0.00    -0.377 C  
HETATM   18  C   UNL     1     -11.783  15.500  64.366  1.00  0.00    -0.242 C  
HETATM   19  O   UNL     1     -12.851  15.540  63.776  1.00  0.00    -0.526 OA 
HETATM   20  O   UNL     1     -11.014  16.600  64.546  1.00  0.00    -0.885 OA 
ENDBRANCH  16  17
ENDBRANCH  15  16
ENDBRANCH  14  15
ENDBRANCH  13  14
ENDBRANCH  12  13
ENDBRANCH  11  12
ENDBRANCH  10  11
ENDBRANCH   9  10
ENDBRANCH   8   9
ENDBRANCH   7   8
ENDBRANCH   6   7
ENDBRANCH   5   6
ENDBRANCH   4   5
ENDBRANCH   3   4
ENDBRANCH   2   3
TORSDOF 15
ENDMDL
MODEL      303
REMARK 921   NORMALIZED FREE ENERGY PREDICTED BY IDOCK:   -3.00 KCAL/MOL
REMARK 922        TOTAL FREE ENERGY PREDICTED BY IDOCK:   -7.43 KCAL/MOL
REMARK 923 INTER-LIGAND FREE ENERGY PREDICTED BY IDOCK:   -6.03 KCAL/MOL
REMARK 924 INTRA-LIGAND FREE ENERGY PREDICTED BY IDOCK:   -1.40 KCAL/MOL
REMARK 927      BINDING AFFINITY PREDICTED BY RF-SCORE:    0.00 PKD
ROOT
HETATM    1  C   UNL     1     -14.409   8.282  71.827  1.00  0.00    -0.574 C  
HETATM    2  C   UNL     1     -12.914   8.204  72.075  1.00  0.00    -0.329 C  
ENDROOT
BRANCH   2   3
HETATM    3  C   UNL     1     -12.313   6.958  71.429  1.00  0.00    -0.421 C  
BRANCH   3   4
HETATM    4  C   UNL     1     -10.837   6.812  71.784  1.00  0.00    -0.257 C  
BRANCH   4   5
HETATM    5  C   UNL     1     -10.013   6.481  70.544  1.00  0.00    -0.206 C  
BRANCH   5   6
HETATM    6  C   UNL     1     -10.064   7.624  69.536  1.00  0.00    -0.192 C  
BRANCH   6   7
HETATM    7  C   UNL     1      -9.817   8.960  70.224  1.00  0.00    -0.211 C  
BRANCH   7   8
HETATM    8  C   UNL     1     -10.848   9.993  69.784  1.00  0.00    -0.308 C  
BRANCH   8   9
HETATM    9  C   UNL     1     -10.566  10.462  68.363  1.00  0.00    -0.238 C  
BRANCH   9  10
HETATM   10  C   UNL     1      -9.110  10.890  68.215  1.00  0.00    -0.158 C  
BRANCH  10  11
HETATM   11  C   UNL     1      -8.403  10.044  67.161  1.00  0.00    -0.121 C  
BRANCH  11  12
HETATM   12  C   UNL     1      -9.402   9.504  66.147  1.00  0.00    -0.254 C  
BRANCH  12  13
HETATM   13  C   UNL     1      -9.124  10.066  64.759  1.00  0.00    -0.268 C  
BRANCH  13  14
HETATM   14  C   UNL     1     -10.365  10.754  64.200  1.00  0.00    -0.382 C  
BRANCH  14  15
HETATM   15  C   UNL     1     -10.056  12.187  63.774  1.00  0.00    -0.404 C  
BRANCH  15  16
HETATM   16  C   UNL     1     -11.073  13.158  64.368  1.00  0.00    -0.407 C  
BRANCH  16  17
HETATM   17  C   UNL     1     -10.382  14.320  65.076  1.00  0.00    -0.448 C  
HETATM   18  C   UNL     1     -11.280  14.956  66.112  1.00  0.00    -0.325 C  
HETATM   19  O   UNL     1     -12.420  14.608  66.373  1.00  0.00    -0.206 OA 
HETATM   20  O   UNL     1     -10.675  15.989  66.745  1.00  0.00    -0.317 OA 
ENDBRANCH  16  17
ENDBRANCH  15  16
ENDBRANCH  14  15
ENDBRANCH  13  14
ENDBRANCH  12  13
ENDBRANCH  11  12
ENDBRANCH  10  11
ENDBRANCH   9  10
ENDBRANCH   8   9
ENDBRANCH   7   8
ENDBRANCH   6   7
ENDBRANCH   5   6
ENDBRANCH   4   5
ENDBRANCH   3   4
ENDBRANCH   2   3
TORSDOF 15
ENDMDL
MODEL      304
REMARK 921   NORMALIZED FREE ENERGY PREDICTED BY IDOCK:   -2.99 KCAL/MOL
REMARK 922        TOTAL FREE ENERGY PREDICTED BY IDOCK:   -7.40 KCAL/MOL
REMARK 923 INTER-LIGAND FREE ENERGY PREDICTED BY IDOCK:   -5.30 KCAL/MOL
REMARK 924 INTRA-LIGAND FREE ENERGY PREDICTED BY IDOCK:   -2.10 KCAL/MOL
REMARK 927      BINDING AFFINITY PREDICTED BY RF-SCORE:    0.00 PKD
ROOT
HETATM    1  C   UNL     1      -9.723  11.701  68.430  1.00  0.00    -0.199 C  
HETATM    2  C   UNL     1      -8.867  11.164  67.297  1.00  0.00    -0.144 C  
ENDROOT
BRANCH   2   3
HETATM    3  C   UNL     1      -9.295   9.751  66.906  1.00  0.00    -0.184 C  
BRANCH   3   4
HETATM    4  C   UNL     1      -8.328   9.143  65.897  1.00  0.00    -0.127 C  
BRANCH   4   5
HETATM    5  C   UNL     1      -7.013   9.916  65.875  1.00  0.00    -0.106 C  
BRANCH   5   6
HETATM    6  C   UNL     1      -6.400   9.908  64.478  1.00  0.00    -0.119 C  
BRANCH   6   7
HETATM    7  C   UNL     1      -7.412   9.419  63.449  1.00  0.00    -0.106 C  
BRANCH   7   8
HETATM    8  C   UNL     1      -7.812  10.547  62.506  1.00  0.00    -0.178 C  
BRANCH   8   9
HETATM    9  C   UNL     1      -9.327  10.631  62.381  1.00  0.00    -0.282 C  
BRANCH   9  10
HETATM   10  C   UNL     1      -9.879  11.751  63.255  1.00  0.00    -0.402 C  
BRANCH  10  11
HETATM   11  C   UNL     1     -11.221  11.352  63.861  1.00  0.00    -0.364 C  
BRANCH  11  12
HETATM   12  C   UNL     1     -11.460  12.091  65.170  1.00  0.00    -0.344 C  
BRANCH  12  13
HETATM   13  C   UNL     1     -12.246  13.375  64.933  1.00  0.00    -0.450 C  
BRANCH  13  14
HETATM   14  C   UNL     1     -11.456  14.586  65.418  1.00  0.00    -0.348 C  
BRANCH  14  15
HETATM   15  C   UNL     1     -11.631  14.792  66.920  1.00  0.00    -0.337 C  
BRANCH  15  16
HETATM   16  C   UNL     1     -10.656  15.848  67.436  1.00  0.00    -0.315 C  
BRANCH  16  17
HETATM   17  C   UNL     1      -9.632  16.226  66.369  1.00  0.00    -0.316 C  
HETATM   18  C   UNL     1      -8.621  17.219  66.893  1.00  0.00    -0.240 C  
HETATM   19  O   UNL     1      -8.598  17.681  68.022  1.00  0.00    -0.235 OA 
HETATM   20  O   UNL     1      -7.708  17.561  65.953  1.00  0.00    -0.506 OA 
ENDBRANCH  16  17
ENDBRANCH  15  16
ENDBRANCH  14  15
ENDBRANCH  13  14
ENDBRANCH  12  13
ENDBRANCH  11  12
ENDBRANCH  10  11
ENDBRANCH   9  10
ENDBRANCH   8   9
ENDBRANCH   7   8
ENDBRANCH   6   7
ENDBRANCH   5   6
ENDBRANCH   4   5
ENDBRANCH   3   4
ENDBRANCH   2   3
TORSDOF 15
ENDMDL
MODEL      305
REMARK 921   NORMALIZED FREE ENERGY PREDICTED BY IDOCK:   -2.98 KCAL/MOL
REMARK 922        TOTAL FREE ENERGY PREDICTED BY IDOCK:   -7.38 KCAL/MOL
REMARK 923 INTER-LIGAND FREE ENERGY PREDICTED BY IDOCK:   -5.25 KCAL/MOL
REMARK 924 INTRA-LIGAND FREE ENERGY PREDICTED BY IDOCK:   -2.13 KCAL/MOL
REMARK 927      BINDING AFFINITY PREDICTED BY RF-SCORE:    0.00 PKD
ROOT
HETATM    1  C   UNL     1     -10.636  16.593  67.853  1.00  0.00    -0.342 C  
HETATM    2  C   UNL     1      -9.746  16.763  66.635  1.00  0.00    -0.281 C  
ENDROOT
BRANCH   2   3
HETATM    3  C   UNL     1      -8.709  15.645  66.550  1.00  0.00    -0.342 C  
BRANCH   3   4
HETATM    4  C   UNL     1      -8.610  14.887  67.870  1.00  0.00    -0.160 C  
BRANCH   4   5
HETATM    5  C   UNL     1      -7.482  13.860  67.820  1.00  0.00    -0.174 C  
BRANCH   5   6
HETATM    6  C   UNL     1      -7.981  12.484  68.246  1.00  0.00    -0.153 C  
BRANCH   6   7
HETATM    7  C   UNL     1      -8.997  11.946  67.247  1.00  0.00    -0.176 C  
BRANCH   7   8
HETATM    8  C   UNL     1     -10.357  11.755  67.908  1.00  0.00    -0.209 C  
BRANCH   8   9
HETATM    9  C   UNL     1     -11.065  10.533  67.338  1.00  0.00    -0.322 C  
BRANCH   9  10
HETATM   10  C   UNL     1     -10.066   9.595  66.668  1.00  0.00    -0.307 C  
BRANCH  10  11
HETATM   11  C   UNL     1     -10.429   8.138  66.939  1.00  0.00    -0.379 C  
BRANCH  11  12
HETATM   12  C   UNL     1      -9.382   7.481  67.827  1.00  0.00    -0.150 C  
BRANCH  12  13
HETATM   13  C   UNL     1      -8.222   8.432  68.094  1.00  0.00    -0.124 C  
BRANCH  13  14
HETATM   14  C   UNL     1      -7.959   8.549  69.592  1.00  0.00    -0.101 C  
BRANCH  14  15
HETATM   15  C   UNL     1      -9.147   8.039  70.402  1.00  0.00    -0.150 C  
BRANCH  15  16
HETATM   16  C   UNL     1      -9.677   9.131  71.328  1.00  0.00    -0.351 C  
BRANCH  16  17
HETATM   17  C   UNL     1     -11.068   9.592  70.902  1.00  0.00    -0.422 C  
HETATM   18  C   UNL     1     -12.142   9.044  71.812  1.00  0.00    -0.368 C  
HETATM   19  O   UNL     1     -11.954   8.320  72.776  1.00  0.00    -0.377 OA 
HETATM   20  O   UNL     1     -13.380   9.447  71.441  1.00  0.00    -0.361 OA 
ENDBRANCH  16  17
ENDBRANCH  15  16
ENDBRANCH  14  15
ENDBRANCH  13  14
ENDBRANCH  12  13
ENDBRANCH  11  12
ENDBRANCH  10  11
ENDBRANCH   9  10
ENDBRANCH   8   9
ENDBRANCH   7   8
ENDBRANCH   6   7
ENDBRANCH   5   6
ENDBRANCH   4   5
ENDBRANCH   3   4
ENDBRANCH   2   3
TORSDOF 15
ENDMDL
MODEL      306
REMARK 921   NORMALIZED FREE ENERGY PREDICTED BY IDOCK:   -2.98 KCAL/MOL
REMARK 922        TOTAL FREE ENERGY PREDICTED BY IDOCK:   -7.38 KCAL/MOL
REMARK 923 INTER-LIGAND FREE ENERGY PREDICTED BY IDOCK:   -6.25 KCAL/MOL
REMARK 924 INTRA-LIGAND FREE ENERGY PREDICTED BY IDOCK:   -1.13 KCAL/MOL
REMARK 927      BINDING AFFINITY PREDICTED BY RF-SCORE:    0.00 PKD
ROOT
HETATM    1  C   UNL     1     -13.505  15.309  72.665  1.00  0.00    -0.610 C  
HETATM    2  C   UNL     1     -12.372  14.751  71.823  1.00  0.00    -0.414 C  
ENDROOT
BRANCH   2   3
HETATM    3  C   UNL     1     -11.698  15.852  71.007  1.00  0.00    -0.473 C  
BRANCH   3   4
HETATM    4  C   UNL     1     -11.206  15.319  69.666  1.00  0.00    -0.289 C  
BRANCH   4   5
HETATM    5  C   UNL     1     -12.273  14.454  69.003  1.00  0.00    -0.233 C  
BRANCH   5   6
HETATM    6  C   UNL     1     -11.756  13.858  67.698  1.00  0.00    -0.403 C  
BRANCH   6   7
HETATM    7  C   UNL     1     -11.545  12.356  67.839  1.00  0.00    -0.415 C  
BRANCH   7   8
HETATM    8  C   UNL     1     -12.215  11.832  69.104  1.00  0.00    -0.169 C  
BRANCH   8   9
HETATM    9  C   UNL     1     -11.190  11.180  70.023  1.00  0.00    -0.261 C  
BRANCH   9  10
HETATM   10  C   UNL     1     -11.429   9.677  70.116  1.00  0.00    -0.238 C  
BRANCH  10  11
HETATM   11  C   UNL     1     -11.308   9.200  71.560  1.00  0.00    -0.439 C  
BRANCH  11  12
HETATM   12  C   UNL     1     -12.416   8.211  71.892  1.00  0.00    -0.368 C  
BRANCH  12  13
HETATM   13  C   UNL     1     -11.842   6.833  72.194  1.00  0.00    -0.326 C  
BRANCH  13  14
HETATM   14  C   UNL     1     -11.397   6.143  70.909  1.00  0.00    -0.355 C  
BRANCH  14  15
HETATM   15  C   UNL     1     -10.421   5.007  71.203  1.00  0.00    -0.205 C  
BRANCH  15  16
HETATM   16  C   UNL     1      -9.783   4.497  69.912  1.00  0.00    -0.288 C  
BRANCH  16  17
HETATM   17  C   UNL     1      -9.934   5.510  68.782  1.00  0.00    -0.231 C  
HETATM   18  C   UNL     1      -9.871   4.847  67.425  1.00  0.00    -0.178 C  
HETATM   19  O   UNL     1      -9.718   3.653  67.226  1.00  0.00    -0.198 OA 
HETATM   20  O   UNL     1     -10.004   5.739  66.415  1.00  0.00    -0.160 OA 
ENDBRANCH  16  17
ENDBRANCH  15  16
ENDBRANCH  14  15
ENDBRANCH  13  14
ENDBRANCH  12  13
ENDBRANCH  11  12
ENDBRANCH  10  11
ENDBRANCH   9  10
ENDBRANCH   8   9
ENDBRANCH   7   8
ENDBRANCH   6   7
ENDBRANCH   5   6
ENDBRANCH   4   5
ENDBRANCH   3   4
ENDBRANCH   2   3
TORSDOF 15
ENDMDL
MODEL      307
REMARK 921   NORMALIZED FREE ENERGY PREDICTED BY IDOCK:   -2.97 KCAL/MOL
REMARK 922        TOTAL FREE ENERGY PREDICTED BY IDOCK:   -7.38 KCAL/MOL
REMARK 923 INTER-LIGAND FREE ENERGY PREDICTED BY IDOCK:   -6.10 KCAL/MOL
REMARK 924 INTRA-LIGAND FREE ENERGY PREDICTED BY IDOCK:   -1.27 KCAL/MOL
REMARK 927      BINDING AFFINITY PREDICTED BY RF-SCORE:    0.00 PKD
ROOT
HETATM    1  C   UNL     1     -10.180   7.817  70.476  1.00  0.00    -0.201 C  
HETATM    2  C   UNL     1     -11.522   7.798  71.185  1.00  0.00    -0.295 C  
ENDROOT
BRANCH   2   3
HETATM    3  C   UNL     1     -11.918   9.198  71.651  1.00  0.00    -0.437 C  
BRANCH   3   4
HETATM    4  C   UNL     1     -11.584  10.243  70.592  1.00  0.00    -0.435 C  
BRANCH   4   5
HETATM    5  C   UNL     1     -12.621  11.363  70.592  1.00  0.00    -0.360 C  
BRANCH   5   6
HETATM    6  C   UNL     1     -13.503  11.287  71.833  1.00  0.00    -0.278 C  
BRANCH   6   7
HETATM    7  C   UNL     1     -13.891  12.683  72.304  1.00  0.00    -0.310 C  
BRANCH   7   8
HETATM    8  C   UNL     1     -12.785  13.685  71.994  1.00  0.00    -0.296 C  
BRANCH   8   9
HETATM    9  C   UNL     1     -13.351  14.906  71.281  1.00  0.00    -0.490 C  
BRANCH   9  10
HETATM   10  C   UNL     1     -12.308  15.522  70.356  1.00  0.00    -0.451 C  
BRANCH  10  11
HETATM   11  C   UNL     1     -11.321  14.462  69.874  1.00  0.00    -0.273 C  
BRANCH  11  12
HETATM   12  C   UNL     1     -11.673  14.001  68.467  1.00  0.00    -0.387 C  
BRANCH  12  13
HETATM   13  C   UNL     1     -10.417  13.644  67.683  1.00  0.00    -0.238 C  
BRANCH  13  14
HETATM   14  C   UNL     1     -10.578  14.016  66.213  1.00  0.00    -0.281 C  
BRANCH  14  15
HETATM   15  C   UNL     1     -10.537  15.529  66.018  1.00  0.00    -0.333 C  
BRANCH  15  16
HETATM   16  C   UNL     1      -9.133  16.068  66.283  1.00  0.00    -0.379 C  
BRANCH  16  17
HETATM   17  C   UNL     1      -8.934  16.394  67.760  1.00  0.00    -0.198 C  
HETATM   18  C   UNL     1      -7.656  15.794  68.298  1.00  0.00    -0.127 C  
HETATM   19  O   UNL     1      -6.861  15.126  67.657  1.00  0.00    -0.153 OA 
HETATM   20  O   UNL     1      -7.472  16.078  69.609  1.00  0.00    -0.179 OA 
ENDBRANCH  16  17
ENDBRANCH  15  16
ENDBRANCH  14  15
ENDBRANCH  13  14
ENDBRANCH  12  13
ENDBRANCH  11  12
ENDBRANCH  10  11
ENDBRANCH   9  10
ENDBRANCH   8   9
ENDBRANCH   7   8
ENDBRANCH   6   7
ENDBRANCH   5   6
ENDBRANCH   4   5
ENDBRANCH   3   4
ENDBRANCH   2   3
TORSDOF 15
ENDMDL
MODEL      308
REMARK 921   NORMALIZED FREE ENERGY PREDICTED BY IDOCK:   -2.97 KCAL/MOL
REMARK 922        TOTAL FREE ENERGY PREDICTED BY IDOCK:   -7.37 KCAL/MOL
REMARK 923 INTER-LIGAND FREE ENERGY PREDICTED BY IDOCK:   -5.78 KCAL/MOL
REMARK 924 INTRA-LIGAND FREE ENERGY PREDICTED BY IDOCK:   -1.58 KCAL/MOL
REMARK 927      BINDING AFFINITY PREDICTED BY RF-SCORE:    0.00 PKD
ROOT
HETATM    1  C   UNL     1      -8.076  19.398  69.036  1.00  0.00    -0.280 C  
HETATM    2  C   UNL     1      -7.535  19.773  67.668  1.00  0.00    -0.314 C  
ENDROOT
BRANCH   2   3
HETATM    3  C   UNL     1      -8.612  20.435  66.813  1.00  0.00    -0.281 C  
BRANCH   3   4
HETATM    4  C   UNL     1      -9.978  19.802  67.063  1.00  0.00    -0.532 C  
BRANCH   4   5
HETATM    5  C   UNL     1     -10.288  18.750  66.003  1.00  0.00    -0.467 C  
BRANCH   5   6
HETATM    6  C   UNL     1      -9.987  17.349  66.523  1.00  0.00    -0.314 C  
BRANCH   6   7
HETATM    7  C   UNL     1     -10.992  16.945  67.595  1.00  0.00    -0.165 C  
BRANCH   7   8
HETATM    8  C   UNL     1     -10.282  16.345  68.803  1.00  0.00    -0.258 C  
BRANCH   8   9
HETATM    9  C   UNL     1     -10.700  14.895  69.006  1.00  0.00    -0.247 C  
BRANCH   9  10
HETATM   10  C   UNL     1     -11.754  14.489  67.983  1.00  0.00    -0.373 C  
BRANCH  10  11
HETATM   11  C   UNL     1     -11.280  13.291  67.165  1.00  0.00    -0.327 C  
BRANCH  11  12
HETATM   12  C   UNL     1      -9.810  13.439  66.799  1.00  0.00    -0.265 C  
BRANCH  12  13
HETATM   13  C   UNL     1      -9.077  12.112  66.947  1.00  0.00    -0.203 C  
BRANCH  13  14
HETATM   14  C   UNL     1      -9.874  11.154  67.826  1.00  0.00    -0.186 C  
BRANCH  14  15
HETATM   15  C   UNL     1      -9.794   9.725  67.297  1.00  0.00    -0.228 C  
BRANCH  15  16
HETATM   16  C   UNL     1     -10.513   8.760  68.237  1.00  0.00    -0.236 C  
BRANCH  16  17
HETATM   17  C   UNL     1     -10.611   9.332  69.648  1.00  0.00    -0.241 C  
HETATM   18  C   UNL     1     -11.128   8.307  70.631  1.00  0.00    -0.253 C  
HETATM   19  O   UNL     1     -11.439   7.159  70.362  1.00  0.00    -0.291 OA 
HETATM   20  O   UNL     1     -11.218   8.805  71.887  1.00  0.00    -0.322 OA 
ENDBRANCH  16  17
ENDBRANCH  15  16
ENDBRANCH  14  15
ENDBRANCH  13  14
ENDBRANCH  12  13
ENDBRANCH  11  12
ENDBRANCH  10  11
ENDBRANCH   9  10
ENDBRANCH   8   9
ENDBRANCH   7   8
ENDBRANCH   6   7
ENDBRANCH   5   6
ENDBRANCH   4   5
ENDBRANCH   3   4
ENDBRANCH   2   3
TORSDOF 15
ENDMDL
MODEL      309
REMARK 921   NORMALIZED FREE ENERGY PREDICTED BY IDOCK:   -2.97 KCAL/MOL
REMARK 922        TOTAL FREE ENERGY PREDICTED BY IDOCK:   -7.36 KCAL/MOL
REMARK 923 INTER-LIGAND FREE ENERGY PREDICTED BY IDOCK:   -5.62 KCAL/MOL
REMARK 924 INTRA-LIGAND FREE ENERGY PREDICTED BY IDOCK:   -1.74 KCAL/MOL
REMARK 927      BINDING AFFINITY PREDICTED BY RF-SCORE:    0.00 PKD
ROOT
HETATM    1  C   UNL     1      -7.890   5.441  69.410  1.00  0.00    -0.089 C  
HETATM    2  C   UNL     1      -9.042   5.481  70.397  1.00  0.00    -0.164 C  
ENDROOT
BRANCH   2   3
HETATM    3  C   UNL     1     -10.366   5.150  69.713  1.00  0.00    -0.332 C  
BRANCH   3   4
HETATM    4  C   UNL     1     -11.409   6.230  69.982  1.00  0.00    -0.486 C  
BRANCH   4   5
HETATM    5  C   UNL     1     -10.800   7.386  70.768  1.00  0.00    -0.257 C  
BRANCH   5   6
HETATM    6  C   UNL     1     -10.958   8.701  70.011  1.00  0.00    -0.208 C  
BRANCH   6   7
HETATM    7  C   UNL     1     -10.388   8.584  68.603  1.00  0.00    -0.224 C  
BRANCH   7   8
HETATM    8  C   UNL     1      -8.905   8.935  68.589  1.00  0.00    -0.137 C  
BRANCH   8   9
HETATM    9  C   UNL     1      -8.607   9.966  67.509  1.00  0.00    -0.122 C  
BRANCH   9  10
HETATM   10  C   UNL     1      -9.508  11.186  67.664  1.00  0.00    -0.173 C  
BRANCH  10  11
HETATM   11  C   UNL     1      -8.677  12.460  67.770  1.00  0.00    -0.176 C  
BRANCH  11  12
HETATM   12  C   UNL     1      -9.567  13.691  67.672  1.00  0.00    -0.221 C  
BRANCH  12  13
HETATM   13  C   UNL     1     -10.789  13.551  68.570  1.00  0.00    -0.283 C  
BRANCH  13  14
HETATM   14  C   UNL     1     -12.025  14.131  67.890  1.00  0.00    -0.378 C  
BRANCH  14  15
HETATM   15  C   UNL     1     -11.711  14.576  66.464  1.00  0.00    -0.380 C  
BRANCH  15  16
HETATM   16  C   UNL     1     -12.645  13.892  65.468  1.00  0.00    -0.560 C  
BRANCH  16  17
HETATM   17  C   UNL     1     -12.302  12.413  65.313  1.00  0.00    -0.357 C  
HETATM   18  C   UNL     1     -11.005  12.217  64.562  1.00  0.00    -0.314 C  
HETATM   19  O   UNL     1     -10.297  13.108  64.122  1.00  0.00    -0.421 OA 
HETATM   20  O   UNL     1     -10.692  10.907  64.419  1.00  0.00    -0.340 OA 
ENDBRANCH  16  17
ENDBRANCH  15  16
ENDBRANCH  14  15
ENDBRANCH  13  14
ENDBRANCH  12  13
ENDBRANCH  11  12
ENDBRANCH  10  11
ENDBRANCH   9  10
ENDBRANCH   8   9
ENDBRANCH   7   8
ENDBRANCH   6   7
ENDBRANCH   5   6
ENDBRANCH   4   5
ENDBRANCH   3   4
ENDBRANCH   2   3
TORSDOF 15
ENDMDL
MODEL      310
REMARK 921   NORMALIZED FREE ENERGY PREDICTED BY IDOCK:   -2.96 KCAL/MOL
REMARK 922        TOTAL FREE ENERGY PREDICTED BY IDOCK:   -7.36 KCAL/MOL
REMARK 923 INTER-LIGAND FREE ENERGY PREDICTED BY IDOCK:   -6.09 KCAL/MOL
REMARK 924 INTRA-LIGAND FREE ENERGY PREDICTED BY IDOCK:   -1.27 KCAL/MOL
REMARK 927      BINDING AFFINITY PREDICTED BY RF-SCORE:    0.00 PKD
ROOT
HETATM    1  C   UNL     1      -7.073   9.878  67.566  1.00  0.00    -0.088 C  
HETATM    2  C   UNL     1      -8.553   9.543  67.535  1.00  0.00    -0.126 C  
ENDROOT
BRANCH   2   3
HETATM    3  C   UNL     1      -8.782   8.099  67.095  1.00  0.00    -0.130 C  
BRANCH   3   4
HETATM    4  C   UNL     1     -10.094   7.958  66.331  1.00  0.00    -0.149 C  
BRANCH   4   5
HETATM    5  C   UNL     1     -11.008   6.942  67.008  1.00  0.00    -0.404 C  
BRANCH   5   6
HETATM    6  C   UNL     1     -10.234   5.686  67.393  1.00  0.00    -0.249 C  
BRANCH   6   7
HETATM    7  C   UNL     1     -10.308   5.447  68.895  1.00  0.00    -0.260 C  
BRANCH   7   8
HETATM    8  C   UNL     1     -11.466   6.223  69.510  1.00  0.00    -0.387 C  
BRANCH   8   9
HETATM    9  C   UNL     1     -11.114   6.691  70.916  1.00  0.00    -0.335 C  
BRANCH   9  10
HETATM   10  C   UNL     1     -12.340   7.265  71.616  1.00  0.00    -0.387 C  
BRANCH  10  11
HETATM   11  C   UNL     1     -12.118   8.730  71.977  1.00  0.00    -0.447 C  
BRANCH  11  12
HETATM   12  C   UNL     1     -13.079   9.625  71.207  1.00  0.00    -0.437 C  
BRANCH  12  13
HETATM   13  C   UNL     1     -12.453  10.987  70.935  1.00  0.00    -0.509 C  
BRANCH  13  14
HETATM   14  C   UNL     1     -12.001  11.089  69.482  1.00  0.00    -0.413 C  
BRANCH  14  15
HETATM   15  C   UNL     1     -11.457  12.480  69.170  1.00  0.00    -0.361 C  
BRANCH  15  16
HETATM   16  C   UNL     1     -11.720  12.848  67.712  1.00  0.00    -0.412 C  
BRANCH  16  17
HETATM   17  C   UNL     1     -10.892  14.057  67.287  1.00  0.00    -0.288 C  
HETATM   18  C   UNL     1      -9.853  13.687  66.254  1.00  0.00    -0.301 C  
HETATM   19  O   UNL     1      -9.673  12.570  65.797  1.00  0.00    -0.248 OA 
HETATM   20  O   UNL     1      -9.112  14.754  65.871  1.00  0.00    -0.159 OA 
ENDBRANCH  16  17
ENDBRANCH  15  16
ENDBRANCH  14  15
ENDBRANCH  13  14
ENDBRANCH  12  13
ENDBRANCH  11  12
ENDBRANCH  10  11
ENDBRANCH   9  10
ENDBRANCH   8   9
ENDBRANCH   7   8
ENDBRANCH   6   7
ENDBRANCH   5   6
ENDBRANCH   4   5
ENDBRANCH   3   4
ENDBRANCH   2   3
TORSDOF 15
ENDMDL
MODEL      311
REMARK 921   NORMALIZED FREE ENERGY PREDICTED BY IDOCK:   -2.95 KCAL/MOL
REMARK 922        TOTAL FREE ENERGY PREDICTED BY IDOCK:   -7.34 KCAL/MOL
REMARK 923 INTER-LIGAND FREE ENERGY PREDICTED BY IDOCK:   -5.37 KCAL/MOL
REMARK 924 INTRA-LIGAND FREE ENERGY PREDICTED BY IDOCK:   -1.97 KCAL/MOL
REMARK 927      BINDING AFFINITY PREDICTED BY RF-SCORE:    0.00 PKD
ROOT
HETATM    1  C   UNL     1     -13.204  10.321  71.241  1.00  0.00    -0.447 C  
HETATM    2  C   UNL     1     -12.135  11.185  70.597  1.00  0.00    -0.477 C  
ENDROOT
BRANCH   2   3
HETATM    3  C   UNL     1     -11.568  10.517  69.346  1.00  0.00    -0.318 C  
BRANCH   3   4
HETATM    4  C   UNL     1     -10.045  10.596  69.324  1.00  0.00    -0.227 C  
BRANCH   4   5
HETATM    5  C   UNL     1      -9.434   9.516  70.212  1.00  0.00    -0.307 C  
BRANCH   5   6
HETATM    6  C   UNL     1      -8.129   8.997  69.617  1.00  0.00    -0.103 C  
BRANCH   6   7
HETATM    7  C   UNL     1      -8.226   7.505  69.327  1.00  0.00    -0.130 C  
BRANCH   7   8
HETATM    8  C   UNL     1      -9.481   7.191  68.521  1.00  0.00    -0.139 C  
BRANCH   8   9
HETATM    9  C   UNL     1      -9.116   6.706  67.125  1.00  0.00    -0.132 C  
BRANCH   9  10
HETATM   10  C   UNL     1      -9.262   7.831  66.108  1.00  0.00    -0.182 C  
BRANCH  10  11
HETATM   11  C   UNL     1      -7.908   8.463  65.804  1.00  0.00    -0.101 C  
BRANCH  11  12
HETATM   12  C   UNL     1      -8.085   9.792  65.083  1.00  0.00    -0.132 C  
BRANCH  12  13
HETATM   13  C   UNL     1      -8.867  10.776  65.944  1.00  0.00    -0.191 C  
BRANCH  13  14
HETATM   14  C   UNL     1     -10.040  11.359  65.163  1.00  0.00    -0.319 C  
BRANCH  14  15
HETATM   15  C   UNL     1     -11.267  11.528  66.054  1.00  0.00    -0.240 C  
BRANCH  15  16
HETATM   16  C   UNL     1     -12.023  12.805  65.694  1.00  0.00    -0.503 C  
BRANCH  16  17
HETATM   17  C   UNL     1     -12.102  13.757  66.883  1.00  0.00    -0.454 C  
HETATM   18  C   UNL     1     -11.158  14.926  66.726  1.00  0.00    -0.335 C  
HETATM   19  O   UNL     1     -10.413  15.114  65.778  1.00  0.00    -0.297 OA 
HETATM   20  O   UNL     1     -11.221  15.777  67.778  1.00  0.00    -0.336 OA 
ENDBRANCH  16  17
ENDBRANCH  15  16
ENDBRANCH  14  15
ENDBRANCH  13  14
ENDBRANCH  12  13
ENDBRANCH  11  12
ENDBRANCH  10  11
ENDBRANCH   9  10
ENDBRANCH   8   9
ENDBRANCH   7   8
ENDBRANCH   6   7
ENDBRANCH   5   6
ENDBRANCH   4   5
ENDBRANCH   3   4
ENDBRANCH   2   3
TORSDOF 15
ENDMDL
MODEL      312
REMARK 921   NORMALIZED FREE ENERGY PREDICTED BY IDOCK:   -2.95 KCAL/MOL
REMARK 922        TOTAL FREE ENERGY PREDICTED BY IDOCK:   -7.33 KCAL/MOL
REMARK 923 INTER-LIGAND FREE ENERGY PREDICTED BY IDOCK:   -5.83 KCAL/MOL
REMARK 924 INTRA-LIGAND FREE ENERGY PREDICTED BY IDOCK:   -1.50 KCAL/MOL
REMARK 927      BINDING AFFINITY PREDICTED BY RF-SCORE:    0.00 PKD
ROOT
HETATM    1  C   UNL     1     -11.655  14.385  66.559  1.00  0.00    -0.388 C  
HETATM    2  C   UNL     1     -12.590  13.842  65.492  1.00  0.00    -0.560 C  
ENDROOT
BRANCH   2   3
HETATM    3  C   UNL     1     -11.842  13.582  64.186  1.00  0.00    -0.483 C  
BRANCH   3   4
HETATM    4  C   UNL     1     -11.916  12.110  63.796  1.00  0.00    -0.607 C  
BRANCH   4   5
HETATM    5  C   UNL     1     -11.197  11.241  64.823  1.00  0.00    -0.128 C  
BRANCH   5   6
HETATM    6  C   UNL     1      -9.698  11.521  64.818  1.00  0.00    -0.250 C  
BRANCH   6   7
HETATM    7  C   UNL     1      -9.208  11.852  66.221  1.00  0.00    -0.218 C  
BRANCH   7   8
HETATM    8  C   UNL     1      -9.720  10.830  67.229  1.00  0.00    -0.187 C  
BRANCH   8   9
HETATM    9  C   UNL     1      -8.972  10.956  68.550  1.00  0.00    -0.157 C  
BRANCH   9  10
HETATM   10  C   UNL     1      -9.657  10.135  69.637  1.00  0.00    -0.237 C  
BRANCH  10  11
HETATM   11  C   UNL     1     -11.080  10.631  69.872  1.00  0.00    -0.364 C  
BRANCH  11  12
HETATM   12  C   UNL     1     -11.898   9.583  70.612  1.00  0.00    -0.301 C  
BRANCH  12  13
HETATM   13  C   UNL     1     -11.222   9.190  71.920  1.00  0.00    -0.400 C  
BRANCH  13  14
HETATM   14  C   UNL     1     -11.437   7.708  72.211  1.00  0.00    -0.366 C  
BRANCH  14  15
HETATM   15  C   UNL     1     -11.731   6.931  70.931  1.00  0.00    -0.408 C  
BRANCH  15  16
HETATM   16  C   UNL     1     -10.766   5.758  70.779  1.00  0.00    -0.342 C  
BRANCH  16  17
HETATM   17  C   UNL     1      -9.326   6.186  71.050  1.00  0.00    -0.176 C  
HETATM   18  C   UNL     1      -8.420   4.995  71.257  1.00  0.00    -0.121 C  
HETATM   19  O   UNL     1      -8.764   3.825  71.220  1.00  0.00    -0.078 OA 
HETATM   20  O   UNL     1      -7.140   5.365  71.498  1.00  0.00    -0.063 OA 
ENDBRANCH  16  17
ENDBRANCH  15  16
ENDBRANCH  14  15
ENDBRANCH  13  14
ENDBRANCH  12  13
ENDBRANCH  11  12
ENDBRANCH  10  11
ENDBRANCH   9  10
ENDBRANCH   8   9
ENDBRANCH   7   8
ENDBRANCH   6   7
ENDBRANCH   5   6
ENDBRANCH   4   5
ENDBRANCH   3   4
ENDBRANCH   2   3
TORSDOF 15
ENDMDL
MODEL      313
REMARK 921   NORMALIZED FREE ENERGY PREDICTED BY IDOCK:   -2.95 KCAL/MOL
REMARK 922        TOTAL FREE ENERGY PREDICTED BY IDOCK:   -7.33 KCAL/MOL
REMARK 923 INTER-LIGAND FREE ENERGY PREDICTED BY IDOCK:   -5.93 KCAL/MOL
REMARK 924 INTRA-LIGAND FREE ENERGY PREDICTED BY IDOCK:   -1.40 KCAL/MOL
REMARK 927      BINDING AFFINITY PREDICTED BY RF-SCORE:    0.00 PKD
ROOT
HETATM    1  C   UNL     1     -11.868  14.725  64.680  1.00  0.00    -0.442 C  
HETATM    2  C   UNL     1     -12.249  13.490  65.478  1.00  0.00    -0.490 C  
ENDROOT
BRANCH   2   3
HETATM    3  C   UNL     1     -11.015  12.814  66.070  1.00  0.00    -0.306 C  
BRANCH   3   4
HETATM    4  C   UNL     1     -11.028  11.313  65.798  1.00  0.00    -0.211 C  
BRANCH   4   5
HETATM    5  C   UNL     1      -9.650  10.832  65.354  1.00  0.00    -0.272 C  
BRANCH   5   6
HETATM    6  C   UNL     1      -9.329   9.470  65.960  1.00  0.00    -0.273 C  
BRANCH   6   7
HETATM    7  C   UNL     1     -10.075   9.275  67.274  1.00  0.00    -0.291 C  
BRANCH   7   8
HETATM    8  C   UNL     1     -10.785   7.927  67.298  1.00  0.00    -0.299 C  
BRANCH   8   9
HETATM    9  C   UNL     1     -10.349   7.111  68.507  1.00  0.00    -0.203 C  
BRANCH   9  10
HETATM   10  C   UNL     1     -10.662   5.633  68.301  1.00  0.00    -0.227 C  
BRANCH  10  11
HETATM   11  C   UNL     1      -9.910   4.776  69.314  1.00  0.00    -0.269 C  
BRANCH  11  12
HETATM   12  C   UNL     1     -10.396   5.063  70.727  1.00  0.00    -0.265 C  
BRANCH  12  13
HETATM   13  C   UNL     1      -9.221   5.311  71.666  1.00  0.00    -0.170 C  
BRANCH  13  14
HETATM   14  C   UNL     1      -9.403   6.625  72.418  1.00  0.00    -0.147 C  
BRANCH  14  15
HETATM   15  C   UNL     1      -9.001   7.816  71.554  1.00  0.00    -0.156 C  
BRANCH  15  16
HETATM   16  C   UNL     1      -9.936   8.999  71.795  1.00  0.00    -0.359 C  
BRANCH  16  17
HETATM   17  C   UNL     1     -11.338   8.529  72.171  1.00  0.00    -0.442 C  
HETATM   18  C   UNL     1     -12.400   9.465  71.644  1.00  0.00    -0.385 C  
HETATM   19  O   UNL     1     -12.195  10.479  70.996  1.00  0.00    -0.335 OA 
HETATM   20  O   UNL     1     -13.648   9.056  71.972  1.00  0.00    -0.385 OA 
ENDBRANCH  16  17
ENDBRANCH  15  16
ENDBRANCH  14  15
ENDBRANCH  13  14
ENDBRANCH  12  13
ENDBRANCH  11  12
ENDBRANCH  10  11
ENDBRANCH   9  10
ENDBRANCH   8   9
ENDBRANCH   7   8
ENDBRANCH   6   7
ENDBRANCH   5   6
ENDBRANCH   4   5
ENDBRANCH   3   4
ENDBRANCH   2   3
TORSDOF 15
ENDMDL
MODEL      314
REMARK 921   NORMALIZED FREE ENERGY PREDICTED BY IDOCK:   -2.95 KCAL/MOL
REMARK 922        TOTAL FREE ENERGY PREDICTED BY IDOCK:   -7.33 KCAL/MOL
REMARK 923 INTER-LIGAND FREE ENERGY PREDICTED BY IDOCK:   -4.88 KCAL/MOL
REMARK 924 INTRA-LIGAND FREE ENERGY PREDICTED BY IDOCK:   -2.44 KCAL/MOL
REMARK 927      BINDING AFFINITY PREDICTED BY RF-SCORE:    0.00 PKD
ROOT
HETATM    1  C   UNL     1      -7.586  10.961  68.903  1.00  0.00    -0.128 C  
HETATM    2  C   UNL     1      -6.361  10.225  68.390  1.00  0.00    -0.048 C  
ENDROOT
BRANCH   2   3
HETATM    3  C   UNL     1      -6.712   9.337  67.198  1.00  0.00    -0.076 C  
BRANCH   3   4
HETATM    4  C   UNL     1      -7.756   8.294  67.580  1.00  0.00    -0.099 C  
BRANCH   4   5
HETATM    5  C   UNL     1      -7.168   7.266  68.542  1.00  0.00    -0.094 C  
BRANCH   5   6
HETATM    6  C   UNL     1      -8.273   6.539  69.301  1.00  0.00    -0.123 C  
BRANCH   6   7
HETATM    7  C   UNL     1      -8.045   6.633  70.804  1.00  0.00    -0.119 C  
BRANCH   7   8
HETATM    8  C   UNL     1      -7.894   8.086  71.239  1.00  0.00    -0.094 C  
BRANCH   8   9
HETATM    9  C   UNL     1      -8.970   8.459  72.250  1.00  0.00    -0.303 C  
BRANCH   9  10
HETATM   10  C   UNL     1      -9.633   7.209  72.817  1.00  0.00    -0.183 C  
BRANCH  10  11
HETATM   11  C   UNL     1     -11.140   7.410  72.947  1.00  0.00    -0.397 C  
BRANCH  11  12
HETATM   12  C   UNL     1     -11.870   6.778  71.770  1.00  0.00    -0.371 C  
BRANCH  12  13
HETATM   13  C   UNL     1     -13.122   7.571  71.419  1.00  0.00    -0.373 C  
BRANCH  13  14
HETATM   14  C   UNL     1     -13.194   8.853  72.241  1.00  0.00    -0.498 C  
BRANCH  14  15
HETATM   15  C   UNL     1     -13.331  10.078  71.342  1.00  0.00    -0.432 C  
BRANCH  15  16
HETATM   16  C   UNL     1     -11.963  10.691  71.052  1.00  0.00    -0.442 C  
BRANCH  16  17
HETATM   17  C   UNL     1     -11.840  11.107  69.590  1.00  0.00    -0.419 C  
HETATM   18  C   UNL     1     -11.135  10.054  68.767  1.00  0.00    -0.173 C  
HETATM   19  O   UNL     1     -10.705   8.993  69.190  1.00  0.00    -0.222 OA 
HETATM   20  O   UNL     1     -11.021  10.414  67.467  1.00  0.00    -0.291 OA 
ENDBRANCH  16  17
ENDBRANCH  15  16
ENDBRANCH  14  15
ENDBRANCH  13  14
ENDBRANCH  12  13
ENDBRANCH  11  12
ENDBRANCH  10  11
ENDBRANCH   9  10
ENDBRANCH   8   9
ENDBRANCH   7   8
ENDBRANCH   6   7
ENDBRANCH   5   6
ENDBRANCH   4   5
ENDBRANCH   3   4
ENDBRANCH   2   3
TORSDOF 15
ENDMDL
MODEL      315
REMARK 921   NORMALIZED FREE ENERGY PREDICTED BY IDOCK:   -2.95 KCAL/MOL
REMARK 922        TOTAL FREE ENERGY PREDICTED BY IDOCK:   -7.32 KCAL/MOL
REMARK 923 INTER-LIGAND FREE ENERGY PREDICTED BY IDOCK:   -5.42 KCAL/MOL
REMARK 924 INTRA-LIGAND FREE ENERGY PREDICTED BY IDOCK:   -1.91 KCAL/MOL
REMARK 927      BINDING AFFINITY PREDICTED BY RF-SCORE:    0.00 PKD
ROOT
HETATM    1  C   UNL     1      -9.856  10.735  64.854  1.00  0.00    -0.350 C  
HETATM    2  C   UNL     1      -9.695  11.316  66.247  1.00  0.00    -0.246 C  
ENDROOT
BRANCH   2   3
HETATM    3  C   UNL     1     -10.999  11.945  66.734  1.00  0.00    -0.337 C  
BRANCH   3   4
HETATM    4  C   UNL     1     -11.012  13.448  66.480  1.00  0.00    -0.299 C  
BRANCH   4   5
HETATM    5  C   UNL     1     -11.973  14.150  67.435  1.00  0.00    -0.439 C  
BRANCH   5   6
HETATM    6  C   UNL     1     -11.912  13.525  68.824  1.00  0.00    -0.374 C  
BRANCH   6   7
HETATM    7  C   UNL     1     -12.612  14.412  69.845  1.00  0.00    -0.217 C  
BRANCH   7   8
HETATM    8  C   UNL     1     -11.618  14.941  70.873  1.00  0.00    -0.344 C  
BRANCH   8   9
HETATM    9  C   UNL     1     -10.473  15.673  70.187  1.00  0.00    -0.316 C  
BRANCH   9  10
HETATM   10  C   UNL     1     -10.898  17.078  69.778  1.00  0.00     0.091 C  
BRANCH  10  11
HETATM   11  C   UNL     1     -10.483  17.371  68.340  1.00  0.00    -0.384 C  
BRANCH  11  12
HETATM   12  C   UNL     1     -10.051  18.824  68.192  1.00  0.00    -0.427 C  
BRANCH  12  13
HETATM   13  C   UNL     1      -8.540  18.927  68.026  1.00  0.00    -0.330 C  
BRANCH  13  14
HETATM   14  C   UNL     1      -8.172  19.096  66.556  1.00  0.00    -0.315 C  
BRANCH  14  15
HETATM   15  C   UNL     1      -7.518  17.833  66.002  1.00  0.00    -0.284 C  
BRANCH  15  16
HETATM   16  C   UNL     1      -6.934  16.989  67.132  1.00  0.00    -0.213 C  
BRANCH  16  17
HETATM   17  C   UNL     1      -7.476  15.563  67.095  1.00  0.00    -0.244 C  
HETATM   18  C   UNL     1      -7.355  14.885  68.440  1.00  0.00    -0.114 C  
HETATM   19  O   UNL     1      -6.887  15.387  69.449  1.00  0.00    -0.147 OA 
HETATM   20  O   UNL     1      -7.833  13.618  68.418  1.00  0.00    -0.129 OA 
ENDBRANCH  16  17
ENDBRANCH  15  16
ENDBRANCH  14  15
ENDBRANCH  13  14
ENDBRANCH  12  13
ENDBRANCH  11  12
ENDBRANCH  10  11
ENDBRANCH   9  10
ENDBRANCH   8   9
ENDBRANCH   7   8
ENDBRANCH   6   7
ENDBRANCH   5   6
ENDBRANCH   4   5
ENDBRANCH   3   4
ENDBRANCH   2   3
TORSDOF 15
ENDMDL
MODEL      316
REMARK 921   NORMALIZED FREE ENERGY PREDICTED BY IDOCK:   -2.94 KCAL/MOL
REMARK 922        TOTAL FREE ENERGY PREDICTED BY IDOCK:   -7.32 KCAL/MOL
REMARK 923 INTER-LIGAND FREE ENERGY PREDICTED BY IDOCK:   -5.32 KCAL/MOL
REMARK 924 INTRA-LIGAND FREE ENERGY PREDICTED BY IDOCK:   -1.99 KCAL/MOL
REMARK 927      BINDING AFFINITY PREDICTED BY RF-SCORE:    0.00 PKD
ROOT
HETATM    1  C   UNL     1      -8.675   4.562  67.966  1.00  0.00    -0.115 C  
HETATM    2  C   UNL     1      -9.421   3.310  68.391  1.00  0.00    -0.209 C  
ENDROOT
BRANCH   2   3
HETATM    3  C   UNL     1      -9.373   3.128  69.906  1.00  0.00    -0.228 C  
BRANCH   3   4
HETATM    4  C   UNL     1      -9.786   4.408  70.626  1.00  0.00    -0.283 C  
BRANCH   4   5
HETATM    5  C   UNL     1      -8.762   4.782  71.694  1.00  0.00    -0.134 C  
BRANCH   5   6
HETATM    6  C   UNL     1      -9.220   4.316  73.072  1.00  0.00    -0.126 C  
BRANCH   6   7
HETATM    7  C   UNL     1     -10.336   5.210  73.599  1.00  0.00    -0.260 C  
BRANCH   7   8
HETATM    8  C   UNL     1      -9.835   6.633  73.811  1.00  0.00    -0.270 C  
BRANCH   8   9
HETATM    9  C   UNL     1     -10.780   7.638  73.166  1.00  0.00    -0.445 C  
BRANCH   9  10
HETATM   10  C   UNL     1     -11.821   6.926  72.309  1.00  0.00    -0.274 C  
BRANCH  10  11
HETATM   11  C   UNL     1     -12.501   7.906  71.360  1.00  0.00    -0.330 C  
BRANCH  11  12
HETATM   12  C   UNL     1     -12.928   9.164  72.103  1.00  0.00    -0.498 C  
BRANCH  12  13
HETATM   13  C   UNL     1     -13.189  10.308  71.130  1.00  0.00    -0.429 C  
BRANCH  13  14
HETATM   14  C   UNL     1     -11.874  10.884  70.615  1.00  0.00    -0.453 C  
BRANCH  14  15
HETATM   15  C   UNL     1     -11.782  10.776  69.096  1.00  0.00    -0.368 C  
BRANCH  15  16
HETATM   16  C   UNL     1     -10.635   9.854  68.689  1.00  0.00    -0.244 C  
BRANCH  16  17
HETATM   17  C   UNL     1      -9.380  10.136  69.509  1.00  0.00    -0.230 C  
HETATM   18  C   UNL     1      -8.799   8.869  70.093  1.00  0.00    -0.163 C  
HETATM   19  O   UNL     1      -9.253   7.746  69.946  1.00  0.00    -0.147 OA 
HETATM   20  O   UNL     1      -7.684   9.109  70.824  1.00  0.00    -0.117 OA 
ENDBRANCH  16  17
ENDBRANCH  15  16
ENDBRANCH  14  15
ENDBRANCH  13  14
ENDBRANCH  12  13
ENDBRANCH  11  12
ENDBRANCH  10  11
ENDBRANCH   9  10
ENDBRANCH   8   9
ENDBRANCH   7   8
ENDBRANCH   6   7
ENDBRANCH   5   6
ENDBRANCH   4   5
ENDBRANCH   3   4
ENDBRANCH   2   3
TORSDOF 15
ENDMDL
MODEL      317
REMARK 921   NORMALIZED FREE ENERGY PREDICTED BY IDOCK:   -2.94 KCAL/MOL
REMARK 922        TOTAL FREE ENERGY PREDICTED BY IDOCK:   -7.31 KCAL/MOL
REMARK 923 INTER-LIGAND FREE ENERGY PREDICTED BY IDOCK:   -6.05 KCAL/MOL
REMARK 924 INTRA-LIGAND FREE ENERGY PREDICTED BY IDOCK:   -1.26 KCAL/MOL
REMARK 927      BINDING AFFINITY PREDICTED BY RF-SCORE:    0.00 PKD
ROOT
HETATM    1  C   UNL     1     -11.374   6.175  72.049  1.00  0.00    -0.348 C  
HETATM    2  C   UNL     1     -11.981   7.191  71.099  1.00  0.00    -0.381 C  
ENDROOT
BRANCH   2   3
HETATM    3  C   UNL     1     -10.896   8.014  70.408  1.00  0.00    -0.247 C  
BRANCH   3   4
HETATM    4  C   UNL     1     -10.698   9.356  71.104  1.00  0.00    -0.417 C  
BRANCH   4   5
HETATM    5  C   UNL     1     -12.039  10.034  71.365  1.00  0.00    -0.498 C  
BRANCH   5   6
HETATM    6  C   UNL     1     -12.484  10.843  70.151  1.00  0.00    -0.356 C  
BRANCH   6   7
HETATM    7  C   UNL     1     -11.919  12.256  70.208  1.00  0.00    -0.373 C  
BRANCH   7   8
HETATM    8  C   UNL     1     -11.072  12.550  68.975  1.00  0.00    -0.287 C  
BRANCH   8   9
HETATM    9  C   UNL     1     -11.817  12.159  67.706  1.00  0.00    -0.327 C  
BRANCH   9  10
HETATM   10  C   UNL     1     -10.850  11.619  66.658  1.00  0.00    -0.327 C  
BRANCH  10  11
HETATM   11  C   UNL     1     -10.056  12.754  66.020  1.00  0.00    -0.277 C  
BRANCH  11  12
HETATM   12  C   UNL     1     -10.992  13.836  65.499  1.00  0.00    -0.299 C  
BRANCH  12  13
HETATM   13  C   UNL     1     -10.220  14.886  64.709  1.00  0.00    -0.153 C  
BRANCH  13  14
HETATM   14  C   UNL     1     -10.174  16.205  65.473  1.00  0.00    -0.360 C  
BRANCH  14  15
HETATM   15  C   UNL     1      -9.925  15.973  66.961  1.00  0.00    -0.257 C  
BRANCH  15  16
HETATM   16  C   UNL     1      -8.442  15.718  67.225  1.00  0.00    -0.212 C  
BRANCH  16  17
HETATM   17  C   UNL     1      -7.585  16.885  66.744  1.00  0.00    -0.280 C  
HETATM   18  C   UNL     1      -7.201  17.802  67.882  1.00  0.00    -0.210 C  
HETATM   19  O   UNL     1      -7.521  17.657  69.050  1.00  0.00    -0.245 OA 
HETATM   20  O   UNL     1      -6.440  18.841  67.464  1.00  0.00    -0.195 OA 
ENDBRANCH  16  17
ENDBRANCH  15  16
ENDBRANCH  14  15
ENDBRANCH  13  14
ENDBRANCH  12  13
ENDBRANCH  11  12
ENDBRANCH  10  11
ENDBRANCH   9  10
ENDBRANCH   8   9
ENDBRANCH   7   8
ENDBRANCH   6   7
ENDBRANCH   5   6
ENDBRANCH   4   5
ENDBRANCH   3   4
ENDBRANCH   2   3
TORSDOF 15
ENDMDL
MODEL      318
REMARK 921   NORMALIZED FREE ENERGY PREDICTED BY IDOCK:   -2.93 KCAL/MOL
REMARK 922        TOTAL FREE ENERGY PREDICTED BY IDOCK:   -7.30 KCAL/MOL
REMARK 923 INTER-LIGAND FREE ENERGY PREDICTED BY IDOCK:   -5.99 KCAL/MOL
REMARK 924 INTRA-LIGAND FREE ENERGY PREDICTED BY IDOCK:   -1.31 KCAL/MOL
REMARK 927      BINDING AFFINITY PREDICTED BY RF-SCORE:    0.00 PKD
ROOT
HETATM    1  C   UNL     1     -12.825  15.367  73.112  1.00  0.00    -0.606 C  
HETATM    2  C   UNL     1     -13.543  14.480  72.111  1.00  0.00    -0.516 C  
ENDROOT
BRANCH   2   3
HETATM    3  C   UNL     1     -13.361  14.998  70.686  1.00  0.00    -0.279 C  
BRANCH   3   4
HETATM    4  C   UNL     1     -11.950  14.723  70.177  1.00  0.00    -0.367 C  
BRANCH   4   5
HETATM    5  C   UNL     1     -11.980  14.254  68.726  1.00  0.00    -0.346 C  
BRANCH   5   6
HETATM    6  C   UNL     1     -10.696  13.514  68.367  1.00  0.00    -0.273 C  
BRANCH   6   7
HETATM    7  C   UNL     1     -10.018  14.162  67.167  1.00  0.00    -0.255 C  
BRANCH   7   8
HETATM    8  C   UNL     1     -10.988  15.077  66.427  1.00  0.00    -0.336 C  
BRANCH   8   9
HETATM    9  C   UNL     1     -10.906  14.843  64.924  1.00  0.00    -0.431 C  
BRANCH   9  10
HETATM   10  C   UNL     1     -12.263  14.428  64.368  1.00  0.00    -0.481 C  
BRANCH  10  11
HETATM   11  C   UNL     1     -12.114  13.267  63.391  1.00  0.00    -0.508 C  
BRANCH  11  12
HETATM   12  C   UNL     1     -11.786  11.979  64.134  1.00  0.00    -0.457 C  
BRANCH  12  13
HETATM   13  C   UNL     1     -10.596  11.272  63.496  1.00  0.00    -0.436 C  
BRANCH  13  14
HETATM   14  C   UNL     1      -9.851  10.435  64.530  1.00  0.00    -0.405 C  
BRANCH  14  15
HETATM   15  C   UNL     1      -8.559  11.120  64.966  1.00  0.00     0.111 C  
BRANCH  15  16
HETATM   16  C   UNL     1      -7.646  10.136  65.694  1.00  0.00    -0.144 C  
BRANCH  16  17
HETATM   17  C   UNL     1      -7.675   8.761  65.035  1.00  0.00    -0.105 C  
HETATM   18  C   UNL     1      -6.314   8.364  64.511  1.00  0.00    -0.066 C  
HETATM   19  O   UNL     1      -5.299   9.037  64.590  1.00  0.00    -0.049 OA 
HETATM   20  O   UNL     1      -6.330   7.144  63.924  1.00  0.00    -0.043 OA 
ENDBRANCH  16  17
ENDBRANCH  15  16
ENDBRANCH  14  15
ENDBRANCH  13  14
ENDBRANCH  12  13
ENDBRANCH  11  12
ENDBRANCH  10  11
ENDBRANCH   9  10
ENDBRANCH   8   9
ENDBRANCH   7   8
ENDBRANCH   6   7
ENDBRANCH   5   6
ENDBRANCH   4   5
ENDBRANCH   3   4
ENDBRANCH   2   3
TORSDOF 15
ENDMDL
MODEL      319
REMARK 921   NORMALIZED FREE ENERGY PREDICTED BY IDOCK:   -2.93 KCAL/MOL
REMARK 922        TOTAL FREE ENERGY PREDICTED BY IDOCK:   -7.30 KCAL/MOL
REMARK 923 INTER-LIGAND FREE ENERGY PREDICTED BY IDOCK:   -5.84 KCAL/MOL
REMARK 924 INTRA-LIGAND FREE ENERGY PREDICTED BY IDOCK:   -1.46 KCAL/MOL
REMARK 927      BINDING AFFINITY PREDICTED BY RF-SCORE:    0.00 PKD
ROOT
HETATM    1  C   UNL     1     -10.665  17.256  67.405  1.00  0.00    -0.247 C  
HETATM    2  C   UNL     1      -9.798  16.011  67.454  1.00  0.00    -0.236 C  
ENDROOT
BRANCH   2   3
HETATM    3  C   UNL     1     -10.520  14.813  66.843  1.00  0.00    -0.277 C  
BRANCH   3   4
HETATM    4  C   UNL     1     -10.753  15.015  65.350  1.00  0.00    -0.389 C  
BRANCH   4   5
HETATM    5  C   UNL     1     -12.106  14.448  64.932  1.00  0.00    -0.442 C  
BRANCH   5   6
HETATM    6  C   UNL     1     -11.950  13.465  63.776  1.00  0.00    -0.517 C  
BRANCH   6   7
HETATM    7  C   UNL     1     -10.561  12.839  63.785  1.00  0.00    -0.370 C  
BRANCH   7   8
HETATM    8  C   UNL     1     -10.651  11.326  63.948  1.00  0.00    -0.455 C  
BRANCH   8   9
HETATM    9  C   UNL     1      -9.545  10.818  64.864  1.00  0.00    -0.307 C  
BRANCH   9  10
HETATM   10  C   UNL     1      -9.399  11.720  66.083  1.00  0.00    -0.236 C  
BRANCH  10  11
HETATM   11  C   UNL     1      -8.116  11.396  66.842  1.00  0.00    -0.158 C  
BRANCH  11  12
HETATM   12  C   UNL     1      -8.292  11.660  68.331  1.00  0.00    -0.157 C  
BRANCH  12  13
HETATM   13  C   UNL     1      -8.031  10.396  69.141  1.00  0.00    -0.141 C  
BRANCH  13  14
HETATM   14  C   UNL     1      -9.009   9.295  68.747  1.00  0.00    -0.132 C  
BRANCH  14  15
HETATM   15  C   UNL     1     -10.409   9.583  69.283  1.00  0.00    -0.219 C  
BRANCH  15  16
HETATM   16  C   UNL     1     -10.464   9.364  70.793  1.00  0.00    -0.372 C  
BRANCH  16  17
HETATM   17  C   UNL     1     -10.556   7.881  71.135  1.00  0.00    -0.238 C  
HETATM   18  C   UNL     1     -11.730   7.588  72.040  1.00  0.00    -0.294 C  
HETATM   19  O   UNL     1     -12.524   8.413  72.462  1.00  0.00    -0.364 OA 
HETATM   20  O   UNL     1     -11.819   6.273  72.350  1.00  0.00    -0.291 OA 
ENDBRANCH  16  17
ENDBRANCH  15  16
ENDBRANCH  14  15
ENDBRANCH  13  14
ENDBRANCH  12  13
ENDBRANCH  11  12
ENDBRANCH  10  11
ENDBRANCH   9  10
ENDBRANCH   8   9
ENDBRANCH   7   8
ENDBRANCH   6   7
ENDBRANCH   5   6
ENDBRANCH   4   5
ENDBRANCH   3   4
ENDBRANCH   2   3
TORSDOF 15
ENDMDL
MODEL      320
REMARK 921   NORMALIZED FREE ENERGY PREDICTED BY IDOCK:   -2.93 KCAL/MOL
REMARK 922        TOTAL FREE ENERGY PREDICTED BY IDOCK:   -7.29 KCAL/MOL
REMARK 923 INTER-LIGAND FREE ENERGY PREDICTED BY IDOCK:   -6.09 KCAL/MOL
REMARK 924 INTRA-LIGAND FREE ENERGY PREDICTED BY IDOCK:   -1.20 KCAL/MOL
REMARK 927      BINDING AFFINITY PREDICTED BY RF-SCORE:    0.00 PKD
ROOT
HETATM    1  C   UNL     1     -12.946  15.510  71.335  1.00  0.00    -0.553 C  
HETATM    2  C   UNL     1     -12.363  14.772  70.144  1.00  0.00    -0.381 C  
ENDROOT
BRANCH   2   3
HETATM    3  C   UNL     1     -11.927  15.746  69.052  1.00  0.00    -0.294 C  
BRANCH   3   4
HETATM    4  C   UNL     1     -11.242  15.014  67.903  1.00  0.00    -0.330 C  
BRANCH   4   5
HETATM    5  C   UNL     1     -11.817  13.610  67.737  1.00  0.00    -0.403 C  
BRANCH   5   6
HETATM    6  C   UNL     1     -11.041  12.826  66.685  1.00  0.00    -0.313 C  
BRANCH   6   7
HETATM    7  C   UNL     1     -11.258  11.328  66.861  1.00  0.00    -0.300 C  
BRANCH   7   8
HETATM    8  C   UNL     1     -10.597  10.832  68.141  1.00  0.00    -0.238 C  
BRANCH   8   9
HETATM    9  C   UNL     1      -9.238  10.213  67.839  1.00  0.00    -0.144 C  
BRANCH   9  10
HETATM   10  C   UNL     1      -9.023   8.954  68.670  1.00  0.00    -0.137 C  
BRANCH  10  11
HETATM   11  C   UNL     1     -10.205   8.000  68.521  1.00  0.00    -0.231 C  
BRANCH  11  12
HETATM   12  C   UNL     1      -9.924   6.684  69.231  1.00  0.00    -0.171 C  
BRANCH  12  13
HETATM   13  C   UNL     1     -11.221   6.022  69.679  1.00  0.00    -0.428 C  
BRANCH  13  14
HETATM   14  C   UNL     1     -11.506   6.334  71.144  1.00  0.00    -0.362 C  
BRANCH  14  15
HETATM   15  C   UNL     1     -11.943   7.785  71.324  1.00  0.00    -0.324 C  
BRANCH  15  16
HETATM   16  C   UNL     1     -11.040   8.502  72.324  1.00  0.00    -0.430 C  
BRANCH  16  17
HETATM   17  C   UNL     1     -10.212   7.508  73.134  1.00  0.00    -0.382 C  
HETATM   18  C   UNL     1      -8.736   7.826  73.068  1.00  0.00    -0.185 C  
HETATM   19  O   UNL     1      -8.237   8.753  72.452  1.00  0.00    -0.377 OA 
HETATM   20  O   UNL     1      -7.993   6.949  73.784  1.00  0.00    -0.106 OA 
ENDBRANCH  16  17
ENDBRANCH  15  16
ENDBRANCH  14  15
ENDBRANCH  13  14
ENDBRANCH  12  13
ENDBRANCH  11  12
ENDBRANCH  10  11
ENDBRANCH   9  10
ENDBRANCH   8   9
ENDBRANCH   7   8
ENDBRANCH   6   7
ENDBRANCH   5   6
ENDBRANCH   4   5
ENDBRANCH   3   4
ENDBRANCH   2   3
TORSDOF 15
ENDMDL
MODEL      321
REMARK 921   NORMALIZED FREE ENERGY PREDICTED BY IDOCK:   -2.93 KCAL/MOL
REMARK 922        TOTAL FREE ENERGY PREDICTED BY IDOCK:   -7.29 KCAL/MOL
REMARK 923 INTER-LIGAND FREE ENERGY PREDICTED BY IDOCK:   -5.42 KCAL/MOL
REMARK 924 INTRA-LIGAND FREE ENERGY PREDICTED BY IDOCK:   -1.87 KCAL/MOL
REMARK 927      BINDING AFFINITY PREDICTED BY RF-SCORE:    0.00 PKD
ROOT
HETATM    1  C   UNL     1      -9.588  10.283  63.953  1.00  0.00    -0.354 C  
HETATM    2  C   UNL     1      -9.737  11.628  64.642  1.00  0.00    -0.210 C  
ENDROOT
BRANCH   2   3
HETATM    3  C   UNL     1     -11.178  11.861  65.089  1.00  0.00    -0.346 C  
BRANCH   3   4
HETATM    4  C   UNL     1     -11.882  12.858  64.175  1.00  0.00    -0.479 C  
BRANCH   4   5
HETATM    5  C   UNL     1     -12.605  13.924  64.992  1.00  0.00    -0.422 C  
BRANCH   5   6
HETATM    6  C   UNL     1     -12.169  13.877  66.453  1.00  0.00    -0.487 C  
BRANCH   6   7
HETATM    7  C   UNL     1     -11.532  15.197  66.868  1.00  0.00    -0.215 C  
BRANCH   7   8
HETATM    8  C   UNL     1     -10.581  14.993  68.041  1.00  0.00    -0.250 C  
BRANCH   8   9
HETATM    9  C   UNL     1      -9.964  13.601  67.998  1.00  0.00    -0.247 C  
BRANCH   9  10
HETATM   10  C   UNL     1      -8.594  13.640  67.332  1.00  0.00    -0.212 C  
BRANCH  10  11
HETATM   11  C   UNL     1      -7.498  13.286  68.333  1.00  0.00    -0.124 C  
BRANCH  11  12
HETATM   12  C   UNL     1      -6.266  14.152  68.109  1.00  0.00    -0.133 C  
BRANCH  12  13
HETATM   13  C   UNL     1      -6.650  15.622  67.995  1.00  0.00    -0.152 C  
BRANCH  13  14
HETATM   14  C   UNL     1      -7.121  16.160  69.342  1.00  0.00    -0.215 C  
BRANCH  14  15
HETATM   15  C   UNL     1      -8.272  17.146  69.170  1.00  0.00    -0.010 C  
BRANCH  15  16
HETATM   16  C   UNL     1      -8.053  18.021  67.938  1.00  0.00    -0.243 C  
BRANCH  16  17
HETATM   17  C   UNL     1      -8.621  19.422  68.146  1.00  0.00    -0.374 C  
HETATM   18  C   UNL     1      -9.255  19.960  66.884  1.00  0.00    -0.370 C  
HETATM   19  O   UNL     1      -9.321  19.373  65.817  1.00  0.00    -0.381 OA 
HETATM   20  O   UNL     1      -9.762  21.204  67.059  1.00  0.00    -0.196 OA 
ENDBRANCH  16  17
ENDBRANCH  15  16
ENDBRANCH  14  15
ENDBRANCH  13  14
ENDBRANCH  12  13
ENDBRANCH  11  12
ENDBRANCH  10  11
ENDBRANCH   9  10
ENDBRANCH   8   9
ENDBRANCH   7   8
ENDBRANCH   6   7
ENDBRANCH   5   6
ENDBRANCH   4   5
ENDBRANCH   3   4
ENDBRANCH   2   3
TORSDOF 15
ENDMDL
MODEL      322
REMARK 921   NORMALIZED FREE ENERGY PREDICTED BY IDOCK:   -2.92 KCAL/MOL
REMARK 922        TOTAL FREE ENERGY PREDICTED BY IDOCK:   -7.28 KCAL/MOL
REMARK 923 INTER-LIGAND FREE ENERGY PREDICTED BY IDOCK:   -6.03 KCAL/MOL
REMARK 924 INTRA-LIGAND FREE ENERGY PREDICTED BY IDOCK:   -1.25 KCAL/MOL
REMARK 927      BINDING AFFINITY PREDICTED BY RF-SCORE:    0.00 PKD
ROOT
HETATM    1  C   UNL     1      -8.584   5.172  70.249  1.00  0.00    -0.121 C  
HETATM    2  C   UNL     1     -10.024   4.828  70.587  1.00  0.00    -0.300 C  
ENDROOT
BRANCH   2   3
HETATM    3  C   UNL     1     -10.998   5.665  69.760  1.00  0.00    -0.301 C  
BRANCH   3   4
HETATM    4  C   UNL     1     -11.894   6.512  70.658  1.00  0.00    -0.398 C  
BRANCH   4   5
HETATM    5  C   UNL     1     -11.565   6.275  72.129  1.00  0.00    -0.367 C  
BRANCH   5   6
HETATM    6  C   UNL     1     -11.403   7.598  72.870  1.00  0.00    -0.394 C  
BRANCH   6   7
HETATM    7  C   UNL     1     -11.114   8.730  71.893  1.00  0.00    -0.434 C  
BRANCH   7   8
HETATM    8  C   UNL     1      -9.613   8.905  71.697  1.00  0.00    -0.363 C  
BRANCH   8   9
HETATM    9  C   UNL     1      -9.234   8.707  70.236  1.00  0.00    -0.178 C  
BRANCH   9  10
HETATM   10  C   UNL     1      -8.461   9.911  69.711  1.00  0.00    -0.206 C  
BRANCH  10  11
HETATM   11  C   UNL     1      -7.221   9.464  68.944  1.00  0.00    -0.072 C  
BRANCH  11  12
HETATM   12  C   UNL     1      -7.197  10.081  67.553  1.00  0.00    -0.089 C  
BRANCH  12  13
HETATM   13  C   UNL     1      -7.927  11.419  67.541  1.00  0.00    -0.127 C  
BRANCH  13  14
HETATM   14  C   UNL     1      -9.019  11.425  66.476  1.00  0.00    -0.192 C  
BRANCH  14  15
HETATM   15  C   UNL     1      -9.865  12.692  66.562  1.00  0.00    -0.258 C  
BRANCH  15  16
HETATM   16  C   UNL     1     -11.338  12.375  66.313  1.00  0.00    -0.388 C  
BRANCH  16  17
HETATM   17  C   UNL     1     -11.624  12.202  64.824  1.00  0.00    -0.380 C  
HETATM   18  C   UNL     1     -12.346  13.400  64.252  1.00  0.00    -0.335 C  
HETATM   19  O   UNL     1     -12.675  14.395  64.876  1.00  0.00    -0.614 OA 
HETATM   20  O   UNL     1     -12.604  13.256  62.931  1.00  0.00    -0.509 OA 
ENDBRANCH  16  17
ENDBRANCH  15  16
ENDBRANCH  14  15
ENDBRANCH  13  14
ENDBRANCH  12  13
ENDBRANCH  11  12
ENDBRANCH  10  11
ENDBRANCH   9  10
ENDBRANCH   8   9
ENDBRANCH   7   8
ENDBRANCH   6   7
ENDBRANCH   5   6
ENDBRANCH   4   5
ENDBRANCH   3   4
ENDBRANCH   2   3
TORSDOF 15
ENDMDL
MODEL      323
REMARK 921   NORMALIZED FREE ENERGY PREDICTED BY IDOCK:   -2.92 KCAL/MOL
REMARK 922        TOTAL FREE ENERGY PREDICTED BY IDOCK:   -7.27 KCAL/MOL
REMARK 923 INTER-LIGAND FREE ENERGY PREDICTED BY IDOCK:   -5.88 KCAL/MOL
REMARK 924 INTRA-LIGAND FREE ENERGY PREDICTED BY IDOCK:   -1.39 KCAL/MOL
REMARK 927      BINDING AFFINITY PREDICTED BY RF-SCORE:    0.00 PKD
ROOT
HETATM    1  C   UNL     1      -7.333   5.830  70.591  1.00  0.00    -0.084 C  
HETATM    2  C   UNL     1      -8.659   5.099  70.484  1.00  0.00    -0.126 C  
ENDROOT
BRANCH   2   3
HETATM    3  C   UNL     1      -9.516   5.675  69.359  1.00  0.00    -0.169 C  
BRANCH   3   4
HETATM    4  C   UNL     1     -10.938   5.950  69.838  1.00  0.00    -0.444 C  
BRANCH   4   5
HETATM    5  C   UNL     1     -11.010   5.925  71.362  1.00  0.00    -0.327 C  
BRANCH   5   6
HETATM    6  C   UNL     1     -11.692   7.181  71.894  1.00  0.00    -0.328 C  
BRANCH   6   7
HETATM    7  C   UNL     1     -11.789   8.243  70.807  1.00  0.00    -0.172 C  
BRANCH   7   8
HETATM    8  C   UNL     1     -10.942   9.459  71.163  1.00  0.00    -0.430 C  
BRANCH   8   9
HETATM    9  C   UNL     1     -10.658  10.298  69.923  1.00  0.00    -0.324 C  
BRANCH   9  10
HETATM   10  C   UNL     1     -11.941  10.925  69.391  1.00  0.00    -0.393 C  
BRANCH  10  11
HETATM   11  C   UNL     1     -12.322  12.153  70.212  1.00  0.00    -0.269 C  
BRANCH  11  12
HETATM   12  C   UNL     1     -11.668  13.404  69.642  1.00  0.00    -0.375 C  
BRANCH  12  13
HETATM   13  C   UNL     1     -11.938  13.525  68.147  1.00  0.00    -0.376 C  
BRANCH  13  14
HETATM   14  C   UNL     1     -10.629  13.580  67.368  1.00  0.00    -0.254 C  
BRANCH  14  15
HETATM   15  C   UNL     1     -10.841  13.198  65.906  1.00  0.00    -0.288 C  
BRANCH  15  16
HETATM   16  C   UNL     1     -10.627  11.700  65.703  1.00  0.00    -0.324 C  
BRANCH  16  17
HETATM   17  C   UNL     1     -10.551  11.347  64.220  1.00  0.00    -0.416 C  
HETATM   18  C   UNL     1      -9.577  10.220  63.964  1.00  0.00    -0.304 C  
HETATM   19  O   UNL     1      -8.919   9.644  64.814  1.00  0.00    -0.198 OA 
HETATM   20  O   UNL     1      -9.502   9.899  62.651  1.00  0.00    -0.275 OA 
ENDBRANCH  16  17
ENDBRANCH  15  16
ENDBRANCH  14  15
ENDBRANCH  13  14
ENDBRANCH  12  13
ENDBRANCH  11  12
ENDBRANCH  10  11
ENDBRANCH   9  10
ENDBRANCH   8   9
ENDBRANCH   7   8
ENDBRANCH   6   7
ENDBRANCH   5   6
ENDBRANCH   4   5
ENDBRANCH   3   4
ENDBRANCH   2   3
TORSDOF 15
ENDMDL
MODEL      324
REMARK 921   NORMALIZED FREE ENERGY PREDICTED BY IDOCK:   -2.91 KCAL/MOL
REMARK 922        TOTAL FREE ENERGY PREDICTED BY IDOCK:   -7.26 KCAL/MOL
REMARK 923 INTER-LIGAND FREE ENERGY PREDICTED BY IDOCK:   -5.14 KCAL/MOL
REMARK 924 INTRA-LIGAND FREE ENERGY PREDICTED BY IDOCK:   -2.12 KCAL/MOL
REMARK 927      BINDING AFFINITY PREDICTED BY RF-SCORE:    0.00 PKD
ROOT
HETATM    1  C   UNL     1     -10.131   8.371  69.511  1.00  0.00    -0.200 C  
HETATM    2  C   UNL     1     -10.972   7.168  69.899  1.00  0.00    -0.278 C  
ENDROOT
BRANCH   2   3
HETATM    3  C   UNL     1     -10.835   6.046  68.874  1.00  0.00    -0.400 C  
BRANCH   3   4
HETATM    4  C   UNL     1     -11.014   6.574  67.454  1.00  0.00    -0.458 C  
BRANCH   4   5
HETATM    5  C   UNL     1      -9.875   6.105  66.555  1.00  0.00    -0.179 C  
BRANCH   5   6
HETATM    6  C   UNL     1      -8.747   5.494  67.380  1.00  0.00    -0.107 C  
BRANCH   6   7
HETATM    7  C   UNL     1      -7.581   6.466  67.501  1.00  0.00    -0.100 C  
BRANCH   7   8
HETATM    8  C   UNL     1      -7.020   6.811  66.127  1.00  0.00    -0.061 C  
BRANCH   8   9
HETATM    9  C   UNL     1      -6.800   8.313  65.998  1.00  0.00    -0.064 C  
BRANCH   9  10
HETATM   10  C   UNL     1      -7.690   9.074  66.974  1.00  0.00    -0.098 C  
BRANCH  10  11
HETATM   11  C   UNL     1      -8.309  10.294  66.300  1.00  0.00    -0.134 C  
BRANCH  11  12
HETATM   12  C   UNL     1      -9.829  10.200  66.311  1.00  0.00    -0.288 C  
BRANCH  12  13
HETATM   13  C   UNL     1     -10.454  11.432  65.670  1.00  0.00    -0.316 C  
BRANCH  13  14
HETATM   14  C   UNL     1     -11.323  12.178  66.676  1.00  0.00    -0.405 C  
BRANCH  14  15
HETATM   15  C   UNL     1     -11.599  11.321  67.909  1.00  0.00    -0.330 C  
BRANCH  15  16
HETATM   16  C   UNL     1     -11.419  12.139  69.186  1.00  0.00    -0.352 C  
BRANCH  16  17
HETATM   17  C   UNL     1     -11.831  13.593  68.976  1.00  0.00    -0.393 C  
HETATM   18  C   UNL     1     -12.175  14.270  70.282  1.00  0.00    -0.342 C  
HETATM   19  O   UNL     1     -12.138  13.747  71.384  1.00  0.00    -0.250 OA 
HETATM   20  O   UNL     1     -12.542  15.561  70.106  1.00  0.00    -0.380 OA 
ENDBRANCH  16  17
ENDBRANCH  15  16
ENDBRANCH  14  15
ENDBRANCH  13  14
ENDBRANCH  12  13
ENDBRANCH  11  12
ENDBRANCH  10  11
ENDBRANCH   9  10
ENDBRANCH   8   9
ENDBRANCH   7   8
ENDBRANCH   6   7
ENDBRANCH   5   6
ENDBRANCH   4   5
ENDBRANCH   3   4
ENDBRANCH   2   3
TORSDOF 15
ENDMDL
MODEL      325
REMARK 921   NORMALIZED FREE ENERGY PREDICTED BY IDOCK:   -2.91 KCAL/MOL
REMARK 922        TOTAL FREE ENERGY PREDICTED BY IDOCK:   -7.25 KCAL/MOL
REMARK 923 INTER-LIGAND FREE ENERGY PREDICTED BY IDOCK:   -5.41 KCAL/MOL
REMARK 924 INTRA-LIGAND FREE ENERGY PREDICTED BY IDOCK:   -1.84 KCAL/MOL
REMARK 927      BINDING AFFINITY PREDICTED BY RF-SCORE:    0.00 PKD
ROOT
HETATM    1  C   UNL     1      -8.758  10.896  68.633  1.00  0.00    -0.154 C  
HETATM    2  C   UNL     1      -8.971  10.776  67.135  1.00  0.00    -0.145 C  
ENDROOT
BRANCH   2   3
HETATM    3  C   UNL     1     -10.358  11.274  66.735  1.00  0.00    -0.278 C  
BRANCH   3   4
HETATM    4  C   UNL     1     -10.457  11.472  65.226  1.00  0.00    -0.336 C  
BRANCH   4   5
HETATM    5  C   UNL     1     -11.040  12.843  64.897  1.00  0.00    -0.326 C  
BRANCH   5   6
HETATM    6  C   UNL     1     -10.309  13.942  65.659  1.00  0.00    -0.337 C  
BRANCH   6   7
HETATM    7  C   UNL     1     -11.271  15.055  66.055  1.00  0.00    -0.310 C  
BRANCH   7   8
HETATM    8  C   UNL     1     -10.954  15.572  67.453  1.00  0.00    -0.306 C  
BRANCH   8   9
HETATM    9  C   UNL     1     -10.985  14.435  68.466  1.00  0.00    -0.264 C  
BRANCH   9  10
HETATM   10  C   UNL     1     -11.370  14.954  69.846  1.00  0.00    -0.311 C  
BRANCH  10  11
HETATM   11  C   UNL     1     -12.069  13.866  70.656  1.00  0.00    -0.417 C  
BRANCH  11  12
HETATM   12  C   UNL     1     -11.974  12.524  69.945  1.00  0.00    -0.371 C  
BRANCH  12  13
HETATM   13  C   UNL     1     -12.059  11.374  70.941  1.00  0.00    -0.383 C  
BRANCH  13  14
HETATM   14  C   UNL     1     -12.473  10.085  70.240  1.00  0.00    -0.100 C  
BRANCH  14  15
HETATM   15  C   UNL     1     -12.015   8.859  71.025  1.00  0.00    -0.307 C  
BRANCH  15  16
HETATM   16  C   UNL     1     -10.629   9.088  71.623  1.00  0.00    -0.434 C  
BRANCH  16  17
HETATM   17  C   UNL     1     -10.441   8.288  72.908  1.00  0.00    -0.231 C  
HETATM   18  C   UNL     1      -9.388   7.215  72.749  1.00  0.00    -0.141 C  
HETATM   19  O   UNL     1      -8.751   6.991  71.733  1.00  0.00    -0.123 OA 
HETATM   20  O   UNL     1      -9.214   6.499  73.885  1.00  0.00    -0.138 OA 
ENDBRANCH  16  17
ENDBRANCH  15  16
ENDBRANCH  14  15
ENDBRANCH  13  14
ENDBRANCH  12  13
ENDBRANCH  11  12
ENDBRANCH  10  11
ENDBRANCH   9  10
ENDBRANCH   8   9
ENDBRANCH   7   8
ENDBRANCH   6   7
ENDBRANCH   5   6
ENDBRANCH   4   5
ENDBRANCH   3   4
ENDBRANCH   2   3
TORSDOF 15
ENDMDL
MODEL      326
REMARK 921   NORMALIZED FREE ENERGY PREDICTED BY IDOCK:   -2.87 KCAL/MOL
REMARK 922        TOTAL FREE ENERGY PREDICTED BY IDOCK:   -7.19 KCAL/MOL
REMARK 923 INTER-LIGAND FREE ENERGY PREDICTED BY IDOCK:   -5.61 KCAL/MOL
REMARK 924 INTRA-LIGAND FREE ENERGY PREDICTED BY IDOCK:   -1.58 KCAL/MOL
REMARK 927      BINDING AFFINITY PREDICTED BY RF-SCORE:    0.00 PKD
ROOT
HETATM    1  C   UNL     1      -6.261   6.100  65.758  1.00  0.00    -0.037 C  
HETATM    2  C   UNL     1      -7.294   5.319  64.966  1.00  0.00    -0.068 C  
ENDROOT
BRANCH   2   3
HETATM    3  C   UNL     1      -8.653   5.340  65.662  1.00  0.00    -0.143 C  
BRANCH   3   4
HETATM    4  C   UNL     1      -8.654   6.315  66.835  1.00  0.00    -0.113 C  
BRANCH   4   5
HETATM    5  C   UNL     1      -9.787   7.326  66.697  1.00  0.00    -0.257 C  
BRANCH   5   6
HETATM    6  C   UNL     1     -10.428   7.613  68.051  1.00  0.00    -0.247 C  
BRANCH   6   7
HETATM    7  C   UNL     1     -11.044   6.347  68.634  1.00  0.00    -0.393 C  
BRANCH   7   8
HETATM    8  C   UNL     1     -10.602   6.147  70.079  1.00  0.00    -0.323 C  
BRANCH   8   9
HETATM    9  C   UNL     1     -11.568   6.834  71.036  1.00  0.00    -0.388 C  
BRANCH   9  10
HETATM   10  C   UNL     1     -10.834   7.845  71.909  1.00  0.00    -0.295 C  
BRANCH  10  11
HETATM   11  C   UNL     1     -11.609   9.157  71.982  1.00  0.00    -0.371 C  
BRANCH  11  12
HETATM   12  C   UNL     1     -12.764   9.155  70.991  1.00  0.00    -0.185 C  
BRANCH  12  13
HETATM   13  C   UNL     1     -12.565  10.222  69.922  1.00  0.00     0.019 C  
BRANCH  13  14
HETATM   14  C   UNL     1     -11.218  10.915  70.100  1.00  0.00    -0.317 C  
BRANCH  14  15
HETATM   15  C   UNL     1     -11.164  12.223  69.317  1.00  0.00    -0.275 C  
BRANCH  15  16
HETATM   16  C   UNL     1     -11.496  11.986  67.846  1.00  0.00    -0.396 C  
BRANCH  16  17
HETATM   17  C   UNL     1     -11.894  13.284  67.151  1.00  0.00    -0.424 C  
HETATM   18  C   UNL     1     -12.205  13.062  65.689  1.00  0.00    -0.466 C  
HETATM   19  O   UNL     1     -12.152  11.991  65.106  1.00  0.00    -0.367 OA 
HETATM   20  O   UNL     1     -12.560  14.210  65.063  1.00  0.00    -0.562 OA 
ENDBRANCH  16  17
ENDBRANCH  15  16
ENDBRANCH  14  15
ENDBRANCH  13  14
ENDBRANCH  12  13
ENDBRANCH  11  12
ENDBRANCH  10  11
ENDBRANCH   9  10
ENDBRANCH   8   9
ENDBRANCH   7   8
ENDBRANCH   6   7
ENDBRANCH   5   6
ENDBRANCH   4   5
ENDBRANCH   3   4
ENDBRANCH   2   3
TORSDOF 15
ENDMDL
MODEL      327
REMARK 921   NORMALIZED FREE ENERGY PREDICTED BY IDOCK:   -2.87 KCAL/MOL
REMARK 922        TOTAL FREE ENERGY PREDICTED BY IDOCK:   -7.18 KCAL/MOL
REMARK 923 INTER-LIGAND FREE ENERGY PREDICTED BY IDOCK:   -5.08 KCAL/MOL
REMARK 924 INTRA-LIGAND FREE ENERGY PREDICTED BY IDOCK:   -2.10 KCAL/MOL
REMARK 927      BINDING AFFINITY PREDICTED BY RF-SCORE:    0.00 PKD
ROOT
HETATM    1  C   UNL     1      -9.619   8.719  71.264  1.00  0.00    -0.323 C  
HETATM    2  C   UNL     1      -9.687   9.752  70.153  1.00  0.00    -0.299 C  
ENDROOT
BRANCH   2   3
HETATM    3  C   UNL     1     -10.539   9.253  68.989  1.00  0.00    -0.225 C  
BRANCH   3   4
HETATM    4  C   UNL     1     -11.269  10.406  68.308  1.00  0.00    -0.330 C  
BRANCH   4   5
HETATM    5  C   UNL     1     -10.899  11.737  68.954  1.00  0.00    -0.265 C  
BRANCH   5   6
HETATM    6  C   UNL     1     -11.643  12.890  68.288  1.00  0.00    -0.374 C  
BRANCH   6   7
HETATM    7  C   UNL     1     -10.759  14.128  68.209  1.00  0.00    -0.256 C  
BRANCH   7   8
HETATM    8  C   UNL     1      -9.551  13.874  67.315  1.00  0.00    -0.243 C  
BRANCH   8   9
HETATM    9  C   UNL     1      -9.946  13.039  66.104  1.00  0.00    -0.278 C  
BRANCH   9  10
HETATM   10  C   UNL     1     -10.364  13.935  64.944  1.00  0.00    -0.430 C  
BRANCH  10  11
HETATM   11  C   UNL     1     -11.319  13.198  64.010  1.00  0.00    -0.437 C  
BRANCH  11  12
HETATM   12  C   UNL     1     -11.108  11.694  64.104  1.00  0.00    -0.435 C  
BRANCH  12  13
HETATM   13  C   UNL     1     -10.261  11.192  62.941  1.00  0.00    -0.168 C  
BRANCH  13  14
HETATM   14  C   UNL     1      -9.060  10.404  63.452  1.00  0.00    -0.278 C  
BRANCH  14  15
HETATM   15  C   UNL     1      -9.375   9.717  64.778  1.00  0.00    -0.327 C  
BRANCH  15  16
HETATM   16  C   UNL     1      -8.231   9.911  65.771  1.00  0.00    -0.125 C  
BRANCH  16  17
HETATM   17  C   UNL     1      -7.864   8.599  66.457  1.00  0.00    -0.099 C  
HETATM   18  C   UNL     1      -7.036   8.831  67.700  1.00  0.00    -0.075 C  
HETATM   19  O   UNL     1      -6.687   9.919  68.127  1.00  0.00    -0.060 OA 
HETATM   20  O   UNL     1      -6.705   7.671  68.316  1.00  0.00    -0.058 OA 
ENDBRANCH  16  17
ENDBRANCH  15  16
ENDBRANCH  14  15
ENDBRANCH  13  14
ENDBRANCH  12  13
ENDBRANCH  11  12
ENDBRANCH  10  11
ENDBRANCH   9  10
ENDBRANCH   8   9
ENDBRANCH   7   8
ENDBRANCH   6   7
ENDBRANCH   5   6
ENDBRANCH   4   5
ENDBRANCH   3   4
ENDBRANCH   2   3
TORSDOF 15
ENDMDL
MODEL      328
REMARK 921   NORMALIZED FREE ENERGY PREDICTED BY IDOCK:   -2.86 KCAL/MOL
REMARK 922        TOTAL FREE ENERGY PREDICTED BY IDOCK:   -7.16 KCAL/MOL
REMARK 923 INTER-LIGAND FREE ENERGY PREDICTED BY IDOCK:   -4.93 KCAL/MOL
REMARK 924 INTRA-LIGAND FREE ENERGY PREDICTED BY IDOCK:   -2.23 KCAL/MOL
REMARK 927      BINDING AFFINITY PREDICTED BY RF-SCORE:    0.00 PKD
ROOT
HETATM    1  C   UNL     1      -9.853   7.984  73.307  1.00  0.00    -0.281 C  
HETATM    2  C   UNL     1     -10.100   6.673  72.584  1.00  0.00    -0.191 C  
ENDROOT
BRANCH   2   3
HETATM    3  C   UNL     1     -11.594   6.416  72.403  1.00  0.00    -0.308 C  
BRANCH   3   4
HETATM    4  C   UNL     1     -12.122   7.106  71.149  1.00  0.00    -0.397 C  
BRANCH   4   5
HETATM    5  C   UNL     1     -13.498   7.712  71.404  1.00  0.00    -0.351 C  
BRANCH   5   6
HETATM    6  C   UNL     1     -13.394   8.939  72.304  1.00  0.00    -0.497 C  
BRANCH   6   7
HETATM    7  C   UNL     1     -13.087  10.184  71.482  1.00  0.00    -0.529 C  
BRANCH   7   8
HETATM    8  C   UNL     1     -11.583  10.403  71.373  1.00  0.00    -0.115 C  
BRANCH   8   9
HETATM    9  C   UNL     1     -11.223  10.996  70.017  1.00  0.00    -0.303 C  
BRANCH   9  10
HETATM   10  C   UNL     1     -10.273  10.075  69.261  1.00  0.00    -0.229 C  
BRANCH  10  11
HETATM   11  C   UNL     1      -9.215   9.503  70.199  1.00  0.00    -0.281 C  
BRANCH  11  12
HETATM   12  C   UNL     1      -8.531   8.299  69.566  1.00  0.00    -0.125 C  
BRANCH  12  13
HETATM   13  C   UNL     1      -9.558   7.316  69.021  1.00  0.00    -0.147 C  
BRANCH  13  14
HETATM   14  C   UNL     1      -9.226   6.936  67.581  1.00  0.00    -0.119 C  
BRANCH  14  15
HETATM   15  C   UNL     1      -7.763   7.223  67.259  1.00  0.00    -0.109 C  
BRANCH  15  16
HETATM   16  C   UNL     1      -7.647   8.114  66.024  1.00  0.00    -0.082 C  
BRANCH  16  17
HETATM   17  C   UNL     1      -8.642   9.268  66.078  1.00  0.00    -0.158 C  
HETATM   18  C   UNL     1      -9.056   9.714  64.695  1.00  0.00    -0.235 C  
HETATM   19  O   UNL     1      -8.661   9.233  63.646  1.00  0.00    -0.201 OA 
HETATM   20  O   UNL     1      -9.940  10.740  64.733  1.00  0.00    -0.269 OA 
ENDBRANCH  16  17
ENDBRANCH  15  16
ENDBRANCH  14  15
ENDBRANCH  13  14
ENDBRANCH  12  13
ENDBRANCH  11  12
ENDBRANCH  10  11
ENDBRANCH   9  10
ENDBRANCH   8   9
ENDBRANCH   7   8
ENDBRANCH   6   7
ENDBRANCH   5   6
ENDBRANCH   4   5
ENDBRANCH   3   4
ENDBRANCH   2   3
TORSDOF 15
ENDMDL
MODEL      329
REMARK 921   NORMALIZED FREE ENERGY PREDICTED BY IDOCK:   -2.84 KCAL/MOL
REMARK 922        TOTAL FREE ENERGY PREDICTED BY IDOCK:   -7.12 KCAL/MOL
REMARK 923 INTER-LIGAND FREE ENERGY PREDICTED BY IDOCK:   -4.90 KCAL/MOL
REMARK 924 INTRA-LIGAND FREE ENERGY PREDICTED BY IDOCK:   -2.22 KCAL/MOL
REMARK 927      BINDING AFFINITY PREDICTED BY RF-SCORE:    0.00 PKD
ROOT
HETATM    1  C   UNL     1      -9.377   3.831  70.477  1.00  0.00    -0.228 C  
HETATM    2  C   UNL     1     -10.152   5.028  70.996  1.00  0.00    -0.297 C  
ENDROOT
BRANCH   2   3
HETATM    3  C   UNL     1     -10.043   6.212  70.039  1.00  0.00    -0.228 C  
BRANCH   3   4
HETATM    4  C   UNL     1     -11.273   6.310  69.143  1.00  0.00    -0.439 C  
BRANCH   4   5
HETATM    5  C   UNL     1     -10.873   6.293  67.671  1.00  0.00    -0.433 C  
BRANCH   5   6
HETATM    6  C   UNL     1      -9.376   6.531  67.512  1.00  0.00    -0.124 C  
BRANCH   6   7
HETATM    7  C   UNL     1      -8.959   6.389  66.053  1.00  0.00    -0.143 C  
BRANCH   7   8
HETATM    8  C   UNL     1      -7.580   6.994  65.823  1.00  0.00    -0.094 C  
BRANCH   8   9
HETATM    9  C   UNL     1      -7.577   7.866  64.575  1.00  0.00    -0.111 C  
BRANCH   9  10
HETATM   10  C   UNL     1      -7.345   9.328  64.939  1.00  0.00    -0.103 C  
BRANCH  10  11
HETATM   11  C   UNL     1      -6.727   9.446  66.329  1.00  0.00    -0.075 C  
BRANCH  11  12
HETATM   12  C   UNL     1      -7.470  10.481  67.161  1.00  0.00    -0.097 C  
BRANCH  12  13
HETATM   13  C   UNL     1      -8.668   9.855  67.863  1.00  0.00    -0.129 C  
BRANCH  13  14
HETATM   14  C   UNL     1      -9.966  10.246  67.164  1.00  0.00    -0.243 C  
BRANCH  14  15
HETATM   15  C   UNL     1     -11.127  10.308  68.152  1.00  0.00    -0.324 C  
BRANCH  15  16
HETATM   16  C   UNL     1     -10.613  10.482  69.579  1.00  0.00    -0.278 C  
BRANCH  16  17
HETATM   17  C   UNL     1     -11.718  10.232  70.601  1.00  0.00    -0.438 C  
HETATM   18  C   UNL     1     -12.399  11.516  71.012  1.00  0.00    -0.329 C  
HETATM   19  O   UNL     1     -12.123  12.630  70.598  1.00  0.00    -0.357 OA 
HETATM   20  O   UNL     1     -13.382  11.305  71.919  1.00  0.00    -0.429 OA 
ENDBRANCH  16  17
ENDBRANCH  15  16
ENDBRANCH  14  15
ENDBRANCH  13  14
ENDBRANCH  12  13
ENDBRANCH  11  12
ENDBRANCH  10  11
ENDBRANCH   9  10
ENDBRANCH   8   9
ENDBRANCH   7   8
ENDBRANCH   6   7
ENDBRANCH   5   6
ENDBRANCH   4   5
ENDBRANCH   3   4
ENDBRANCH   2   3
TORSDOF 15
ENDMDL
MODEL      330
REMARK 921   NORMALIZED FREE ENERGY PREDICTED BY IDOCK:   -2.83 KCAL/MOL
REMARK 922        TOTAL FREE ENERGY PREDICTED BY IDOCK:   -7.11 KCAL/MOL
REMARK 923 INTER-LIGAND FREE ENERGY PREDICTED BY IDOCK:   -5.72 KCAL/MOL
REMARK 924 INTRA-LIGAND FREE ENERGY PREDICTED BY IDOCK:   -1.39 KCAL/MOL
REMARK 927      BINDING AFFINITY PREDICTED BY RF-SCORE:    0.00 PKD
ROOT
HETATM    1  C   UNL     1      -8.762   9.258  64.442  1.00  0.00    -0.211 C  
HETATM    2  C   UNL     1      -8.901  10.741  64.733  1.00  0.00    -0.162 C  
ENDROOT
BRANCH   2   3
HETATM    3  C   UNL     1     -10.370  11.143  64.852  1.00  0.00    -0.375 C  
BRANCH   3   4
HETATM    4  C   UNL     1     -10.969  11.443  63.482  1.00  0.00    -0.406 C  
BRANCH   4   5
HETATM    5  C   UNL     1     -11.974  12.588  63.571  1.00  0.00    -0.629 C  
BRANCH   5   6
HETATM    6  C   UNL     1     -12.074  13.114  64.999  1.00  0.00    -0.458 C  
BRANCH   6   7
HETATM    7  C   UNL     1     -11.947  14.631  65.025  1.00  0.00    -0.364 C  
BRANCH   7   8
HETATM    8  C   UNL     1     -10.851  15.066  65.991  1.00  0.00    -0.334 C  
BRANCH   8   9
HETATM    9  C   UNL     1     -10.171  16.336  65.497  1.00  0.00    -0.326 C  
BRANCH   9  10
HETATM   10  C   UNL     1     -10.784  17.566  66.156  1.00  0.00    -0.098 C  
BRANCH  10  11
HETATM   11  C   UNL     1      -9.822  18.748  66.090  1.00  0.00    -0.327 C  
BRANCH  11  12
HETATM   12  C   UNL     1      -9.784  19.484  67.422  1.00  0.00    -0.449 C  
BRANCH  12  13
HETATM   13  C   UNL     1      -9.017  18.681  68.465  1.00  0.00    -0.364 C  
BRANCH  13  14
HETATM   14  C   UNL     1      -7.521  18.705  68.167  1.00  0.00    -0.288 C  
BRANCH  14  15
HETATM   15  C   UNL     1      -6.939  17.294  68.149  1.00  0.00    -0.181 C  
BRANCH  15  16
HETATM   16  C   UNL     1      -7.631  16.413  69.187  1.00  0.00    -0.225 C  
BRANCH  16  17
HETATM   17  C   UNL     1      -6.825  15.148  69.465  1.00  0.00    -0.179 C  
HETATM   18  C   UNL     1      -7.368  13.960  68.706  1.00  0.00    -0.118 C  
HETATM   19  O   UNL     1      -8.331  13.977  67.957  1.00  0.00    -0.142 OA 
HETATM   20  O   UNL     1      -6.659  12.833  68.948  1.00  0.00    -0.084 OA 
ENDBRANCH  16  17
ENDBRANCH  15  16
ENDBRANCH  14  15
ENDBRANCH  13  14
ENDBRANCH  12  13
ENDBRANCH  11  12
ENDBRANCH  10  11
ENDBRANCH   9  10
ENDBRANCH   8   9
ENDBRANCH   7   8
ENDBRANCH   6   7
ENDBRANCH   5   6
ENDBRANCH   4   5
ENDBRANCH   3   4
ENDBRANCH   2   3
TORSDOF 15
ENDMDL
MODEL      331
REMARK 921   NORMALIZED FREE ENERGY PREDICTED BY IDOCK:   -2.83 KCAL/MOL
REMARK 922        TOTAL FREE ENERGY PREDICTED BY IDOCK:   -7.11 KCAL/MOL
REMARK 923 INTER-LIGAND FREE ENERGY PREDICTED BY IDOCK:   -5.41 KCAL/MOL
REMARK 924 INTRA-LIGAND FREE ENERGY PREDICTED BY IDOCK:   -1.70 KCAL/MOL
REMARK 927      BINDING AFFINITY PREDICTED BY RF-SCORE:    0.00 PKD
ROOT
HETATM    1  C   UNL     1     -10.638  12.458  65.034  1.00  0.00    -0.330 C  
HETATM    2  C   UNL     1     -11.761  12.315  66.046  1.00  0.00    -0.451 C  
ENDROOT
BRANCH   2   3
HETATM    3  C   UNL     1     -11.389  12.963  67.377  1.00  0.00    -0.355 C  
BRANCH   3   4
HETATM    4  C   UNL     1     -10.924  11.918  68.386  1.00  0.00    -0.273 C  
BRANCH   4   5
HETATM    5  C   UNL     1     -12.088  11.443  69.249  1.00  0.00    -0.356 C  
BRANCH   5   6
HETATM    6  C   UNL     1     -12.282  12.360  70.452  1.00  0.00    -0.370 C  
BRANCH   6   7
HETATM    7  C   UNL     1     -12.937  11.608  71.603  1.00  0.00    -0.483 C  
BRANCH   7   8
HETATM    8  C   UNL     1     -13.286  10.183  71.188  1.00  0.00    -0.438 C  
BRANCH   8   9
HETATM    9  C   UNL     1     -12.606   9.175  72.105  1.00  0.00    -0.451 C  
BRANCH   9  10
HETATM   10  C   UNL     1     -11.150   8.974  71.701  1.00  0.00    -0.433 C  
BRANCH  10  11
HETATM   11  C   UNL     1     -11.024   7.847  70.681  1.00  0.00    -0.248 C  
BRANCH  11  12
HETATM   12  C   UNL     1      -9.779   8.034  69.826  1.00  0.00    -0.176 C  
BRANCH  12  13
HETATM   13  C   UNL     1      -8.645   8.639  70.643  1.00  0.00    -0.183 C  
BRANCH  13  14
HETATM   14  C   UNL     1      -7.310   8.452  69.930  1.00  0.00    -0.060 C  
BRANCH  14  15
HETATM   15  C   UNL     1      -7.451   7.519  68.731  1.00  0.00    -0.097 C  
BRANCH  15  16
HETATM   16  C   UNL     1      -6.849   8.153  67.479  1.00  0.00    -0.070 C  
BRANCH  16  17
HETATM   17  C   UNL     1      -7.834   9.107  66.813  1.00  0.00    -0.101 C  
HETATM   18  C   UNL     1      -8.418   8.516  65.551  1.00  0.00    -0.167 C  
HETATM   19  O   UNL     1      -8.154   7.416  65.094  1.00  0.00    -0.123 OA 
HETATM   20  O   UNL     1      -9.294   9.357  64.951  1.00  0.00    -0.242 OA 
ENDBRANCH  16  17
ENDBRANCH  15  16
ENDBRANCH  14  15
ENDBRANCH  13  14
ENDBRANCH  12  13
ENDBRANCH  11  12
ENDBRANCH  10  11
ENDBRANCH   9  10
ENDBRANCH   8   9
ENDBRANCH   7   8
ENDBRANCH   6   7
ENDBRANCH   5   6
ENDBRANCH   4   5
ENDBRANCH   3   4
ENDBRANCH   2   3
TORSDOF 15
ENDMDL
MODEL      332
REMARK 921   NORMALIZED FREE ENERGY PREDICTED BY IDOCK:   -2.82 KCAL/MOL
REMARK 922        TOTAL FREE ENERGY PREDICTED BY IDOCK:   -7.09 KCAL/MOL
REMARK 923 INTER-LIGAND FREE ENERGY PREDICTED BY IDOCK:   -5.27 KCAL/MOL
REMARK 924 INTRA-LIGAND FREE ENERGY PREDICTED BY IDOCK:   -1.82 KCAL/MOL
REMARK 927      BINDING AFFINITY PREDICTED BY RF-SCORE:    0.00 PKD
ROOT
HETATM    1  C   UNL     1      -7.515   8.553  71.168  1.00  0.00    -0.097 C  
HETATM    2  C   UNL     1      -7.506   9.736  70.217  1.00  0.00    -0.173 C  
ENDROOT
BRANCH   2   3
HETATM    3  C   UNL     1      -7.393   9.274  68.766  1.00  0.00    -0.075 C  
BRANCH   3   4
HETATM    4  C   UNL     1      -8.609   9.710  67.955  1.00  0.00    -0.122 C  
BRANCH   4   5
HETATM    5  C   UNL     1      -9.517  10.613  68.784  1.00  0.00    -0.186 C  
BRANCH   5   6
HETATM    6  C   UNL     1     -10.919  10.671  68.186  1.00  0.00    -0.321 C  
BRANCH   6   7
HETATM    7  C   UNL     1     -11.581  12.007  68.495  1.00  0.00    -0.363 C  
BRANCH   7   8
HETATM    8  C   UNL     1     -10.612  13.159  68.256  1.00  0.00    -0.260 C  
BRANCH   8   9
HETATM    9  C   UNL     1     -10.584  13.540  66.782  1.00  0.00    -0.272 C  
BRANCH   9  10
HETATM   10  C   UNL     1     -11.748  14.462  66.440  1.00  0.00    -0.397 C  
BRANCH  10  11
HETATM   11  C   UNL     1     -12.700  13.787  65.458  1.00  0.00    -0.530 C  
BRANCH  11  12
HETATM   12  C   UNL     1     -12.098  12.493  64.929  1.00  0.00    -0.499 C  
BRANCH  12  13
HETATM   13  C   UNL     1     -11.595  12.672  63.502  1.00  0.00    -0.584 C  
BRANCH  13  14
HETATM   14  C   UNL     1     -10.368  11.801  63.253  1.00  0.00    -0.446 C  
BRANCH  14  15
HETATM   15  C   UNL     1     -10.205  10.751  64.348  1.00  0.00    -0.432 C  
BRANCH  15  16
HETATM   16  C   UNL     1      -8.765  10.248  64.404  1.00  0.00    -0.209 C  
BRANCH  16  17
HETATM   17  C   UNL     1      -8.713   8.728  64.529  1.00  0.00    -0.078 C  
HETATM   18  C   UNL     1      -7.413   8.262  65.143  1.00  0.00    -0.085 C  
HETATM   19  O   UNL     1      -6.499   8.986  65.503  1.00  0.00    -0.066 OA 
HETATM   20  O   UNL     1      -7.358   6.914  65.257  1.00  0.00    -0.076 OA 
ENDBRANCH  16  17
ENDBRANCH  15  16
ENDBRANCH  14  15
ENDBRANCH  13  14
ENDBRANCH  12  13
ENDBRANCH  11  12
ENDBRANCH  10  11
ENDBRANCH   9  10
ENDBRANCH   8   9
ENDBRANCH   7   8
ENDBRANCH   6   7
ENDBRANCH   5   6
ENDBRANCH   4   5
ENDBRANCH   3   4
ENDBRANCH   2   3
TORSDOF 15
ENDMDL
MODEL      333
REMARK 921   NORMALIZED FREE ENERGY PREDICTED BY IDOCK:   -2.82 KCAL/MOL
REMARK 922        TOTAL FREE ENERGY PREDICTED BY IDOCK:   -7.09 KCAL/MOL
REMARK 923 INTER-LIGAND FREE ENERGY PREDICTED BY IDOCK:   -5.86 KCAL/MOL
REMARK 924 INTRA-LIGAND FREE ENERGY PREDICTED BY IDOCK:   -1.23 KCAL/MOL
REMARK 927      BINDING AFFINITY PREDICTED BY RF-SCORE:    0.00 PKD
ROOT
HETATM    1  C   UNL     1     -11.631   5.259  72.853  1.00  0.00    -0.292 C  
HETATM    2  C   UNL     1     -10.298   5.971  72.995  1.00  0.00    -0.224 C  
ENDROOT
BRANCH   2   3
HETATM    3  C   UNL     1      -9.216   5.283  72.166  1.00  0.00    -0.156 C  
BRANCH   3   4
HETATM    4  C   UNL     1      -9.288   5.712  70.705  1.00  0.00    -0.191 C  
BRANCH   4   5
HETATM    5  C   UNL     1      -9.677   7.183  70.591  1.00  0.00    -0.175 C  
BRANCH   5   6
HETATM    6  C   UNL     1      -9.781   7.606  69.129  1.00  0.00    -0.164 C  
BRANCH   6   7
HETATM    7  C   UNL     1      -8.547   7.166  68.352  1.00  0.00    -0.123 C  
BRANCH   7   8
HETATM    8  C   UNL     1      -8.887   6.936  66.884  1.00  0.00    -0.122 C  
BRANCH   8   9
HETATM    9  C   UNL     1      -9.819   8.025  66.371  1.00  0.00    -0.237 C  
BRANCH   9  10
HETATM   10  C   UNL     1      -9.021   9.188  65.793  1.00  0.00    -0.237 C  
BRANCH  10  11
HETATM   11  C   UNL     1      -9.893  10.036  64.871  1.00  0.00    -0.352 C  
BRANCH  11  12
HETATM   12  C   UNL     1      -9.674  11.518  65.138  1.00  0.00    -0.268 C  
BRANCH  12  13
HETATM   13  C   UNL     1      -9.537  11.786  66.631  1.00  0.00    -0.219 C  
BRANCH  13  14
HETATM   14  C   UNL     1     -10.880  12.190  67.230  1.00  0.00    -0.286 C  
BRANCH  14  15
HETATM   15  C   UNL     1     -10.941  13.694  67.483  1.00  0.00    -0.282 C  
BRANCH  15  16
HETATM   16  C   UNL     1     -12.254  14.276  66.964  1.00  0.00    -0.338 C  
BRANCH  16  17
HETATM   17  C   UNL     1     -12.670  13.620  65.651  1.00  0.00    -0.505 C  
HETATM   18  C   UNL     1     -12.142  14.379  64.455  1.00  0.00    -0.481 C  
HETATM   19  O   UNL     1     -11.465  15.393  64.501  1.00  0.00    -0.394 OA 
HETATM   20  O   UNL     1     -12.506  13.804  63.285  1.00  0.00    -0.819 OA 
ENDBRANCH  16  17
ENDBRANCH  15  16
ENDBRANCH  14  15
ENDBRANCH  13  14
ENDBRANCH  12  13
ENDBRANCH  11  12
ENDBRANCH  10  11
ENDBRANCH   9  10
ENDBRANCH   8   9
ENDBRANCH   7   8
ENDBRANCH   6   7
ENDBRANCH   5   6
ENDBRANCH   4   5
ENDBRANCH   3   4
ENDBRANCH   2   3
TORSDOF 15
ENDMDL
MODEL      334
REMARK 921   NORMALIZED FREE ENERGY PREDICTED BY IDOCK:   -2.82 KCAL/MOL
REMARK 922        TOTAL FREE ENERGY PREDICTED BY IDOCK:   -7.09 KCAL/MOL
REMARK 923 INTER-LIGAND FREE ENERGY PREDICTED BY IDOCK:   -5.30 KCAL/MOL
REMARK 924 INTRA-LIGAND FREE ENERGY PREDICTED BY IDOCK:   -1.79 KCAL/MOL
REMARK 927      BINDING AFFINITY PREDICTED BY RF-SCORE:    0.00 PKD
ROOT
HETATM    1  C   UNL     1      -9.599   4.642  68.123  1.00  0.00    -0.204 C  
HETATM    2  C   UNL     1      -8.719   4.038  69.203  1.00  0.00    -0.127 C  
ENDROOT
BRANCH   2   3
HETATM    3  C   UNL     1      -9.435   2.899  69.923  1.00  0.00    -0.173 C  
BRANCH   3   4
HETATM    4  C   UNL     1      -8.679   2.483  71.181  1.00  0.00    -0.116 C  
BRANCH   4   5
HETATM    5  C   UNL     1      -9.534   2.704  72.424  1.00  0.00    -0.168 C  
BRANCH   5   6
HETATM    6  C   UNL     1      -8.904   3.750  73.338  1.00  0.00    -0.092 C  
BRANCH   6   7
HETATM    7  C   UNL     1      -9.618   5.088  73.197  1.00  0.00    -0.156 C  
BRANCH   7   8
HETATM    8  C   UNL     1     -11.115   4.931  73.436  1.00  0.00    -0.415 C  
BRANCH   8   9
HETATM    9  C   UNL     1     -11.909   5.725  72.408  1.00  0.00    -0.227 C  
BRANCH   9  10
HETATM   10  C   UNL     1     -11.046   6.053  71.195  1.00  0.00    -0.336 C  
BRANCH  10  11
HETATM   11  C   UNL     1     -11.339   7.462  70.690  1.00  0.00    -0.304 C  
BRANCH  11  12
HETATM   12  C   UNL     1     -12.145   8.244  71.717  1.00  0.00    -0.364 C  
BRANCH  12  13
HETATM   13  C   UNL     1     -12.008   9.744  71.487  1.00  0.00    -0.488 C  
BRANCH  13  14
HETATM   14  C   UNL     1     -10.861  10.037  70.526  1.00  0.00    -0.380 C  
BRANCH  14  15
HETATM   15  C   UNL     1     -11.226  11.158  69.557  1.00  0.00    -0.341 C  
BRANCH  15  16
HETATM   16  C   UNL     1     -11.513  10.597  68.167  1.00  0.00    -0.303 C  
BRANCH  16  17
HETATM   17  C   UNL     1     -10.950  11.504  67.076  1.00  0.00    -0.347 C  
HETATM   18  C   UNL     1     -10.286  10.709  65.976  1.00  0.00    -0.247 C  
HETATM   19  O   UNL     1     -10.193   9.493  65.936  1.00  0.00    -0.266 OA 
HETATM   20  O   UNL     1      -9.783  11.505  65.004  1.00  0.00    -0.242 OA 
ENDBRANCH  16  17
ENDBRANCH  15  16
ENDBRANCH  14  15
ENDBRANCH  13  14
ENDBRANCH  12  13
ENDBRANCH  11  12
ENDBRANCH  10  11
ENDBRANCH   9  10
ENDBRANCH   8   9
ENDBRANCH   7   8
ENDBRANCH   6   7
ENDBRANCH   5   6
ENDBRANCH   4   5
ENDBRANCH   3   4
ENDBRANCH   2   3
TORSDOF 15
ENDMDL
MODEL      335
REMARK 921   NORMALIZED FREE ENERGY PREDICTED BY IDOCK:   -2.79 KCAL/MOL
REMARK 922        TOTAL FREE ENERGY PREDICTED BY IDOCK:   -7.04 KCAL/MOL
REMARK 923 INTER-LIGAND FREE ENERGY PREDICTED BY IDOCK:   -5.90 KCAL/MOL
REMARK 924 INTRA-LIGAND FREE ENERGY PREDICTED BY IDOCK:   -1.14 KCAL/MOL
REMARK 927      BINDING AFFINITY PREDICTED BY RF-SCORE:    0.00 PKD
ROOT
HETATM    1  C   UNL     1     -10.739   6.256  66.987  1.00  0.00    -0.435 C  
HETATM    2  C   UNL     1     -10.255   5.132  67.885  1.00  0.00    -0.180 C  
ENDROOT
BRANCH   2   3
HETATM    3  C   UNL     1     -10.506   5.455  69.356  1.00  0.00    -0.331 C  
BRANCH   3   4
HETATM    4  C   UNL     1     -11.451   6.643  69.503  1.00  0.00    -0.323 C  
BRANCH   4   5
HETATM    5  C   UNL     1     -11.823   6.860  70.966  1.00  0.00    -0.411 C  
BRANCH   5   6
HETATM    6  C   UNL     1     -10.699   7.570  71.714  1.00  0.00    -0.243 C  
BRANCH   6   7
HETATM    7  C   UNL     1     -10.576   9.017  71.254  1.00  0.00    -0.378 C  
BRANCH   7   8
HETATM    8  C   UNL     1     -11.884   9.768  71.478  1.00  0.00    -0.476 C  
BRANCH   8   9
HETATM    9  C   UNL     1     -12.040  10.889  70.459  1.00  0.00    -0.464 C  
BRANCH   9  10
HETATM   10  C   UNL     1     -10.830  10.951  69.535  1.00  0.00    -0.286 C  
BRANCH  10  11
HETATM   11  C   UNL     1     -11.267  11.125  68.084  1.00  0.00    -0.356 C  
BRANCH  11  12
HETATM   12  C   UNL     1     -11.104  12.573  67.644  1.00  0.00    -0.301 C  
BRANCH  12  13
HETATM   13  C   UNL     1      -9.835  12.750  66.820  1.00  0.00    -0.242 C  
BRANCH  13  14
HETATM   14  C   UNL     1      -9.304  14.174  66.950  1.00  0.00    -0.274 C  
BRANCH  14  15
HETATM   15  C   UNL     1      -8.228  14.264  68.028  1.00  0.00    -0.153 C  
BRANCH  15  16
HETATM   16  C   UNL     1      -7.322  15.470  67.785  1.00  0.00    -0.174 C  
BRANCH  16  17
HETATM   17  C   UNL     1      -7.653  16.155  66.463  1.00  0.00    -0.168 C  
HETATM   18  C   UNL     1      -6.860  17.428  66.279  1.00  0.00    -0.272 C  
HETATM   19  O   UNL     1      -6.049  17.879  67.071  1.00  0.00    -0.142 OA 
HETATM   20  O   UNL     1      -7.148  18.043  65.108  1.00  0.00    -0.286 OA 
ENDBRANCH  16  17
ENDBRANCH  15  16
ENDBRANCH  14  15
ENDBRANCH  13  14
ENDBRANCH  12  13
ENDBRANCH  11  12
ENDBRANCH  10  11
ENDBRANCH   9  10
ENDBRANCH   8   9
ENDBRANCH   7   8
ENDBRANCH   6   7
ENDBRANCH   5   6
ENDBRANCH   4   5
ENDBRANCH   3   4
ENDBRANCH   2   3
TORSDOF 15
ENDMDL
MODEL      336
REMARK 921   NORMALIZED FREE ENERGY PREDICTED BY IDOCK:   -2.79 KCAL/MOL
REMARK 922        TOTAL FREE ENERGY PREDICTED BY IDOCK:   -7.03 KCAL/MOL
REMARK 923 INTER-LIGAND FREE ENERGY PREDICTED BY IDOCK:   -4.94 KCAL/MOL
REMARK 924 INTRA-LIGAND FREE ENERGY PREDICTED BY IDOCK:   -2.09 KCAL/MOL
REMARK 927      BINDING AFFINITY PREDICTED BY RF-SCORE:    0.00 PKD
ROOT
HETATM    1  C   UNL     1     -10.308   6.078  72.168  1.00  0.00    -0.232 C  
HETATM    2  C   UNL     1     -11.822   6.019  72.074  1.00  0.00    -0.284 C  
ENDROOT
BRANCH   2   3
HETATM    3  C   UNL     1     -12.352   7.043  71.074  1.00  0.00    -0.402 C  
BRANCH   3   4
HETATM    4  C   UNL     1     -13.092   8.172  71.785  1.00  0.00    -0.367 C  
BRANCH   4   5
HETATM    5  C   UNL     1     -12.625   9.531  71.273  1.00  0.00    -0.425 C  
BRANCH   5   6
HETATM    6  C   UNL     1     -11.114   9.675  71.415  1.00  0.00    -0.397 C  
BRANCH   6   7
HETATM    7  C   UNL     1     -10.465   9.909  70.057  1.00  0.00    -0.331 C  
BRANCH   7   8
HETATM    8  C   UNL     1      -9.341   8.908  69.816  1.00  0.00    -0.169 C  
BRANCH   8   9
HETATM    9  C   UNL     1      -9.792   7.815  68.855  1.00  0.00    -0.166 C  
BRANCH   9  10
HETATM   10  C   UNL     1     -10.119   8.402  67.487  1.00  0.00    -0.279 C  
BRANCH  10  11
HETATM   11  C   UNL     1      -8.842   8.768  66.737  1.00  0.00    -0.147 C  
BRANCH  11  12
HETATM   12  C   UNL     1      -9.010   8.532  65.243  1.00  0.00    -0.102 C  
BRANCH  12  13
HETATM   13  C   UNL     1      -9.251   9.845  64.510  1.00  0.00    -0.315 C  
BRANCH  13  14
HETATM   14  C   UNL     1      -8.927  11.032  65.412  1.00  0.00    -0.192 C  
BRANCH  14  15
HETATM   15  C   UNL     1     -10.172  11.870  65.689  1.00  0.00    -0.280 C  
BRANCH  15  16
HETATM   16  C   UNL     1     -10.096  12.506  67.075  1.00  0.00    -0.222 C  
BRANCH  16  17
HETATM   17  C   UNL     1      -8.695  12.381  67.666  1.00  0.00    -0.178 C  
HETATM   18  C   UNL     1      -7.968  13.706  67.666  1.00  0.00    -0.177 C  
HETATM   19  O   UNL     1      -8.418  14.762  67.251  1.00  0.00    -0.187 OA 
HETATM   20  O   UNL     1      -6.723  13.605  68.188  1.00  0.00    -0.093 OA 
ENDBRANCH  16  17
ENDBRANCH  15  16
ENDBRANCH  14  15
ENDBRANCH  13  14
ENDBRANCH  12  13
ENDBRANCH  11  12
ENDBRANCH  10  11
ENDBRANCH   9  10
ENDBRANCH   8   9
ENDBRANCH   7   8
ENDBRANCH   6   7
ENDBRANCH   5   6
ENDBRANCH   4   5
ENDBRANCH   3   4
ENDBRANCH   2   3
TORSDOF 15
ENDMDL
MODEL      337
REMARK 921   NORMALIZED FREE ENERGY PREDICTED BY IDOCK:   -2.78 KCAL/MOL
REMARK 922        TOTAL FREE ENERGY PREDICTED BY IDOCK:   -7.02 KCAL/MOL
REMARK 923 INTER-LIGAND FREE ENERGY PREDICTED BY IDOCK:   -6.03 KCAL/MOL
REMARK 924 INTRA-LIGAND FREE ENERGY PREDICTED BY IDOCK:   -0.99 KCAL/MOL
REMARK 927      BINDING AFFINITY PREDICTED BY RF-SCORE:    0.00 PKD
ROOT
HETATM    1  C   UNL     1     -10.614  12.405  65.039  1.00  0.00    -0.330 C  
HETATM    2  C   UNL     1     -11.768  12.235  66.010  1.00  0.00    -0.451 C  
ENDROOT
BRANCH   2   3
HETATM    3  C   UNL     1     -11.457  12.888  67.354  1.00  0.00    -0.388 C  
BRANCH   3   4
HETATM    4  C   UNL     1     -10.865  11.878  68.331  1.00  0.00    -0.263 C  
BRANCH   4   5
HETATM    5  C   UNL     1     -11.953  11.286  69.223  1.00  0.00    -0.411 C  
BRANCH   5   6
HETATM    6  C   UNL     1     -12.213  12.182  70.429  1.00  0.00    -0.378 C  
BRANCH   6   7
HETATM    7  C   UNL     1     -12.869  11.392  71.555  1.00  0.00    -0.508 C  
BRANCH   7   8
HETATM    8  C   UNL     1     -13.357  10.038  71.053  1.00  0.00    -0.334 C  
BRANCH   8   9
HETATM    9  C   UNL     1     -13.435   9.037  72.197  1.00  0.00    -0.514 C  
BRANCH   9  10
HETATM   10  C   UNL     1     -12.113   8.295  72.356  1.00  0.00    -0.430 C  
BRANCH  10  11
HETATM   11  C   UNL     1     -12.119   7.002  71.546  1.00  0.00    -0.392 C  
BRANCH  11  12
HETATM   12  C   UNL     1     -10.965   6.101  71.964  1.00  0.00    -0.305 C  
BRANCH  12  13
HETATM   13  C   UNL     1     -11.383   5.175  73.100  1.00  0.00    -0.385 C  
BRANCH  13  14
HETATM   14  C   UNL     1     -10.301   4.135  73.370  1.00  0.00    -0.232 C  
BRANCH  14  15
HETATM   15  C   UNL     1     -10.744   2.748  72.914  1.00  0.00    -0.185 C  
BRANCH  15  16
HETATM   16  C   UNL     1      -9.648   2.076  72.088  1.00  0.00    -0.180 C  
BRANCH  16  17
HETATM   17  C   UNL     1      -8.597   3.085  71.638  1.00  0.00    -0.100 C  
HETATM   18  C   UNL     1      -8.613   3.277  70.139  1.00  0.00    -0.059 C  
HETATM   19  O   UNL     1      -9.360   2.710  69.359  1.00  0.00    -0.132 OA 
HETATM   20  O   UNL     1      -7.682   4.171  69.729  1.00  0.00    -0.053 OA 
ENDBRANCH  16  17
ENDBRANCH  15  16
ENDBRANCH  14  15
ENDBRANCH  13  14
ENDBRANCH  12  13
ENDBRANCH  11  12
ENDBRANCH  10  11
ENDBRANCH   9  10
ENDBRANCH   8   9
ENDBRANCH   7   8
ENDBRANCH   6   7
ENDBRANCH   5   6
ENDBRANCH   4   5
ENDBRANCH   3   4
ENDBRANCH   2   3
TORSDOF 15
ENDMDL
MODEL      338
REMARK 921   NORMALIZED FREE ENERGY PREDICTED BY IDOCK:   -2.78 KCAL/MOL
REMARK 922        TOTAL FREE ENERGY PREDICTED BY IDOCK:   -7.02 KCAL/MOL
REMARK 923 INTER-LIGAND FREE ENERGY PREDICTED BY IDOCK:   -5.34 KCAL/MOL
REMARK 924 INTRA-LIGAND FREE ENERGY PREDICTED BY IDOCK:   -1.68 KCAL/MOL
REMARK 927      BINDING AFFINITY PREDICTED BY RF-SCORE:    0.00 PKD
ROOT
HETATM    1  C   UNL     1     -11.500   6.460  72.136  1.00  0.00    -0.344 C  
HETATM    2  C   UNL     1     -12.398   7.199  71.160  1.00  0.00    -0.404 C  
ENDROOT
BRANCH   2   3
HETATM    3  C   UNL     1     -12.691   8.616  71.647  1.00  0.00    -0.379 C  
BRANCH   3   4
HETATM    4  C   UNL     1     -11.554   9.567  71.288  1.00  0.00    -0.445 C  
BRANCH   4   5
HETATM    5  C   UNL     1     -11.530   9.840  69.788  1.00  0.00    -0.145 C  
BRANCH   5   6
HETATM    6  C   UNL     1     -10.791  11.139  69.484  1.00  0.00    -0.241 C  
BRANCH   6   7
HETATM    7  C   UNL     1     -11.772  12.293  69.324  1.00  0.00    -0.388 C  
BRANCH   7   8
HETATM    8  C   UNL     1     -11.362  13.196  68.167  1.00  0.00    -0.328 C  
BRANCH   8   9
HETATM    9  C   UNL     1     -11.824  12.611  66.839  1.00  0.00    -0.425 C  
BRANCH   9  10
HETATM   10  C   UNL     1     -10.672  12.558  65.843  1.00  0.00    -0.294 C  
BRANCH  10  11
HETATM   11  C   UNL     1     -10.710  11.260  65.043  1.00  0.00    -0.322 C  
BRANCH  11  12
HETATM   12  C   UNL     1      -9.761  10.232  65.643  1.00  0.00    -0.308 C  
BRANCH  12  13
HETATM   13  C   UNL     1     -10.528   9.185  66.440  1.00  0.00    -0.141 C  
BRANCH  13  14
HETATM   14  C   UNL     1      -9.581   8.112  66.969  1.00  0.00    -0.253 C  
BRANCH  14  15
HETATM   15  C   UNL     1     -10.349   6.997  67.673  1.00  0.00    -0.270 C  
BRANCH  15  16
HETATM   16  C   UNL     1      -9.762   5.632  67.321  1.00  0.00    -0.147 C  
BRANCH  16  17
HETATM   17  C   UNL     1      -8.529   5.772  66.433  1.00  0.00    -0.122 C  
HETATM   18  C   UNL     1      -8.682   5.005  65.140  1.00  0.00    -0.150 C  
HETATM   19  O   UNL     1      -9.657   4.346  64.817  1.00  0.00    -0.161 OA 
HETATM   20  O   UNL     1      -7.592   5.123  64.345  1.00  0.00    -0.072 OA 
ENDBRANCH  16  17
ENDBRANCH  15  16
ENDBRANCH  14  15
ENDBRANCH  13  14
ENDBRANCH  12  13
ENDBRANCH  11  12
ENDBRANCH  10  11
ENDBRANCH   9  10
ENDBRANCH   8   9
ENDBRANCH   7   8
ENDBRANCH   6   7
ENDBRANCH   5   6
ENDBRANCH   4   5
ENDBRANCH   3   4
ENDBRANCH   2   3
TORSDOF 15
ENDMDL
MODEL      339
REMARK 921   NORMALIZED FREE ENERGY PREDICTED BY IDOCK:   -2.78 KCAL/MOL
REMARK 922        TOTAL FREE ENERGY PREDICTED BY IDOCK:   -7.01 KCAL/MOL
REMARK 923 INTER-LIGAND FREE ENERGY PREDICTED BY IDOCK:   -5.87 KCAL/MOL
REMARK 924 INTRA-LIGAND FREE ENERGY PREDICTED BY IDOCK:   -1.14 KCAL/MOL
REMARK 927      BINDING AFFINITY PREDICTED BY RF-SCORE:    0.00 PKD
ROOT
HETATM    1  C   UNL     1      -5.816  20.896  64.729  1.00  0.00    -0.291 C  
HETATM    2  C   UNL     1      -6.260  20.038  65.900  1.00  0.00    -0.220 C  
ENDROOT
BRANCH   2   3
HETATM    3  C   UNL     1      -7.725  20.294  66.246  1.00  0.00    -0.238 C  
BRANCH   3   4
HETATM    4  C   UNL     1      -8.424  19.003  66.661  1.00  0.00    -0.311 C  
BRANCH   4   5
HETATM    5  C   UNL     1      -7.704  17.788  66.085  1.00  0.00    -0.280 C  
BRANCH   5   6
HETATM    6  C   UNL     1      -8.024  16.534  66.891  1.00  0.00    -0.260 C  
BRANCH   6   7
HETATM    7  C   UNL     1      -8.889  16.875  68.097  1.00  0.00    -0.223 C  
BRANCH   7   8
HETATM    8  C   UNL     1      -9.904  15.770  68.365  1.00  0.00    -0.206 C  
BRANCH   8   9
HETATM    9  C   UNL     1     -10.968  15.743  67.275  1.00  0.00    -0.259 C  
BRANCH   9  10
HETATM   10  C   UNL     1     -11.413  14.313  66.992  1.00  0.00    -0.377 C  
BRANCH  10  11
HETATM   11  C   UNL     1     -12.477  14.286  65.899  1.00  0.00    -0.404 C  
BRANCH  11  12
HETATM   12  C   UNL     1     -12.531  12.916  65.236  1.00  0.00    -0.552 C  
BRANCH  12  13
HETATM   13  C   UNL     1     -12.075  12.998  63.785  1.00  0.00    -0.574 C  
BRANCH  13  14
HETATM   14  C   UNL     1     -11.262  11.764  63.407  1.00  0.00    -0.440 C  
BRANCH  14  15
HETATM   15  C   UNL     1     -10.668  11.096  64.644  1.00  0.00    -0.350 C  
BRANCH  15  16
HETATM   16  C   UNL     1      -9.172  10.853  64.460  1.00  0.00    -0.226 C  
BRANCH  16  17
HETATM   17  C   UNL     1      -8.796   9.418  64.818  1.00  0.00    -0.243 C  
HETATM   18  C   UNL     1      -8.271   8.662  63.620  1.00  0.00    -0.148 C  
HETATM   19  O   UNL     1      -8.151   9.113  62.492  1.00  0.00    -0.130 OA 
HETATM   20  O   UNL     1      -7.934   7.388  63.929  1.00  0.00    -0.132 OA 
ENDBRANCH  16  17
ENDBRANCH  15  16
ENDBRANCH  14  15
ENDBRANCH  13  14
ENDBRANCH  12  13
ENDBRANCH  11  12
ENDBRANCH  10  11
ENDBRANCH   9  10
ENDBRANCH   8   9
ENDBRANCH   7   8
ENDBRANCH   6   7
ENDBRANCH   5   6
ENDBRANCH   4   5
ENDBRANCH   3   4
ENDBRANCH   2   3
TORSDOF 15
ENDMDL
MODEL      340
REMARK 921   NORMALIZED FREE ENERGY PREDICTED BY IDOCK:   -2.77 KCAL/MOL
REMARK 922        TOTAL FREE ENERGY PREDICTED BY IDOCK:   -7.00 KCAL/MOL
REMARK 923 INTER-LIGAND FREE ENERGY PREDICTED BY IDOCK:   -5.49 KCAL/MOL
REMARK 924 INTRA-LIGAND FREE ENERGY PREDICTED BY IDOCK:   -1.51 KCAL/MOL
REMARK 927      BINDING AFFINITY PREDICTED BY RF-SCORE:    0.00 PKD
ROOT
HETATM    1  C   UNL     1      -6.471  14.378  68.394  1.00  0.00    -0.102 C  
HETATM    2  C   UNL     1      -7.527  13.289  68.455  1.00  0.00    -0.115 C  
ENDROOT
BRANCH   2   3
HETATM    3  C   UNL     1      -8.477  13.377  67.264  1.00  0.00    -0.205 C  
BRANCH   3   4
HETATM    4  C   UNL     1      -8.752  14.828  66.885  1.00  0.00    -0.264 C  
BRANCH   4   5
HETATM    5  C   UNL     1     -10.212  15.187  67.139  1.00  0.00    -0.247 C  
BRANCH   5   6
HETATM    6  C   UNL     1     -11.073  14.849  65.926  1.00  0.00    -0.338 C  
BRANCH   6   7
HETATM    7  C   UNL     1     -12.192  13.889  66.311  1.00  0.00    -0.498 C  
BRANCH   7   8
HETATM    8  C   UNL     1     -12.339  12.786  65.270  1.00  0.00    -0.546 C  
BRANCH   8   9
HETATM    9  C   UNL     1     -11.054  12.628  64.468  1.00  0.00    -0.365 C  
BRANCH   9  10
HETATM   10  C   UNL     1     -10.353  11.323  64.825  1.00  0.00    -0.366 C  
BRANCH  10  11
HETATM   11  C   UNL     1     -10.891  10.761  66.137  1.00  0.00    -0.124 C  
BRANCH  11  12
HETATM   12  C   UNL     1      -9.818   9.960  66.859  1.00  0.00    -0.252 C  
BRANCH  12  13
HETATM   13  C   UNL     1      -9.713   8.553  66.286  1.00  0.00    -0.300 C  
BRANCH  13  14
HETATM   14  C   UNL     1     -10.715   7.622  66.961  1.00  0.00    -0.340 C  
BRANCH  14  15
HETATM   15  C   UNL     1     -10.065   6.848  68.104  1.00  0.00    -0.187 C  
BRANCH  15  16
HETATM   16  C   UNL     1     -10.612   7.314  69.451  1.00  0.00    -0.238 C  
BRANCH  16  17
HETATM   17  C   UNL     1     -11.145   6.141  70.269  1.00  0.00    -0.436 C  
HETATM   18  C   UNL     1     -10.529   6.096  71.648  1.00  0.00    -0.222 C  
HETATM   19  O   UNL     1      -9.706   6.884  72.084  1.00  0.00    -0.150 OA 
HETATM   20  O   UNL     1     -10.996   5.058  72.381  1.00  0.00    -0.201 OA 
ENDBRANCH  16  17
ENDBRANCH  15  16
ENDBRANCH  14  15
ENDBRANCH  13  14
ENDBRANCH  12  13
ENDBRANCH  11  12
ENDBRANCH  10  11
ENDBRANCH   9  10
ENDBRANCH   8   9
ENDBRANCH   7   8
ENDBRANCH   6   7
ENDBRANCH   5   6
ENDBRANCH   4   5
ENDBRANCH   3   4
ENDBRANCH   2   3
TORSDOF 15
ENDMDL
MODEL      341
REMARK 921   NORMALIZED FREE ENERGY PREDICTED BY IDOCK:   -2.77 KCAL/MOL
REMARK 922        TOTAL FREE ENERGY PREDICTED BY IDOCK:   -7.00 KCAL/MOL
REMARK 923 INTER-LIGAND FREE ENERGY PREDICTED BY IDOCK:   -4.58 KCAL/MOL
REMARK 924 INTRA-LIGAND FREE ENERGY PREDICTED BY IDOCK:   -2.41 KCAL/MOL
REMARK 927      BINDING AFFINITY PREDICTED BY RF-SCORE:    0.00 PKD
ROOT
HETATM    1  C   UNL     1      -6.240   3.748  66.587  1.00  0.00    -0.032 C  
HETATM    2  C   UNL     1      -7.518   2.958  66.372  1.00  0.00    -0.075 C  
ENDROOT
BRANCH   2   3
HETATM    3  C   UNL     1      -8.541   3.769  65.580  1.00  0.00    -0.112 C  
BRANCH   3   4
HETATM    4  C   UNL     1      -9.003   4.990  66.369  1.00  0.00    -0.123 C  
BRANCH   4   5
HETATM    5  C   UNL     1     -10.522   5.006  66.500  1.00  0.00    -0.325 C  
BRANCH   5   6
HETATM    6  C   UNL     1     -11.021   6.397  66.877  1.00  0.00    -0.413 C  
BRANCH   6   7
HETATM    7  C   UNL     1      -9.862   7.383  66.952  1.00  0.00    -0.284 C  
BRANCH   7   8
HETATM    8  C   UNL     1     -10.372   8.799  67.189  1.00  0.00    -0.364 C  
BRANCH   8   9
HETATM    9  C   UNL     1      -9.841   9.348  68.507  1.00  0.00    -0.171 C  
BRANCH   9  10
HETATM   10  C   UNL     1     -10.955  10.024  69.297  1.00  0.00    -0.264 C  
BRANCH  10  11
HETATM   11  C   UNL     1     -10.706   9.898  70.797  1.00  0.00    -0.350 C  
BRANCH  11  12
HETATM   12  C   UNL     1     -11.879   9.208  71.479  1.00  0.00    -0.428 C  
BRANCH  12  13
HETATM   13  C   UNL     1     -11.518   7.780  71.866  1.00  0.00    -0.320 C  
BRANCH  13  14
HETATM   14  C   UNL     1     -12.097   6.789  70.862  1.00  0.00    -0.421 C  
BRANCH  14  15
HETATM   15  C   UNL     1     -11.002   5.914  70.257  1.00  0.00    -0.390 C  
BRANCH  15  16
HETATM   16  C   UNL     1      -9.627   6.347  70.759  1.00  0.00    -0.193 C  
BRANCH  16  17
HETATM   17  C   UNL     1      -8.511   5.622  70.013  1.00  0.00    -0.122 C  
HETATM   18  C   UNL     1      -8.003   4.429  70.789  1.00  0.00    -0.064 C  
HETATM   19  O   UNL     1      -8.412   4.065  71.880  1.00  0.00    -0.095 OA 
HETATM   20  O   UNL     1      -7.012   3.779  70.135  1.00  0.00    -0.037 OA 
ENDBRANCH  16  17
ENDBRANCH  15  16
ENDBRANCH  14  15
ENDBRANCH  13  14
ENDBRANCH  12  13
ENDBRANCH  11  12
ENDBRANCH  10  11
ENDBRANCH   9  10
ENDBRANCH   8   9
ENDBRANCH   7   8
ENDBRANCH   6   7
ENDBRANCH   5   6
ENDBRANCH   4   5
ENDBRANCH   3   4
ENDBRANCH   2   3
TORSDOF 15
ENDMDL
MODEL      342
REMARK 921   NORMALIZED FREE ENERGY PREDICTED BY IDOCK:   -2.77 KCAL/MOL
REMARK 922        TOTAL FREE ENERGY PREDICTED BY IDOCK:   -6.99 KCAL/MOL
REMARK 923 INTER-LIGAND FREE ENERGY PREDICTED BY IDOCK:   -5.63 KCAL/MOL
REMARK 924 INTRA-LIGAND FREE ENERGY PREDICTED BY IDOCK:   -1.36 KCAL/MOL
REMARK 927      BINDING AFFINITY PREDICTED BY RF-SCORE:    0.00 PKD
ROOT
HETATM    1  C   UNL     1     -10.599  13.854  65.337  1.00  0.00    -0.344 C  
HETATM    2  C   UNL     1     -11.857  13.665  66.166  1.00  0.00    -0.424 C  
ENDROOT
BRANCH   2   3
HETATM    3  C   UNL     1     -11.617  14.044  67.626  1.00  0.00    -0.385 C  
BRANCH   3   4
HETATM    4  C   UNL     1     -10.958  12.900  68.389  1.00  0.00    -0.285 C  
BRANCH   4   5
HETATM    5  C   UNL     1     -11.984  12.151  69.233  1.00  0.00    -0.318 C  
BRANCH   5   6
HETATM    6  C   UNL     1     -12.154  12.813  70.597  1.00  0.00    -0.316 C  
BRANCH   6   7
HETATM    7  C   UNL     1     -12.981  11.931  71.524  1.00  0.00    -0.427 C  
BRANCH   7   8
HETATM    8  C   UNL     1     -13.112  10.523  70.955  1.00  0.00    -0.419 C  
BRANCH   8   9
HETATM    9  C   UNL     1     -12.888   9.481  72.044  1.00  0.00    -0.499 C  
BRANCH   9  10
HETATM   10  C   UNL     1     -11.650   8.645  71.742  1.00  0.00    -0.403 C  
BRANCH  10  11
HETATM   11  C   UNL     1     -10.490   9.535  71.308  1.00  0.00    -0.320 C  
BRANCH  11  12
HETATM   12  C   UNL     1      -9.555   8.780  70.373  1.00  0.00    -0.210 C  
BRANCH  12  13
HETATM   13  C   UNL     1     -10.128   8.723  68.963  1.00  0.00    -0.206 C  
BRANCH  13  14
HETATM   14  C   UNL     1      -9.162   8.014  68.019  1.00  0.00    -0.139 C  
BRANCH  14  15
HETATM   15  C   UNL     1      -9.855   7.616  66.719  1.00  0.00    -0.307 C  
BRANCH  15  16
HETATM   16  C   UNL     1      -8.897   6.847  65.811  1.00  0.00    -0.088 C  
BRANCH  16  17
HETATM   17  C   UNL     1      -8.329   5.620  66.517  1.00  0.00    -0.110 C  
HETATM   18  C   UNL     1      -9.056   4.358  66.115  1.00  0.00    -0.130 C  
HETATM   19  O   UNL     1      -9.986   4.295  65.328  1.00  0.00    -0.196 OA 
HETATM   20  O   UNL     1      -8.559   3.263  66.738  1.00  0.00    -0.105 OA 
ENDBRANCH  16  17
ENDBRANCH  15  16
ENDBRANCH  14  15
ENDBRANCH  13  14
ENDBRANCH  12  13
ENDBRANCH  11  12
ENDBRANCH  10  11
ENDBRANCH   9  10
ENDBRANCH   8   9
ENDBRANCH   7   8
ENDBRANCH   6   7
ENDBRANCH   5   6
ENDBRANCH   4   5
ENDBRANCH   3   4
ENDBRANCH   2   3
TORSDOF 15
ENDMDL
MODEL      343
REMARK 921   NORMALIZED FREE ENERGY PREDICTED BY IDOCK:   -2.77 KCAL/MOL
REMARK 922        TOTAL FREE ENERGY PREDICTED BY IDOCK:   -6.99 KCAL/MOL
REMARK 923 INTER-LIGAND FREE ENERGY PREDICTED BY IDOCK:   -5.91 KCAL/MOL
REMARK 924 INTRA-LIGAND FREE ENERGY PREDICTED BY IDOCK:   -1.08 KCAL/MOL
REMARK 927      BINDING AFFINITY PREDICTED BY RF-SCORE:    0.00 PKD
ROOT
HETATM    1  C   UNL     1     -11.083  11.359  66.413  1.00  0.00    -0.301 C  
HETATM    2  C   UNL     1     -10.149  10.889  65.312  1.00  0.00    -0.340 C  
ENDROOT
BRANCH   2   3
HETATM    3  C   UNL     1     -10.574  11.444  63.955  1.00  0.00    -0.444 C  
BRANCH   3   4
HETATM    4  C   UNL     1     -12.089  11.383  63.787  1.00  0.00     0.086 C  
BRANCH   4   5
HETATM    5  C   UNL     1     -12.688  12.785  63.760  1.00  0.00    -0.277 C  
BRANCH   5   6
HETATM    6  C   UNL     1     -11.597  13.839  63.595  1.00  0.00     0.011 C  
BRANCH   6   7
HETATM    7  C   UNL     1     -11.787  14.972  64.595  1.00  0.00    -0.378 C  
BRANCH   7   8
HETATM    8  C   UNL     1     -10.442  15.479  65.100  1.00  0.00    -0.431 C  
BRANCH   8   9
HETATM    9  C   UNL     1     -10.636  16.524  66.191  1.00  0.00    -0.239 C  
BRANCH   9  10
HETATM   10  C   UNL     1     -10.686  15.866  67.565  1.00  0.00    -0.318 C  
BRANCH  10  11
HETATM   11  C   UNL     1     -11.105  16.873  68.631  1.00  0.00    -0.194 C  
BRANCH  11  12
HETATM   12  C   UNL     1      -9.947  17.798  68.981  1.00  0.00    -0.264 C  
BRANCH  12  13
HETATM   13  C   UNL     1     -10.173  19.191  68.406  1.00  0.00    -0.473 C  
BRANCH  13  14
HETATM   14  C   UNL     1      -8.840  19.881  68.133  1.00  0.00    -0.309 C  
BRANCH  14  15
HETATM   15  C   UNL     1      -7.975  19.053  67.187  1.00  0.00    -0.271 C  
BRANCH  15  16
HETATM   16  C   UNL     1      -6.588  18.826  67.783  1.00  0.00    -0.216 C  
BRANCH  16  17
HETATM   17  C   UNL     1      -6.613  18.942  69.304  1.00  0.00    -0.311 C  
HETATM   18  C   UNL     1      -6.001  20.240  69.776  1.00  0.00    -0.359 C  
HETATM   19  O   UNL     1      -5.534  21.108  69.056  1.00  0.00    -0.349 OA 
HETATM   20  O   UNL     1      -6.018  20.352  71.125  1.00  0.00    -0.530 OA 
ENDBRANCH  16  17
ENDBRANCH  15  16
ENDBRANCH  14  15
ENDBRANCH  13  14
ENDBRANCH  12  13
ENDBRANCH  11  12
ENDBRANCH  10  11
ENDBRANCH   9  10
ENDBRANCH   8   9
ENDBRANCH   7   8
ENDBRANCH   6   7
ENDBRANCH   5   6
ENDBRANCH   4   5
ENDBRANCH   3   4
ENDBRANCH   2   3
TORSDOF 15
ENDMDL
MODEL      344
REMARK 921   NORMALIZED FREE ENERGY PREDICTED BY IDOCK:   -2.76 KCAL/MOL
REMARK 922        TOTAL FREE ENERGY PREDICTED BY IDOCK:   -6.98 KCAL/MOL
REMARK 923 INTER-LIGAND FREE ENERGY PREDICTED BY IDOCK:   -4.51 KCAL/MOL
REMARK 924 INTRA-LIGAND FREE ENERGY PREDICTED BY IDOCK:   -2.47 KCAL/MOL
REMARK 927      BINDING AFFINITY PREDICTED BY RF-SCORE:    0.00 PKD
ROOT
HETATM    1  C   UNL     1     -10.027   2.652  72.216  1.00  0.00    -0.237 C  
HETATM    2  C   UNL     1      -9.829   4.125  72.527  1.00  0.00    -0.213 C  
ENDROOT
BRANCH   2   3
HETATM    3  C   UNL     1      -8.346   4.469  72.641  1.00  0.00    -0.110 C  
BRANCH   3   4
HETATM    4  C   UNL     1      -7.596   4.098  71.366  1.00  0.00    -0.064 C  
BRANCH   4   5
HETATM    5  C   UNL     1      -8.087   4.932  70.187  1.00  0.00    -0.073 C  
BRANCH   5   6
HETATM    6  C   UNL     1      -7.280   6.220  70.059  1.00  0.00    -0.077 C  
BRANCH   6   7
HETATM    7  C   UNL     1      -7.081   6.587  68.595  1.00  0.00    -0.083 C  
BRANCH   7   8
HETATM    8  C   UNL     1      -7.187   5.352  67.708  1.00  0.00    -0.072 C  
BRANCH   8   9
HETATM    9  C   UNL     1      -8.073   5.632  66.501  1.00  0.00    -0.105 C  
BRANCH   9  10
HETATM   10  C   UNL     1      -8.857   6.924  66.696  1.00  0.00    -0.140 C  
BRANCH  10  11
HETATM   11  C   UNL     1     -10.318   6.625  67.015  1.00  0.00    -0.330 C  
BRANCH  11  12
HETATM   12  C   UNL     1     -10.693   7.180  68.382  1.00  0.00    -0.192 C  
BRANCH  12  13
HETATM   13  C   UNL     1     -11.355   6.109  69.240  1.00  0.00    -0.361 C  
BRANCH  13  14
HETATM   14  C   UNL     1     -11.749   6.677  70.599  1.00  0.00    -0.452 C  
BRANCH  14  15
HETATM   15  C   UNL     1     -10.637   7.547  71.176  1.00  0.00    -0.234 C  
BRANCH  15  16
HETATM   16  C   UNL     1     -11.217   8.789  71.850  1.00  0.00    -0.438 C  
BRANCH  16  17
HETATM   17  C   UNL     1     -12.251   9.470  70.959  1.00  0.00    -0.385 C  
HETATM   18  C   UNL     1     -11.600  10.376  69.940  1.00  0.00    -0.284 C  
HETATM   19  O   UNL     1     -10.401  10.562  69.819  1.00  0.00    -0.232 OA 
HETATM   20  O   UNL     1     -12.511  10.986  69.144  1.00  0.00    -0.432 OA 
ENDBRANCH  16  17
ENDBRANCH  15  16
ENDBRANCH  14  15
ENDBRANCH  13  14
ENDBRANCH  12  13
ENDBRANCH  11  12
ENDBRANCH  10  11
ENDBRANCH   9  10
ENDBRANCH   8   9
ENDBRANCH   7   8
ENDBRANCH   6   7
ENDBRANCH   5   6
ENDBRANCH   4   5
ENDBRANCH   3   4
ENDBRANCH   2   3
TORSDOF 15
ENDMDL
MODEL      345
REMARK 921   NORMALIZED FREE ENERGY PREDICTED BY IDOCK:   -2.75 KCAL/MOL
REMARK 922        TOTAL FREE ENERGY PREDICTED BY IDOCK:   -6.96 KCAL/MOL
REMARK 923 INTER-LIGAND FREE ENERGY PREDICTED BY IDOCK:   -5.41 KCAL/MOL
REMARK 924 INTRA-LIGAND FREE ENERGY PREDICTED BY IDOCK:   -1.55 KCAL/MOL
REMARK 927      BINDING AFFINITY PREDICTED BY RF-SCORE:    0.00 PKD
ROOT
HETATM    1  C   UNL     1      -8.018   8.869  67.366  1.00  0.00    -0.101 C  
HETATM    2  C   UNL     1      -9.157   8.350  66.507  1.00  0.00    -0.217 C  
ENDROOT
BRANCH   2   3
HETATM    3  C   UNL     1      -9.846   7.158  67.167  1.00  0.00    -0.235 C  
BRANCH   3   4
HETATM    4  C   UNL     1      -9.752   5.914  66.290  1.00  0.00    -0.132 C  
BRANCH   4   5
HETATM    5  C   UNL     1     -10.011   4.654  67.109  1.00  0.00    -0.215 C  
BRANCH   5   6
HETATM    6  C   UNL     1      -9.046   3.541  66.714  1.00  0.00    -0.179 C  
BRANCH   6   7
HETATM    7  C   UNL     1      -8.652   2.712  67.930  1.00  0.00    -0.117 C  
BRANCH   7   8
HETATM    8  C   UNL     1      -9.299   3.266  69.194  1.00  0.00    -0.233 C  
BRANCH   8   9
HETATM    9  C   UNL     1      -8.245   3.845  70.128  1.00  0.00    -0.071 C  
BRANCH   9  10
HETATM   10  C   UNL     1      -8.720   5.164  70.725  1.00  0.00    -0.142 C  
BRANCH  10  11
HETATM   11  C   UNL     1     -10.142   5.033  71.260  1.00  0.00    -0.276 C  
BRANCH  11  12
HETATM   12  C   UNL     1     -11.038   6.116  70.676  1.00  0.00    -0.384 C  
BRANCH  12  13
HETATM   13  C   UNL     1     -10.574   7.499  71.114  1.00  0.00    -0.234 C  
BRANCH  13  14
HETATM   14  C   UNL     1     -11.647   8.543  70.823  1.00  0.00    -0.257 C  
BRANCH  14  15
HETATM   15  C   UNL     1     -12.391   8.938  72.095  1.00  0.00    -0.449 C  
BRANCH  15  16
HETATM   16  C   UNL     1     -13.309  10.131  71.835  1.00  0.00    -0.505 C  
BRANCH  16  17
HETATM   17  C   UNL     1     -12.649  11.145  70.905  1.00  0.00    -0.483 C  
HETATM   18  C   UNL     1     -12.910  12.564  71.353  1.00  0.00    -0.260 C  
HETATM   19  O   UNL     1     -13.562  12.892  72.330  1.00  0.00    -0.579 OA 
HETATM   20  O   UNL     1     -12.328  13.472  70.534  1.00  0.00    -0.339 OA 
ENDBRANCH  16  17
ENDBRANCH  15  16
ENDBRANCH  14  15
ENDBRANCH  13  14
ENDBRANCH  12  13
ENDBRANCH  11  12
ENDBRANCH  10  11
ENDBRANCH   9  10
ENDBRANCH   8   9
ENDBRANCH   7   8
ENDBRANCH   6   7
ENDBRANCH   5   6
ENDBRANCH   4   5
ENDBRANCH   3   4
ENDBRANCH   2   3
TORSDOF 15
ENDMDL
MODEL      346
REMARK 921   NORMALIZED FREE ENERGY PREDICTED BY IDOCK:   -2.74 KCAL/MOL
REMARK 922        TOTAL FREE ENERGY PREDICTED BY IDOCK:   -6.94 KCAL/MOL
REMARK 923 INTER-LIGAND FREE ENERGY PREDICTED BY IDOCK:   -4.87 KCAL/MOL
REMARK 924 INTRA-LIGAND FREE ENERGY PREDICTED BY IDOCK:   -2.07 KCAL/MOL
REMARK 927      BINDING AFFINITY PREDICTED BY RF-SCORE:    0.00 PKD
ROOT
HETATM    1  C   UNL     1     -10.261  15.708  65.705  1.00  0.00    -0.391 C  
HETATM    2  C   UNL     1     -10.623  15.005  67.001  1.00  0.00    -0.293 C  
ENDROOT
BRANCH   2   3
HETATM    3  C   UNL     1     -11.466  13.760  66.735  1.00  0.00    -0.367 C  
BRANCH   3   4
HETATM    4  C   UNL     1     -12.502  14.021  65.647  1.00  0.00    -0.531 C  
BRANCH   4   5
HETATM    5  C   UNL     1     -12.660  12.800  64.747  1.00  0.00    -0.518 C  
BRANCH   5   6
HETATM    6  C   UNL     1     -11.591  12.785  63.658  1.00  0.00    -0.572 C  
BRANCH   6   7
HETATM    7  C   UNL     1     -10.995  11.392  63.507  1.00  0.00    -0.406 C  
BRANCH   7   8
HETATM    8  C   UNL     1      -9.866  11.176  64.509  1.00  0.00    -0.330 C  
BRANCH   8   9
HETATM    9  C   UNL     1     -10.136   9.945  65.365  1.00  0.00    -0.270 C  
BRANCH   9  10
HETATM   10  C   UNL     1      -9.656  10.166  66.794  1.00  0.00    -0.222 C  
BRANCH  10  11
HETATM   11  C   UNL     1      -8.768  11.404  66.880  1.00  0.00    -0.165 C  
BRANCH  11  12
HETATM   12  C   UNL     1      -8.239  11.589  68.295  1.00  0.00    -0.152 C  
BRANCH  12  13
HETATM   13  C   UNL     1      -8.630  10.410  69.178  1.00  0.00    -0.169 C  
BRANCH  13  14
HETATM   14  C   UNL     1      -7.433   9.931  69.993  1.00  0.00    -0.173 C  
BRANCH  14  15
HETATM   15  C   UNL     1      -6.161   9.919  69.150  1.00  0.00    -0.044 C  
BRANCH  15  16
HETATM   16  C   UNL     1      -5.709   8.486  68.877  1.00  0.00    -0.040 C  
BRANCH  16  17
HETATM   17  C   UNL     1      -5.659   8.196  67.380  1.00  0.00    -0.038 C  
HETATM   18  C   UNL     1      -6.614   7.091  66.993  1.00  0.00    -0.055 C  
HETATM   19  O   UNL     1      -7.347   6.486  67.758  1.00  0.00    -0.090 OA 
HETATM   20  O   UNL     1      -6.576   6.827  65.666  1.00  0.00    -0.048 OA 
ENDBRANCH  16  17
ENDBRANCH  15  16
ENDBRANCH  14  15
ENDBRANCH  13  14
ENDBRANCH  12  13
ENDBRANCH  11  12
ENDBRANCH  10  11
ENDBRANCH   9  10
ENDBRANCH   8   9
ENDBRANCH   7   8
ENDBRANCH   6   7
ENDBRANCH   5   6
ENDBRANCH   4   5
ENDBRANCH   3   4
ENDBRANCH   2   3
TORSDOF 15
ENDMDL
MODEL      347
REMARK 921   NORMALIZED FREE ENERGY PREDICTED BY IDOCK:   -2.74 KCAL/MOL
REMARK 922        TOTAL FREE ENERGY PREDICTED BY IDOCK:   -6.94 KCAL/MOL
REMARK 923 INTER-LIGAND FREE ENERGY PREDICTED BY IDOCK:   -5.33 KCAL/MOL
REMARK 924 INTRA-LIGAND FREE ENERGY PREDICTED BY IDOCK:   -1.61 KCAL/MOL
REMARK 927      BINDING AFFINITY PREDICTED BY RF-SCORE:    0.00 PKD
ROOT
HETATM    1  C   UNL     1      -7.050  14.635  67.888  1.00  0.00    -0.170 C  
HETATM    2  C   UNL     1      -8.328  13.834  68.066  1.00  0.00    -0.171 C  
ENDROOT
BRANCH   2   3
HETATM    3  C   UNL     1      -9.120  13.765  66.763  1.00  0.00    -0.235 C  
BRANCH   3   4
HETATM    4  C   UNL     1      -9.254  15.144  66.127  1.00  0.00    -0.318 C  
BRANCH   4   5
HETATM    5  C   UNL     1     -10.718  15.567  66.054  1.00  0.00    -0.331 C  
BRANCH   5   6
HETATM    6  C   UNL     1     -11.444  14.821  64.940  1.00  0.00    -0.412 C  
BRANCH   6   7
HETATM    7  C   UNL     1     -12.496  13.883  65.516  1.00  0.00    -0.541 C  
BRANCH   7   8
HETATM    8  C   UNL     1     -12.511  12.558  64.762  1.00  0.00    -0.532 C  
BRANCH   8   9
HETATM    9  C   UNL     1     -11.623  12.633  63.528  1.00  0.00    -0.584 C  
BRANCH   9  10
HETATM   10  C   UNL     1     -10.616  11.488  63.518  1.00  0.00    -0.487 C  
BRANCH  10  11
HETATM   11  C   UNL     1     -10.677  10.705  64.826  1.00  0.00    -0.055 C  
BRANCH  11  12
HETATM   12  C   UNL     1      -9.337  10.755  65.545  1.00  0.00    -0.242 C  
BRANCH  12  13
HETATM   13  C   UNL     1      -8.302   9.898  64.826  1.00  0.00    -0.163 C  
BRANCH  13  14
HETATM   14  C   UNL     1      -8.430   8.438  65.245  1.00  0.00    -0.189 C  
BRANCH  14  15
HETATM   15  C   UNL     1      -7.662   8.165  66.536  1.00  0.00    -0.093 C  
BRANCH  15  16
HETATM   16  C   UNL     1      -8.393   7.131  67.390  1.00  0.00    -0.119 C  
BRANCH  16  17
HETATM   17  C   UNL     1      -9.761   6.795  66.803  1.00  0.00    -0.222 C  
HETATM   18  C   UNL     1      -9.936   5.307  66.612  1.00  0.00    -0.202 C  
HETATM   19  O   UNL     1      -9.106   4.454  66.881  1.00  0.00    -0.118 OA 
HETATM   20  O   UNL     1     -11.148   4.999  66.091  1.00  0.00    -0.149 OA 
ENDBRANCH  16  17
ENDBRANCH  15  16
ENDBRANCH  14  15
ENDBRANCH  13  14
ENDBRANCH  12  13
ENDBRANCH  11  12
ENDBRANCH  10  11
ENDBRANCH   9  10
ENDBRANCH   8   9
ENDBRANCH   7   8
ENDBRANCH   6   7
ENDBRANCH   5   6
ENDBRANCH   4   5
ENDBRANCH   3   4
ENDBRANCH   2   3
TORSDOF 15
ENDMDL
MODEL      348
REMARK 921   NORMALIZED FREE ENERGY PREDICTED BY IDOCK:   -2.73 KCAL/MOL
REMARK 922        TOTAL FREE ENERGY PREDICTED BY IDOCK:   -6.93 KCAL/MOL
REMARK 923 INTER-LIGAND FREE ENERGY PREDICTED BY IDOCK:   -4.75 KCAL/MOL
REMARK 924 INTRA-LIGAND FREE ENERGY PREDICTED BY IDOCK:   -2.17 KCAL/MOL
REMARK 927      BINDING AFFINITY PREDICTED BY RF-SCORE:    0.00 PKD
ROOT
HETATM    1  C   UNL     1     -10.411   8.595  68.149  1.00  0.00    -0.267 C  
HETATM    2  C   UNL     1      -9.784   8.422  69.520  1.00  0.00    -0.177 C  
ENDROOT
BRANCH   2   3
HETATM    3  C   UNL     1     -10.305   9.469  70.501  1.00  0.00    -0.350 C  
BRANCH   3   4
HETATM    4  C   UNL     1     -11.722   9.138  70.957  1.00  0.00    -0.363 C  
BRANCH   4   5
HETATM    5  C   UNL     1     -12.490  10.409  71.306  1.00  0.00    -0.521 C  
BRANCH   5   6
HETATM    6  C   UNL     1     -12.077  11.560  70.395  1.00  0.00    -0.471 C  
BRANCH   6   7
HETATM    7  C   UNL     1     -12.599  12.886  70.933  1.00  0.00    -0.355 C  
BRANCH   7   8
HETATM    8  C   UNL     1     -11.792  14.052  70.375  1.00  0.00    -0.356 C  
BRANCH   8   9
HETATM    9  C   UNL     1     -12.541  14.727  69.233  1.00  0.00     0.094 C  
BRANCH   9  10
HETATM   10  C   UNL     1     -11.739  14.643  67.939  1.00  0.00    -0.379 C  
BRANCH  10  11
HETATM   11  C   UNL     1     -10.319  15.159  68.150  1.00  0.00    -0.239 C  
BRANCH  11  12
HETATM   12  C   UNL     1      -9.309  14.237  67.481  1.00  0.00    -0.199 C  
BRANCH  12  13
HETATM   13  C   UNL     1      -9.778  12.789  67.533  1.00  0.00    -0.201 C  
BRANCH  13  14
HETATM   14  C   UNL     1      -8.736  11.911  68.219  1.00  0.00    -0.170 C  
BRANCH  14  15
HETATM   15  C   UNL     1      -7.516  11.705  67.326  1.00  0.00    -0.143 C  
BRANCH  15  16
HETATM   16  C   UNL     1      -7.510  10.296  66.737  1.00  0.00    -0.107 C  
BRANCH  16  17
HETATM   17  C   UNL     1      -8.005  10.296  65.294  1.00  0.00    -0.148 C  
HETATM   18  C   UNL     1      -8.001   8.906  64.702  1.00  0.00    -0.132 C  
HETATM   19  O   UNL     1      -7.652   7.889  65.279  1.00  0.00    -0.080 OA 
HETATM   20  O   UNL     1      -8.438   8.896  63.420  1.00  0.00    -0.190 OA 
ENDBRANCH  16  17
ENDBRANCH  15  16
ENDBRANCH  14  15
ENDBRANCH  13  14
ENDBRANCH  12  13
ENDBRANCH  11  12
ENDBRANCH  10  11
ENDBRANCH   9  10
ENDBRANCH   8   9
ENDBRANCH   7   8
ENDBRANCH   6   7
ENDBRANCH   5   6
ENDBRANCH   4   5
ENDBRANCH   3   4
ENDBRANCH   2   3
TORSDOF 15
ENDMDL
MODEL      349
REMARK 921   NORMALIZED FREE ENERGY PREDICTED BY IDOCK:   -2.72 KCAL/MOL
REMARK 922        TOTAL FREE ENERGY PREDICTED BY IDOCK:   -6.90 KCAL/MOL
REMARK 923 INTER-LIGAND FREE ENERGY PREDICTED BY IDOCK:   -6.16 KCAL/MOL
REMARK 924 INTRA-LIGAND FREE ENERGY PREDICTED BY IDOCK:   -0.74 KCAL/MOL
REMARK 927      BINDING AFFINITY PREDICTED BY RF-SCORE:    0.00 PKD
ROOT
HETATM    1  C   UNL     1      -6.675   4.748  63.513  1.00  0.00    -0.038 C  
HETATM    2  C   UNL     1      -7.909   4.272  62.767  1.00  0.00    -0.066 C  
ENDROOT
BRANCH   2   3
HETATM    3  C   UNL     1      -9.100   4.127  63.711  1.00  0.00    -0.140 C  
BRANCH   3   4
HETATM    4  C   UNL     1      -8.653   4.159  65.169  1.00  0.00    -0.116 C  
BRANCH   4   5
HETATM    5  C   UNL     1      -9.376   5.263  65.933  1.00  0.00    -0.165 C  
BRANCH   5   6
HETATM    6  C   UNL     1      -9.262   5.047  67.439  1.00  0.00    -0.127 C  
BRANCH   6   7
HETATM    7  C   UNL     1     -10.563   5.420  68.137  1.00  0.00    -0.146 C  
BRANCH   7   8
HETATM    8  C   UNL     1     -10.361   5.512  69.645  1.00  0.00    -0.359 C  
BRANCH   8   9
HETATM    9  C   UNL     1     -11.356   6.486  70.262  1.00  0.00    -0.456 C  
BRANCH   9  10
HETATM   10  C   UNL     1     -10.781   7.116  71.524  1.00  0.00    -0.245 C  
BRANCH  10  11
HETATM   11  C   UNL     1     -11.867   7.849  72.305  1.00  0.00    -0.404 C  
BRANCH  11  12
HETATM   12  C   UNL     1     -13.213   7.712  71.608  1.00  0.00    -0.395 C  
BRANCH  12  13
HETATM   13  C   UNL     1     -13.808   9.082  71.304  1.00  0.00    -0.224 C  
BRANCH  13  14
HETATM   14  C   UNL     1     -13.180  10.150  72.193  1.00  0.00    -0.463 C  
BRANCH  14  15
HETATM   15  C   UNL     1     -12.854  11.409  71.395  1.00  0.00    -0.502 C  
BRANCH  15  16
HETATM   16  C   UNL     1     -13.456  12.642  72.065  1.00  0.00    -0.516 C  
BRANCH  16  17
HETATM   17  C   UNL     1     -12.813  13.925  71.546  1.00  0.00    -0.441 C  
HETATM   18  C   UNL     1     -12.667  14.958  72.638  1.00  0.00    -0.379 C  
HETATM   19  O   UNL     1     -13.011  14.817  73.800  1.00  0.00    -0.508 OA 
HETATM   20  O   UNL     1     -12.097  16.100  72.187  1.00  0.00    -0.474 OA 
ENDBRANCH  16  17
ENDBRANCH  15  16
ENDBRANCH  14  15
ENDBRANCH  13  14
ENDBRANCH  12  13
ENDBRANCH  11  12
ENDBRANCH  10  11
ENDBRANCH   9  10
ENDBRANCH   8   9
ENDBRANCH   7   8
ENDBRANCH   6   7
ENDBRANCH   5   6
ENDBRANCH   4   5
ENDBRANCH   3   4
ENDBRANCH   2   3
TORSDOF 15
ENDMDL
MODEL      350
REMARK 921   NORMALIZED FREE ENERGY PREDICTED BY IDOCK:   -2.72 KCAL/MOL
REMARK 922        TOTAL FREE ENERGY PREDICTED BY IDOCK:   -6.90 KCAL/MOL
REMARK 923 INTER-LIGAND FREE ENERGY PREDICTED BY IDOCK:   -4.99 KCAL/MOL
REMARK 924 INTRA-LIGAND FREE ENERGY PREDICTED BY IDOCK:   -1.91 KCAL/MOL
REMARK 927      BINDING AFFINITY PREDICTED BY RF-SCORE:    0.00 PKD
ROOT
HETATM    1  C   UNL     1      -6.308  20.746  64.928  1.00  0.00    -0.298 C  
HETATM    2  C   UNL     1      -6.832  19.823  66.013  1.00  0.00    -0.268 C  
ENDROOT
BRANCH   2   3
HETATM    3  C   UNL     1      -8.358  19.841  66.061  1.00  0.00    -0.314 C  
BRANCH   3   4
HETATM    4  C   UNL     1      -8.913  18.466  66.416  1.00  0.00    -0.260 C  
BRANCH   4   5
HETATM    5  C   UNL     1      -7.993  17.749  67.399  1.00  0.00    -0.221 C  
BRANCH   5   6
HETATM    6  C   UNL     1      -8.780  17.216  68.591  1.00  0.00    -0.266 C  
BRANCH   6   7
HETATM    7  C   UNL     1     -10.268  17.497  68.424  1.00  0.00    -0.372 C  
BRANCH   7   8
HETATM    8  C   UNL     1     -11.097  16.286  68.834  1.00  0.00    -0.345 C  
BRANCH   8   9
HETATM    9  C   UNL     1     -11.125  15.251  67.718  1.00  0.00    -0.318 C  
BRANCH   9  10
HETATM   10  C   UNL     1     -11.818  13.975  68.183  1.00  0.00    -0.402 C  
BRANCH  10  11
HETATM   11  C   UNL     1     -11.940  12.978  67.035  1.00  0.00    -0.409 C  
BRANCH  11  12
HETATM   12  C   UNL     1     -11.685  11.560  67.527  1.00  0.00    -0.262 C  
BRANCH  12  13
HETATM   13  C   UNL     1     -10.598  10.885  66.701  1.00  0.00    -0.305 C  
BRANCH  13  14
HETATM   14  C   UNL     1      -9.649  11.923  66.112  1.00  0.00    -0.250 C  
BRANCH  14  15
HETATM   15  C   UNL     1      -8.250  11.791  66.705  1.00  0.00    -0.147 C  
BRANCH  15  16
HETATM   16  C   UNL     1      -8.225  12.293  68.147  1.00  0.00    -0.168 C  
BRANCH  16  17
HETATM   17  C   UNL     1      -7.751  13.741  68.222  1.00  0.00    -0.138 C  
HETATM   18  C   UNL     1      -6.334  13.838  68.737  1.00  0.00    -0.092 C  
HETATM   19  O   UNL     1      -5.630  12.895  69.062  1.00  0.00    -0.067 OA 
HETATM   20  O   UNL     1      -5.903  15.120  68.807  1.00  0.00    -0.086 OA 
ENDBRANCH  16  17
ENDBRANCH  15  16
ENDBRANCH  14  15
ENDBRANCH  13  14
ENDBRANCH  12  13
ENDBRANCH  11  12
ENDBRANCH  10  11
ENDBRANCH   9  10
ENDBRANCH   8   9
ENDBRANCH   7   8
ENDBRANCH   6   7
ENDBRANCH   5   6
ENDBRANCH   4   5
ENDBRANCH   3   4
ENDBRANCH   2   3
TORSDOF 15
ENDMDL
MODEL      351
REMARK 921   NORMALIZED FREE ENERGY PREDICTED BY IDOCK:   -2.72 KCAL/MOL
REMARK 922        TOTAL FREE ENERGY PREDICTED BY IDOCK:   -6.90 KCAL/MOL
REMARK 923 INTER-LIGAND FREE ENERGY PREDICTED BY IDOCK:   -5.43 KCAL/MOL
REMARK 924 INTRA-LIGAND FREE ENERGY PREDICTED BY IDOCK:   -1.47 KCAL/MOL
REMARK 927      BINDING AFFINITY PREDICTED BY RF-SCORE:    0.00 PKD
ROOT
HETATM    1  C   UNL     1      -6.918  10.787  69.251  1.00  0.00    -0.102 C  
HETATM    2  C   UNL     1      -7.358  10.038  68.006  1.00  0.00    -0.087 C  
ENDROOT
BRANCH   2   3
HETATM    3  C   UNL     1      -8.759  10.464  67.574  1.00  0.00    -0.125 C  
BRANCH   3   4
HETATM    4  C   UNL     1      -9.161   9.785  66.269  1.00  0.00    -0.207 C  
BRANCH   4   5
HETATM    5  C   UNL     1      -8.348  10.333  65.100  1.00  0.00    -0.162 C  
BRANCH   5   6
HETATM    6  C   UNL     1      -9.262  10.890  64.015  1.00  0.00    -0.218 C  
BRANCH   6   7
HETATM    7  C   UNL     1     -10.673  11.096  64.552  1.00  0.00    -0.368 C  
BRANCH   7   8
HETATM    8  C   UNL     1     -11.031  12.577  64.577  1.00  0.00    -0.359 C  
BRANCH   8   9
HETATM    9  C   UNL     1     -12.418  12.785  65.171  1.00  0.00    -0.565 C  
BRANCH   9  10
HETATM   10  C   UNL     1     -12.321  13.268  66.613  1.00  0.00    -0.274 C  
BRANCH  10  11
HETATM   11  C   UNL     1     -11.276  12.464  67.382  1.00  0.00    -0.351 C  
BRANCH  11  12
HETATM   12  C   UNL     1     -11.915  11.742  68.559  1.00  0.00    -0.279 C  
BRANCH  12  13
HETATM   13  C   UNL     1     -11.576  12.437  69.872  1.00  0.00    -0.260 C  
BRANCH  13  14
HETATM   14  C   UNL     1     -12.540  12.006  70.972  1.00  0.00    -0.370 C  
BRANCH  14  15
HETATM   15  C   UNL     1     -13.016  10.572  70.758  1.00  0.00    -0.413 C  
BRANCH  15  16
HETATM   16  C   UNL     1     -12.252   9.609  71.664  1.00  0.00    -0.484 C  
BRANCH  16  17
HETATM   17  C   UNL     1     -11.620   8.476  70.861  1.00  0.00    -0.295 C  
HETATM   18  C   UNL     1     -10.145   8.709  70.631  1.00  0.00    -0.198 C  
HETATM   19  O   UNL     1      -9.509   9.673  71.025  1.00  0.00    -0.149 OA 
HETATM   20  O   UNL     1      -9.576   7.708  69.919  1.00  0.00    -0.161 OA 
ENDBRANCH  16  17
ENDBRANCH  15  16
ENDBRANCH  14  15
ENDBRANCH  13  14
ENDBRANCH  12  13
ENDBRANCH  11  12
ENDBRANCH  10  11
ENDBRANCH   9  10
ENDBRANCH   8   9
ENDBRANCH   7   8
ENDBRANCH   6   7
ENDBRANCH   5   6
ENDBRANCH   4   5
ENDBRANCH   3   4
ENDBRANCH   2   3
TORSDOF 15
ENDMDL
MODEL      352
REMARK 921   NORMALIZED FREE ENERGY PREDICTED BY IDOCK:   -2.71 KCAL/MOL
REMARK 922        TOTAL FREE ENERGY PREDICTED BY IDOCK:   -6.89 KCAL/MOL
REMARK 923 INTER-LIGAND FREE ENERGY PREDICTED BY IDOCK:   -5.48 KCAL/MOL
REMARK 924 INTRA-LIGAND FREE ENERGY PREDICTED BY IDOCK:   -1.41 KCAL/MOL
REMARK 927      BINDING AFFINITY PREDICTED BY RF-SCORE:    0.00 PKD
ROOT
HETATM    1  C   UNL     1     -13.525  15.280  72.955  1.00  0.00    -0.611 C  
HETATM    2  C   UNL     1     -13.208  14.396  71.762  1.00  0.00    -0.435 C  
ENDROOT
BRANCH   2   3
HETATM    3  C   UNL     1     -12.983  15.230  70.503  1.00  0.00    -0.380 C  
BRANCH   3   4
HETATM    4  C   UNL     1     -12.055  14.514  69.528  1.00  0.00    -0.348 C  
BRANCH   4   5
HETATM    5  C   UNL     1     -11.601  15.459  68.420  1.00  0.00    -0.368 C  
BRANCH   5   6
HETATM    6  C   UNL     1     -11.636  14.763  67.064  1.00  0.00    -0.352 C  
BRANCH   6   7
HETATM    7  C   UNL     1     -10.372  15.067  66.270  1.00  0.00    -0.304 C  
BRANCH   7   8
HETATM    8  C   UNL     1      -9.225  15.438  67.201  1.00  0.00    -0.226 C  
BRANCH   8   9
HETATM    9  C   UNL     1      -8.110  14.404  67.120  1.00  0.00    -0.171 C  
BRANCH   9  10
HETATM   10  C   UNL     1      -8.408  13.218  68.031  1.00  0.00    -0.162 C  
BRANCH  10  11
HETATM   11  C   UNL     1      -8.201  11.902  67.288  1.00  0.00    -0.170 C  
BRANCH  11  12
HETATM   12  C   UNL     1      -6.963  11.183  67.804  1.00  0.00    -0.078 C  
BRANCH  12  13
HETATM   13  C   UNL     1      -7.189   9.678  67.852  1.00  0.00    -0.081 C  
BRANCH  13  14
HETATM   14  C   UNL     1      -6.944   9.142  69.259  1.00  0.00    -0.053 C  
BRANCH  14  15
HETATM   15  C   UNL     1      -8.019   9.627  70.228  1.00  0.00    -0.198 C  
BRANCH  15  16
HETATM   16  C   UNL     1      -9.413   9.348  69.671  1.00  0.00    -0.200 C  
BRANCH  16  17
HETATM   17  C   UNL     1     -10.427   9.141  70.792  1.00  0.00    -0.322 C  
HETATM   18  C   UNL     1     -11.545  10.155  70.729  1.00  0.00    -0.357 C  
HETATM   19  O   UNL     1     -11.652  11.043  69.898  1.00  0.00    -0.279 OA 
HETATM   20  O   UNL     1     -12.450   9.979  71.720  1.00  0.00    -0.389 OA 
ENDBRANCH  16  17
ENDBRANCH  15  16
ENDBRANCH  14  15
ENDBRANCH  13  14
ENDBRANCH  12  13
ENDBRANCH  11  12
ENDBRANCH  10  11
ENDBRANCH   9  10
ENDBRANCH   8   9
ENDBRANCH   7   8
ENDBRANCH   6   7
ENDBRANCH   5   6
ENDBRANCH   4   5
ENDBRANCH   3   4
ENDBRANCH   2   3
TORSDOF 15
ENDMDL
MODEL      353
REMARK 921   NORMALIZED FREE ENERGY PREDICTED BY IDOCK:   -2.71 KCAL/MOL
REMARK 922        TOTAL FREE ENERGY PREDICTED BY IDOCK:   -6.87 KCAL/MOL
REMARK 923 INTER-LIGAND FREE ENERGY PREDICTED BY IDOCK:   -5.01 KCAL/MOL
REMARK 924 INTRA-LIGAND FREE ENERGY PREDICTED BY IDOCK:   -1.86 KCAL/MOL
REMARK 927      BINDING AFFINITY PREDICTED BY RF-SCORE:    0.00 PKD
ROOT
HETATM    1  C   UNL     1      -9.198  11.603  66.361  1.00  0.00    -0.219 C  
HETATM    2  C   UNL     1      -8.912  11.181  64.931  1.00  0.00    -0.052 C  
ENDROOT
BRANCH   2   3
HETATM    3  C   UNL     1      -9.991  11.693  63.980  1.00  0.00    -0.328 C  
BRANCH   3   4
HETATM    4  C   UNL     1     -11.350  11.086  64.313  1.00  0.00     0.284 C  
BRANCH   4   5
HETATM    5  C   UNL     1     -12.426  12.166  64.365  1.00  0.00    -0.418 C  
BRANCH   5   6
HETATM    6  C   UNL     1     -12.018  13.381  63.538  1.00  0.00    -0.467 C  
BRANCH   6   7
HETATM    7  C   UNL     1     -12.309  14.670  64.295  1.00  0.00    -0.375 C  
BRANCH   7   8
HETATM    8  C   UNL     1     -11.049  15.195  64.973  1.00  0.00    -0.428 C  
BRANCH   8   9
HETATM    9  C   UNL     1     -11.069  16.716  65.040  1.00  0.00    -0.121 C  
BRANCH   9  10
HETATM   10  C   UNL     1      -9.941  17.232  65.926  1.00  0.00    -0.191 C  
BRANCH  10  11
HETATM   11  C   UNL     1     -10.209  18.670  66.359  1.00  0.00    -0.461 C  
BRANCH  11  12
HETATM   12  C   UNL     1      -9.970  18.834  67.853  1.00  0.00    -0.400 C  
BRANCH  12  13
HETATM   13  C   UNL     1      -8.491  19.049  68.147  1.00  0.00    -0.351 C  
BRANCH  13  14
HETATM   14  C   UNL     1      -7.993  18.032  69.168  1.00  0.00     0.041 C  
BRANCH  14  15
HETATM   15  C   UNL     1      -7.777  16.665  68.526  1.00  0.00    -0.215 C  
BRANCH  15  16
HETATM   16  C   UNL     1      -8.351  15.558  69.406  1.00  0.00    -0.249 C  
BRANCH  16  17
HETATM   17  C   UNL     1      -9.429  14.768  68.671  1.00  0.00    -0.213 C  
HETATM   18  C   UNL     1     -10.817  15.174  69.110  1.00  0.00    -0.251 C  
HETATM   19  O   UNL     1     -11.076  16.023  69.946  1.00  0.00    -0.301 OA 
HETATM   20  O   UNL     1     -11.781  14.478  68.462  1.00  0.00    -0.294 OA 
ENDBRANCH  16  17
ENDBRANCH  15  16
ENDBRANCH  14  15
ENDBRANCH  13  14
ENDBRANCH  12  13
ENDBRANCH  11  12
ENDBRANCH  10  11
ENDBRANCH   9  10
ENDBRANCH   8   9
ENDBRANCH   7   8
ENDBRANCH   6   7
ENDBRANCH   5   6
ENDBRANCH   4   5
ENDBRANCH   3   4
ENDBRANCH   2   3
TORSDOF 15
ENDMDL
MODEL      354
REMARK 921   NORMALIZED FREE ENERGY PREDICTED BY IDOCK:   -2.71 KCAL/MOL
REMARK 922        TOTAL FREE ENERGY PREDICTED BY IDOCK:   -6.87 KCAL/MOL
REMARK 923 INTER-LIGAND FREE ENERGY PREDICTED BY IDOCK:   -5.57 KCAL/MOL
REMARK 924 INTRA-LIGAND FREE ENERGY PREDICTED BY IDOCK:   -1.30 KCAL/MOL
REMARK 927      BINDING AFFINITY PREDICTED BY RF-SCORE:    0.00 PKD
ROOT
HETATM    1  C   UNL     1     -10.101   7.506  71.462  1.00  0.00    -0.201 C  
HETATM    2  C   UNL     1      -9.498   8.883  71.674  1.00  0.00    -0.351 C  
ENDROOT
BRANCH   2   3
HETATM    3  C   UNL     1      -8.842   9.399  70.395  1.00  0.00    -0.290 C  
BRANCH   3   4
HETATM    4  C   UNL     1      -8.629   8.270  69.393  1.00  0.00    -0.134 C  
BRANCH   4   5
HETATM    5  C   UNL     1      -9.181   8.651  68.023  1.00  0.00    -0.147 C  
BRANCH   5   6
HETATM    6  C   UNL     1     -10.681   8.916  68.097  1.00  0.00    -0.148 C  
BRANCH   6   7
HETATM    7  C   UNL     1     -11.009  10.304  67.560  1.00  0.00    -0.344 C  
BRANCH   7   8
HETATM    8  C   UNL     1     -12.094  10.966  68.401  1.00  0.00     0.074 C  
BRANCH   8   9
HETATM    9  C   UNL     1     -11.860  10.704  69.883  1.00  0.00    -0.392 C  
BRANCH   9  10
HETATM   10  C   UNL     1     -12.111  11.966  70.700  1.00  0.00    -0.389 C  
BRANCH  10  11
HETATM   11  C   UNL     1     -11.667  13.205  69.929  1.00  0.00    -0.327 C  
BRANCH  11  12
HETATM   12  C   UNL     1     -12.369  14.447  70.460  1.00  0.00    -0.413 C  
BRANCH  12  13
HETATM   13  C   UNL     1     -11.899  15.694  69.721  1.00  0.00    -0.376 C  
BRANCH  13  14
HETATM   14  C   UNL     1     -11.194  15.315  68.423  1.00  0.00    -0.314 C  
BRANCH  14  15
HETATM   15  C   UNL     1      -9.895  16.097  68.252  1.00  0.00    -0.224 C  
BRANCH  15  16
HETATM   16  C   UNL     1      -9.983  17.033  67.048  1.00  0.00    -0.288 C  
BRANCH  16  17
HETATM   17  C   UNL     1     -10.779  18.291  67.381  1.00  0.00    -0.377 C  
HETATM   18  C   UNL     1      -9.955  19.280  68.172  1.00  0.00    -0.391 C  
HETATM   19  O   UNL     1      -8.796  19.122  68.518  1.00  0.00    -0.344 OA 
HETATM   20  O   UNL     1     -10.653  20.400  68.473  1.00  0.00    -0.195 OA 
ENDBRANCH  16  17
ENDBRANCH  15  16
ENDBRANCH  14  15
ENDBRANCH  13  14
ENDBRANCH  12  13
ENDBRANCH  11  12
ENDBRANCH  10  11
ENDBRANCH   9  10
ENDBRANCH   8   9
ENDBRANCH   7   8
ENDBRANCH   6   7
ENDBRANCH   5   6
ENDBRANCH   4   5
ENDBRANCH   3   4
ENDBRANCH   2   3
TORSDOF 15
ENDMDL
MODEL      355
REMARK 921   NORMALIZED FREE ENERGY PREDICTED BY IDOCK:   -2.71 KCAL/MOL
REMARK 922        TOTAL FREE ENERGY PREDICTED BY IDOCK:   -6.87 KCAL/MOL
REMARK 923 INTER-LIGAND FREE ENERGY PREDICTED BY IDOCK:   -5.91 KCAL/MOL
REMARK 924 INTRA-LIGAND FREE ENERGY PREDICTED BY IDOCK:   -0.96 KCAL/MOL
REMARK 927      BINDING AFFINITY PREDICTED BY RF-SCORE:    0.00 PKD
ROOT
HETATM    1  C   UNL     1      -6.382  20.705  64.785  1.00  0.00    -0.329 C  
HETATM    2  C   UNL     1      -6.914  19.800  65.881  1.00  0.00    -0.302 C  
ENDROOT
BRANCH   2   3
HETATM    3  C   UNL     1      -8.400  20.051  66.130  1.00  0.00    -0.304 C  
BRANCH   3   4
HETATM    4  C   UNL     1      -9.144  18.744  66.381  1.00  0.00    -0.305 C  
BRANCH   4   5
HETATM    5  C   UNL     1      -8.350  17.843  67.322  1.00  0.00    -0.232 C  
BRANCH   5   6
HETATM    6  C   UNL     1      -9.243  17.293  68.429  1.00  0.00    -0.268 C  
BRANCH   6   7
HETATM    7  C   UNL     1     -10.696  17.247  67.977  1.00  0.00    -0.367 C  
BRANCH   7   8
HETATM    8  C   UNL     1     -11.512  16.322  68.873  1.00  0.00    -0.282 C  
BRANCH   8   9
HETATM    9  C   UNL     1     -11.133  14.867  68.631  1.00  0.00    -0.272 C  
BRANCH   9  10
HETATM   10  C   UNL     1     -11.831  13.955  69.632  1.00  0.00    -0.385 C  
BRANCH  10  11
HETATM   11  C   UNL     1     -11.615  12.489  69.268  1.00  0.00    -0.378 C  
BRANCH  11  12
HETATM   12  C   UNL     1     -11.983  11.586  70.436  1.00  0.00    -0.459 C  
BRANCH  12  13
HETATM   13  C   UNL     1     -11.912  10.119  70.032  1.00  0.00    -0.210 C  
BRANCH  13  14
HETATM   14  C   UNL     1     -10.562   9.801  69.400  1.00  0.00    -0.248 C  
BRANCH  14  15
HETATM   15  C   UNL     1     -10.713   9.453  67.922  1.00  0.00    -0.269 C  
BRANCH  15  16
HETATM   16  C   UNL     1      -9.500   9.931  67.127  1.00  0.00    -0.190 C  
BRANCH  16  17
HETATM   17  C   UNL     1      -9.675  11.374  66.663  1.00  0.00    -0.224 C  
HETATM   18  C   UNL     1     -10.193  11.445  65.245  1.00  0.00    -0.270 C  
HETATM   19  O   UNL     1     -10.448  10.487  64.534  1.00  0.00    -0.310 OA 
HETATM   20  O   UNL     1     -10.352  12.722  64.824  1.00  0.00    -0.310 OA 
ENDBRANCH  16  17
ENDBRANCH  15  16
ENDBRANCH  14  15
ENDBRANCH  13  14
ENDBRANCH  12  13
ENDBRANCH  11  12
ENDBRANCH  10  11
ENDBRANCH   9  10
ENDBRANCH   8   9
ENDBRANCH   7   8
ENDBRANCH   6   7
ENDBRANCH   5   6
ENDBRANCH   4   5
ENDBRANCH   3   4
ENDBRANCH   2   3
TORSDOF 15
ENDMDL
MODEL      356
REMARK 921   NORMALIZED FREE ENERGY PREDICTED BY IDOCK:   -2.70 KCAL/MOL
REMARK 922        TOTAL FREE ENERGY PREDICTED BY IDOCK:   -6.87 KCAL/MOL
REMARK 923 INTER-LIGAND FREE ENERGY PREDICTED BY IDOCK:   -5.78 KCAL/MOL
REMARK 924 INTRA-LIGAND FREE ENERGY PREDICTED BY IDOCK:   -1.10 KCAL/MOL
REMARK 927      BINDING AFFINITY PREDICTED BY RF-SCORE:    0.00 PKD
ROOT
HETATM    1  C   UNL     1      -6.731   5.506  70.607  1.00  0.00    -0.047 C  
HETATM    2  C   UNL     1      -7.694   4.434  70.128  1.00  0.00    -0.049 C  
ENDROOT
BRANCH   2   3
HETATM    3  C   UNL     1      -8.334   4.824  68.798  1.00  0.00    -0.084 C  
BRANCH   3   4
HETATM    4  C   UNL     1      -9.850   4.925  68.927  1.00  0.00    -0.241 C  
BRANCH   4   5
HETATM    5  C   UNL     1     -10.267   4.968  70.394  1.00  0.00    -0.324 C  
BRANCH   5   6
HETATM    6  C   UNL     1     -11.165   6.169  70.669  1.00  0.00    -0.387 C  
BRANCH   6   7
HETATM    7  C   UNL     1     -10.822   7.323  69.736  1.00  0.00    -0.251 C  
BRANCH   7   8
HETATM    8  C   UNL     1     -10.451   8.569  70.531  1.00  0.00    -0.230 C  
BRANCH   8   9
HETATM    9  C   UNL     1      -9.958   9.672  69.603  1.00  0.00    -0.239 C  
BRANCH   9  10
HETATM   10  C   UNL     1     -11.111  10.248  68.790  1.00  0.00    -0.276 C  
BRANCH  10  11
HETATM   11  C   UNL     1     -11.930  11.222  69.630  1.00  0.00    -0.423 C  
BRANCH  11  12
HETATM   12  C   UNL     1     -11.696  12.655  69.171  1.00  0.00    -0.375 C  
BRANCH  12  13
HETATM   13  C   UNL     1     -11.603  12.730  67.652  1.00  0.00    -0.412 C  
BRANCH  13  14
HETATM   14  C   UNL     1     -10.406  13.576  67.229  1.00  0.00    -0.241 C  
BRANCH  14  15
HETATM   15  C   UNL     1     -10.282  14.827  68.094  1.00  0.00    -0.228 C  
BRANCH  15  16
HETATM   16  C   UNL     1     -10.684  16.071  67.304  1.00  0.00    -0.295 C  
BRANCH  16  17
HETATM   17  C   UNL     1     -10.572  17.330  68.159  1.00  0.00    -0.386 C  
HETATM   18  C   UNL     1     -10.529  18.579  67.310  1.00  0.00    -0.419 C  
HETATM   19  O   UNL     1     -10.576  18.611  66.091  1.00  0.00    -0.436 OA 
HETATM   20  O   UNL     1     -10.429  19.702  68.060  1.00  0.00    -0.433 OA 
ENDBRANCH  16  17
ENDBRANCH  15  16
ENDBRANCH  14  15
ENDBRANCH  13  14
ENDBRANCH  12  13
ENDBRANCH  11  12
ENDBRANCH  10  11
ENDBRANCH   9  10
ENDBRANCH   8   9
ENDBRANCH   7   8
ENDBRANCH   6   7
ENDBRANCH   5   6
ENDBRANCH   4   5
ENDBRANCH   3   4
ENDBRANCH   2   3
TORSDOF 15
ENDMDL
MODEL      357
REMARK 921   NORMALIZED FREE ENERGY PREDICTED BY IDOCK:   -2.70 KCAL/MOL
REMARK 922        TOTAL FREE ENERGY PREDICTED BY IDOCK:   -6.87 KCAL/MOL
REMARK 923 INTER-LIGAND FREE ENERGY PREDICTED BY IDOCK:   -5.71 KCAL/MOL
REMARK 924 INTRA-LIGAND FREE ENERGY PREDICTED BY IDOCK:   -1.16 KCAL/MOL
REMARK 927      BINDING AFFINITY PREDICTED BY RF-SCORE:    0.00 PKD
ROOT
HETATM    1  C   UNL     1     -10.922  13.194  65.474  1.00  0.00    -0.296 C  
HETATM    2  C   UNL     1     -12.040  13.093  66.496  1.00  0.00    -0.423 C  
ENDROOT
BRANCH   2   3
HETATM    3  C   UNL     1     -11.571  13.561  67.872  1.00  0.00    -0.377 C  
BRANCH   3   4
HETATM    4  C   UNL     1     -10.901  12.426  68.639  1.00  0.00    -0.273 C  
BRANCH   4   5
HETATM    5  C   UNL     1     -11.931  11.630  69.435  1.00  0.00    -0.381 C  
BRANCH   5   6
HETATM    6  C   UNL     1     -12.366  12.396  70.680  1.00  0.00    -0.367 C  
BRANCH   6   7
HETATM    7  C   UNL     1     -13.098  11.477  71.650  1.00  0.00    -0.478 C  
BRANCH   7   8
HETATM    8  C   UNL     1     -13.180  10.060  71.095  1.00  0.00    -0.441 C  
BRANCH   8   9
HETATM    9  C   UNL     1     -13.151   9.038  72.223  1.00  0.00    -0.508 C  
BRANCH   9  10
HETATM   10  C   UNL     1     -11.828   8.283  72.234  1.00  0.00    -0.451 C  
BRANCH  10  11
HETATM   11  C   UNL     1     -11.175   8.319  70.856  1.00  0.00    -0.292 C  
BRANCH  11  12
HETATM   12  C   UNL     1     -10.266   7.114  70.661  1.00  0.00    -0.205 C  
BRANCH  12  13
HETATM   13  C   UNL     1     -10.995   5.999  69.921  1.00  0.00    -0.458 C  
BRANCH  13  14
HETATM   14  C   UNL     1     -10.142   4.735  69.880  1.00  0.00    -0.299 C  
BRANCH  14  15
HETATM   15  C   UNL     1      -9.638   4.455  68.467  1.00  0.00    -0.208 C  
BRANCH  15  16
HETATM   16  C   UNL     1      -8.124   4.635  68.389  1.00  0.00    -0.083 C  
BRANCH  16  17
HETATM   17  C   UNL     1      -7.408   3.758  69.412  1.00  0.00    -0.052 C  
HETATM   18  C   UNL     1      -6.968   2.444  68.810  1.00  0.00    -0.043 C  
HETATM   19  O   UNL     1      -7.147   2.097  67.654  1.00  0.00    -0.046 OA 
HETATM   20  O   UNL     1      -6.331   1.659  69.711  1.00  0.00    -0.024 OA 
ENDBRANCH  16  17
ENDBRANCH  15  16
ENDBRANCH  14  15
ENDBRANCH  13  14
ENDBRANCH  12  13
ENDBRANCH  11  12
ENDBRANCH  10  11
ENDBRANCH   9  10
ENDBRANCH   8   9
ENDBRANCH   7   8
ENDBRANCH   6   7
ENDBRANCH   5   6
ENDBRANCH   4   5
ENDBRANCH   3   4
ENDBRANCH   2   3
TORSDOF 15
ENDMDL
MODEL      358
REMARK 921   NORMALIZED FREE ENERGY PREDICTED BY IDOCK:   -2.70 KCAL/MOL
REMARK 922        TOTAL FREE ENERGY PREDICTED BY IDOCK:   -6.86 KCAL/MOL
REMARK 923 INTER-LIGAND FREE ENERGY PREDICTED BY IDOCK:   -5.65 KCAL/MOL
REMARK 924 INTRA-LIGAND FREE ENERGY PREDICTED BY IDOCK:   -1.21 KCAL/MOL
REMARK 927      BINDING AFFINITY PREDICTED BY RF-SCORE:    0.00 PKD
ROOT
HETATM    1  C   UNL     1      -7.989   7.342  70.836  1.00  0.00    -0.098 C  
HETATM    2  C   UNL     1      -9.129   6.740  71.639  1.00  0.00    -0.144 C  
ENDROOT
BRANCH   2   3
HETATM    3  C   UNL     1      -8.993   5.222  71.735  1.00  0.00    -0.147 C  
BRANCH   3   4
HETATM    4  C   UNL     1      -7.935   4.703  70.767  1.00  0.00    -0.076 C  
BRANCH   4   5
HETATM    5  C   UNL     1      -8.561   3.777  69.729  1.00  0.00    -0.106 C  
BRANCH   5   6
HETATM    6  C   UNL     1      -8.890   4.539  68.449  1.00  0.00    -0.126 C  
BRANCH   6   7
HETATM    7  C   UNL     1     -10.386   4.807  68.352  1.00  0.00     0.034 C  
BRANCH   7   8
HETATM    8  C   UNL     1     -10.672   5.922  67.352  1.00  0.00    -0.370 C  
BRANCH   8   9
HETATM    9  C   UNL     1      -9.734   7.100  67.579  1.00  0.00    -0.176 C  
BRANCH   9  10
HETATM   10  C   UNL     1     -10.422   8.413  67.221  1.00  0.00    -0.373 C  
BRANCH  10  11
HETATM   11  C   UNL     1      -9.405   9.437  66.727  1.00  0.00    -0.202 C  
BRANCH  11  12
HETATM   12  C   UNL     1      -9.597   9.711  65.242  1.00  0.00    -0.347 C  
BRANCH  12  13
HETATM   13  C   UNL     1     -10.296  11.046  65.022  1.00  0.00    -0.360 C  
BRANCH  13  14
HETATM   14  C   UNL     1     -11.037  11.479  66.283  1.00  0.00    -0.321 C  
BRANCH  14  15
HETATM   15  C   UNL     1     -11.526  12.920  66.167  1.00  0.00    -0.393 C  
BRANCH  15  16
HETATM   16  C   UNL     1     -10.765  13.662  65.072  1.00  0.00    -0.374 C  
BRANCH  16  17
HETATM   17  C   UNL     1     -11.443  14.983  64.723  1.00  0.00    -0.403 C  
HETATM   18  C   UNL     1     -10.577  16.168  65.081  1.00  0.00    -0.343 C  
HETATM   19  O   UNL     1      -9.468  16.110  65.587  1.00  0.00    -0.427 OA 
HETATM   20  O   UNL     1     -11.171  17.346  64.775  1.00  0.00    -0.895 OA 
ENDBRANCH  16  17
ENDBRANCH  15  16
ENDBRANCH  14  15
ENDBRANCH  13  14
ENDBRANCH  12  13
ENDBRANCH  11  12
ENDBRANCH  10  11
ENDBRANCH   9  10
ENDBRANCH   8   9
ENDBRANCH   7   8
ENDBRANCH   6   7
ENDBRANCH   5   6
ENDBRANCH   4   5
ENDBRANCH   3   4
ENDBRANCH   2   3
TORSDOF 15
ENDMDL
MODEL      359
REMARK 921   NORMALIZED FREE ENERGY PREDICTED BY IDOCK:   -2.70 KCAL/MOL
REMARK 922        TOTAL FREE ENERGY PREDICTED BY IDOCK:   -6.86 KCAL/MOL
REMARK 923 INTER-LIGAND FREE ENERGY PREDICTED BY IDOCK:   -5.71 KCAL/MOL
REMARK 924 INTRA-LIGAND FREE ENERGY PREDICTED BY IDOCK:   -1.15 KCAL/MOL
REMARK 927      BINDING AFFINITY PREDICTED BY RF-SCORE:    0.00 PKD
ROOT
HETATM    1  C   UNL     1     -10.649  12.496  64.998  1.00  0.00    -0.329 C  
HETATM    2  C   UNL     1     -11.767  12.344  66.014  1.00  0.00    -0.469 C  
ENDROOT
BRANCH   2   3
HETATM    3  C   UNL     1     -11.354  12.901  67.374  1.00  0.00    -0.355 C  
BRANCH   3   4
HETATM    4  C   UNL     1     -10.840  11.794  68.289  1.00  0.00    -0.259 C  
BRANCH   4   5
HETATM    5  C   UNL     1     -11.976  11.211  69.124  1.00  0.00    -0.413 C  
BRANCH   5   6
HETATM    6  C   UNL     1     -12.150  11.991  70.423  1.00  0.00    -0.407 C  
BRANCH   6   7
HETATM    7  C   UNL     1     -12.845  11.136  71.475  1.00  0.00    -0.542 C  
BRANCH   7   8
HETATM    8  C   UNL     1     -13.406   9.863  70.852  1.00  0.00    -0.256 C  
BRANCH   8   9
HETATM    9  C   UNL     1     -13.675   8.814  71.923  1.00  0.00    -0.477 C  
BRANCH   9  10
HETATM   10  C   UNL     1     -12.410   8.020  72.229  1.00  0.00    -0.336 C  
BRANCH  10  11
HETATM   11  C   UNL     1     -12.231   6.883  71.228  1.00  0.00    -0.427 C  
BRANCH  11  12
HETATM   12  C   UNL     1     -10.851   6.257  71.368  1.00  0.00    -0.312 C  
BRANCH  12  13
HETATM   13  C   UNL     1     -10.907   5.010  72.241  1.00  0.00    -0.207 C  
BRANCH  13  14
HETATM   14  C   UNL     1      -9.572   4.273  72.211  1.00  0.00    -0.196 C  
BRANCH  14  15
HETATM   15  C   UNL     1      -8.602   4.929  71.231  1.00  0.00    -0.132 C  
BRANCH  15  16
HETATM   16  C   UNL     1      -7.290   5.282  71.927  1.00  0.00    -0.087 C  
BRANCH  16  17
HETATM   17  C   UNL     1      -7.423   6.563  72.745  1.00  0.00    -0.094 C  
HETATM   18  C   UNL     1      -6.774   7.738  72.052  1.00  0.00    -0.057 C  
HETATM   19  O   UNL     1      -6.205   7.700  70.973  1.00  0.00    -0.035 OA 
HETATM   20  O   UNL     1      -6.887   8.880  72.770  1.00  0.00    -0.318 OA 
ENDBRANCH  16  17
ENDBRANCH  15  16
ENDBRANCH  14  15
ENDBRANCH  13  14
ENDBRANCH  12  13
ENDBRANCH  11  12
ENDBRANCH  10  11
ENDBRANCH   9  10
ENDBRANCH   8   9
ENDBRANCH   7   8
ENDBRANCH   6   7
ENDBRANCH   5   6
ENDBRANCH   4   5
ENDBRANCH   3   4
ENDBRANCH   2   3
TORSDOF 15
ENDMDL
MODEL      360
REMARK 921   NORMALIZED FREE ENERGY PREDICTED BY IDOCK:   -2.70 KCAL/MOL
REMARK 922        TOTAL FREE ENERGY PREDICTED BY IDOCK:   -6.85 KCAL/MOL
REMARK 923 INTER-LIGAND FREE ENERGY PREDICTED BY IDOCK:   -5.46 KCAL/MOL
REMARK 924 INTRA-LIGAND FREE ENERGY PREDICTED BY IDOCK:   -1.40 KCAL/MOL
REMARK 927      BINDING AFFINITY PREDICTED BY RF-SCORE:    0.00 PKD
ROOT
HETATM    1  C   UNL     1      -6.373  18.682  68.056  1.00  0.00    -0.209 C  
HETATM    2  C   UNL     1      -6.800  19.636  66.954  1.00  0.00    -0.212 C  
ENDROOT
BRANCH   2   3
HETATM    3  C   UNL     1      -7.880  20.596  67.446  1.00  0.00    -0.329 C  
BRANCH   3   4
HETATM    4  C   UNL     1      -8.901  19.874  68.319  1.00  0.00    -0.276 C  
BRANCH   4   5
HETATM    5  C   UNL     1     -10.269  19.850  67.643  1.00  0.00    -0.564 C  
BRANCH   5   6
HETATM    6  C   UNL     1     -10.235  19.000  66.377  1.00  0.00    -0.502 C  
BRANCH   6   7
HETATM    7  C   UNL     1     -10.387  17.523  66.715  1.00  0.00    -0.314 C  
BRANCH   7   8
HETATM    8  C   UNL     1      -9.242  16.711  66.121  1.00  0.00    -0.312 C  
BRANCH   8   9
HETATM    9  C   UNL     1      -9.578  15.226  66.125  1.00  0.00    -0.353 C  
BRANCH   9  10
HETATM   10  C   UNL     1     -11.085  15.014  66.210  1.00  0.00    -0.334 C  
BRANCH  10  11
HETATM   11  C   UNL     1     -11.474  13.659  65.627  1.00  0.00    -0.320 C  
BRANCH  11  12
HETATM   12  C   UNL     1     -10.349  13.104  64.764  1.00  0.00    -0.369 C  
BRANCH  12  13
HETATM   13  C   UNL     1     -10.296  11.584  64.854  1.00  0.00    -0.340 C  
BRANCH  13  14
HETATM   14  C   UNL     1      -9.932  11.142  66.268  1.00  0.00    -0.261 C  
BRANCH  14  15
HETATM   15  C   UNL     1     -10.642   9.844  66.639  1.00  0.00    -0.186 C  
BRANCH  15  16
HETATM   16  C   UNL     1      -9.942   9.164  67.814  1.00  0.00    -0.236 C  
BRANCH  16  17
HETATM   17  C   UNL     1      -8.758   9.990  68.308  1.00  0.00    -0.119 C  
HETATM   18  C   UNL     1      -7.445   9.282  68.067  1.00  0.00    -0.083 C  
HETATM   19  O   UNL     1      -7.314   8.186  67.547  1.00  0.00    -0.089 OA 
HETATM   20  O   UNL     1      -6.388  10.008  68.502  1.00  0.00    -0.049 OA 
ENDBRANCH  16  17
ENDBRANCH  15  16
ENDBRANCH  14  15
ENDBRANCH  13  14
ENDBRANCH  12  13
ENDBRANCH  11  12
ENDBRANCH  10  11
ENDBRANCH   9  10
ENDBRANCH   8   9
ENDBRANCH   7   8
ENDBRANCH   6   7
ENDBRANCH   5   6
ENDBRANCH   4   5
ENDBRANCH   3   4
ENDBRANCH   2   3
TORSDOF 15
ENDMDL
MODEL      361
REMARK 921   NORMALIZED FREE ENERGY PREDICTED BY IDOCK:   -2.69 KCAL/MOL
REMARK 922        TOTAL FREE ENERGY PREDICTED BY IDOCK:   -6.85 KCAL/MOL
REMARK 923 INTER-LIGAND FREE ENERGY PREDICTED BY IDOCK:   -5.27 KCAL/MOL
REMARK 924 INTRA-LIGAND FREE ENERGY PREDICTED BY IDOCK:   -1.58 KCAL/MOL
REMARK 927      BINDING AFFINITY PREDICTED BY RF-SCORE:    0.00 PKD
ROOT
HETATM    1  C   UNL     1     -10.545  17.185  67.855  1.00  0.00    -0.376 C  
HETATM    2  C   UNL     1      -9.854  15.893  68.252  1.00  0.00    -0.217 C  
ENDROOT
BRANCH   2   3
HETATM    3  C   UNL     1     -10.700  14.679  67.877  1.00  0.00    -0.250 C  
BRANCH   3   4
HETATM    4  C   UNL     1     -11.080  14.709  66.400  1.00  0.00    -0.334 C  
BRANCH   4   5
HETATM    5  C   UNL     1     -12.433  14.041  66.176  1.00  0.00    -0.467 C  
BRANCH   5   6
HETATM    6  C   UNL     1     -12.341  12.982  65.082  1.00  0.00    -0.536 C  
BRANCH   6   7
HETATM    7  C   UNL     1     -10.896  12.550  64.870  1.00  0.00    -0.327 C  
BRANCH   7   8
HETATM    8  C   UNL     1     -10.789  11.031  64.815  1.00  0.00    -0.234 C  
BRANCH   8   9
HETATM    9  C   UNL     1      -9.853  10.518  65.902  1.00  0.00    -0.291 C  
BRANCH   9  10
HETATM   10  C   UNL     1     -10.306  11.002  67.275  1.00  0.00    -0.249 C  
BRANCH  10  11
HETATM   11  C   UNL     1      -9.183  10.853  68.297  1.00  0.00    -0.161 C  
BRANCH  11  12
HETATM   12  C   UNL     1      -9.704  10.218  69.578  1.00  0.00    -0.235 C  
BRANCH  12  13
HETATM   13  C   UNL     1      -9.009   8.889  69.847  1.00  0.00    -0.160 C  
BRANCH  13  14
HETATM   14  C   UNL     1      -8.961   8.043  68.579  1.00  0.00    -0.133 C  
BRANCH  14  15
HETATM   15  C   UNL     1     -10.141   7.076  68.517  1.00  0.00    -0.171 C  
BRANCH  15  16
HETATM   16  C   UNL     1      -9.858   5.825  69.345  1.00  0.00    -0.219 C  
BRANCH  16  17
HETATM   17  C   UNL     1     -10.875   5.663  70.470  1.00  0.00    -0.315 C  
HETATM   18  C   UNL     1     -10.211   5.650  71.826  1.00  0.00    -0.202 C  
HETATM   19  O   UNL     1      -9.012   5.753  72.031  1.00  0.00    -0.138 OA 
HETATM   20  O   UNL     1     -11.106   5.506  72.832  1.00  0.00    -0.261 OA 
ENDBRANCH  16  17
ENDBRANCH  15  16
ENDBRANCH  14  15
ENDBRANCH  13  14
ENDBRANCH  12  13
ENDBRANCH  11  12
ENDBRANCH  10  11
ENDBRANCH   9  10
ENDBRANCH   8   9
ENDBRANCH   7   8
ENDBRANCH   6   7
ENDBRANCH   5   6
ENDBRANCH   4   5
ENDBRANCH   3   4
ENDBRANCH   2   3
TORSDOF 15
ENDMDL
MODEL      362
REMARK 921   NORMALIZED FREE ENERGY PREDICTED BY IDOCK:   -2.69 KCAL/MOL
REMARK 922        TOTAL FREE ENERGY PREDICTED BY IDOCK:   -6.85 KCAL/MOL
REMARK 923 INTER-LIGAND FREE ENERGY PREDICTED BY IDOCK:   -5.11 KCAL/MOL
REMARK 924 INTRA-LIGAND FREE ENERGY PREDICTED BY IDOCK:   -1.75 KCAL/MOL
REMARK 927      BINDING AFFINITY PREDICTED BY RF-SCORE:    0.00 PKD
ROOT
HETATM    1  C   UNL     1      -7.219   8.878  62.886  1.00  0.00    -0.092 C  
HETATM    2  C   UNL     1      -8.435   9.783  62.958  1.00  0.00    -0.180 C  
ENDROOT
BRANCH   2   3
HETATM    3  C   UNL     1      -9.181   9.599  64.277  1.00  0.00    -0.235 C  
BRANCH   3   4
HETATM    4  C   UNL     1      -8.690  10.588  65.329  1.00  0.00    -0.200 C  
BRANCH   4   5
HETATM    5  C   UNL     1      -9.865  11.288  66.004  1.00  0.00    -0.267 C  
BRANCH   5   6
HETATM    6  C   UNL     1     -10.749  11.983  64.973  1.00  0.00    -0.341 C  
BRANCH   6   7
HETATM    7  C   UNL     1     -11.783  12.867  65.659  1.00  0.00    -0.430 C  
BRANCH   7   8
HETATM    8  C   UNL     1     -11.778  12.637  67.166  1.00  0.00    -0.438 C  
BRANCH   8   9
HETATM    9  C   UNL     1     -11.791  13.964  67.913  1.00  0.00    -0.413 C  
BRANCH   9  10
HETATM   10  C   UNL     1     -10.810  13.936  69.079  1.00  0.00    -0.253 C  
BRANCH  10  11
HETATM   11  C   UNL     1     -10.285  15.337  69.376  1.00  0.00    -0.258 C  
BRANCH  11  12
HETATM   12  C   UNL     1     -11.364  16.380  69.121  1.00  0.00    -0.241 C  
BRANCH  12  13
HETATM   13  C   UNL     1     -10.749  17.701  68.676  1.00  0.00    -0.139 C  
BRANCH  13  14
HETATM   14  C   UNL     1     -10.256  17.605  67.236  1.00  0.00    -0.343 C  
BRANCH  14  15
HETATM   15  C   UNL     1      -8.930  18.340  67.057  1.00  0.00    -0.274 C  
BRANCH  15  16
HETATM   16  C   UNL     1      -7.941  17.485  66.268  1.00  0.00    -0.303 C  
BRANCH  16  17
HETATM   17  C   UNL     1      -8.352  16.016  66.273  1.00  0.00    -0.287 C  
HETATM   18  C   UNL     1      -7.447  15.186  67.153  1.00  0.00    -0.141 C  
HETATM   19  O   UNL     1      -6.497  15.607  67.793  1.00  0.00    -0.132 OA 
HETATM   20  O   UNL     1      -7.804  13.879  67.164  1.00  0.00    -0.139 OA 
ENDBRANCH  16  17
ENDBRANCH  15  16
ENDBRANCH  14  15
ENDBRANCH  13  14
ENDBRANCH  12  13
ENDBRANCH  11  12
ENDBRANCH  10  11
ENDBRANCH   9  10
ENDBRANCH   8   9
ENDBRANCH   7   8
ENDBRANCH   6   7
ENDBRANCH   5   6
ENDBRANCH   4   5
ENDBRANCH   3   4
ENDBRANCH   2   3
TORSDOF 15
ENDMDL
MODEL      363
REMARK 921   NORMALIZED FREE ENERGY PREDICTED BY IDOCK:   -2.69 KCAL/MOL
REMARK 922        TOTAL FREE ENERGY PREDICTED BY IDOCK:   -6.85 KCAL/MOL
REMARK 923 INTER-LIGAND FREE ENERGY PREDICTED BY IDOCK:   -5.86 KCAL/MOL
REMARK 924 INTRA-LIGAND FREE ENERGY PREDICTED BY IDOCK:   -0.99 KCAL/MOL
REMARK 927      BINDING AFFINITY PREDICTED BY RF-SCORE:    0.00 PKD
ROOT
HETATM    1  C   UNL     1     -11.409   5.742  71.840  1.00  0.00    -0.268 C  
HETATM    2  C   UNL     1     -11.183   6.633  70.632  1.00  0.00    -0.370 C  
ENDROOT
BRANCH   2   3
HETATM    3  C   UNL     1     -10.456   7.918  71.025  1.00  0.00    -0.223 C  
BRANCH   3   4
HETATM    4  C   UNL     1     -11.176   8.629  72.166  1.00  0.00    -0.438 C  
BRANCH   4   5
HETATM    5  C   UNL     1     -12.380   9.407  71.645  1.00  0.00    -0.465 C  
BRANCH   5   6
HETATM    6  C   UNL     1     -11.972  10.347  70.515  1.00  0.00    -0.427 C  
BRANCH   6   7
HETATM    7  C   UNL     1     -12.326  11.788  70.859  1.00  0.00    -0.420 C  
BRANCH   7   8
HETATM    8  C   UNL     1     -11.679  12.753  69.873  1.00  0.00    -0.321 C  
BRANCH   8   9
HETATM    9  C   UNL     1     -12.019  12.366  68.440  1.00  0.00    -0.269 C  
BRANCH   9  10
HETATM   10  C   UNL     1     -10.777  11.875  67.705  1.00  0.00    -0.243 C  
BRANCH  10  11
HETATM   11  C   UNL     1      -9.520  12.526  68.275  1.00  0.00    -0.201 C  
BRANCH  11  12
HETATM   12  C   UNL     1      -8.961  13.556  67.305  1.00  0.00    -0.222 C  
BRANCH  12  13
HETATM   13  C   UNL     1      -7.497  13.848  67.606  1.00  0.00    -0.187 C  
BRANCH  13  14
HETATM   14  C   UNL     1      -7.217  15.344  67.513  1.00  0.00    -0.224 C  
BRANCH  14  15
HETATM   15  C   UNL     1      -7.399  16.025  68.866  1.00  0.00    -0.176 C  
BRANCH  15  16
HETATM   16  C   UNL     1      -8.471  17.110  68.785  1.00  0.00    -0.225 C  
BRANCH  16  17
HETATM   17  C   UNL     1      -9.732  16.593  68.099  1.00  0.00    -0.244 C  
HETATM   18  C   UNL     1     -10.779  16.168  69.102  1.00  0.00    -0.292 C  
HETATM   19  O   UNL     1     -10.662  16.220  70.315  1.00  0.00    -0.287 OA 
HETATM   20  O   UNL     1     -11.902  15.708  68.502  1.00  0.00    -0.355 OA 
ENDBRANCH  16  17
ENDBRANCH  15  16
ENDBRANCH  14  15
ENDBRANCH  13  14
ENDBRANCH  12  13
ENDBRANCH  11  12
ENDBRANCH  10  11
ENDBRANCH   9  10
ENDBRANCH   8   9
ENDBRANCH   7   8
ENDBRANCH   6   7
ENDBRANCH   5   6
ENDBRANCH   4   5
ENDBRANCH   3   4
ENDBRANCH   2   3
TORSDOF 15
ENDMDL
MODEL      364
REMARK 921   NORMALIZED FREE ENERGY PREDICTED BY IDOCK:   -2.69 KCAL/MOL
REMARK 922        TOTAL FREE ENERGY PREDICTED BY IDOCK:   -6.84 KCAL/MOL
REMARK 923 INTER-LIGAND FREE ENERGY PREDICTED BY IDOCK:   -5.85 KCAL/MOL
REMARK 924 INTRA-LIGAND FREE ENERGY PREDICTED BY IDOCK:   -0.99 KCAL/MOL
REMARK 927      BINDING AFFINITY PREDICTED BY RF-SCORE:    0.00 PKD
ROOT
HETATM    1  C   UNL     1     -13.441  11.851  71.837  1.00  0.00    -0.289 C  
HETATM    2  C   UNL     1     -13.117  13.284  72.222  1.00  0.00    -0.474 C  
ENDROOT
BRANCH   2   3
HETATM    3  C   UNL     1     -14.364  14.163  72.166  1.00  0.00    -0.606 C  
BRANCH   3   4
HETATM    4  C   UNL     1     -14.014  15.587  71.749  1.00  0.00    -0.569 C  
BRANCH   4   5
HETATM    5  C   UNL     1     -12.510  15.735  71.540  1.00  0.00    -0.515 C  
BRANCH   5   6
HETATM    6  C   UNL     1     -12.161  15.690  70.056  1.00  0.00    -0.379 C  
BRANCH   6   7
HETATM    7  C   UNL     1     -10.656  15.555  69.861  1.00  0.00    -0.322 C  
BRANCH   7   8
HETATM    8  C   UNL     1     -10.179  16.433  68.710  1.00  0.00    -0.258 C  
BRANCH   8   9
HETATM    9  C   UNL     1      -9.423  15.604  67.680  1.00  0.00    -0.211 C  
BRANCH   9  10
HETATM   10  C   UNL     1     -10.356  15.148  66.565  1.00  0.00    -0.286 C  
BRANCH  10  11
HETATM   11  C   UNL     1     -10.278  13.636  66.380  1.00  0.00    -0.292 C  
BRANCH  11  12
HETATM   12  C   UNL     1      -9.661  12.976  67.606  1.00  0.00    -0.212 C  
BRANCH  12  13
HETATM   13  C   UNL     1      -8.574  11.989  67.201  1.00  0.00    -0.182 C  
BRANCH  13  14
HETATM   14  C   UNL     1      -8.886  10.596  67.739  1.00  0.00    -0.133 C  
BRANCH  14  15
HETATM   15  C   UNL     1      -9.956   9.907  66.896  1.00  0.00    -0.268 C  
BRANCH  15  16
HETATM   16  C   UNL     1      -9.417   8.610  66.297  1.00  0.00    -0.307 C  
BRANCH  16  17
HETATM   17  C   UNL     1     -10.388   7.454  66.516  1.00  0.00    -0.108 C  
HETATM   18  C   UNL     1      -9.790   6.383  67.399  1.00  0.00    -0.131 C  
HETATM   19  O   UNL     1      -8.673   6.409  67.890  1.00  0.00    -0.116 OA 
HETATM   20  O   UNL     1     -10.644   5.351  67.599  1.00  0.00    -0.192 OA 
ENDBRANCH  16  17
ENDBRANCH  15  16
ENDBRANCH  14  15
ENDBRANCH  13  14
ENDBRANCH  12  13
ENDBRANCH  11  12
ENDBRANCH  10  11
ENDBRANCH   9  10
ENDBRANCH   8   9
ENDBRANCH   7   8
ENDBRANCH   6   7
ENDBRANCH   5   6
ENDBRANCH   4   5
ENDBRANCH   3   4
ENDBRANCH   2   3
TORSDOF 15
ENDMDL
MODEL      365
REMARK 921   NORMALIZED FREE ENERGY PREDICTED BY IDOCK:   -2.68 KCAL/MOL
REMARK 922        TOTAL FREE ENERGY PREDICTED BY IDOCK:   -6.84 KCAL/MOL
REMARK 923 INTER-LIGAND FREE ENERGY PREDICTED BY IDOCK:   -5.84 KCAL/MOL
REMARK 924 INTRA-LIGAND FREE ENERGY PREDICTED BY IDOCK:   -0.99 KCAL/MOL
REMARK 927      BINDING AFFINITY PREDICTED BY RF-SCORE:    0.00 PKD
ROOT
HETATM    1  C   UNL     1      -6.642  20.394  64.778  1.00  0.00    -0.314 C  
HETATM    2  C   UNL     1      -7.085  19.485  65.911  1.00  0.00    -0.306 C  
ENDROOT
BRANCH   2   3
HETATM    3  C   UNL     1      -8.549  19.725  66.269  1.00  0.00    -0.397 C  
BRANCH   3   4
HETATM    4  C   UNL     1      -9.215  18.439  66.748  1.00  0.00    -0.293 C  
BRANCH   4   5
HETATM    5  C   UNL     1      -8.311  17.693  67.724  1.00  0.00    -0.226 C  
BRANCH   5   6
HETATM    6  C   UNL     1      -9.136  16.947  68.768  1.00  0.00    -0.254 C  
BRANCH   6   7
HETATM    7  C   UNL     1     -10.606  17.336  68.670  1.00  0.00    -0.329 C  
BRANCH   7   8
HETATM    8  C   UNL     1     -11.493  16.247  69.262  1.00  0.00    -0.251 C  
BRANCH   8   9
HETATM    9  C   UNL     1     -11.603  15.065  68.308  1.00  0.00    -0.355 C  
BRANCH   9  10
HETATM   10  C   UNL     1     -12.042  13.810  69.052  1.00  0.00    -0.359 C  
BRANCH  10  11
HETATM   11  C   UNL     1     -11.749  12.562  68.226  1.00  0.00    -0.390 C  
BRANCH  11  12
HETATM   12  C   UNL     1     -11.656  11.334  69.121  1.00  0.00    -0.387 C  
BRANCH  12  13
HETATM   13  C   UNL     1     -11.247  10.106  68.317  1.00  0.00    -0.246 C  
BRANCH  13  14
HETATM   14  C   UNL     1      -9.729   9.962  68.293  1.00  0.00    -0.159 C  
BRANCH  14  15
HETATM   15  C   UNL     1      -9.143  10.061  69.699  1.00  0.00    -0.230 C  
BRANCH  15  16
HETATM   16  C   UNL     1      -8.702   8.687  70.198  1.00  0.00    -0.144 C  
BRANCH  16  17
HETATM   17  C   UNL     1      -9.757   8.062  71.104  1.00  0.00    -0.190 C  
HETATM   18  C   UNL     1      -9.395   8.205  72.564  1.00  0.00    -0.260 C  
HETATM   19  O   UNL     1      -8.391   8.747  72.997  1.00  0.00    -0.412 OA 
HETATM   20  O   UNL     1     -10.326   7.652  73.377  1.00  0.00    -0.341 OA 
ENDBRANCH  16  17
ENDBRANCH  15  16
ENDBRANCH  14  15
ENDBRANCH  13  14
ENDBRANCH  12  13
ENDBRANCH  11  12
ENDBRANCH  10  11
ENDBRANCH   9  10
ENDBRANCH   8   9
ENDBRANCH   7   8
ENDBRANCH   6   7
ENDBRANCH   5   6
ENDBRANCH   4   5
ENDBRANCH   3   4
ENDBRANCH   2   3
TORSDOF 15
ENDMDL
MODEL      366
REMARK 921   NORMALIZED FREE ENERGY PREDICTED BY IDOCK:   -2.68 KCAL/MOL
REMARK 922        TOTAL FREE ENERGY PREDICTED BY IDOCK:   -6.82 KCAL/MOL
REMARK 923 INTER-LIGAND FREE ENERGY PREDICTED BY IDOCK:   -5.76 KCAL/MOL
REMARK 924 INTRA-LIGAND FREE ENERGY PREDICTED BY IDOCK:   -1.06 KCAL/MOL
REMARK 927      BINDING AFFINITY PREDICTED BY RF-SCORE:    0.00 PKD
ROOT
HETATM    1  C   UNL     1     -11.314   4.977  73.300  1.00  0.00    -0.393 C  
HETATM    2  C   UNL     1     -10.155   5.540  72.498  1.00  0.00    -0.211 C  
ENDROOT
BRANCH   2   3
HETATM    3  C   UNL     1     -10.021   4.829  71.153  1.00  0.00    -0.273 C  
BRANCH   3   4
HETATM    4  C   UNL     1     -10.873   5.508  70.086  1.00  0.00    -0.299 C  
BRANCH   4   5
HETATM    5  C   UNL     1     -10.835   7.025  70.248  1.00  0.00    -0.283 C  
BRANCH   5   6
HETATM    6  C   UNL     1     -10.598   7.709  68.906  1.00  0.00    -0.176 C  
BRANCH   6   7
HETATM    7  C   UNL     1      -9.107   7.835  68.622  1.00  0.00    -0.136 C  
BRANCH   7   8
HETATM    8  C   UNL     1      -8.847   7.921  67.122  1.00  0.00    -0.137 C  
BRANCH   8   9
HETATM    9  C   UNL     1      -9.950   8.711  66.430  1.00  0.00    -0.331 C  
BRANCH   9  10
HETATM   10  C   UNL     1      -9.588  10.189  66.357  1.00  0.00    -0.242 C  
BRANCH  10  11
HETATM   11  C   UNL     1     -10.505  10.921  65.381  1.00  0.00    -0.291 C  
BRANCH  11  12
HETATM   12  C   UNL     1     -11.145  12.130  66.049  1.00  0.00    -0.354 C  
BRANCH  12  13
HETATM   13  C   UNL     1     -11.684  13.103  65.008  1.00  0.00    -0.369 C  
BRANCH  13  14
HETATM   14  C   UNL     1     -10.661  14.193  64.711  1.00  0.00    -0.439 C  
BRANCH  14  15
HETATM   15  C   UNL     1     -11.257  15.582  64.923  1.00  0.00    -0.396 C  
BRANCH  15  16
HETATM   16  C   UNL     1     -10.380  16.409  65.860  1.00  0.00    -0.378 C  
BRANCH  16  17
HETATM   17  C   UNL     1      -9.669  15.523  66.879  1.00  0.00    -0.243 C  
HETATM   18  C   UNL     1     -10.342  15.577  68.231  1.00  0.00    -0.235 C  
HETATM   19  O   UNL     1     -11.330  16.237  68.507  1.00  0.00    -0.367 OA 
HETATM   20  O   UNL     1      -9.717  14.793  69.142  1.00  0.00    -0.207 OA 
ENDBRANCH  16  17
ENDBRANCH  15  16
ENDBRANCH  14  15
ENDBRANCH  13  14
ENDBRANCH  12  13
ENDBRANCH  11  12
ENDBRANCH  10  11
ENDBRANCH   9  10
ENDBRANCH   8   9
ENDBRANCH   7   8
ENDBRANCH   6   7
ENDBRANCH   5   6
ENDBRANCH   4   5
ENDBRANCH   3   4
ENDBRANCH   2   3
TORSDOF 15
ENDMDL
MODEL      367
REMARK 921   NORMALIZED FREE ENERGY PREDICTED BY IDOCK:   -2.68 KCAL/MOL
REMARK 922        TOTAL FREE ENERGY PREDICTED BY IDOCK:   -6.82 KCAL/MOL
REMARK 923 INTER-LIGAND FREE ENERGY PREDICTED BY IDOCK:   -5.76 KCAL/MOL
REMARK 924 INTRA-LIGAND FREE ENERGY PREDICTED BY IDOCK:   -1.06 KCAL/MOL
REMARK 927      BINDING AFFINITY PREDICTED BY RF-SCORE:    0.00 PKD
ROOT
HETATM    1  C   UNL     1     -12.070  15.777  72.228  1.00  0.00    -0.574 C  
HETATM    2  C   UNL     1     -11.437  15.279  70.941  1.00  0.00    -0.377 C  
ENDROOT
BRANCH   2   3
HETATM    3  C   UNL     1     -11.125  16.438  69.997  1.00  0.00    -0.300 C  
BRANCH   3   4
HETATM    4  C   UNL     1     -10.740  15.929  68.611  1.00  0.00    -0.274 C  
BRANCH   4   5
HETATM    5  C   UNL     1     -11.670  14.803  68.171  1.00  0.00    -0.353 C  
BRANCH   5   6
HETATM    6  C   UNL     1     -11.126  14.102  66.931  1.00  0.00    -0.312 C  
BRANCH   6   7
HETATM    7  C   UNL     1     -11.595  12.654  66.881  1.00  0.00    -0.438 C  
BRANCH   7   8
HETATM    8  C   UNL     1     -11.990  12.166  68.270  1.00  0.00    -0.248 C  
BRANCH   8   9
HETATM    9  C   UNL     1     -10.800  11.527  68.974  1.00  0.00    -0.258 C  
BRANCH   9  10
HETATM   10  C   UNL     1     -11.115  10.088  69.366  1.00  0.00    -0.265 C  
BRANCH  10  11
HETATM   11  C   UNL     1     -11.641  10.021  70.796  1.00  0.00    -0.444 C  
BRANCH  11  12
HETATM   12  C   UNL     1     -12.024   8.593  71.160  1.00  0.00    -0.320 C  
BRANCH  12  13
HETATM   13  C   UNL     1     -11.811   8.336  72.646  1.00  0.00    -0.382 C  
BRANCH  13  14
HETATM   14  C   UNL     1     -10.586   7.455  72.868  1.00  0.00    -0.370 C  
BRANCH  14  15
HETATM   15  C   UNL     1      -9.312   8.291  72.950  1.00  0.00    -0.324 C  
BRANCH  15  16
HETATM   16  C   UNL     1      -8.107   7.486  72.471  1.00  0.00    -0.123 C  
BRANCH  16  17
HETATM   17  C   UNL     1      -8.446   6.004  72.343  1.00  0.00    -0.116 C  
HETATM   18  C   UNL     1      -8.059   5.457  70.988  1.00  0.00    -0.113 C  
HETATM   19  O   UNL     1      -7.541   6.095  70.087  1.00  0.00    -0.091 OA 
HETATM   20  O   UNL     1      -8.357   4.142  70.865  1.00  0.00    -0.076 OA 
ENDBRANCH  16  17
ENDBRANCH  15  16
ENDBRANCH  14  15
ENDBRANCH  13  14
ENDBRANCH  12  13
ENDBRANCH  11  12
ENDBRANCH  10  11
ENDBRANCH   9  10
ENDBRANCH   8   9
ENDBRANCH   7   8
ENDBRANCH   6   7
ENDBRANCH   5   6
ENDBRANCH   4   5
ENDBRANCH   3   4
ENDBRANCH   2   3
TORSDOF 15
ENDMDL
MODEL      368
REMARK 921   NORMALIZED FREE ENERGY PREDICTED BY IDOCK:   -2.67 KCAL/MOL
REMARK 922        TOTAL FREE ENERGY PREDICTED BY IDOCK:   -6.80 KCAL/MOL
REMARK 923 INTER-LIGAND FREE ENERGY PREDICTED BY IDOCK:   -4.14 KCAL/MOL
REMARK 924 INTRA-LIGAND FREE ENERGY PREDICTED BY IDOCK:   -2.67 KCAL/MOL
REMARK 927      BINDING AFFINITY PREDICTED BY RF-SCORE:    0.00 PKD
ROOT
HETATM    1  C   UNL     1     -11.782   9.716  71.340  1.00  0.00    -0.478 C  
HETATM    2  C   UNL     1     -12.745   8.768  72.032  1.00  0.00    -0.444 C  
ENDROOT
BRANCH   2   3
HETATM    3  C   UNL     1     -12.572   7.339  71.523  1.00  0.00    -0.415 C  
BRANCH   3   4
HETATM    4  C   UNL     1     -11.681   7.300  70.287  1.00  0.00    -0.164 C  
BRANCH   4   5
HETATM    5  C   UNL     1     -10.968   5.956  70.176  1.00  0.00    -0.412 C  
BRANCH   5   6
HETATM    6  C   UNL     1     -10.353   5.555  71.513  1.00  0.00    -0.282 C  
BRANCH   6   7
HETATM    7  C   UNL     1      -9.015   6.253  71.722  1.00  0.00    -0.140 C  
BRANCH   7   8
HETATM    8  C   UNL     1      -8.104   6.046  70.517  1.00  0.00    -0.112 C  
BRANCH   8   9
HETATM    9  C   UNL     1      -7.046   7.139  70.451  1.00  0.00    -0.066 C  
BRANCH   9  10
HETATM   10  C   UNL     1      -7.585   8.447  71.018  1.00  0.00    -0.084 C  
BRANCH  10  11
HETATM   11  C   UNL     1      -6.743   9.628  70.546  1.00  0.00    -0.119 C  
BRANCH  11  12
HETATM   12  C   UNL     1      -7.430  10.352  69.397  1.00  0.00    -0.135 C  
BRANCH  12  13
HETATM   13  C   UNL     1      -8.893   9.939  69.293  1.00  0.00    -0.178 C  
BRANCH  13  14
HETATM   14  C   UNL     1      -9.226   9.493  67.874  1.00  0.00    -0.134 C  
BRANCH  14  15
HETATM   15  C   UNL     1      -7.964   9.107  67.107  1.00  0.00    -0.106 C  
BRANCH  15  16
HETATM   16  C   UNL     1      -7.961   7.613  66.792  1.00  0.00    -0.111 C  
BRANCH  16  17
HETATM   17  C   UNL     1      -9.382   7.071  66.661  1.00  0.00    -0.203 C  
HETATM   18  C   UNL     1      -9.394   5.567  66.510  1.00  0.00    -0.147 C  
HETATM   19  O   UNL     1      -8.409   4.848  66.491  1.00  0.00    -0.108 OA 
HETATM   20  O   UNL     1     -10.651   5.077  66.393  1.00  0.00    -0.300 OA 
ENDBRANCH  16  17
ENDBRANCH  15  16
ENDBRANCH  14  15
ENDBRANCH  13  14
ENDBRANCH  12  13
ENDBRANCH  11  12
ENDBRANCH  10  11
ENDBRANCH   9  10
ENDBRANCH   8   9
ENDBRANCH   7   8
ENDBRANCH   6   7
ENDBRANCH   5   6
ENDBRANCH   4   5
ENDBRANCH   3   4
ENDBRANCH   2   3
TORSDOF 15
ENDMDL
MODEL      369
REMARK 921   NORMALIZED FREE ENERGY PREDICTED BY IDOCK:   -2.65 KCAL/MOL
REMARK 922        TOTAL FREE ENERGY PREDICTED BY IDOCK:   -6.77 KCAL/MOL
REMARK 923 INTER-LIGAND FREE ENERGY PREDICTED BY IDOCK:   -4.51 KCAL/MOL
REMARK 924 INTRA-LIGAND FREE ENERGY PREDICTED BY IDOCK:   -2.27 KCAL/MOL
REMARK 927      BINDING AFFINITY PREDICTED BY RF-SCORE:    0.00 PKD
ROOT
HETATM    1  C   UNL     1      -6.560   7.027  67.445  1.00  0.00    -0.055 C  
HETATM    2  C   UNL     1      -6.728   7.903  66.217  1.00  0.00    -0.054 C  
ENDROOT
BRANCH   2   3
HETATM    3  C   UNL     1      -7.383   9.235  66.577  1.00  0.00    -0.092 C  
BRANCH   3   4
HETATM    4  C   UNL     1      -6.509  10.410  66.152  1.00  0.00    -0.111 C  
BRANCH   4   5
HETATM    5  C   UNL     1      -6.048  11.208  67.368  1.00  0.00    -0.061 C  
BRANCH   5   6
HETATM    6  C   UNL     1      -7.185  11.378  68.370  1.00  0.00    -0.087 C  
BRANCH   6   7
HETATM    7  C   UNL     1      -6.736  10.975  69.768  1.00  0.00    -0.136 C  
BRANCH   7   8
HETATM    8  C   UNL     1      -7.419   9.684  70.204  1.00  0.00    -0.157 C  
BRANCH   8   9
HETATM    9  C   UNL     1      -8.929   9.793  70.037  1.00  0.00    -0.255 C  
BRANCH   9  10
HETATM   10  C   UNL     1      -9.464   8.636  69.202  1.00  0.00    -0.157 C  
BRANCH  10  11
HETATM   11  C   UNL     1     -10.772   9.022  68.519  1.00  0.00    -0.140 C  
BRANCH  11  12
HETATM   12  C   UNL     1     -10.791  10.510  68.198  1.00  0.00    -0.300 C  
BRANCH  12  13
HETATM   13  C   UNL     1     -10.616  10.745  66.703  1.00  0.00    -0.291 C  
BRANCH  13  14
HETATM   14  C   UNL     1     -11.387  11.983  66.260  1.00  0.00    -0.415 C  
BRANCH  14  15
HETATM   15  C   UNL     1     -11.890  12.779  67.461  1.00  0.00    -0.402 C  
BRANCH  15  16
HETATM   16  C   UNL     1     -12.177  14.226  67.068  1.00  0.00    -0.338 C  
BRANCH  16  17
HETATM   17  C   UNL     1     -11.160  14.737  66.053  1.00  0.00    -0.330 C  
HETATM   18  C   UNL     1     -10.482  16.001  66.528  1.00  0.00    -0.302 C  
HETATM   19  O   UNL     1     -10.700  16.568  67.586  1.00  0.00    -0.329 OA 
HETATM   20  O   UNL     1      -9.577  16.462  65.633  1.00  0.00    -0.495 OA 
ENDBRANCH  16  17
ENDBRANCH  15  16
ENDBRANCH  14  15
ENDBRANCH  13  14
ENDBRANCH  12  13
ENDBRANCH  11  12
ENDBRANCH  10  11
ENDBRANCH   9  10
ENDBRANCH   8   9
ENDBRANCH   7   8
ENDBRANCH   6   7
ENDBRANCH   5   6
ENDBRANCH   4   5
ENDBRANCH   3   4
ENDBRANCH   2   3
TORSDOF 15
ENDMDL
MODEL      370
REMARK 921   NORMALIZED FREE ENERGY PREDICTED BY IDOCK:   -2.65 KCAL/MOL
REMARK 922        TOTAL FREE ENERGY PREDICTED BY IDOCK:   -6.77 KCAL/MOL
REMARK 923 INTER-LIGAND FREE ENERGY PREDICTED BY IDOCK:   -4.59 KCAL/MOL
REMARK 924 INTRA-LIGAND FREE ENERGY PREDICTED BY IDOCK:   -2.19 KCAL/MOL
REMARK 927      BINDING AFFINITY PREDICTED BY RF-SCORE:    0.00 PKD
ROOT
HETATM    1  C   UNL     1      -7.572  10.394  67.741  1.00  0.00    -0.089 C  
HETATM    2  C   UNL     1      -7.528  11.109  66.403  1.00  0.00    -0.103 C  
ENDROOT
BRANCH   2   3
HETATM    3  C   UNL     1      -8.559  10.532  65.436  1.00  0.00    -0.188 C  
BRANCH   3   4
HETATM    4  C   UNL     1      -7.921   9.514  64.496  1.00  0.00    -0.133 C  
BRANCH   4   5
HETATM    5  C   UNL     1      -8.517   8.127  64.717  1.00  0.00    -0.064 C  
BRANCH   5   6
HETATM    6  C   UNL     1      -7.661   7.315  65.683  1.00  0.00    -0.105 C  
BRANCH   6   7
HETATM    7  C   UNL     1      -8.538   6.508  66.632  1.00  0.00    -0.118 C  
BRANCH   7   8
HETATM    8  C   UNL     1      -9.894   7.179  66.818  1.00  0.00    -0.272 C  
BRANCH   8   9
HETATM    9  C   UNL     1     -10.746   6.403  67.813  1.00  0.00    -0.377 C  
BRANCH   9  10
HETATM   10  C   UNL     1     -10.122   5.045  68.113  1.00  0.00    -0.167 C  
BRANCH  10  11
HETATM   11  C   UNL     1     -10.006   4.824  69.617  1.00  0.00    -0.297 C  
BRANCH  11  12
HETATM   12  C   UNL     1      -8.642   5.272  70.122  1.00  0.00    -0.122 C  
BRANCH  12  13
HETATM   13  C   UNL     1      -8.785   6.320  71.219  1.00  0.00    -0.135 C  
BRANCH  13  14
HETATM   14  C   UNL     1      -9.151   7.675  70.622  1.00  0.00    -0.158 C  
BRANCH  14  15
HETATM   15  C   UNL     1      -9.482   8.687  71.715  1.00  0.00    -0.354 C  
BRANCH  15  16
HETATM   16  C   UNL     1     -10.777   9.428  71.390  1.00  0.00    -0.407 C  
BRANCH  16  17
HETATM   17  C   UNL     1     -11.005   9.512  69.884  1.00  0.00    -0.263 C  
HETATM   18  C   UNL     1     -11.717  10.787  69.497  1.00  0.00    -0.312 C  
HETATM   19  O   UNL     1     -12.080  11.660  70.269  1.00  0.00    -0.340 OA 
HETATM   20  O   UNL     1     -11.924  10.871  68.162  1.00  0.00    -0.581 OA 
ENDBRANCH  16  17
ENDBRANCH  15  16
ENDBRANCH  14  15
ENDBRANCH  13  14
ENDBRANCH  12  13
ENDBRANCH  11  12
ENDBRANCH  10  11
ENDBRANCH   9  10
ENDBRANCH   8   9
ENDBRANCH   7   8
ENDBRANCH   6   7
ENDBRANCH   5   6
ENDBRANCH   4   5
ENDBRANCH   3   4
ENDBRANCH   2   3
TORSDOF 15
ENDMDL
MODEL      371
REMARK 921   NORMALIZED FREE ENERGY PREDICTED BY IDOCK:   -2.65 KCAL/MOL
REMARK 922        TOTAL FREE ENERGY PREDICTED BY IDOCK:   -6.77 KCAL/MOL
REMARK 923 INTER-LIGAND FREE ENERGY PREDICTED BY IDOCK:   -5.51 KCAL/MOL
REMARK 924 INTRA-LIGAND FREE ENERGY PREDICTED BY IDOCK:   -1.26 KCAL/MOL
REMARK 927      BINDING AFFINITY PREDICTED BY RF-SCORE:    0.00 PKD
ROOT
HETATM    1  C   UNL     1     -13.278  15.628  73.029  1.00  0.00    -0.664 C  
HETATM    2  C   UNL     1     -13.334  14.696  71.831  1.00  0.00    -0.453 C  
ENDROOT
BRANCH   2   3
HETATM    3  C   UNL     1     -12.161  14.945  70.886  1.00  0.00    -0.389 C  
BRANCH   3   4
HETATM    4  C   UNL     1     -12.007  13.800  69.890  1.00  0.00    -0.412 C  
BRANCH   4   5
HETATM    5  C   UNL     1     -11.060  14.191  68.759  1.00  0.00    -0.283 C  
BRANCH   5   6
HETATM    6  C   UNL     1     -11.648  13.816  67.403  1.00  0.00    -0.393 C  
BRANCH   6   7
HETATM    7  C   UNL     1     -11.313  12.372  67.051  1.00  0.00    -0.388 C  
BRANCH   7   8
HETATM    8  C   UNL     1      -9.820  12.213  66.786  1.00  0.00    -0.218 C  
BRANCH   8   9
HETATM    9  C   UNL     1      -9.295  10.934  67.423  1.00  0.00    -0.166 C  
BRANCH   9  10
HETATM   10  C   UNL     1      -8.748   9.988  66.361  1.00  0.00    -0.140 C  
BRANCH  10  11
HETATM   11  C   UNL     1      -9.095   8.541  66.697  1.00  0.00    -0.203 C  
BRANCH  11  12
HETATM   12  C   UNL     1     -10.561   8.416  67.084  1.00  0.00    -0.326 C  
BRANCH  12  13
HETATM   13  C   UNL     1     -10.984   6.954  67.147  1.00  0.00    -0.427 C  
BRANCH  13  14
HETATM   14  C   UNL     1      -9.850   6.047  66.681  1.00  0.00    -0.202 C  
BRANCH  14  15
HETATM   15  C   UNL     1      -9.560   4.955  67.707  1.00  0.00    -0.184 C  
BRANCH  15  16
HETATM   16  C   UNL     1      -9.720   5.493  69.127  1.00  0.00    -0.208 C  
BRANCH  16  17
HETATM   17  C   UNL     1      -8.366   5.658  69.812  1.00  0.00    -0.107 C  
HETATM   18  C   UNL     1      -8.269   6.975  70.547  1.00  0.00    -0.123 C  
HETATM   19  O   UNL     1      -9.145   7.823  70.604  1.00  0.00    -0.151 OA 
HETATM   20  O   UNL     1      -7.071   7.131  71.158  1.00  0.00    -0.070 OA 
ENDBRANCH  16  17
ENDBRANCH  15  16
ENDBRANCH  14  15
ENDBRANCH  13  14
ENDBRANCH  12  13
ENDBRANCH  11  12
ENDBRANCH  10  11
ENDBRANCH   9  10
ENDBRANCH   8   9
ENDBRANCH   7   8
ENDBRANCH   6   7
ENDBRANCH   5   6
ENDBRANCH   4   5
ENDBRANCH   3   4
ENDBRANCH   2   3
TORSDOF 15
ENDMDL
MODEL      372
REMARK 921   NORMALIZED FREE ENERGY PREDICTED BY IDOCK:   -2.65 KCAL/MOL
REMARK 922        TOTAL FREE ENERGY PREDICTED BY IDOCK:   -6.76 KCAL/MOL
REMARK 923 INTER-LIGAND FREE ENERGY PREDICTED BY IDOCK:   -5.29 KCAL/MOL
REMARK 924 INTRA-LIGAND FREE ENERGY PREDICTED BY IDOCK:   -1.47 KCAL/MOL
REMARK 927      BINDING AFFINITY PREDICTED BY RF-SCORE:    0.00 PKD
ROOT
HETATM    1  C   UNL     1      -9.283   2.954  67.509  1.00  0.00    -0.233 C  
HETATM    2  C   UNL     1      -8.764   3.520  68.818  1.00  0.00    -0.140 C  
ENDROOT
BRANCH   2   3
HETATM    3  C   UNL     1      -8.336   2.405  69.769  1.00  0.00    -0.076 C  
BRANCH   3   4
HETATM    4  C   UNL     1      -8.813   2.683  71.191  1.00  0.00    -0.134 C  
BRANCH   4   5
HETATM    5  C   UNL     1      -9.703   3.921  71.231  1.00  0.00    -0.247 C  
BRANCH   5   6
HETATM    6  C   UNL     1     -10.162   4.215  72.655  1.00  0.00    -0.231 C  
BRANCH   6   7
HETATM    7  C   UNL     1      -9.579   5.533  73.148  1.00  0.00    -0.158 C  
BRANCH   7   8
HETATM    8  C   UNL     1      -9.574   6.572  72.034  1.00  0.00    -0.154 C  
BRANCH   8   9
HETATM    9  C   UNL     1     -10.950   7.208  71.886  1.00  0.00    -0.262 C  
BRANCH   9  10
HETATM   10  C   UNL     1     -11.141   7.758  70.477  1.00  0.00    -0.265 C  
BRANCH  10  11
HETATM   11  C   UNL     1     -10.978   6.652  69.439  1.00  0.00    -0.361 C  
BRANCH  11  12
HETATM   12  C   UNL     1     -10.173   7.150  68.247  1.00  0.00    -0.210 C  
BRANCH  12  13
HETATM   13  C   UNL     1     -10.776   8.429  67.681  1.00  0.00    -0.191 C  
BRANCH  13  14
HETATM   14  C   UNL     1      -9.688   9.467  67.424  1.00  0.00    -0.205 C  
BRANCH  14  15
HETATM   15  C   UNL     1      -9.635   9.856  65.949  1.00  0.00    -0.300 C  
BRANCH  15  16
HETATM   16  C   UNL     1      -9.711  11.373  65.788  1.00  0.00    -0.263 C  
BRANCH  16  17
HETATM   17  C   UNL     1     -10.834  11.773  64.836  1.00  0.00    -0.353 C  
HETATM   18  C   UNL     1     -12.102  12.120  65.582  1.00  0.00    -0.104 C  
HETATM   19  O   UNL     1     -12.242  12.092  66.794  1.00  0.00    -0.553 OA 
HETATM   20  O   UNL     1     -13.104  12.477  64.745  1.00  0.00    -0.853 OA 
ENDBRANCH  16  17
ENDBRANCH  15  16
ENDBRANCH  14  15
ENDBRANCH  13  14
ENDBRANCH  12  13
ENDBRANCH  11  12
ENDBRANCH  10  11
ENDBRANCH   9  10
ENDBRANCH   8   9
ENDBRANCH   7   8
ENDBRANCH   6   7
ENDBRANCH   5   6
ENDBRANCH   4   5
ENDBRANCH   3   4
ENDBRANCH   2   3
TORSDOF 15
ENDMDL
MODEL      373
REMARK 921   NORMALIZED FREE ENERGY PREDICTED BY IDOCK:   -2.64 KCAL/MOL
REMARK 922        TOTAL FREE ENERGY PREDICTED BY IDOCK:   -6.76 KCAL/MOL
REMARK 923 INTER-LIGAND FREE ENERGY PREDICTED BY IDOCK:   -4.79 KCAL/MOL
REMARK 924 INTRA-LIGAND FREE ENERGY PREDICTED BY IDOCK:   -1.97 KCAL/MOL
REMARK 927      BINDING AFFINITY PREDICTED BY RF-SCORE:    0.00 PKD
ROOT
HETATM    1  C   UNL     1      -9.139   5.627  72.099  1.00  0.00    -0.147 C  
HETATM    2  C   UNL     1     -10.641   5.413  72.125  1.00  0.00    -0.284 C  
ENDROOT
BRANCH   2   3
HETATM    3  C   UNL     1     -11.338   6.275  71.075  1.00  0.00    -0.378 C  
BRANCH   3   4
HETATM    4  C   UNL     1     -12.707   6.737  71.563  1.00  0.00    -0.341 C  
BRANCH   4   5
HETATM    5  C   UNL     1     -12.940   8.203  71.213  1.00  0.00    -0.183 C  
BRANCH   5   6
HETATM    6  C   UNL     1     -11.890   9.093  71.871  1.00  0.00    -0.439 C  
BRANCH   6   7
HETATM    7  C   UNL     1     -11.282  10.051  70.855  1.00  0.00    -0.415 C  
BRANCH   7   8
HETATM    8  C   UNL     1      -9.910   9.565  70.406  1.00  0.00    -0.329 C  
BRANCH   8   9
HETATM    9  C   UNL     1      -9.917   9.231  68.920  1.00  0.00    -0.190 C  
BRANCH   9  10
HETATM   10  C   UNL     1     -11.101   9.893  68.225  1.00  0.00    -0.207 C  
BRANCH  10  11
HETATM   11  C   UNL     1     -10.657  10.575  66.934  1.00  0.00    -0.303 C  
BRANCH  11  12
HETATM   12  C   UNL     1     -11.347  11.922  66.774  1.00  0.00    -0.393 C  
BRANCH  12  13
HETATM   13  C   UNL     1     -11.212  12.756  68.041  1.00  0.00    -0.310 C  
BRANCH  13  14
HETATM   14  C   UNL     1     -10.134  13.821  67.871  1.00  0.00    -0.246 C  
BRANCH  14  15
HETATM   15  C   UNL     1      -9.243  13.517  66.671  1.00  0.00    -0.221 C  
BRANCH  15  16
HETATM   16  C   UNL     1      -7.819  13.202  67.123  1.00  0.00    -0.061 C  
BRANCH  16  17
HETATM   17  C   UNL     1      -7.784  12.769  68.585  1.00  0.00    -0.064 C  
HETATM   18  C   UNL     1      -6.786  11.658  68.816  1.00  0.00    -0.077 C  
HETATM   19  O   UNL     1      -6.081  11.149  67.960  1.00  0.00    -0.049 OA 
HETATM   20  O   UNL     1      -6.749  11.267  70.112  1.00  0.00    -0.155 OA 
ENDBRANCH  16  17
ENDBRANCH  15  16
ENDBRANCH  14  15
ENDBRANCH  13  14
ENDBRANCH  12  13
ENDBRANCH  11  12
ENDBRANCH  10  11
ENDBRANCH   9  10
ENDBRANCH   8   9
ENDBRANCH   7   8
ENDBRANCH   6   7
ENDBRANCH   5   6
ENDBRANCH   4   5
ENDBRANCH   3   4
ENDBRANCH   2   3
TORSDOF 15
ENDMDL
MODEL      374
REMARK 921   NORMALIZED FREE ENERGY PREDICTED BY IDOCK:   -2.63 KCAL/MOL
REMARK 922        TOTAL FREE ENERGY PREDICTED BY IDOCK:   -6.74 KCAL/MOL
REMARK 923 INTER-LIGAND FREE ENERGY PREDICTED BY IDOCK:   -5.49 KCAL/MOL
REMARK 924 INTRA-LIGAND FREE ENERGY PREDICTED BY IDOCK:   -1.25 KCAL/MOL
REMARK 927      BINDING AFFINITY PREDICTED BY RF-SCORE:    0.00 PKD
ROOT
HETATM    1  C   UNL     1      -7.740   4.813  67.357  1.00  0.00    -0.090 C  
HETATM    2  C   UNL     1      -8.718   3.770  67.868  1.00  0.00    -0.124 C  
ENDROOT
BRANCH   2   3
HETATM    3  C   UNL     1      -9.105   4.043  69.320  1.00  0.00    -0.194 C  
BRANCH   3   4
HETATM    4  C   UNL     1      -9.381   5.526  69.545  1.00  0.00    -0.167 C  
BRANCH   4   5
HETATM    5  C   UNL     1      -8.647   6.031  70.783  1.00  0.00    -0.135 C  
BRANCH   5   6
HETATM    6  C   UNL     1      -9.458   5.757  72.045  1.00  0.00    -0.166 C  
BRANCH   6   7
HETATM    7  C   UNL     1     -10.831   6.409  71.955  1.00  0.00    -0.277 C  
BRANCH   7   8
HETATM    8  C   UNL     1     -10.939   7.578  72.927  1.00  0.00    -0.434 C  
BRANCH   8   9
HETATM    9  C   UNL     1     -11.764   8.706  72.321  1.00  0.00    -0.428 C  
BRANCH   9  10
HETATM   10  C   UNL     1     -11.461   8.857  70.835  1.00  0.00    -0.339 C  
BRANCH  10  11
HETATM   11  C   UNL     1     -11.017  10.281  70.517  1.00  0.00    -0.343 C  
BRANCH  11  12
HETATM   12  C   UNL     1     -12.224  11.187  70.314  1.00  0.00    -0.436 C  
BRANCH  12  13
HETATM   13  C   UNL     1     -11.841  12.433  69.525  1.00  0.00    -0.368 C  
BRANCH  13  14
HETATM   14  C   UNL     1     -10.712  12.123  68.548  1.00  0.00    -0.257 C  
BRANCH  14  15
HETATM   15  C   UNL     1     -11.260  11.737  67.177  1.00  0.00    -0.375 C  
BRANCH  15  16
HETATM   16  C   UNL     1     -10.237  10.911  66.400  1.00  0.00    -0.289 C  
BRANCH  16  17
HETATM   17  C   UNL     1     -10.243  11.274  64.918  1.00  0.00    -0.341 C  
HETATM   18  C   UNL     1      -9.364  10.345  64.113  1.00  0.00    -0.277 C  
HETATM   19  O   UNL     1      -8.717   9.414  64.561  1.00  0.00    -0.187 OA 
HETATM   20  O   UNL     1      -9.362  10.660  62.796  1.00  0.00    -0.266 OA 
ENDBRANCH  16  17
ENDBRANCH  15  16
ENDBRANCH  14  15
ENDBRANCH  13  14
ENDBRANCH  12  13
ENDBRANCH  11  12
ENDBRANCH  10  11
ENDBRANCH   9  10
ENDBRANCH   8   9
ENDBRANCH   7   8
ENDBRANCH   6   7
ENDBRANCH   5   6
ENDBRANCH   4   5
ENDBRANCH   3   4
ENDBRANCH   2   3
TORSDOF 15
ENDMDL
MODEL      375
REMARK 921   NORMALIZED FREE ENERGY PREDICTED BY IDOCK:   -2.62 KCAL/MOL
REMARK 922        TOTAL FREE ENERGY PREDICTED BY IDOCK:   -6.72 KCAL/MOL
REMARK 923 INTER-LIGAND FREE ENERGY PREDICTED BY IDOCK:   -5.45 KCAL/MOL
REMARK 924 INTRA-LIGAND FREE ENERGY PREDICTED BY IDOCK:   -1.26 KCAL/MOL
REMARK 927      BINDING AFFINITY PREDICTED BY RF-SCORE:    0.00 PKD
ROOT
HETATM    1  C   UNL     1      -8.577  16.362  68.198  1.00  0.00    -0.193 C  
HETATM    2  C   UNL     1      -9.000  15.382  67.119  1.00  0.00    -0.236 C  
ENDROOT
BRANCH   2   3
HETATM    3  C   UNL     1      -9.740  16.094  65.988  1.00  0.00    -0.376 C  
BRANCH   3   4
HETATM    4  C   UNL     1     -10.956  15.293  65.537  1.00  0.00    -0.365 C  
BRANCH   4   5
HETATM    5  C   UNL     1     -11.125  14.039  66.390  1.00  0.00    -0.316 C  
BRANCH   5   6
HETATM    6  C   UNL     1     -11.302  12.804  65.512  1.00  0.00    -0.347 C  
BRANCH   6   7
HETATM    7  C   UNL     1     -10.026  11.973  65.488  1.00  0.00    -0.267 C  
BRANCH   7   8
HETATM    8  C   UNL     1     -10.209  10.727  64.630  1.00  0.00    -0.419 C  
BRANCH   8   9
HETATM    9  C   UNL     1      -9.672   9.496  65.348  1.00  0.00    -0.314 C  
BRANCH   9  10
HETATM   10  C   UNL     1     -10.226   9.414  66.766  1.00  0.00    -0.320 C  
BRANCH  10  11
HETATM   11  C   UNL     1     -10.631   7.983  67.105  1.00  0.00    -0.367 C  
BRANCH  11  12
HETATM   12  C   UNL     1      -9.407   7.080  67.167  1.00  0.00    -0.166 C  
BRANCH  12  13
HETATM   13  C   UNL     1      -9.813   5.612  67.111  1.00  0.00    -0.167 C  
BRANCH  13  14
HETATM   14  C   UNL     1      -9.483   4.913  68.425  1.00  0.00    -0.187 C  
BRANCH  14  15
HETATM   15  C   UNL     1      -8.851   5.882  69.421  1.00  0.00    -0.122 C  
BRANCH  15  16
HETATM   16  C   UNL     1      -9.545   5.790  70.778  1.00  0.00    -0.210 C  
BRANCH  16  17
HETATM   17  C   UNL     1      -9.811   7.176  71.359  1.00  0.00    -0.178 C  
HETATM   18  C   UNL     1     -11.237   7.615  71.125  1.00  0.00    -0.261 C  
HETATM   19  O   UNL     1     -12.094   6.967  70.547  1.00  0.00    -0.353 OA 
HETATM   20  O   UNL     1     -11.483   8.844  71.638  1.00  0.00    -0.290 OA 
ENDBRANCH  16  17
ENDBRANCH  15  16
ENDBRANCH  14  15
ENDBRANCH  13  14
ENDBRANCH  12  13
ENDBRANCH  11  12
ENDBRANCH  10  11
ENDBRANCH   9  10
ENDBRANCH   8   9
ENDBRANCH   7   8
ENDBRANCH   6   7
ENDBRANCH   5   6
ENDBRANCH   4   5
ENDBRANCH   3   4
ENDBRANCH   2   3
TORSDOF 15
ENDMDL
MODEL      376
REMARK 921   NORMALIZED FREE ENERGY PREDICTED BY IDOCK:   -2.62 KCAL/MOL
REMARK 922        TOTAL FREE ENERGY PREDICTED BY IDOCK:   -6.71 KCAL/MOL
REMARK 923 INTER-LIGAND FREE ENERGY PREDICTED BY IDOCK:   -4.65 KCAL/MOL
REMARK 924 INTRA-LIGAND FREE ENERGY PREDICTED BY IDOCK:   -2.06 KCAL/MOL
REMARK 927      BINDING AFFINITY PREDICTED BY RF-SCORE:    0.00 PKD
ROOT
HETATM    1  C   UNL     1      -9.748   7.542  73.093  1.00  0.00    -0.301 C  
HETATM    2  C   UNL     1     -10.190   6.238  72.454  1.00  0.00    -0.208 C  
ENDROOT
BRANCH   2   3
HETATM    3  C   UNL     1     -11.710   6.177  72.322  1.00  0.00    -0.352 C  
BRANCH   3   4
HETATM    4  C   UNL     1     -12.194   7.031  71.154  1.00  0.00    -0.427 C  
BRANCH   4   5
HETATM    5  C   UNL     1     -13.258   8.023  71.613  1.00  0.00    -0.358 C  
BRANCH   5   6
HETATM    6  C   UNL     1     -12.626   9.356  72.001  1.00  0.00    -0.462 C  
BRANCH   6   7
HETATM    7  C   UNL     1     -12.962  10.430  70.974  1.00  0.00    -0.490 C  
BRANCH   7   8
HETATM    8  C   UNL     1     -11.709  10.882  70.235  1.00  0.00    -0.437 C  
BRANCH   8   9
HETATM    9  C   UNL     1     -11.533  10.095  68.944  1.00  0.00    -0.125 C  
BRANCH   9  10
HETATM   10  C   UNL     1     -10.173   9.407  68.912  1.00  0.00    -0.215 C  
BRANCH  10  11
HETATM   11  C   UNL     1      -9.138  10.222  69.683  1.00  0.00    -0.149 C  
BRANCH  11  12
HETATM   12  C   UNL     1      -7.821   9.465  69.776  1.00  0.00    -0.115 C  
BRANCH  12  13
HETATM   13  C   UNL     1      -8.060   7.961  69.818  1.00  0.00    -0.116 C  
BRANCH  13  14
HETATM   14  C   UNL     1      -7.043   7.231  68.948  1.00  0.00    -0.084 C  
BRANCH  14  15
HETATM   15  C   UNL     1      -7.602   6.962  67.554  1.00  0.00    -0.109 C  
BRANCH  15  16
HETATM   16  C   UNL     1      -7.609   5.464  67.255  1.00  0.00    -0.092 C  
BRANCH  16  17
HETATM   17  C   UNL     1      -8.006   4.655  68.486  1.00  0.00    -0.080 C  
HETATM   18  C   UNL     1      -9.499   4.682  68.714  1.00  0.00    -0.151 C  
HETATM   19  O   UNL     1     -10.313   5.269  68.019  1.00  0.00    -0.171 OA 
HETATM   20  O   UNL     1      -9.861   3.967  69.805  1.00  0.00    -0.211 OA 
ENDBRANCH  16  17
ENDBRANCH  15  16
ENDBRANCH  14  15
ENDBRANCH  13  14
ENDBRANCH  12  13
ENDBRANCH  11  12
ENDBRANCH  10  11
ENDBRANCH   9  10
ENDBRANCH   8   9
ENDBRANCH   7   8
ENDBRANCH   6   7
ENDBRANCH   5   6
ENDBRANCH   4   5
ENDBRANCH   3   4
ENDBRANCH   2   3
TORSDOF 15
ENDMDL
MODEL      377
REMARK 921   NORMALIZED FREE ENERGY PREDICTED BY IDOCK:   -2.62 KCAL/MOL
REMARK 922        TOTAL FREE ENERGY PREDICTED BY IDOCK:   -6.71 KCAL/MOL
REMARK 923 INTER-LIGAND FREE ENERGY PREDICTED BY IDOCK:   -5.25 KCAL/MOL
REMARK 924 INTRA-LIGAND FREE ENERGY PREDICTED BY IDOCK:   -1.46 KCAL/MOL
REMARK 927      BINDING AFFINITY PREDICTED BY RF-SCORE:    0.00 PKD
ROOT
HETATM    1  C   UNL     1      -9.834   5.473  68.979  1.00  0.00    -0.220 C  
HETATM    2  C   UNL     1      -9.133   5.219  70.302  1.00  0.00    -0.169 C  
ENDROOT
BRANCH   2   3
HETATM    3  C   UNL     1      -9.971   4.318  71.205  1.00  0.00    -0.230 C  
BRANCH   3   4
HETATM    4  C   UNL     1      -9.625   4.539  72.674  1.00  0.00    -0.175 C  
BRANCH   4   5
HETATM    5  C   UNL     1     -10.813   5.130  73.427  1.00  0.00    -0.359 C  
BRANCH   5   6
HETATM    6  C   UNL     1     -10.449   6.476  74.045  1.00  0.00    -0.306 C  
BRANCH   6   7
HETATM    7  C   UNL     1     -10.695   7.607  73.055  1.00  0.00    -0.449 C  
BRANCH   7   8
HETATM    8  C   UNL     1     -11.810   7.242  72.082  1.00  0.00    -0.324 C  
BRANCH   8   9
HETATM    9  C   UNL     1     -11.537   7.834  70.706  1.00  0.00    -0.270 C  
BRANCH   9  10
HETATM   10  C   UNL     1     -10.379   8.823  70.764  1.00  0.00    -0.264 C  
BRANCH  10  11
HETATM   11  C   UNL     1     -10.862  10.237  70.457  1.00  0.00    -0.281 C  
BRANCH  11  12
HETATM   12  C   UNL     1     -12.359  10.359  70.704  1.00  0.00    -0.438 C  
BRANCH  12  13
HETATM   13  C   UNL     1     -12.893  11.678  70.159  1.00  0.00     0.163 C  
BRANCH  13  14
HETATM   14  C   UNL     1     -11.747  12.576  69.707  1.00  0.00    -0.355 C  
BRANCH  14  15
HETATM   15  C   UNL     1     -11.701  13.865  70.523  1.00  0.00    -0.231 C  
BRANCH  15  16
HETATM   16  C   UNL     1     -11.846  15.084  69.615  1.00  0.00    -0.358 C  
BRANCH  16  17
HETATM   17  C   UNL     1     -10.710  16.078  69.835  1.00  0.00    -0.334 C  
HETATM   18  C   UNL     1      -9.609  15.903  68.816  1.00  0.00    -0.219 C  
HETATM   19  O   UNL     1      -9.599  15.079  67.916  1.00  0.00    -0.201 OA 
HETATM   20  O   UNL     1      -8.596  16.781  69.004  1.00  0.00    -0.232 OA 
ENDBRANCH  16  17
ENDBRANCH  15  16
ENDBRANCH  14  15
ENDBRANCH  13  14
ENDBRANCH  12  13
ENDBRANCH  11  12
ENDBRANCH  10  11
ENDBRANCH   9  10
ENDBRANCH   8   9
ENDBRANCH   7   8
ENDBRANCH   6   7
ENDBRANCH   5   6
ENDBRANCH   4   5
ENDBRANCH   3   4
ENDBRANCH   2   3
TORSDOF 15
ENDMDL
MODEL      378
REMARK 921   NORMALIZED FREE ENERGY PREDICTED BY IDOCK:   -2.61 KCAL/MOL
REMARK 922        TOTAL FREE ENERGY PREDICTED BY IDOCK:   -6.70 KCAL/MOL
REMARK 923 INTER-LIGAND FREE ENERGY PREDICTED BY IDOCK:   -5.72 KCAL/MOL
REMARK 924 INTRA-LIGAND FREE ENERGY PREDICTED BY IDOCK:   -0.97 KCAL/MOL
REMARK 927      BINDING AFFINITY PREDICTED BY RF-SCORE:    0.00 PKD
ROOT
HETATM    1  C   UNL     1      -6.653   4.771  63.434  1.00  0.00    -0.030 C  
HETATM    2  C   UNL     1      -7.951   4.449  62.717  1.00  0.00    -0.069 C  
ENDROOT
BRANCH   2   3
HETATM    3  C   UNL     1      -9.106   4.311  63.706  1.00  0.00    -0.142 C  
BRANCH   3   4
HETATM    4  C   UNL     1      -8.602   4.329  65.145  1.00  0.00    -0.123 C  
BRANCH   4   5
HETATM    5  C   UNL     1      -9.275   5.444  65.940  1.00  0.00    -0.165 C  
BRANCH   5   6
HETATM    6  C   UNL     1      -9.258   5.134  67.433  1.00  0.00    -0.121 C  
BRANCH   6   7
HETATM    7  C   UNL     1     -10.583   5.518  68.078  1.00  0.00    -0.213 C  
BRANCH   7   8
HETATM    8  C   UNL     1     -10.479   5.471  69.597  1.00  0.00    -0.379 C  
BRANCH   8   9
HETATM    9  C   UNL     1     -11.514   6.387  70.236  1.00  0.00    -0.468 C  
BRANCH   9  10
HETATM   10  C   UNL     1     -10.972   7.001  71.521  1.00  0.00    -0.260 C  
BRANCH  10  11
HETATM   11  C   UNL     1     -12.088   7.683  72.307  1.00  0.00    -0.297 C  
BRANCH  11  12
HETATM   12  C   UNL     1     -13.380   7.693  71.503  1.00  0.00    -0.383 C  
BRANCH  12  13
HETATM   13  C   UNL     1     -13.968   9.097  71.439  1.00  0.00    -0.245 C  
BRANCH  13  14
HETATM   14  C   UNL     1     -13.175  10.052  72.325  1.00  0.00    -0.401 C  
BRANCH  14  15
HETATM   15  C   UNL     1     -13.071  11.436  71.689  1.00  0.00    -0.498 C  
BRANCH  15  16
HETATM   16  C   UNL     1     -12.179  11.395  70.451  1.00  0.00    -0.450 C  
BRANCH  16  17
HETATM   17  C   UNL     1     -12.153  12.745  69.742  1.00  0.00    -0.305 C  
HETATM   18  C   UNL     1     -11.970  12.589  68.250  1.00  0.00    -0.221 C  
HETATM   19  O   UNL     1     -11.854  11.530  67.656  1.00  0.00    -0.595 OA 
HETATM   20  O   UNL     1     -11.946  13.783  67.611  1.00  0.00    -0.358 OA 
ENDBRANCH  16  17
ENDBRANCH  15  16
ENDBRANCH  14  15
ENDBRANCH  13  14
ENDBRANCH  12  13
ENDBRANCH  11  12
ENDBRANCH  10  11
ENDBRANCH   9  10
ENDBRANCH   8   9
ENDBRANCH   7   8
ENDBRANCH   6   7
ENDBRANCH   5   6
ENDBRANCH   4   5
ENDBRANCH   3   4
ENDBRANCH   2   3
TORSDOF 15
ENDMDL
MODEL      379
REMARK 921   NORMALIZED FREE ENERGY PREDICTED BY IDOCK:   -2.61 KCAL/MOL
REMARK 922        TOTAL FREE ENERGY PREDICTED BY IDOCK:   -6.70 KCAL/MOL
REMARK 923 INTER-LIGAND FREE ENERGY PREDICTED BY IDOCK:   -5.65 KCAL/MOL
REMARK 924 INTRA-LIGAND FREE ENERGY PREDICTED BY IDOCK:   -1.05 KCAL/MOL
REMARK 927      BINDING AFFINITY PREDICTED BY RF-SCORE:    0.00 PKD
ROOT
HETATM    1  C   UNL     1      -6.158  14.258  68.460  1.00  0.00    -0.091 C  
HETATM    2  C   UNL     1      -7.222  14.751  67.496  1.00  0.00    -0.222 C  
ENDROOT
BRANCH   2   3
HETATM    3  C   UNL     1      -8.096  13.598  67.006  1.00  0.00    -0.004 C  
BRANCH   3   4
HETATM    4  C   UNL     1      -7.651  12.273  67.616  1.00  0.00    -0.144 C  
BRANCH   4   5
HETATM    5  C   UNL     1      -8.715  11.731  68.566  1.00  0.00    -0.118 C  
BRANCH   5   6
HETATM    6  C   UNL     1      -9.652  10.771  67.840  1.00  0.00    -0.171 C  
BRANCH   6   7
HETATM    7  C   UNL     1      -8.987   9.416  67.642  1.00  0.00    -0.125 C  
BRANCH   7   8
HETATM    8  C   UNL     1      -9.311   8.850  66.264  1.00  0.00    -0.279 C  
BRANCH   8   9
HETATM    9  C   UNL     1      -9.982   9.906  65.395  1.00  0.00    -0.349 C  
BRANCH   9  10
HETATM   10  C   UNL     1      -9.118  10.236  64.184  1.00  0.00    -0.284 C  
BRANCH  10  11
HETATM   11  C   UNL     1      -9.822  11.239  63.275  1.00  0.00    -0.418 C  
BRANCH  11  12
HETATM   12  C   UNL     1     -10.424  12.373  64.092  1.00  0.00    -0.415 C  
BRANCH  12  13
HETATM   13  C   UNL     1     -11.931  12.451  63.885  1.00  0.00    -0.572 C  
BRANCH  13  14
HETATM   14  C   UNL     1     -12.614  13.024  65.123  1.00  0.00    -0.530 C  
BRANCH  14  15
HETATM   15  C   UNL     1     -11.622  13.783  65.998  1.00  0.00    -0.361 C  
BRANCH  15  16
HETATM   16  C   UNL     1     -11.905  13.531  67.478  1.00  0.00    -0.406 C  
BRANCH  16  17
HETATM   17  C   UNL     1     -11.312  14.633  68.351  1.00  0.00    -0.312 C  
HETATM   18  C   UNL     1     -10.911  15.839  67.533  1.00  0.00    -0.315 C  
HETATM   19  O   UNL     1     -11.033  15.949  66.324  1.00  0.00    -0.244 OA 
HETATM   20  O   UNL     1     -10.383  16.822  68.299  1.00  0.00    -0.285 OA 
ENDBRANCH  16  17
ENDBRANCH  15  16
ENDBRANCH  14  15
ENDBRANCH  13  14
ENDBRANCH  12  13
ENDBRANCH  11  12
ENDBRANCH  10  11
ENDBRANCH   9  10
ENDBRANCH   8   9
ENDBRANCH   7   8
ENDBRANCH   6   7
ENDBRANCH   5   6
ENDBRANCH   4   5
ENDBRANCH   3   4
ENDBRANCH   2   3
TORSDOF 15
ENDMDL
MODEL      380
REMARK 921   NORMALIZED FREE ENERGY PREDICTED BY IDOCK:   -2.59 KCAL/MOL
REMARK 922        TOTAL FREE ENERGY PREDICTED BY IDOCK:   -6.67 KCAL/MOL
REMARK 923 INTER-LIGAND FREE ENERGY PREDICTED BY IDOCK:   -4.44 KCAL/MOL
REMARK 924 INTRA-LIGAND FREE ENERGY PREDICTED BY IDOCK:   -2.23 KCAL/MOL
REMARK 927      BINDING AFFINITY PREDICTED BY RF-SCORE:    0.00 PKD
ROOT
HETATM    1  C   UNL     1      -6.464   6.619  67.916  1.00  0.00    -0.056 C  
HETATM    2  C   UNL     1      -5.594   7.484  67.022  1.00  0.00    -0.031 C  
ENDROOT
BRANCH   2   3
HETATM    3  C   UNL     1      -6.434   8.501  66.253  1.00  0.00    -0.061 C  
BRANCH   3   4
HETATM    4  C   UNL     1      -5.995   9.927  66.566  1.00  0.00    -0.059 C  
BRANCH   4   5
HETATM    5  C   UNL     1      -6.572  10.391  67.899  1.00  0.00    -0.061 C  
BRANCH   5   6
HETATM    6  C   UNL     1      -8.022   9.943  68.049  1.00  0.00    -0.100 C  
BRANCH   6   7
HETATM    7  C   UNL     1      -8.973  11.021  67.544  1.00  0.00    -0.137 C  
BRANCH   7   8
HETATM    8  C   UNL     1      -9.977  10.437  66.557  1.00  0.00    -0.271 C  
BRANCH   8   9
HETATM    9  C   UNL     1      -9.792   8.931  66.431  1.00  0.00    -0.353 C  
BRANCH   9  10
HETATM   10  C   UNL     1     -10.835   8.188  67.259  1.00  0.00    -0.130 C  
BRANCH  10  11
HETATM   11  C   UNL     1     -10.616   6.681  67.177  1.00  0.00    -0.401 C  
BRANCH  11  12
HETATM   12  C   UNL     1      -9.881   6.177  68.411  1.00  0.00    -0.142 C  
BRANCH  12  13
HETATM   13  C   UNL     1     -10.857   5.892  69.546  1.00  0.00    -0.442 C  
BRANCH  13  14
HETATM   14  C   UNL     1     -10.355   6.499  70.851  1.00  0.00    -0.243 C  
BRANCH  14  15
HETATM   15  C   UNL     1      -9.329   7.599  70.590  1.00  0.00    -0.163 C  
BRANCH  15  16
HETATM   16  C   UNL     1      -9.597   8.809  71.481  1.00  0.00    -0.354 C  
BRANCH  16  17
HETATM   17  C   UNL     1     -11.076   8.916  71.841  1.00  0.00    -0.442 C  
HETATM   18  C   UNL     1     -11.802   9.887  70.939  1.00  0.00    -0.356 C  
HETATM   19  O   UNL     1     -11.297  10.522  70.028  1.00  0.00    -0.272 OA 
HETATM   20  O   UNL     1     -13.115   9.988  71.252  1.00  0.00    -0.365 OA 
ENDBRANCH  16  17
ENDBRANCH  15  16
ENDBRANCH  14  15
ENDBRANCH  13  14
ENDBRANCH  12  13
ENDBRANCH  11  12
ENDBRANCH  10  11
ENDBRANCH   9  10
ENDBRANCH   8   9
ENDBRANCH   7   8
ENDBRANCH   6   7
ENDBRANCH   5   6
ENDBRANCH   4   5
ENDBRANCH   3   4
ENDBRANCH   2   3
TORSDOF 15
ENDMDL
MODEL      381
REMARK 921   NORMALIZED FREE ENERGY PREDICTED BY IDOCK:   -2.59 KCAL/MOL
REMARK 922        TOTAL FREE ENERGY PREDICTED BY IDOCK:   -6.65 KCAL/MOL
REMARK 923 INTER-LIGAND FREE ENERGY PREDICTED BY IDOCK:   -5.41 KCAL/MOL
REMARK 924 INTRA-LIGAND FREE ENERGY PREDICTED BY IDOCK:   -1.24 KCAL/MOL
REMARK 927      BINDING AFFINITY PREDICTED BY RF-SCORE:    0.00 PKD
ROOT
HETATM    1  C   UNL     1     -10.625  19.932  66.892  1.00  0.00    -0.534 C  
HETATM    2  C   UNL     1      -9.257  19.290  66.750  1.00  0.00    -0.367 C  
ENDROOT
BRANCH   2   3
HETATM    3  C   UNL     1      -9.201  17.947  67.475  1.00  0.00    -0.249 C  
BRANCH   3   4
HETATM    4  C   UNL     1     -10.450  17.118  67.192  1.00  0.00    -0.291 C  
BRANCH   4   5
HETATM    5  C   UNL     1     -10.259  16.259  65.946  1.00  0.00    -0.384 C  
BRANCH   5   6
HETATM    6  C   UNL     1     -11.190  15.052  65.971  1.00  0.00    -0.310 C  
BRANCH   6   7
HETATM    7  C   UNL     1     -11.232  14.432  67.362  1.00  0.00    -0.337 C  
BRANCH   7   8
HETATM    8  C   UNL     1      -9.970  13.621  67.630  1.00  0.00    -0.239 C  
BRANCH   8   9
HETATM    9  C   UNL     1      -9.879  12.437  66.676  1.00  0.00    -0.231 C  
BRANCH   9  10
HETATM   10  C   UNL     1     -11.123  11.563  66.781  1.00  0.00    -0.361 C  
BRANCH  10  11
HETATM   11  C   UNL     1     -10.966  10.534  67.896  1.00  0.00    -0.352 C  
BRANCH  11  12
HETATM   12  C   UNL     1     -11.854  10.886  69.081  1.00  0.00    -0.389 C  
BRANCH  12  13
HETATM   13  C   UNL     1     -11.237  10.400  70.386  1.00  0.00    -0.399 C  
BRANCH  13  14
HETATM   14  C   UNL     1     -11.050   8.886  70.360  1.00  0.00    -0.270 C  
BRANCH  14  15
HETATM   15  C   UNL     1      -9.621   8.501  70.730  1.00  0.00    -0.217 C  
BRANCH  15  16
HETATM   16  C   UNL     1      -8.932   7.798  69.563  1.00  0.00    -0.142 C  
BRANCH  16  17
HETATM   17  C   UNL     1      -8.164   8.789  68.694  1.00  0.00    -0.117 C  
HETATM   18  C   UNL     1      -7.149   8.094  67.817  1.00  0.00    -0.087 C  
HETATM   19  O   UNL     1      -6.944   6.892  67.785  1.00  0.00    -0.077 OA 
HETATM   20  O   UNL     1      -6.462   8.967  67.042  1.00  0.00    -0.059 OA 
ENDBRANCH  16  17
ENDBRANCH  15  16
ENDBRANCH  14  15
ENDBRANCH  13  14
ENDBRANCH  12  13
ENDBRANCH  11  12
ENDBRANCH  10  11
ENDBRANCH   9  10
ENDBRANCH   8   9
ENDBRANCH   7   8
ENDBRANCH   6   7
ENDBRANCH   5   6
ENDBRANCH   4   5
ENDBRANCH   3   4
ENDBRANCH   2   3
TORSDOF 15
ENDMDL
MODEL      382
REMARK 921   NORMALIZED FREE ENERGY PREDICTED BY IDOCK:   -2.58 KCAL/MOL
REMARK 922        TOTAL FREE ENERGY PREDICTED BY IDOCK:   -6.64 KCAL/MOL
REMARK 923 INTER-LIGAND FREE ENERGY PREDICTED BY IDOCK:   -5.19 KCAL/MOL
REMARK 924 INTRA-LIGAND FREE ENERGY PREDICTED BY IDOCK:   -1.45 KCAL/MOL
REMARK 927      BINDING AFFINITY PREDICTED BY RF-SCORE:    0.00 PKD
ROOT
HETATM    1  C   UNL     1     -12.124  15.045  64.349  1.00  0.00    -0.373 C  
HETATM    2  C   UNL     1     -12.192  13.602  63.883  1.00  0.00    -0.429 C  
ENDROOT
BRANCH   2   3
HETATM    3  C   UNL     1     -12.512  12.663  65.045  1.00  0.00    -0.556 C  
BRANCH   3   4
HETATM    4  C   UNL     1     -11.405  11.632  65.238  1.00  0.00    -0.220 C  
BRANCH   4   5
HETATM    5  C   UNL     1     -10.192  11.973  64.379  1.00  0.00    -0.332 C  
BRANCH   5   6
HETATM    6  C   UNL     1      -9.831  10.810  63.462  1.00  0.00    -0.401 C  
BRANCH   6   7
HETATM    7  C   UNL     1      -8.935   9.812  64.184  1.00  0.00    -0.276 C  
BRANCH   7   8
HETATM    8  C   UNL     1      -7.493   9.933  63.706  1.00  0.00    -0.136 C  
BRANCH   8   9
HETATM    9  C   UNL     1      -6.724   8.650  63.987  1.00  0.00    -0.076 C  
BRANCH   9  10
HETATM   10  C   UNL     1      -6.053   8.712  65.354  1.00  0.00    -0.049 C  
BRANCH  10  11
HETATM   11  C   UNL     1      -6.812   7.860  66.367  1.00  0.00    -0.062 C  
BRANCH  11  12
HETATM   12  C   UNL     1      -6.845   8.545  67.726  1.00  0.00    -0.067 C  
BRANCH  12  13
HETATM   13  C   UNL     1      -8.273   8.905  68.118  1.00  0.00    -0.114 C  
BRANCH  13  14
HETATM   14  C   UNL     1      -8.548  10.381  67.850  1.00  0.00    -0.118 C  
BRANCH  14  15
HETATM   15  C   UNL     1      -9.338  11.011  68.993  1.00  0.00    -0.105 C  
BRANCH  15  16
HETATM   16  C   UNL     1     -10.494  10.105  69.413  1.00  0.00    -0.254 C  
BRANCH  16  17
HETATM   17  C   UNL     1     -11.647  10.914  69.999  1.00  0.00    -0.424 C  
HETATM   18  C   UNL     1     -12.059  10.395  71.357  1.00  0.00    -0.327 C  
HETATM   19  O   UNL     1     -11.553   9.450  71.940  1.00  0.00    -0.378 OA 
HETATM   20  O   UNL     1     -13.083  11.107  71.886  1.00  0.00    -0.488 OA 
ENDBRANCH  16  17
ENDBRANCH  15  16
ENDBRANCH  14  15
ENDBRANCH  13  14
ENDBRANCH  12  13
ENDBRANCH  11  12
ENDBRANCH  10  11
ENDBRANCH   9  10
ENDBRANCH   8   9
ENDBRANCH   7   8
ENDBRANCH   6   7
ENDBRANCH   5   6
ENDBRANCH   4   5
ENDBRANCH   3   4
ENDBRANCH   2   3
TORSDOF 15
ENDMDL
MODEL      383
REMARK 921   NORMALIZED FREE ENERGY PREDICTED BY IDOCK:   -2.58 KCAL/MOL
REMARK 922        TOTAL FREE ENERGY PREDICTED BY IDOCK:   -6.64 KCAL/MOL
REMARK 923 INTER-LIGAND FREE ENERGY PREDICTED BY IDOCK:   -4.69 KCAL/MOL
REMARK 924 INTRA-LIGAND FREE ENERGY PREDICTED BY IDOCK:   -1.95 KCAL/MOL
REMARK 927      BINDING AFFINITY PREDICTED BY RF-SCORE:    0.00 PKD
ROOT
HETATM    1  C   UNL     1      -9.906  15.975  65.707  1.00  0.00    -0.357 C  
HETATM    2  C   UNL     1     -10.187  15.103  66.918  1.00  0.00    -0.259 C  
ENDROOT
BRANCH   2   3
HETATM    3  C   UNL     1     -10.976  13.856  66.528  1.00  0.00    -0.300 C  
BRANCH   3   4
HETATM    4  C   UNL     1     -11.897  14.137  65.345  1.00  0.00    -0.362 C  
BRANCH   4   5
HETATM    5  C   UNL     1     -12.170  12.859  64.557  1.00  0.00    -0.489 C  
BRANCH   5   6
HETATM    6  C   UNL     1     -10.912  12.385  63.838  1.00  0.00    -0.467 C  
BRANCH   6   7
HETATM    7  C   UNL     1     -10.702  10.891  64.049  1.00  0.00    -0.208 C  
BRANCH   7   8
HETATM    8  C   UNL     1      -9.488  10.635  64.934  1.00  0.00    -0.293 C  
BRANCH   8   9
HETATM    9  C   UNL     1      -9.912  10.430  66.382  1.00  0.00    -0.277 C  
BRANCH   9  10
HETATM   10  C   UNL     1      -8.846  10.956  67.336  1.00  0.00    -0.133 C  
BRANCH  10  11
HETATM   11  C   UNL     1      -7.450  10.713  66.772  1.00  0.00    -0.120 C  
BRANCH  11  12
HETATM   12  C   UNL     1      -6.386  11.041  67.810  1.00  0.00    -0.058 C  
BRANCH  12  13
HETATM   13  C   UNL     1      -7.025  11.395  69.147  1.00  0.00    -0.118 C  
BRANCH  13  14
HETATM   14  C   UNL     1      -6.527  10.461  70.245  1.00  0.00    -0.141 C  
BRANCH  14  15
HETATM   15  C   UNL     1      -7.178   9.085  70.134  1.00  0.00    -0.062 C  
BRANCH  15  16
HETATM   16  C   UNL     1      -8.473   9.035  70.943  1.00  0.00    -0.253 C  
BRANCH  16  17
HETATM   17  C   UNL     1      -9.665   8.681  70.059  1.00  0.00    -0.176 C  
HETATM   18  C   UNL     1     -10.087   7.242  70.240  1.00  0.00    -0.192 C  
HETATM   19  O   UNL     1      -9.560   6.437  70.991  1.00  0.00    -0.174 OA 
HETATM   20  O   UNL     1     -11.145   6.918  69.459  1.00  0.00    -0.252 OA 
ENDBRANCH  16  17
ENDBRANCH  15  16
ENDBRANCH  14  15
ENDBRANCH  13  14
ENDBRANCH  12  13
ENDBRANCH  11  12
ENDBRANCH  10  11
ENDBRANCH   9  10
ENDBRANCH   8   9
ENDBRANCH   7   8
ENDBRANCH   6   7
ENDBRANCH   5   6
ENDBRANCH   4   5
ENDBRANCH   3   4
ENDBRANCH   2   3
TORSDOF 15
ENDMDL
MODEL      384
REMARK 921   NORMALIZED FREE ENERGY PREDICTED BY IDOCK:   -2.58 KCAL/MOL
REMARK 922        TOTAL FREE ENERGY PREDICTED BY IDOCK:   -6.64 KCAL/MOL
REMARK 923 INTER-LIGAND FREE ENERGY PREDICTED BY IDOCK:   -5.49 KCAL/MOL
REMARK 924 INTRA-LIGAND FREE ENERGY PREDICTED BY IDOCK:   -1.14 KCAL/MOL
REMARK 927      BINDING AFFINITY PREDICTED BY RF-SCORE:    0.00 PKD
ROOT
HETATM    1  C   UNL     1      -6.662  20.270  64.753  1.00  0.00    -0.257 C  
HETATM    2  C   UNL     1      -7.028  19.252  65.818  1.00  0.00    -0.307 C  
ENDROOT
BRANCH   2   3
HETATM    3  C   UNL     1      -8.514  19.328  66.165  1.00  0.00    -0.278 C  
BRANCH   3   4
HETATM    4  C   UNL     1      -9.036  17.977  66.642  1.00  0.00    -0.285 C  
BRANCH   4   5
HETATM    5  C   UNL     1      -8.121  16.848  66.177  1.00  0.00    -0.295 C  
BRANCH   5   6
HETATM    6  C   UNL     1      -8.127  15.697  67.177  1.00  0.00    -0.247 C  
BRANCH   6   7
HETATM    7  C   UNL     1      -8.979  16.042  68.391  1.00  0.00    -0.188 C  
BRANCH   7   8
HETATM    8  C   UNL     1      -9.481  14.777  69.077  1.00  0.00    -0.167 C  
BRANCH   8   9
HETATM    9  C   UNL     1     -10.452  14.026  68.175  1.00  0.00    -0.243 C  
BRANCH   9  10
HETATM   10  C   UNL     1     -10.774  12.654  68.755  1.00  0.00    -0.240 C  
BRANCH  10  11
HETATM   11  C   UNL     1     -11.082  11.657  67.642  1.00  0.00    -0.314 C  
BRANCH  11  12
HETATM   12  C   UNL     1     -11.229  10.251  68.206  1.00  0.00    -0.295 C  
BRANCH  12  13
HETATM   13  C   UNL     1     -10.144   9.331  67.661  1.00  0.00    -0.266 C  
BRANCH  13  14
HETATM   14  C   UNL     1      -9.573   8.457  68.772  1.00  0.00    -0.150 C  
BRANCH  14  15
HETATM   15  C   UNL     1      -9.678   9.149  70.128  1.00  0.00    -0.234 C  
BRANCH  15  16
HETATM   16  C   UNL     1     -10.208   8.185  71.187  1.00  0.00    -0.234 C  
BRANCH  16  17
HETATM   17  C   UNL     1     -11.277   8.845  72.052  1.00  0.00    -0.422 C  
HETATM   18  C   UNL     1     -12.621   8.174  71.888  1.00  0.00    -0.335 C  
HETATM   19  O   UNL     1     -12.855   7.222  71.162  1.00  0.00    -0.351 OA 
HETATM   20  O   UNL     1     -13.576   8.754  72.653  1.00  0.00    -0.387 OA 
ENDBRANCH  16  17
ENDBRANCH  15  16
ENDBRANCH  14  15
ENDBRANCH  13  14
ENDBRANCH  12  13
ENDBRANCH  11  12
ENDBRANCH  10  11
ENDBRANCH   9  10
ENDBRANCH   8   9
ENDBRANCH   7   8
ENDBRANCH   6   7
ENDBRANCH   5   6
ENDBRANCH   4   5
ENDBRANCH   3   4
ENDBRANCH   2   3
TORSDOF 15
ENDMDL
MODEL      385
REMARK 921   NORMALIZED FREE ENERGY PREDICTED BY IDOCK:   -2.58 KCAL/MOL
REMARK 922        TOTAL FREE ENERGY PREDICTED BY IDOCK:   -6.63 KCAL/MOL
REMARK 923 INTER-LIGAND FREE ENERGY PREDICTED BY IDOCK:   -5.15 KCAL/MOL
REMARK 924 INTRA-LIGAND FREE ENERGY PREDICTED BY IDOCK:   -1.48 KCAL/MOL
REMARK 927      BINDING AFFINITY PREDICTED BY RF-SCORE:    0.00 PKD
ROOT
HETATM    1  C   UNL     1     -12.832  15.488  71.321  1.00  0.00    -0.540 C  
HETATM    2  C   UNL     1     -12.126  14.867  70.129  1.00  0.00    -0.379 C  
ENDROOT
BRANCH   2   3
HETATM    3  C   UNL     1     -11.850  15.910  69.048  1.00  0.00    -0.328 C  
BRANCH   3   4
HETATM    4  C   UNL     1     -10.876  15.375  68.004  1.00  0.00    -0.292 C  
BRANCH   4   5
HETATM    5  C   UNL     1     -11.017  13.863  67.858  1.00  0.00    -0.265 C  
BRANCH   5   6
HETATM    6  C   UNL     1     -10.020  13.320  66.840  1.00  0.00    -0.250 C  
BRANCH   6   7
HETATM    7  C   UNL     1      -9.914  11.804  66.945  1.00  0.00    -0.220 C  
BRANCH   7   8
HETATM    8  C   UNL     1      -9.726  11.375  68.396  1.00  0.00    -0.203 C  
BRANCH   8   9
HETATM    9  C   UNL     1      -8.249  11.176  68.710  1.00  0.00    -0.135 C  
BRANCH   9  10
HETATM   10  C   UNL     1      -8.051   9.976  69.629  1.00  0.00    -0.180 C  
BRANCH  10  11
HETATM   11  C   UNL     1      -8.054   8.677  68.829  1.00  0.00    -0.116 C  
BRANCH  11  12
HETATM   12  C   UNL     1      -7.604   7.510  69.697  1.00  0.00    -0.094 C  
BRANCH  12  13
HETATM   13  C   UNL     1      -7.939   6.180  69.035  1.00  0.00    -0.108 C  
BRANCH  13  14
HETATM   14  C   UNL     1      -9.027   5.450  69.817  1.00  0.00    -0.146 C  
BRANCH  14  15
HETATM   15  C   UNL     1     -10.333   5.401  69.029  1.00  0.00    -0.282 C  
BRANCH  15  16
HETATM   16  C   UNL     1     -11.409   6.240  69.716  1.00  0.00    -0.506 C  
BRANCH  16  17
HETATM   17  C   UNL     1     -10.932   6.751  71.072  1.00  0.00    -0.297 C  
HETATM   18  C   UNL     1     -11.060   8.252  71.179  1.00  0.00    -0.250 C  
HETATM   19  O   UNL     1     -11.487   8.993  70.308  1.00  0.00    -0.230 OA 
HETATM   20  O   UNL     1     -10.638   8.715  72.380  1.00  0.00    -0.331 OA 
ENDBRANCH  16  17
ENDBRANCH  15  16
ENDBRANCH  14  15
ENDBRANCH  13  14
ENDBRANCH  12  13
ENDBRANCH  11  12
ENDBRANCH  10  11
ENDBRANCH   9  10
ENDBRANCH   8   9
ENDBRANCH   7   8
ENDBRANCH   6   7
ENDBRANCH   5   6
ENDBRANCH   4   5
ENDBRANCH   3   4
ENDBRANCH   2   3
TORSDOF 15
ENDMDL
MODEL      386
REMARK 921   NORMALIZED FREE ENERGY PREDICTED BY IDOCK:   -2.58 KCAL/MOL
REMARK 922        TOTAL FREE ENERGY PREDICTED BY IDOCK:   -6.63 KCAL/MOL
REMARK 923 INTER-LIGAND FREE ENERGY PREDICTED BY IDOCK:   -5.63 KCAL/MOL
REMARK 924 INTRA-LIGAND FREE ENERGY PREDICTED BY IDOCK:   -1.00 KCAL/MOL
REMARK 927      BINDING AFFINITY PREDICTED BY RF-SCORE:    0.00 PKD
ROOT
HETATM    1  C   UNL     1     -10.650   9.463  67.559  1.00  0.00    -0.333 C  
HETATM    2  C   UNL     1      -9.344   9.248  68.302  1.00  0.00    -0.141 C  
ENDROOT
BRANCH   2   3
HETATM    3  C   UNL     1      -9.547   9.349  69.812  1.00  0.00    -0.216 C  
BRANCH   3   4
HETATM    4  C   UNL     1     -10.415   8.206  70.327  1.00  0.00    -0.219 C  
BRANCH   4   5
HETATM    5  C   UNL     1     -11.564   8.740  71.177  1.00  0.00    -0.344 C  
BRANCH   5   6
HETATM    6  C   UNL     1     -11.601  10.264  71.145  1.00  0.00    -0.385 C  
BRANCH   6   7
HETATM    7  C   UNL     1     -13.031  10.771  71.284  1.00  0.00    -0.502 C  
BRANCH   7   8
HETATM    8  C   UNL     1     -13.084  11.998  72.187  1.00  0.00    -0.352 C  
BRANCH   8   9
HETATM    9  C   UNL     1     -13.534  13.223  71.402  1.00  0.00    -0.149 C  
BRANCH   9  10
HETATM   10  C   UNL     1     -12.353  14.140  71.108  1.00  0.00    -0.447 C  
BRANCH  10  11
HETATM   11  C   UNL     1     -12.337  14.545  69.637  1.00  0.00    -0.284 C  
BRANCH  11  12
HETATM   12  C   UNL     1     -11.725  15.928  69.468  1.00  0.00    -0.331 C  
BRANCH  12  13
HETATM   13  C   UNL     1     -10.240  15.911  69.810  1.00  0.00    -0.268 C  
BRANCH  13  14
HETATM   14  C   UNL     1      -9.408  16.354  68.611  1.00  0.00    -0.233 C  
BRANCH  14  15
HETATM   15  C   UNL     1      -7.925  16.424  68.965  1.00  0.00    -0.227 C  
BRANCH  15  16
HETATM   16  C   UNL     1      -7.316  17.737  68.478  1.00  0.00    -0.266 C  
BRANCH  16  17
HETATM   17  C   UNL     1      -7.512  18.852  69.501  1.00  0.00     0.081 C  
HETATM   18  C   UNL     1      -6.213  19.556  69.816  1.00  0.00    -0.308 C  
HETATM   19  O   UNL     1      -5.126  19.289  69.332  1.00  0.00    -0.176 OA 
HETATM   20  O   UNL     1      -6.378  20.547  70.724  1.00  0.00    -0.536 OA 
ENDBRANCH  16  17
ENDBRANCH  15  16
ENDBRANCH  14  15
ENDBRANCH  13  14
ENDBRANCH  12  13
ENDBRANCH  11  12
ENDBRANCH  10  11
ENDBRANCH   9  10
ENDBRANCH   8   9
ENDBRANCH   7   8
ENDBRANCH   6   7
ENDBRANCH   5   6
ENDBRANCH   4   5
ENDBRANCH   3   4
ENDBRANCH   2   3
TORSDOF 15
ENDMDL
MODEL      387
REMARK 921   NORMALIZED FREE ENERGY PREDICTED BY IDOCK:   -2.57 KCAL/MOL
REMARK 922        TOTAL FREE ENERGY PREDICTED BY IDOCK:   -6.62 KCAL/MOL
REMARK 923 INTER-LIGAND FREE ENERGY PREDICTED BY IDOCK:   -5.48 KCAL/MOL
REMARK 924 INTRA-LIGAND FREE ENERGY PREDICTED BY IDOCK:   -1.14 KCAL/MOL
REMARK 927      BINDING AFFINITY PREDICTED BY RF-SCORE:    0.00 PKD
ROOT
HETATM    1  C   UNL     1     -12.819  12.077  71.987  1.00  0.00    -0.251 C  
HETATM    2  C   UNL     1     -13.055  13.490  72.490  1.00  0.00    -0.458 C  
ENDROOT
BRANCH   2   3
HETATM    3  C   UNL     1     -14.408  14.021  72.022  1.00  0.00    -0.548 C  
BRANCH   3   4
HETATM    4  C   UNL     1     -14.244  15.306  71.217  1.00  0.00    -0.506 C  
BRANCH   4   5
HETATM    5  C   UNL     1     -12.769  15.610  70.977  1.00  0.00    -0.517 C  
BRANCH   5   6
HETATM    6  C   UNL     1     -12.319  15.082  69.619  1.00  0.00    -0.238 C  
BRANCH   6   7
HETATM    7  C   UNL     1     -10.805  14.918  69.580  1.00  0.00    -0.269 C  
BRANCH   7   8
HETATM    8  C   UNL     1     -10.326  14.650  68.158  1.00  0.00    -0.230 C  
BRANCH   8   9
HETATM    9  C   UNL     1      -9.892  13.198  68.002  1.00  0.00    -0.231 C  
BRANCH   9  10
HETATM   10  C   UNL     1     -11.036  12.347  67.465  1.00  0.00    -0.313 C  
BRANCH  10  11
HETATM   11  C   UNL     1     -11.598  11.445  68.559  1.00  0.00    -0.384 C  
BRANCH  11  12
HETATM   12  C   UNL     1     -10.506  10.552  69.131  1.00  0.00    -0.250 C  
BRANCH  12  13
HETATM   13  C   UNL     1     -10.730   9.098  68.734  1.00  0.00    -0.162 C  
BRANCH  13  14
HETATM   14  C   UNL     1     -10.450   8.170  69.911  1.00  0.00    -0.226 C  
BRANCH  14  15
HETATM   15  C   UNL     1      -9.380   7.141  69.560  1.00  0.00    -0.148 C  
BRANCH  15  16
HETATM   16  C   UNL     1      -9.263   6.087  70.659  1.00  0.00    -0.161 C  
BRANCH  16  17
HETATM   17  C   UNL     1      -9.860   4.755  70.216  1.00  0.00    -0.313 C  
HETATM   18  C   UNL     1      -8.790   3.783  69.776  1.00  0.00    -0.090 C  
HETATM   19  O   UNL     1      -7.591   4.005  69.765  1.00  0.00    -0.052 OA 
HETATM   20  O   UNL     1      -9.311   2.597  69.380  1.00  0.00    -0.132 OA 
ENDBRANCH  16  17
ENDBRANCH  15  16
ENDBRANCH  14  15
ENDBRANCH  13  14
ENDBRANCH  12  13
ENDBRANCH  11  12
ENDBRANCH  10  11
ENDBRANCH   9  10
ENDBRANCH   8   9
ENDBRANCH   7   8
ENDBRANCH   6   7
ENDBRANCH   5   6
ENDBRANCH   4   5
ENDBRANCH   3   4
ENDBRANCH   2   3
TORSDOF 15
ENDMDL
MODEL      388
REMARK 921   NORMALIZED FREE ENERGY PREDICTED BY IDOCK:   -2.56 KCAL/MOL
REMARK 922        TOTAL FREE ENERGY PREDICTED BY IDOCK:   -6.60 KCAL/MOL
REMARK 923 INTER-LIGAND FREE ENERGY PREDICTED BY IDOCK:   -4.95 KCAL/MOL
REMARK 924 INTRA-LIGAND FREE ENERGY PREDICTED BY IDOCK:   -1.65 KCAL/MOL
REMARK 927      BINDING AFFINITY PREDICTED BY RF-SCORE:    0.00 PKD
ROOT
HETATM    1  C   UNL     1     -13.414   9.222  71.285  1.00  0.00    -0.314 C  
HETATM    2  C   UNL     1     -12.201  10.108  71.064  1.00  0.00    -0.474 C  
ENDROOT
BRANCH   2   3
HETATM    3  C   UNL     1     -11.536   9.807  69.723  1.00  0.00    -0.145 C  
BRANCH   3   4
HETATM    4  C   UNL     1     -11.040  11.086  69.057  1.00  0.00    -0.301 C  
BRANCH   4   5
HETATM    5  C   UNL     1      -9.549  11.285  69.309  1.00  0.00     0.144 C  
BRANCH   5   6
HETATM    6  C   UNL     1      -8.913  12.104  68.191  1.00  0.00    -0.195 C  
BRANCH   6   7
HETATM    7  C   UNL     1      -7.730  11.361  67.585  1.00  0.00    -0.121 C  
BRANCH   7   8
HETATM    8  C   UNL     1      -8.205  10.187  66.738  1.00  0.00    -0.122 C  
BRANCH   8   9
HETATM    9  C   UNL     1      -8.244  10.569  65.264  1.00  0.00    -0.146 C  
BRANCH   9  10
HETATM   10  C   UNL     1      -9.463   9.959  64.581  1.00  0.00    -0.343 C  
BRANCH  10  11
HETATM   11  C   UNL     1     -10.169  10.994  63.712  1.00  0.00    -0.425 C  
BRANCH  11  12
HETATM   12  C   UNL     1     -11.207  11.758  64.523  1.00  0.00    -0.368 C  
BRANCH  12  13
HETATM   13  C   UNL     1     -10.617  13.045  65.085  1.00  0.00    -0.327 C  
BRANCH  13  14
HETATM   14  C   UNL     1     -11.496  13.596  66.202  1.00  0.00    -0.342 C  
BRANCH  14  15
HETATM   15  C   UNL     1     -10.761  14.664  67.007  1.00  0.00    -0.290 C  
BRANCH  15  16
HETATM   16  C   UNL     1      -9.828  15.471  66.106  1.00  0.00    -0.342 C  
BRANCH  16  17
HETATM   17  C   UNL     1      -9.344  16.738  66.804  1.00  0.00    -0.263 C  
HETATM   18  C   UNL     1      -7.899  16.623  67.230  1.00  0.00    -0.166 C  
HETATM   19  O   UNL     1      -7.182  15.651  67.054  1.00  0.00    -0.210 OA 
HETATM   20  O   UNL     1      -7.460  17.743  67.851  1.00  0.00    -0.202 OA 
ENDBRANCH  16  17
ENDBRANCH  15  16
ENDBRANCH  14  15
ENDBRANCH  13  14
ENDBRANCH  12  13
ENDBRANCH  11  12
ENDBRANCH  10  11
ENDBRANCH   9  10
ENDBRANCH   8   9
ENDBRANCH   7   8
ENDBRANCH   6   7
ENDBRANCH   5   6
ENDBRANCH   4   5
ENDBRANCH   3   4
ENDBRANCH   2   3
TORSDOF 15
ENDMDL
MODEL      389
REMARK 921   NORMALIZED FREE ENERGY PREDICTED BY IDOCK:   -2.55 KCAL/MOL
REMARK 922        TOTAL FREE ENERGY PREDICTED BY IDOCK:   -6.58 KCAL/MOL
REMARK 923 INTER-LIGAND FREE ENERGY PREDICTED BY IDOCK:   -4.50 KCAL/MOL
REMARK 924 INTRA-LIGAND FREE ENERGY PREDICTED BY IDOCK:   -2.09 KCAL/MOL
REMARK 927      BINDING AFFINITY PREDICTED BY RF-SCORE:    0.00 PKD
ROOT
HETATM    1  C   UNL     1      -7.543   5.902  69.620  1.00  0.00    -0.081 C  
HETATM    2  C   UNL     1      -8.634   6.335  70.583  1.00  0.00    -0.139 C  
ENDROOT
BRANCH   2   3
HETATM    3  C   UNL     1     -10.011   6.247  69.930  1.00  0.00    -0.206 C  
BRANCH   3   4
HETATM    4  C   UNL     1     -10.874   7.448  70.304  1.00  0.00    -0.260 C  
BRANCH   4   5
HETATM    5  C   UNL     1     -10.189   8.295  71.372  1.00  0.00    -0.263 C  
BRANCH   5   6
HETATM    6  C   UNL     1      -9.873   9.689  70.841  1.00  0.00    -0.168 C  
BRANCH   6   7
HETATM    7  C   UNL     1     -10.209   9.789  69.358  1.00  0.00    -0.223 C  
BRANCH   7   8
HETATM    8  C   UNL     1      -8.939   9.800  68.516  1.00  0.00    -0.124 C  
BRANCH   8   9
HETATM    9  C   UNL     1      -9.093   8.894  67.301  1.00  0.00    -0.153 C  
BRANCH   9  10
HETATM   10  C   UNL     1     -10.266   9.344  66.438  1.00  0.00    -0.300 C  
BRANCH  10  11
HETATM   11  C   UNL     1      -9.770  10.031  65.170  1.00  0.00    -0.380 C  
BRANCH  11  12
HETATM   12  C   UNL     1     -10.563  11.304  64.903  1.00  0.00    -0.364 C  
BRANCH  12  13
HETATM   13  C   UNL     1     -11.320  11.743  66.150  1.00  0.00    -0.342 C  
BRANCH  13  14
HETATM   14  C   UNL     1     -10.874  13.135  66.587  1.00  0.00    -0.292 C  
BRANCH  14  15
HETATM   15  C   UNL     1      -9.483  13.097  67.212  1.00  0.00    -0.225 C  
BRANCH  15  16
HETATM   16  C   UNL     1      -8.780  14.442  67.045  1.00  0.00    -0.244 C  
BRANCH  16  17
HETATM   17  C   UNL     1      -8.230  14.950  68.374  1.00  0.00    -0.151 C  
HETATM   18  C   UNL     1      -6.865  15.577  68.212  1.00  0.00    -0.116 C  
HETATM   19  O   UNL     1      -6.252  15.680  67.162  1.00  0.00    -0.317 OA 
HETATM   20  O   UNL     1      -6.369  16.030  69.387  1.00  0.00    -0.147 OA 
ENDBRANCH  16  17
ENDBRANCH  15  16
ENDBRANCH  14  15
ENDBRANCH  13  14
ENDBRANCH  12  13
ENDBRANCH  11  12
ENDBRANCH  10  11
ENDBRANCH   9  10
ENDBRANCH   8   9
ENDBRANCH   7   8
ENDBRANCH   6   7
ENDBRANCH   5   6
ENDBRANCH   4   5
ENDBRANCH   3   4
ENDBRANCH   2   3
TORSDOF 15
ENDMDL
MODEL      390
REMARK 921   NORMALIZED FREE ENERGY PREDICTED BY IDOCK:   -2.54 KCAL/MOL
REMARK 922        TOTAL FREE ENERGY PREDICTED BY IDOCK:   -6.57 KCAL/MOL
REMARK 923 INTER-LIGAND FREE ENERGY PREDICTED BY IDOCK:   -5.28 KCAL/MOL
REMARK 924 INTRA-LIGAND FREE ENERGY PREDICTED BY IDOCK:   -1.29 KCAL/MOL
REMARK 927      BINDING AFFINITY PREDICTED BY RF-SCORE:    0.00 PKD
ROOT
HETATM    1  C   UNL     1      -7.587   3.800  65.974  1.00  0.00    -0.088 C  
HETATM    2  C   UNL     1      -8.422   5.001  65.566  1.00  0.00    -0.134 C  
ENDROOT
BRANCH   2   3
HETATM    3  C   UNL     1      -9.331   5.452  66.706  1.00  0.00    -0.136 C  
BRANCH   3   4
HETATM    4  C   UNL     1      -8.858   4.889  68.042  1.00  0.00    -0.112 C  
BRANCH   4   5
HETATM    5  C   UNL     1     -10.038   4.653  68.979  1.00  0.00    -0.117 C  
BRANCH   5   6
HETATM    6  C   UNL     1     -10.077   5.708  70.080  1.00  0.00    -0.293 C  
BRANCH   6   7
HETATM    7  C   UNL     1      -9.930   5.060  71.451  1.00  0.00    -0.259 C  
BRANCH   7   8
HETATM    8  C   UNL     1     -10.832   5.744  72.472  1.00  0.00    -0.294 C  
BRANCH   8   9
HETATM    9  C   UNL     1     -11.943   6.517  71.774  1.00  0.00    -0.394 C  
BRANCH   9  10
HETATM   10  C   UNL     1     -11.985   7.961  72.262  1.00  0.00    -0.387 C  
BRANCH  10  11
HETATM   11  C   UNL     1     -10.588   8.573  72.257  1.00  0.00    -0.408 C  
BRANCH  11  12
HETATM   12  C   UNL     1     -10.368   9.399  70.997  1.00  0.00    -0.382 C  
BRANCH  12  13
HETATM   13  C   UNL     1     -11.698   9.831  70.392  1.00  0.00    -0.301 C  
BRANCH  13  14
HETATM   14  C   UNL     1     -11.712  11.336  70.148  1.00  0.00    -0.429 C  
BRANCH  14  15
HETATM   15  C   UNL     1     -11.999  11.654  68.683  1.00  0.00    -0.311 C  
BRANCH  15  16
HETATM   16  C   UNL     1     -10.807  11.276  67.806  1.00  0.00    -0.284 C  
BRANCH  16  17
HETATM   17  C   UNL     1      -9.680  12.295  67.933  1.00  0.00    -0.202 C  
HETATM   18  C   UNL     1      -9.711  13.305  66.809  1.00  0.00    -0.258 C  
HETATM   19  O   UNL     1     -10.522  13.328  65.898  1.00  0.00    -0.275 OA 
HETATM   20  O   UNL     1      -8.713  14.214  66.913  1.00  0.00    -0.215 OA 
ENDBRANCH  16  17
ENDBRANCH  15  16
ENDBRANCH  14  15
ENDBRANCH  13  14
ENDBRANCH  12  13
ENDBRANCH  11  12
ENDBRANCH  10  11
ENDBRANCH   9  10
ENDBRANCH   8   9
ENDBRANCH   7   8
ENDBRANCH   6   7
ENDBRANCH   5   6
ENDBRANCH   4   5
ENDBRANCH   3   4
ENDBRANCH   2   3
TORSDOF 15
ENDMDL
MODEL      391
REMARK 921   NORMALIZED FREE ENERGY PREDICTED BY IDOCK:   -2.53 KCAL/MOL
REMARK 922        TOTAL FREE ENERGY PREDICTED BY IDOCK:   -6.55 KCAL/MOL
REMARK 923 INTER-LIGAND FREE ENERGY PREDICTED BY IDOCK:   -4.63 KCAL/MOL
REMARK 924 INTRA-LIGAND FREE ENERGY PREDICTED BY IDOCK:   -1.92 KCAL/MOL
REMARK 927      BINDING AFFINITY PREDICTED BY RF-SCORE:    0.00 PKD
ROOT
HETATM    1  C   UNL     1      -5.851  14.810  68.607  1.00  0.00    -0.090 C  
HETATM    2  C   UNL     1      -6.871  13.728  68.916  1.00  0.00    -0.110 C  
ENDROOT
BRANCH   2   3
HETATM    3  C   UNL     1      -8.204  14.016  68.229  1.00  0.00    -0.153 C  
BRANCH   3   4
HETATM    4  C   UNL     1      -8.940  15.161  68.916  1.00  0.00    -0.206 C  
BRANCH   4   5
HETATM    5  C   UNL     1     -10.289  14.692  69.454  1.00  0.00    -0.136 C  
BRANCH   5   6
HETATM    6  C   UNL     1     -11.409  15.019  68.472  1.00  0.00    -0.317 C  
BRANCH   6   7
HETATM    7  C   UNL     1     -12.048  13.743  67.939  1.00  0.00    -0.322 C  
BRANCH   7   8
HETATM    8  C   UNL     1     -12.289  13.845  66.438  1.00  0.00    -0.468 C  
BRANCH   8   9
HETATM    9  C   UNL     1     -11.039  14.343  65.725  1.00  0.00    -0.316 C  
BRANCH   9  10
HETATM   10  C   UNL     1     -10.108  13.181  65.395  1.00  0.00    -0.260 C  
BRANCH  10  11
HETATM   11  C   UNL     1     -10.840  11.849  65.527  1.00  0.00    -0.343 C  
BRANCH  11  12
HETATM   12  C   UNL     1      -9.985  10.840  66.280  1.00  0.00    -0.272 C  
BRANCH  12  13
HETATM   13  C   UNL     1     -10.697  10.357  67.538  1.00  0.00    -0.339 C  
BRANCH  13  14
HETATM   14  C   UNL     1     -10.066  10.973  68.782  1.00  0.00    -0.214 C  
BRANCH  14  15
HETATM   15  C   UNL     1      -9.587   9.894  69.749  1.00  0.00    -0.261 C  
BRANCH  15  16
HETATM   16  C   UNL     1     -10.518   8.684  69.712  1.00  0.00    -0.220 C  
BRANCH  16  17
HETATM   17  C   UNL     1      -9.748   7.402  69.411  1.00  0.00    -0.159 C  
HETATM   18  C   UNL     1      -9.319   6.697  70.677  1.00  0.00    -0.162 C  
HETATM   19  O   UNL     1      -9.544   7.080  71.813  1.00  0.00    -0.156 OA 
HETATM   20  O   UNL     1      -8.635   5.557  70.419  1.00  0.00    -0.125 OA 
ENDBRANCH  16  17
ENDBRANCH  15  16
ENDBRANCH  14  15
ENDBRANCH  13  14
ENDBRANCH  12  13
ENDBRANCH  11  12
ENDBRANCH  10  11
ENDBRANCH   9  10
ENDBRANCH   8   9
ENDBRANCH   7   8
ENDBRANCH   6   7
ENDBRANCH   5   6
ENDBRANCH   4   5
ENDBRANCH   3   4
ENDBRANCH   2   3
TORSDOF 15
ENDMDL
MODEL      392
REMARK 921   NORMALIZED FREE ENERGY PREDICTED BY IDOCK:   -2.53 KCAL/MOL
REMARK 922        TOTAL FREE ENERGY PREDICTED BY IDOCK:   -6.55 KCAL/MOL
REMARK 923 INTER-LIGAND FREE ENERGY PREDICTED BY IDOCK:   -4.52 KCAL/MOL
REMARK 924 INTRA-LIGAND FREE ENERGY PREDICTED BY IDOCK:   -2.03 KCAL/MOL
REMARK 927      BINDING AFFINITY PREDICTED BY RF-SCORE:    0.00 PKD
ROOT
HETATM    1  C   UNL     1      -7.524  11.426  68.705  1.00  0.00    -0.119 C  
HETATM    2  C   UNL     1      -6.787  10.289  68.019  1.00  0.00    -0.070 C  
ENDROOT
BRANCH   2   3
HETATM    3  C   UNL     1      -7.556   8.977  68.151  1.00  0.00    -0.092 C  
BRANCH   3   4
HETATM    4  C   UNL     1      -6.765   7.815  67.560  1.00  0.00    -0.068 C  
BRANCH   4   5
HETATM    5  C   UNL     1      -7.651   6.959  66.661  1.00  0.00    -0.089 C  
BRANCH   5   6
HETATM    6  C   UNL     1      -8.560   7.832  65.803  1.00  0.00    -0.162 C  
BRANCH   6   7
HETATM    7  C   UNL     1      -7.787   8.431  64.635  1.00  0.00    -0.127 C  
BRANCH   7   8
HETATM    8  C   UNL     1      -8.021   9.935  64.546  1.00  0.00    -0.145 C  
BRANCH   8   9
HETATM    9  C   UNL     1      -9.154  10.245  63.577  1.00  0.00    -0.288 C  
BRANCH   9  10
HETATM   10  C   UNL     1     -10.350  10.833  64.316  1.00  0.00    -0.401 C  
BRANCH  10  11
HETATM   11  C   UNL     1     -10.009  11.083  65.782  1.00  0.00    -0.294 C  
BRANCH  11  12
HETATM   12  C   UNL     1     -11.172  11.755  66.497  1.00  0.00    -0.380 C  
BRANCH  12  13
HETATM   13  C   UNL     1     -12.057  12.504  65.509  1.00  0.00    -0.481 C  
BRANCH  13  14
HETATM   14  C   UNL     1     -11.865  14.010  65.652  1.00  0.00    -0.384 C  
BRANCH  14  15
HETATM   15  C   UNL     1     -11.260  14.363  67.008  1.00  0.00    -0.336 C  
BRANCH  15  16
HETATM   16  C   UNL     1     -10.045  15.272  66.836  1.00  0.00    -0.257 C  
BRANCH  16  17
HETATM   17  C   UNL     1      -8.884  14.817  67.715  1.00  0.00    -0.175 C  
HETATM   18  C   UNL     1      -8.744  15.681  68.947  1.00  0.00    -0.215 C  
HETATM   19  O   UNL     1      -9.454  16.631  69.232  1.00  0.00    -0.231 OA 
HETATM   20  O   UNL     1      -7.716  15.285  69.733  1.00  0.00    -0.204 OA 
ENDBRANCH  16  17
ENDBRANCH  15  16
ENDBRANCH  14  15
ENDBRANCH  13  14
ENDBRANCH  12  13
ENDBRANCH  11  12
ENDBRANCH  10  11
ENDBRANCH   9  10
ENDBRANCH   8   9
ENDBRANCH   7   8
ENDBRANCH   6   7
ENDBRANCH   5   6
ENDBRANCH   4   5
ENDBRANCH   3   4
ENDBRANCH   2   3
TORSDOF 15
ENDMDL
MODEL      393
REMARK 921   NORMALIZED FREE ENERGY PREDICTED BY IDOCK:   -2.53 KCAL/MOL
REMARK 922        TOTAL FREE ENERGY PREDICTED BY IDOCK:   -6.55 KCAL/MOL
REMARK 923 INTER-LIGAND FREE ENERGY PREDICTED BY IDOCK:   -4.31 KCAL/MOL
REMARK 924 INTRA-LIGAND FREE ENERGY PREDICTED BY IDOCK:   -2.24 KCAL/MOL
REMARK 927      BINDING AFFINITY PREDICTED BY RF-SCORE:    0.00 PKD
ROOT
HETATM    1  C   UNL     1     -10.081   3.237  72.165  1.00  0.00    -0.199 C  
HETATM    2  C   UNL     1      -9.322   3.656  70.919  1.00  0.00    -0.218 C  
ENDROOT
BRANCH   2   3
HETATM    3  C   UNL     1      -9.059   2.460  70.007  1.00  0.00    -0.179 C  
BRANCH   3   4
HETATM    4  C   UNL     1      -9.458   2.770  68.567  1.00  0.00    -0.200 C  
BRANCH   4   5
HETATM    5  C   UNL     1      -8.516   3.801  67.955  1.00  0.00    -0.106 C  
BRANCH   5   6
HETATM    6  C   UNL     1      -7.064   3.348  68.071  1.00  0.00    -0.051 C  
BRANCH   6   7
HETATM    7  C   UNL     1      -6.138   4.314  67.343  1.00  0.00    -0.031 C  
BRANCH   7   8
HETATM    8  C   UNL     1      -6.649   4.596  65.935  1.00  0.00    -0.045 C  
BRANCH   8   9
HETATM    9  C   UNL     1      -6.361   6.038  65.538  1.00  0.00    -0.038 C  
BRANCH   9  10
HETATM   10  C   UNL     1      -7.260   6.999  66.307  1.00  0.00    -0.075 C  
BRANCH  10  11
HETATM   11  C   UNL     1      -8.729   6.727  65.998  1.00  0.00    -0.155 C  
BRANCH  11  12
HETATM   12  C   UNL     1      -9.630   7.527  66.929  1.00  0.00    -0.242 C  
BRANCH  12  13
HETATM   13  C   UNL     1     -10.957   6.811  67.147  1.00  0.00    -0.458 C  
BRANCH  13  14
HETATM   14  C   UNL     1     -11.054   6.283  68.574  1.00  0.00    -0.397 C  
BRANCH  14  15
HETATM   15  C   UNL     1     -10.040   6.967  69.486  1.00  0.00    -0.183 C  
BRANCH  15  16
HETATM   16  C   UNL     1     -10.547   7.005  70.925  1.00  0.00    -0.238 C  
BRANCH  16  17
HETATM   17  C   UNL     1     -12.050   6.751  70.990  1.00  0.00    -0.426 C  
HETATM   18  C   UNL     1     -12.788   7.917  71.605  1.00  0.00    -0.334 C  
HETATM   19  O   UNL     1     -12.275   8.948  72.010  1.00  0.00    -0.338 OA 
HETATM   20  O   UNL     1     -14.123   7.701  71.667  1.00  0.00    -0.401 OA 
ENDBRANCH  16  17
ENDBRANCH  15  16
ENDBRANCH  14  15
ENDBRANCH  13  14
ENDBRANCH  12  13
ENDBRANCH  11  12
ENDBRANCH  10  11
ENDBRANCH   9  10
ENDBRANCH   8   9
ENDBRANCH   7   8
ENDBRANCH   6   7
ENDBRANCH   5   6
ENDBRANCH   4   5
ENDBRANCH   3   4
ENDBRANCH   2   3
TORSDOF 15
ENDMDL
MODEL      394
REMARK 921   NORMALIZED FREE ENERGY PREDICTED BY IDOCK:   -2.53 KCAL/MOL
REMARK 922        TOTAL FREE ENERGY PREDICTED BY IDOCK:   -6.54 KCAL/MOL
REMARK 923 INTER-LIGAND FREE ENERGY PREDICTED BY IDOCK:   -4.07 KCAL/MOL
REMARK 924 INTRA-LIGAND FREE ENERGY PREDICTED BY IDOCK:   -2.47 KCAL/MOL
REMARK 927      BINDING AFFINITY PREDICTED BY RF-SCORE:    0.00 PKD
ROOT
HETATM    1  C   UNL     1      -8.767   3.287  71.894  1.00  0.00    -0.113 C  
HETATM    2  C   UNL     1      -8.461   4.690  71.401  1.00  0.00    -0.113 C  
ENDROOT
BRANCH   2   3
HETATM    3  C   UNL     1      -6.981   5.022  71.570  1.00  0.00    -0.053 C  
BRANCH   3   4
HETATM    4  C   UNL     1      -6.160   4.487  70.401  1.00  0.00    -0.021 C  
BRANCH   4   5
HETATM    5  C   UNL     1      -6.708   5.005  69.075  1.00  0.00    -0.049 C  
BRANCH   5   6
HETATM    6  C   UNL     1      -6.090   6.353  68.720  1.00  0.00    -0.029 C  
BRANCH   6   7
HETATM    7  C   UNL     1      -6.609   6.847  67.375  1.00  0.00    -0.051 C  
BRANCH   7   8
HETATM    8  C   UNL     1      -7.343   5.733  66.638  1.00  0.00    -0.082 C  
BRANCH   8   9
HETATM    9  C   UNL     1      -8.465   6.305  65.781  1.00  0.00    -0.148 C  
BRANCH   9  10
HETATM   10  C   UNL     1      -8.914   7.660  66.315  1.00  0.00    -0.203 C  
BRANCH  10  11
HETATM   11  C   UNL     1     -10.370   7.607  66.767  1.00  0.00    -0.343 C  
BRANCH  11  12
HETATM   12  C   UNL     1     -10.519   8.189  68.165  1.00  0.00    -0.225 C  
BRANCH  12  13
HETATM   13  C   UNL     1      -9.866   7.284  69.202  1.00  0.00    -0.166 C  
BRANCH  13  14
HETATM   14  C   UNL     1      -9.064   8.108  70.204  1.00  0.00    -0.147 C  
BRANCH  14  15
HETATM   15  C   UNL     1      -9.934   9.175  70.863  1.00  0.00    -0.357 C  
BRANCH  15  16
HETATM   16  C   UNL     1     -10.688   8.595  72.057  1.00  0.00    -0.427 C  
BRANCH  16  17
HETATM   17  C   UNL     1     -12.195   8.767  71.898  1.00  0.00    -0.429 C  
HETATM   18  C   UNL     1     -12.890   7.441  71.693  1.00  0.00    -0.367 C  
HETATM   19  O   UNL     1     -12.343   6.351  71.654  1.00  0.00    -0.312 OA 
HETATM   20  O   UNL     1     -14.229   7.584  71.551  1.00  0.00    -0.434 OA 
ENDBRANCH  16  17
ENDBRANCH  15  16
ENDBRANCH  14  15
ENDBRANCH  13  14
ENDBRANCH  12  13
ENDBRANCH  11  12
ENDBRANCH  10  11
ENDBRANCH   9  10
ENDBRANCH   8   9
ENDBRANCH   7   8
ENDBRANCH   6   7
ENDBRANCH   5   6
ENDBRANCH   4   5
ENDBRANCH   3   4
ENDBRANCH   2   3
TORSDOF 15
ENDMDL
MODEL      395
REMARK 921   NORMALIZED FREE ENERGY PREDICTED BY IDOCK:   -2.52 KCAL/MOL
REMARK 922        TOTAL FREE ENERGY PREDICTED BY IDOCK:   -6.52 KCAL/MOL
REMARK 923 INTER-LIGAND FREE ENERGY PREDICTED BY IDOCK:   -5.03 KCAL/MOL
REMARK 924 INTRA-LIGAND FREE ENERGY PREDICTED BY IDOCK:   -1.49 KCAL/MOL
REMARK 927      BINDING AFFINITY PREDICTED BY RF-SCORE:    0.00 PKD
ROOT
HETATM    1  C   UNL     1     -11.175  11.545  66.198  1.00  0.00    -0.265 C  
HETATM    2  C   UNL     1     -11.608  12.241  64.920  1.00  0.00    -0.395 C  
ENDROOT
BRANCH   2   3
HETATM    3  C   UNL     1     -12.443  13.482  65.225  1.00  0.00    -0.525 C  
BRANCH   3   4
HETATM    4  C   UNL     1     -12.000  14.666  64.372  1.00  0.00    -0.454 C  
BRANCH   4   5
HETATM    5  C   UNL     1     -10.641  15.185  64.830  1.00  0.00    -0.392 C  
BRANCH   5   6
HETATM    6  C   UNL     1     -10.701  15.663  66.277  1.00  0.00    -0.295 C  
BRANCH   6   7
HETATM    7  C   UNL     1      -9.330  16.129  66.749  1.00  0.00    -0.255 C  
BRANCH   7   8
HETATM    8  C   UNL     1      -8.380  14.946  66.902  1.00  0.00    -0.212 C  
BRANCH   8   9
HETATM    9  C   UNL     1      -9.053  13.813  67.666  1.00  0.00    -0.196 C  
BRANCH   9  10
HETATM   10  C   UNL     1      -8.013  12.851  68.229  1.00  0.00    -0.151 C  
BRANCH  10  11
HETATM   11  C   UNL     1      -8.671  11.555  68.690  1.00  0.00    -0.103 C  
BRANCH  11  12
HETATM   12  C   UNL     1      -7.777  10.361  68.385  1.00  0.00    -0.098 C  
BRANCH  12  13
HETATM   13  C   UNL     1      -8.553   9.277  67.647  1.00  0.00    -0.116 C  
BRANCH  13  14
HETATM   14  C   UNL     1      -8.641   8.010  68.492  1.00  0.00    -0.128 C  
BRANCH  14  15
HETATM   15  C   UNL     1      -9.991   7.911  69.197  1.00  0.00    -0.184 C  
BRANCH  15  16
HETATM   16  C   UNL     1      -9.822   7.360  70.611  1.00  0.00    -0.179 C  
BRANCH  16  17
HETATM   17  C   UNL     1      -8.757   8.133  71.384  1.00  0.00    -0.179 C  
HETATM   18  C   UNL     1      -9.064   8.180  72.862  1.00  0.00    -0.267 C  
HETATM   19  O   UNL     1     -10.033   7.673  73.403  1.00  0.00    -0.291 OA 
HETATM   20  O   UNL     1      -8.124   8.864  73.557  1.00  0.00    -0.347 OA 
ENDBRANCH  16  17
ENDBRANCH  15  16
ENDBRANCH  14  15
ENDBRANCH  13  14
ENDBRANCH  12  13
ENDBRANCH  11  12
ENDBRANCH  10  11
ENDBRANCH   9  10
ENDBRANCH   8   9
ENDBRANCH   7   8
ENDBRANCH   6   7
ENDBRANCH   5   6
ENDBRANCH   4   5
ENDBRANCH   3   4
ENDBRANCH   2   3
TORSDOF 15
ENDMDL
MODEL      396
REMARK 921   NORMALIZED FREE ENERGY PREDICTED BY IDOCK:   -2.49 KCAL/MOL
REMARK 922        TOTAL FREE ENERGY PREDICTED BY IDOCK:   -6.47 KCAL/MOL
REMARK 923 INTER-LIGAND FREE ENERGY PREDICTED BY IDOCK:   -4.97 KCAL/MOL
REMARK 924 INTRA-LIGAND FREE ENERGY PREDICTED BY IDOCK:   -1.50 KCAL/MOL
REMARK 927      BINDING AFFINITY PREDICTED BY RF-SCORE:    0.00 PKD
ROOT
HETATM    1  C   UNL     1     -10.074   8.377  69.488  1.00  0.00    -0.200 C  
HETATM    2  C   UNL     1     -10.882   7.212  70.030  1.00  0.00    -0.276 C  
ENDROOT
BRANCH   2   3
HETATM    3  C   UNL     1     -10.805   6.007  69.096  1.00  0.00    -0.422 C  
BRANCH   3   4
HETATM    4  C   UNL     1     -11.094   6.409  67.654  1.00  0.00    -0.388 C  
BRANCH   4   5
HETATM    5  C   UNL     1     -10.072   5.793  66.705  1.00  0.00    -0.235 C  
BRANCH   5   6
HETATM    6  C   UNL     1      -8.713   5.657  67.383  1.00  0.00    -0.107 C  
BRANCH   6   7
HETATM    7  C   UNL     1      -7.690   6.577  66.729  1.00  0.00    -0.099 C  
BRANCH   7   8
HETATM    8  C   UNL     1      -7.580   6.288  65.236  1.00  0.00    -0.090 C  
BRANCH   8   9
HETATM    9  C   UNL     1      -7.364   7.577  64.454  1.00  0.00    -0.088 C  
BRANCH   9  10
HETATM   10  C   UNL     1      -7.701   8.791  65.312  1.00  0.00    -0.098 C  
BRANCH  10  11
HETATM   11  C   UNL     1      -8.434   9.846  64.490  1.00  0.00    -0.181 C  
BRANCH  11  12
HETATM   12  C   UNL     1      -9.676  10.332  65.223  1.00  0.00    -0.354 C  
BRANCH  12  13
HETATM   13  C   UNL     1     -10.429  11.363  64.392  1.00  0.00    -0.388 C  
BRANCH  13  14
HETATM   14  C   UNL     1     -10.290  12.752  65.005  1.00  0.00    -0.323 C  
BRANCH  14  15
HETATM   15  C   UNL     1      -9.791  12.672  66.445  1.00  0.00    -0.263 C  
BRANCH  15  16
HETATM   16  C   UNL     1      -8.902  13.869  66.775  1.00  0.00    -0.170 C  
BRANCH  16  17
HETATM   17  C   UNL     1      -9.298  15.095  65.959  1.00  0.00    -0.326 C  
HETATM   18  C   UNL     1      -8.767  16.370  66.573  1.00  0.00    -0.289 C  
HETATM   19  O   UNL     1      -8.103  16.443  67.594  1.00  0.00    -0.152 OA 
HETATM   20  O   UNL     1      -9.114  17.464  65.856  1.00  0.00    -0.515 OA 
ENDBRANCH  16  17
ENDBRANCH  15  16
ENDBRANCH  14  15
ENDBRANCH  13  14
ENDBRANCH  12  13
ENDBRANCH  11  12
ENDBRANCH  10  11
ENDBRANCH   9  10
ENDBRANCH   8   9
ENDBRANCH   7   8
ENDBRANCH   6   7
ENDBRANCH   5   6
ENDBRANCH   4   5
ENDBRANCH   3   4
ENDBRANCH   2   3
TORSDOF 15
ENDMDL
MODEL      397
REMARK 921   NORMALIZED FREE ENERGY PREDICTED BY IDOCK:   -2.49 KCAL/MOL
REMARK 922        TOTAL FREE ENERGY PREDICTED BY IDOCK:   -6.47 KCAL/MOL
REMARK 923 INTER-LIGAND FREE ENERGY PREDICTED BY IDOCK:   -5.24 KCAL/MOL
REMARK 924 INTRA-LIGAND FREE ENERGY PREDICTED BY IDOCK:   -1.22 KCAL/MOL
REMARK 927      BINDING AFFINITY PREDICTED BY RF-SCORE:    0.00 PKD
ROOT
HETATM    1  C   UNL     1     -10.032   8.242  68.831  1.00  0.00    -0.193 C  
HETATM    2  C   UNL     1     -11.009   7.209  69.365  1.00  0.00    -0.189 C  
ENDROOT
BRANCH   2   3
HETATM    3  C   UNL     1     -10.837   5.870  68.652  1.00  0.00    -0.333 C  
BRANCH   3   4
HETATM    4  C   UNL     1     -10.902   6.042  67.138  1.00  0.00    -0.414 C  
BRANCH   4   5
HETATM    5  C   UNL     1      -9.752   5.302  66.460  1.00  0.00    -0.180 C  
BRANCH   5   6
HETATM    6  C   UNL     1      -8.434   5.574  67.177  1.00  0.00    -0.110 C  
BRANCH   6   7
HETATM    7  C   UNL     1      -7.446   6.264  66.245  1.00  0.00    -0.086 C  
BRANCH   7   8
HETATM    8  C   UNL     1      -7.294   5.484  64.945  1.00  0.00    -0.068 C  
BRANCH   8   9
HETATM    9  C   UNL     1      -7.269   6.428  63.750  1.00  0.00    -0.055 C  
BRANCH   9  10
HETATM   10  C   UNL     1      -6.845   7.828  64.180  1.00  0.00    -0.061 C  
BRANCH  10  11
HETATM   11  C   UNL     1      -7.605   8.888  63.388  1.00  0.00    -0.110 C  
BRANCH  11  12
HETATM   12  C   UNL     1      -8.903   9.257  64.092  1.00  0.00    -0.178 C  
BRANCH  12  13
HETATM   13  C   UNL     1      -9.645  10.345  63.326  1.00  0.00    -0.353 C  
BRANCH  13  14
HETATM   14  C   UNL     1     -10.606  11.089  64.248  1.00  0.00    -0.402 C  
BRANCH  14  15
HETATM   15  C   UNL     1     -10.829  12.522  63.771  1.00  0.00    -0.489 C  
BRANCH  15  16
HETATM   16  C   UNL     1     -12.152  13.067  64.303  1.00  0.00    -0.480 C  
BRANCH  16  17
HETATM   17  C   UNL     1     -12.169  13.090  65.828  1.00  0.00    -0.511 C  
HETATM   18  C   UNL     1     -11.568  14.364  66.375  1.00  0.00    -0.375 C  
HETATM   19  O   UNL     1     -11.116  15.279  65.706  1.00  0.00    -0.338 OA 
HETATM   20  O   UNL     1     -11.578  14.393  67.728  1.00  0.00    -0.319 OA 
ENDBRANCH  16  17
ENDBRANCH  15  16
ENDBRANCH  14  15
ENDBRANCH  13  14
ENDBRANCH  12  13
ENDBRANCH  11  12
ENDBRANCH  10  11
ENDBRANCH   9  10
ENDBRANCH   8   9
ENDBRANCH   7   8
ENDBRANCH   6   7
ENDBRANCH   5   6
ENDBRANCH   4   5
ENDBRANCH   3   4
ENDBRANCH   2   3
TORSDOF 15
ENDMDL
MODEL      398
REMARK 921   NORMALIZED FREE ENERGY PREDICTED BY IDOCK:   -2.48 KCAL/MOL
REMARK 922        TOTAL FREE ENERGY PREDICTED BY IDOCK:   -6.46 KCAL/MOL
REMARK 923 INTER-LIGAND FREE ENERGY PREDICTED BY IDOCK:   -5.29 KCAL/MOL
REMARK 924 INTRA-LIGAND FREE ENERGY PREDICTED BY IDOCK:   -1.17 KCAL/MOL
REMARK 927      BINDING AFFINITY PREDICTED BY RF-SCORE:    0.00 PKD
ROOT
HETATM    1  C   UNL     1      -7.721  16.313  67.687  1.00  0.00    -0.161 C  
HETATM    2  C   UNL     1      -8.526  15.188  67.061  1.00  0.00    -0.259 C  
ENDROOT
BRANCH   2   3
HETATM    3  C   UNL     1      -9.505  15.725  66.020  1.00  0.00    -0.392 C  
BRANCH   3   4
HETATM    4  C   UNL     1     -10.947  15.421  66.413  1.00  0.00    -0.277 C  
BRANCH   4   5
HETATM    5  C   UNL     1     -10.999  14.677  67.744  1.00  0.00    -0.291 C  
BRANCH   5   6
HETATM    6  C   UNL     1     -11.716  13.340  67.592  1.00  0.00    -0.408 C  
BRANCH   6   7
HETATM    7  C   UNL     1     -10.748  12.183  67.806  1.00  0.00    -0.241 C  
BRANCH   7   8
HETATM    8  C   UNL     1     -11.494  10.855  67.851  1.00  0.00    -0.344 C  
BRANCH   8   9
HETATM    9  C   UNL     1     -10.963   9.978  68.977  1.00  0.00    -0.249 C  
BRANCH   9  10
HETATM   10  C   UNL     1     -11.483  10.460  70.327  1.00  0.00    -0.406 C  
BRANCH  10  11
HETATM   11  C   UNL     1     -10.933   9.596  71.457  1.00  0.00    -0.266 C  
BRANCH  11  12
HETATM   12  C   UNL     1     -11.582   8.219  71.444  1.00  0.00    -0.322 C  
BRANCH  12  13
HETATM   13  C   UNL     1     -11.428   7.533  72.796  1.00  0.00    -0.352 C  
BRANCH  13  14
HETATM   14  C   UNL     1     -10.933   6.102  72.618  1.00  0.00    -0.291 C  
BRANCH  14  15
HETATM   15  C   UNL     1     -10.953   5.690  71.149  1.00  0.00    -0.248 C  
BRANCH  15  16
HETATM   16  C   UNL     1      -9.615   5.076  70.743  1.00  0.00    -0.244 C  
BRANCH  16  17
HETATM   17  C   UNL     1      -9.367   5.229  69.245  1.00  0.00    -0.167 C  
HETATM   18  C   UNL     1      -8.595   6.490  68.934  1.00  0.00    -0.125 C  
HETATM   19  O   UNL     1      -8.205   7.305  69.754  1.00  0.00    -0.126 OA 
HETATM   20  O   UNL     1      -8.370   6.635  67.606  1.00  0.00    -0.121 OA 
ENDBRANCH  16  17
ENDBRANCH  15  16
ENDBRANCH  14  15
ENDBRANCH  13  14
ENDBRANCH  12  13
ENDBRANCH  11  12
ENDBRANCH  10  11
ENDBRANCH   9  10
ENDBRANCH   8   9
ENDBRANCH   7   8
ENDBRANCH   6   7
ENDBRANCH   5   6
ENDBRANCH   4   5
ENDBRANCH   3   4
ENDBRANCH   2   3
TORSDOF 15
ENDMDL
MODEL      399
REMARK 921   NORMALIZED FREE ENERGY PREDICTED BY IDOCK:   -2.48 KCAL/MOL
REMARK 922        TOTAL FREE ENERGY PREDICTED BY IDOCK:   -6.46 KCAL/MOL
REMARK 923 INTER-LIGAND FREE ENERGY PREDICTED BY IDOCK:   -5.31 KCAL/MOL
REMARK 924 INTRA-LIGAND FREE ENERGY PREDICTED BY IDOCK:   -1.15 KCAL/MOL
REMARK 927      BINDING AFFINITY PREDICTED BY RF-SCORE:    0.00 PKD
ROOT
HETATM    1  C   UNL     1      -9.950   3.495  72.903  1.00  0.00    -0.212 C  
HETATM    2  C   UNL     1      -9.817   2.650  71.649  1.00  0.00    -0.213 C  
ENDROOT
BRANCH   2   3
HETATM    3  C   UNL     1      -9.635   3.526  70.411  1.00  0.00    -0.241 C  
BRANCH   3   4
HETATM    4  C   UNL     1      -9.489   4.995  70.795  1.00  0.00    -0.230 C  
BRANCH   4   5
HETATM    5  C   UNL     1     -10.699   5.798  70.328  1.00  0.00    -0.380 C  
BRANCH   5   6
HETATM    6  C   UNL     1     -10.814   7.106  71.104  1.00  0.00    -0.261 C  
BRANCH   6   7
HETATM    7  C   UNL     1     -11.029   8.278  70.155  1.00  0.00    -0.222 C  
BRANCH   7   8
HETATM    8  C   UNL     1      -9.704   8.747  69.566  1.00  0.00    -0.172 C  
BRANCH   8   9
HETATM    9  C   UNL     1      -9.609   8.375  68.092  1.00  0.00    -0.158 C  
BRANCH   9  10
HETATM   10  C   UNL     1      -9.639   9.624  67.218  1.00  0.00    -0.203 C  
BRANCH  10  11
HETATM   11  C   UNL     1     -10.048  10.845  68.035  1.00  0.00    -0.197 C  
BRANCH  11  12
HETATM   12  C   UNL     1     -11.452  11.296  67.660  1.00  0.00    -0.341 C  
BRANCH  12  13
HETATM   13  C   UNL     1     -11.417  12.244  66.468  1.00  0.00    -0.438 C  
BRANCH  13  14
HETATM   14  C   UNL     1     -12.281  13.473  66.733  1.00  0.00    -0.392 C  
BRANCH  14  15
HETATM   15  C   UNL     1     -12.024  14.037  68.128  1.00  0.00    -0.382 C  
BRANCH  15  16
HETATM   16  C   UNL     1     -11.172  15.301  68.050  1.00  0.00    -0.330 C  
BRANCH  16  17
HETATM   17  C   UNL     1      -9.684  14.971  68.108  1.00  0.00    -0.215 C  
HETATM   18  C   UNL     1      -8.999  15.242  66.789  1.00  0.00    -0.262 C  
HETATM   19  O   UNL     1      -9.541  15.671  65.783  1.00  0.00    -0.332 OA 
HETATM   20  O   UNL     1      -7.678  14.952  66.830  1.00  0.00    -0.122 OA 
ENDBRANCH  16  17
ENDBRANCH  15  16
ENDBRANCH  14  15
ENDBRANCH  13  14
ENDBRANCH  12  13
ENDBRANCH  11  12
ENDBRANCH  10  11
ENDBRANCH   9  10
ENDBRANCH   8   9
ENDBRANCH   7   8
ENDBRANCH   6   7
ENDBRANCH   5   6
ENDBRANCH   4   5
ENDBRANCH   3   4
ENDBRANCH   2   3
TORSDOF 15
ENDMDL
MODEL      400
REMARK 921   NORMALIZED FREE ENERGY PREDICTED BY IDOCK:   -2.48 KCAL/MOL
REMARK 922        TOTAL FREE ENERGY PREDICTED BY IDOCK:   -6.46 KCAL/MOL
REMARK 923 INTER-LIGAND FREE ENERGY PREDICTED BY IDOCK:   -4.18 KCAL/MOL
REMARK 924 INTRA-LIGAND FREE ENERGY PREDICTED BY IDOCK:   -2.27 KCAL/MOL
REMARK 927      BINDING AFFINITY PREDICTED BY RF-SCORE:    0.00 PKD
ROOT
HETATM    1  C   UNL     1      -6.634   9.279  62.688  1.00  0.00    -0.093 C  
HETATM    2  C   UNL     1      -8.025   8.987  63.222  1.00  0.00    -0.148 C  
ENDROOT
BRANCH   2   3
HETATM    3  C   UNL     1      -8.008   7.803  64.186  1.00  0.00    -0.113 C  
BRANCH   3   4
HETATM    4  C   UNL     1      -7.519   8.227  65.567  1.00  0.00    -0.077 C  
BRANCH   4   5
HETATM    5  C   UNL     1      -8.485   7.756  66.650  1.00  0.00    -0.129 C  
BRANCH   5   6
HETATM    6  C   UNL     1      -9.920   8.141  66.304  1.00  0.00    -0.148 C  
BRANCH   6   7
HETATM    7  C   UNL     1     -10.875   7.705  67.407  1.00  0.00    -0.240 C  
BRANCH   7   8
HETATM    8  C   UNL     1     -10.706   6.222  67.714  1.00  0.00    -0.383 C  
BRANCH   8   9
HETATM    9  C   UNL     1     -10.795   5.971  69.214  1.00  0.00    -0.428 C  
BRANCH   9  10
HETATM   10  C   UNL     1      -9.487   5.394  69.743  1.00  0.00    -0.202 C  
BRANCH  10  11
HETATM   11  C   UNL     1      -8.662   6.475  70.434  1.00  0.00    -0.147 C  
BRANCH  11  12
HETATM   12  C   UNL     1      -9.547   7.638  70.858  1.00  0.00    -0.167 C  
BRANCH  12  13
HETATM   13  C   UNL     1      -8.770   8.948  70.836  1.00  0.00    -0.256 C  
BRANCH  13  14
HETATM   14  C   UNL     1      -9.136   9.769  69.604  1.00  0.00    -0.235 C  
BRANCH  14  15
HETATM   15  C   UNL     1      -8.039  10.774  69.265  1.00  0.00    -0.102 C  
BRANCH  15  16
HETATM   16  C   UNL     1      -8.492  11.710  68.147  1.00  0.00    -0.156 C  
BRANCH  16  17
HETATM   17  C   UNL     1      -9.936  11.432  67.742  1.00  0.00    -0.192 C  
HETATM   18  C   UNL     1     -10.754  12.701  67.685  1.00  0.00    -0.218 C  
HETATM   19  O   UNL     1     -10.341  13.823  67.928  1.00  0.00    -0.236 OA 
HETATM   20  O   UNL     1     -12.038  12.464  67.326  1.00  0.00    -0.516 OA 
ENDBRANCH  16  17
ENDBRANCH  15  16
ENDBRANCH  14  15
ENDBRANCH  13  14
ENDBRANCH  12  13
ENDBRANCH  11  12
ENDBRANCH  10  11
ENDBRANCH   9  10
ENDBRANCH   8   9
ENDBRANCH   7   8
ENDBRANCH   6   7
ENDBRANCH   5   6
ENDBRANCH   4   5
ENDBRANCH   3   4
ENDBRANCH   2   3
TORSDOF 15
ENDMDL
MODEL      401
REMARK 921   NORMALIZED FREE ENERGY PREDICTED BY IDOCK:   -2.48 KCAL/MOL
REMARK 922        TOTAL FREE ENERGY PREDICTED BY IDOCK:   -6.45 KCAL/MOL
REMARK 923 INTER-LIGAND FREE ENERGY PREDICTED BY IDOCK:   -5.66 KCAL/MOL
REMARK 924 INTRA-LIGAND FREE ENERGY PREDICTED BY IDOCK:   -0.79 KCAL/MOL
REMARK 927      BINDING AFFINITY PREDICTED BY RF-SCORE:    0.00 PKD
ROOT
HETATM    1  C   UNL     1      -6.589   2.421  65.680  1.00  0.00    -0.031 C  
HETATM    2  C   UNL     1      -7.970   3.050  65.694  1.00  0.00    -0.086 C  
ENDROOT
BRANCH   2   3
HETATM    3  C   UNL     1      -8.591   2.984  67.087  1.00  0.00    -0.118 C  
BRANCH   3   4
HETATM    4  C   UNL     1      -7.836   3.874  68.068  1.00  0.00    -0.073 C  
BRANCH   4   5
HETATM    5  C   UNL     1      -8.468   3.808  69.455  1.00  0.00    -0.095 C  
BRANCH   5   6
HETATM    6  C   UNL     1      -9.527   4.893  69.622  1.00  0.00    -0.216 C  
BRANCH   6   7
HETATM    7  C   UNL     1      -8.899   6.278  69.533  1.00  0.00    -0.135 C  
BRANCH   7   8
HETATM    8  C   UNL     1      -9.560   7.235  70.517  1.00  0.00    -0.168 C  
BRANCH   8   9
HETATM    9  C   UNL     1     -11.063   6.997  70.572  1.00  0.00    -0.316 C  
BRANCH   9  10
HETATM   10  C   UNL     1     -11.629   7.432  71.918  1.00  0.00    -0.307 C  
BRANCH  10  11
HETATM   11  C   UNL     1     -11.505   8.943  72.093  1.00  0.00    -0.387 C  
BRANCH  11  12
HETATM   12  C   UNL     1     -12.206   9.674  70.957  1.00  0.00    -0.409 C  
BRANCH  12  13
HETATM   13  C   UNL     1     -11.196  10.368  70.053  1.00  0.00    -0.385 C  
BRANCH  13  14
HETATM   14  C   UNL     1     -11.907  11.167  68.966  1.00  0.00    -0.418 C  
BRANCH  14  15
HETATM   15  C   UNL     1     -11.357  12.588  68.877  1.00  0.00    -0.346 C  
BRANCH  15  16
HETATM   16  C   UNL     1     -10.669  12.816  67.533  1.00  0.00    -0.247 C  
BRANCH  16  17
HETATM   17  C   UNL     1     -11.552  12.363  66.374  1.00  0.00    -0.442 C  
HETATM   18  C   UNL     1     -12.206  13.534  65.679  1.00  0.00    -0.458 C  
HETATM   19  O   UNL     1     -12.066  14.708  65.982  1.00  0.00    -0.317 OA 
HETATM   20  O   UNL     1     -12.993  13.141  64.649  1.00  0.00    -0.708 OA 
ENDBRANCH  16  17
ENDBRANCH  15  16
ENDBRANCH  14  15
ENDBRANCH  13  14
ENDBRANCH  12  13
ENDBRANCH  11  12
ENDBRANCH  10  11
ENDBRANCH   9  10
ENDBRANCH   8   9
ENDBRANCH   7   8
ENDBRANCH   6   7
ENDBRANCH   5   6
ENDBRANCH   4   5
ENDBRANCH   3   4
ENDBRANCH   2   3
TORSDOF 15
ENDMDL
MODEL      402
REMARK 921   NORMALIZED FREE ENERGY PREDICTED BY IDOCK:   -2.47 KCAL/MOL
REMARK 922        TOTAL FREE ENERGY PREDICTED BY IDOCK:   -6.44 KCAL/MOL
REMARK 923 INTER-LIGAND FREE ENERGY PREDICTED BY IDOCK:   -5.43 KCAL/MOL
REMARK 924 INTRA-LIGAND FREE ENERGY PREDICTED BY IDOCK:   -1.01 KCAL/MOL
REMARK 927      BINDING AFFINITY PREDICTED BY RF-SCORE:    0.00 PKD
ROOT
HETATM    1  C   UNL     1      -8.786   9.224  64.405  1.00  0.00    -0.211 C  
HETATM    2  C   UNL     1      -8.850  10.689  64.798  1.00  0.00    -0.196 C  
ENDROOT
BRANCH   2   3
HETATM    3  C   UNL     1     -10.295  11.172  64.886  1.00  0.00    -0.375 C  
BRANCH   3   4
HETATM    4  C   UNL     1     -10.847  11.508  63.505  1.00  0.00    -0.473 C  
BRANCH   4   5
HETATM    5  C   UNL     1     -12.063  12.423  63.616  1.00  0.00    -0.648 C  
BRANCH   5   6
HETATM    6  C   UNL     1     -12.588  12.458  65.047  1.00  0.00    -0.305 C  
BRANCH   6   7
HETATM    7  C   UNL     1     -12.560  13.879  65.596  1.00  0.00    -0.553 C  
BRANCH   7   8
HETATM    8  C   UNL     1     -11.546  14.001  66.727  1.00  0.00    -0.406 C  
BRANCH   8   9
HETATM    9  C   UNL     1     -10.762  15.301  66.608  1.00  0.00    -0.309 C  
BRANCH   9  10
HETATM   10  C   UNL     1     -11.369  16.201  65.537  1.00  0.00     0.196 C  
BRANCH  10  11
HETATM   11  C   UNL     1     -10.471  17.404  65.270  1.00  0.00     0.124 C  
BRANCH  11  12
HETATM   12  C   UNL     1     -11.147  18.690  65.725  1.00  0.00     0.376 C  
BRANCH  12  13
HETATM   13  C   UNL     1     -10.412  19.301  66.911  1.00  0.00    -0.547 C  
BRANCH  13  14
HETATM   14  C   UNL     1      -9.064  19.866  66.474  1.00  0.00    -0.464 C  
BRANCH  14  15
HETATM   15  C   UNL     1      -7.911  19.094  67.109  1.00  0.00    -0.269 C  
BRANCH  15  16
HETATM   16  C   UNL     1      -8.264  18.670  68.533  1.00  0.00    -0.370 C  
BRANCH  16  17
HETATM   17  C   UNL     1      -8.068  17.170  68.729  1.00  0.00    -0.252 C  
HETATM   18  C   UNL     1      -9.349  16.490  69.151  1.00  0.00    -0.207 C  
HETATM   19  O   UNL     1     -10.423  17.043  69.322  1.00  0.00    -0.323 OA 
HETATM   20  O   UNL     1      -9.185  15.157  69.328  1.00  0.00    -0.220 OA 
ENDBRANCH  16  17
ENDBRANCH  15  16
ENDBRANCH  14  15
ENDBRANCH  13  14
ENDBRANCH  12  13
ENDBRANCH  11  12
ENDBRANCH  10  11
ENDBRANCH   9  10
ENDBRANCH   8   9
ENDBRANCH   7   8
ENDBRANCH   6   7
ENDBRANCH   5   6
ENDBRANCH   4   5
ENDBRANCH   3   4
ENDBRANCH   2   3
TORSDOF 15
ENDMDL
MODEL      403
REMARK 921   NORMALIZED FREE ENERGY PREDICTED BY IDOCK:   -2.47 KCAL/MOL
REMARK 922        TOTAL FREE ENERGY PREDICTED BY IDOCK:   -6.43 KCAL/MOL
REMARK 923 INTER-LIGAND FREE ENERGY PREDICTED BY IDOCK:   -4.92 KCAL/MOL
REMARK 924 INTRA-LIGAND FREE ENERGY PREDICTED BY IDOCK:   -1.51 KCAL/MOL
REMARK 927      BINDING AFFINITY PREDICTED BY RF-SCORE:    0.00 PKD
ROOT
HETATM    1  C   UNL     1     -10.701  13.535  66.006  1.00  0.00    -0.280 C  
HETATM    2  C   UNL     1     -11.603  12.327  66.182  1.00  0.00    -0.450 C  
ENDROOT
BRANCH   2   3
HETATM    3  C   UNL     1     -10.928  11.256  67.036  1.00  0.00    -0.352 C  
BRANCH   3   4
HETATM    4  C   UNL     1      -9.576  10.859  66.452  1.00  0.00    -0.229 C  
BRANCH   4   5
HETATM    5  C   UNL     1      -9.755   9.935  65.252  1.00  0.00    -0.383 C  
BRANCH   5   6
HETATM    6  C   UNL     1      -8.677   8.856  65.231  1.00  0.00    -0.220 C  
BRANCH   6   7
HETATM    7  C   UNL     1      -7.894   8.852  66.537  1.00  0.00    -0.100 C  
BRANCH   7   8
HETATM    8  C   UNL     1      -7.759   7.435  67.082  1.00  0.00    -0.115 C  
BRANCH   8   9
HETATM    9  C   UNL     1      -8.939   6.577  66.646  1.00  0.00    -0.144 C  
BRANCH   9  10
HETATM   10  C   UNL     1      -8.573   5.098  66.682  1.00  0.00    -0.110 C  
BRANCH  10  11
HETATM   11  C   UNL     1      -9.700   4.278  67.301  1.00  0.00    -0.216 C  
BRANCH  11  12
HETATM   12  C   UNL     1      -9.173   3.414  68.438  1.00  0.00    -0.230 C  
BRANCH  12  13
HETATM   13  C   UNL     1      -8.880   4.259  69.671  1.00  0.00    -0.134 C  
BRANCH  13  14
HETATM   14  C   UNL     1     -10.172   4.803  70.269  1.00  0.00    -0.262 C  
BRANCH  14  15
HETATM   15  C   UNL     1      -9.929   6.116  71.007  1.00  0.00    -0.221 C  
BRANCH  15  16
HETATM   16  C   UNL     1     -10.841   7.215  70.468  1.00  0.00    -0.269 C  
BRANCH  16  17
HETATM   17  C   UNL     1     -11.149   8.256  71.541  1.00  0.00    -0.315 C  
HETATM   18  C   UNL     1     -12.637   8.432  71.737  1.00  0.00    -0.342 C  
HETATM   19  O   UNL     1     -13.509   7.833  71.129  1.00  0.00    -0.210 OA 
HETATM   20  O   UNL     1     -12.920   9.354  72.688  1.00  0.00    -0.333 OA 
ENDBRANCH  16  17
ENDBRANCH  15  16
ENDBRANCH  14  15
ENDBRANCH  13  14
ENDBRANCH  12  13
ENDBRANCH  11  12
ENDBRANCH  10  11
ENDBRANCH   9  10
ENDBRANCH   8   9
ENDBRANCH   7   8
ENDBRANCH   6   7
ENDBRANCH   5   6
ENDBRANCH   4   5
ENDBRANCH   3   4
ENDBRANCH   2   3
TORSDOF 15
ENDMDL
MODEL      404
REMARK 921   NORMALIZED FREE ENERGY PREDICTED BY IDOCK:   -2.46 KCAL/MOL
REMARK 922        TOTAL FREE ENERGY PREDICTED BY IDOCK:   -6.42 KCAL/MOL
REMARK 923 INTER-LIGAND FREE ENERGY PREDICTED BY IDOCK:   -5.36 KCAL/MOL
REMARK 924 INTRA-LIGAND FREE ENERGY PREDICTED BY IDOCK:   -1.06 KCAL/MOL
REMARK 927      BINDING AFFINITY PREDICTED BY RF-SCORE:    0.00 PKD
ROOT
HETATM    1  C   UNL     1     -10.572  19.155  66.602  1.00  0.00    -0.520 C  
HETATM    2  C   UNL     1      -9.444  18.371  67.249  1.00  0.00    -0.279 C  
ENDROOT
BRANCH   2   3
HETATM    3  C   UNL     1      -9.870  16.934  67.539  1.00  0.00    -0.260 C  
BRANCH   3   4
HETATM    4  C   UNL     1     -10.498  16.288  66.309  1.00  0.00    -0.314 C  
BRANCH   4   5
HETATM    5  C   UNL     1      -9.560  15.247  65.706  1.00  0.00    -0.359 C  
BRANCH   5   6
HETATM    6  C   UNL     1     -10.345  14.182  64.947  1.00  0.00    -0.435 C  
BRANCH   6   7
HETATM    7  C   UNL     1     -11.271  13.423  65.888  1.00  0.00    -0.314 C  
BRANCH   7   8
HETATM    8  C   UNL     1     -10.469  12.603  66.892  1.00  0.00    -0.246 C  
BRANCH   8   9
HETATM    9  C   UNL     1      -9.529  11.644  66.173  1.00  0.00    -0.240 C  
BRANCH   9  10
HETATM   10  C   UNL     1     -10.291  10.429  65.656  1.00  0.00    -0.260 C  
BRANCH  10  11
HETATM   11  C   UNL     1     -10.114   9.241  66.596  1.00  0.00    -0.341 C  
BRANCH  11  12
HETATM   12  C   UNL     1      -8.679   8.737  66.561  1.00  0.00    -0.137 C  
BRANCH  12  13
HETATM   13  C   UNL     1      -8.587   7.410  65.818  1.00  0.00    -0.150 C  
BRANCH  13  14
HETATM   14  C   UNL     1      -8.047   6.318  66.736  1.00  0.00    -0.109 C  
BRANCH  14  15
HETATM   15  C   UNL     1      -8.562   4.943  66.318  1.00  0.00    -0.115 C  
BRANCH  15  16
HETATM   16  C   UNL     1      -9.791   4.556  67.137  1.00  0.00    -0.225 C  
BRANCH  16  17
HETATM   17  C   UNL     1      -9.508   4.640  68.634  1.00  0.00    -0.213 C  
HETATM   18  C   UNL     1     -10.449   5.598  69.327  1.00  0.00    -0.286 C  
HETATM   19  O   UNL     1     -11.334   6.240  68.785  1.00  0.00    -0.356 OA 
HETATM   20  O   UNL     1     -10.206   5.680  70.657  1.00  0.00    -0.200 OA 
ENDBRANCH  16  17
ENDBRANCH  15  16
ENDBRANCH  14  15
ENDBRANCH  13  14
ENDBRANCH  12  13
ENDBRANCH  11  12
ENDBRANCH  10  11
ENDBRANCH   9  10
ENDBRANCH   8   9
ENDBRANCH   7   8
ENDBRANCH   6   7
ENDBRANCH   5   6
ENDBRANCH   4   5
ENDBRANCH   3   4
ENDBRANCH   2   3
TORSDOF 15
ENDMDL
MODEL      405
REMARK 921   NORMALIZED FREE ENERGY PREDICTED BY IDOCK:   -2.46 KCAL/MOL
REMARK 922        TOTAL FREE ENERGY PREDICTED BY IDOCK:   -6.41 KCAL/MOL
REMARK 923 INTER-LIGAND FREE ENERGY PREDICTED BY IDOCK:   -3.79 KCAL/MOL
REMARK 924 INTRA-LIGAND FREE ENERGY PREDICTED BY IDOCK:   -2.62 KCAL/MOL
REMARK 927      BINDING AFFINITY PREDICTED BY RF-SCORE:    0.00 PKD
ROOT
HETATM    1  C   UNL     1      -9.596   8.470  72.317  1.00  0.00    -0.377 C  
HETATM    2  C   UNL     1      -8.461   7.483  72.115  1.00  0.00    -0.130 C  
ENDROOT
BRANCH   2   3
HETATM    3  C   UNL     1      -8.994   6.068  71.898  1.00  0.00    -0.138 C  
BRANCH   3   4
HETATM    4  C   UNL     1      -8.937   5.680  70.424  1.00  0.00    -0.153 C  
BRANCH   4   5
HETATM    5  C   UNL     1     -10.259   5.064  69.976  1.00  0.00    -0.339 C  
BRANCH   5   6
HETATM    6  C   UNL     1     -11.176   6.124  69.374  1.00  0.00    -0.466 C  
BRANCH   6   7
HETATM    7  C   UNL     1     -10.399   7.037  68.434  1.00  0.00    -0.216 C  
BRANCH   7   8
HETATM    8  C   UNL     1     -10.840   6.828  66.990  1.00  0.00    -0.453 C  
BRANCH   8   9
HETATM    9  C   UNL     1     -10.684   5.367  66.587  1.00  0.00    -0.309 C  
BRANCH   9  10
HETATM   10  C   UNL     1      -9.401   5.163  65.789  1.00  0.00    -0.163 C  
BRANCH  10  11
HETATM   11  C   UNL     1      -8.322   4.522  66.656  1.00  0.00    -0.106 C  
BRANCH  11  12
HETATM   12  C   UNL     1      -6.995   5.247  66.485  1.00  0.00    -0.064 C  
BRANCH  12  13
HETATM   13  C   UNL     1      -6.985   6.553  67.269  1.00  0.00    -0.075 C  
BRANCH  13  14
HETATM   14  C   UNL     1      -5.860   6.552  68.300  1.00  0.00    -0.020 C  
BRANCH  14  15
HETATM   15  C   UNL     1      -5.961   7.761  69.226  1.00  0.00    -0.034 C  
BRANCH  15  16
HETATM   16  C   UNL     1      -7.147   8.641  68.838  1.00  0.00    -0.066 C  
BRANCH  16  17
HETATM   17  C   UNL     1      -6.718  10.091  68.638  1.00  0.00    -0.053 C  
HETATM   18  C   UNL     1      -6.566  10.816  69.956  1.00  0.00    -0.159 C  
HETATM   19  O   UNL     1      -6.756  10.330  71.059  1.00  0.00    -0.339 OA 
HETATM   20  O   UNL     1      -6.186  12.104  69.789  1.00  0.00    -0.129 OA 
ENDBRANCH  16  17
ENDBRANCH  15  16
ENDBRANCH  14  15
ENDBRANCH  13  14
ENDBRANCH  12  13
ENDBRANCH  11  12
ENDBRANCH  10  11
ENDBRANCH   9  10
ENDBRANCH   8   9
ENDBRANCH   7   8
ENDBRANCH   6   7
ENDBRANCH   5   6
ENDBRANCH   4   5
ENDBRANCH   3   4
ENDBRANCH   2   3
TORSDOF 15
ENDMDL
MODEL      406
REMARK 921   NORMALIZED FREE ENERGY PREDICTED BY IDOCK:   -2.45 KCAL/MOL
REMARK 922        TOTAL FREE ENERGY PREDICTED BY IDOCK:   -6.39 KCAL/MOL
REMARK 923 INTER-LIGAND FREE ENERGY PREDICTED BY IDOCK:   -4.99 KCAL/MOL
REMARK 924 INTRA-LIGAND FREE ENERGY PREDICTED BY IDOCK:   -1.40 KCAL/MOL
REMARK 927      BINDING AFFINITY PREDICTED BY RF-SCORE:    0.00 PKD
ROOT
HETATM    1  C   UNL     1      -7.729   8.030  69.803  1.00  0.00    -0.101 C  
HETATM    2  C   UNL     1      -8.640   6.931  70.319  1.00  0.00    -0.140 C  
ENDROOT
BRANCH   2   3
HETATM    3  C   UNL     1      -8.324   5.595  69.650  1.00  0.00    -0.107 C  
BRANCH   3   4
HETATM    4  C   UNL     1      -7.771   5.802  68.244  1.00  0.00    -0.093 C  
BRANCH   4   5
HETATM    5  C   UNL     1      -8.731   5.243  67.198  1.00  0.00    -0.107 C  
BRANCH   5   6
HETATM    6  C   UNL     1      -9.244   6.351  66.284  1.00  0.00    -0.162 C  
BRANCH   6   7
HETATM    7  C   UNL     1     -10.365   7.130  66.960  1.00  0.00    -0.368 C  
BRANCH   7   8
HETATM    8  C   UNL     1     -10.193   8.628  66.737  1.00  0.00    -0.361 C  
BRANCH   8   9
HETATM    9  C   UNL     1     -10.764   9.415  67.910  1.00  0.00    -0.269 C  
BRANCH   9  10
HETATM   10  C   UNL     1     -11.151  10.823  67.476  1.00  0.00    -0.374 C  
BRANCH  10  11
HETATM   11  C   UNL     1      -9.913  11.702  67.326  1.00  0.00    -0.210 C  
BRANCH  11  12
HETATM   12  C   UNL     1     -10.114  12.728  66.221  1.00  0.00    -0.267 C  
BRANCH  12  13
HETATM   13  C   UNL     1     -10.935  13.910  66.720  1.00  0.00    -0.301 C  
BRANCH  13  14
HETATM   14  C   UNL     1     -10.234  14.595  67.888  1.00  0.00    -0.226 C  
BRANCH  14  15
HETATM   15  C   UNL     1     -10.437  16.107  67.843  1.00  0.00    -0.290 C  
BRANCH  15  16
HETATM   16  C   UNL     1      -9.675  16.719  66.669  1.00  0.00    -0.281 C  
BRANCH  16  17
HETATM   17  C   UNL     1     -10.288  18.049  66.244  1.00  0.00    -0.384 C  
HETATM   18  C   UNL     1      -9.328  19.198  66.448  1.00  0.00    -0.348 C  
HETATM   19  O   UNL     1      -8.197  19.106  66.897  1.00  0.00    -0.257 OA 
HETATM   20  O   UNL     1      -9.864  20.383  66.073  1.00  0.00    -0.342 OA 
ENDBRANCH  16  17
ENDBRANCH  15  16
ENDBRANCH  14  15
ENDBRANCH  13  14
ENDBRANCH  12  13
ENDBRANCH  11  12
ENDBRANCH  10  11
ENDBRANCH   9  10
ENDBRANCH   8   9
ENDBRANCH   7   8
ENDBRANCH   6   7
ENDBRANCH   5   6
ENDBRANCH   4   5
ENDBRANCH   3   4
ENDBRANCH   2   3
TORSDOF 15
ENDMDL
MODEL      407
REMARK 921   NORMALIZED FREE ENERGY PREDICTED BY IDOCK:   -2.44 KCAL/MOL
REMARK 922        TOTAL FREE ENERGY PREDICTED BY IDOCK:   -6.39 KCAL/MOL
REMARK 923 INTER-LIGAND FREE ENERGY PREDICTED BY IDOCK:   -5.42 KCAL/MOL
REMARK 924 INTRA-LIGAND FREE ENERGY PREDICTED BY IDOCK:   -0.97 KCAL/MOL
REMARK 927      BINDING AFFINITY PREDICTED BY RF-SCORE:    0.00 PKD
ROOT
HETATM    1  C   UNL     1      -7.368   1.882  65.987  1.00  0.00    -0.061 C  
HETATM    2  C   UNL     1      -8.669   2.571  66.359  1.00  0.00    -0.125 C  
ENDROOT
BRANCH   2   3
HETATM    3  C   UNL     1      -9.288   1.942  67.605  1.00  0.00    -0.149 C  
BRANCH   3   4
HETATM    4  C   UNL     1      -8.286   1.897  68.754  1.00  0.00    -0.078 C  
BRANCH   4   5
HETATM    5  C   UNL     1      -8.990   1.602  70.074  1.00  0.00    -0.127 C  
BRANCH   5   6
HETATM    6  C   UNL     1      -9.528   2.884  70.702  1.00  0.00    -0.218 C  
BRANCH   6   7
HETATM    7  C   UNL     1      -8.518   4.016  70.563  1.00  0.00    -0.097 C  
BRANCH   7   8
HETATM    8  C   UNL     1      -8.812   5.129  71.562  1.00  0.00    -0.145 C  
BRANCH   8   9
HETATM    9  C   UNL     1     -10.221   5.671  71.363  1.00  0.00    -0.270 C  
BRANCH   9  10
HETATM   10  C   UNL     1     -10.921   5.860  72.704  1.00  0.00    -0.305 C  
BRANCH  10  11
HETATM   11  C   UNL     1     -10.739   7.287  73.211  1.00  0.00    -0.428 C  
BRANCH  11  12
HETATM   12  C   UNL     1     -11.527   8.267  72.353  1.00  0.00    -0.463 C  
BRANCH  12  13
HETATM   13  C   UNL     1     -10.596   9.257  71.664  1.00  0.00    -0.360 C  
BRANCH  13  14
HETATM   14  C   UNL     1     -11.101   9.584  70.263  1.00  0.00    -0.317 C  
BRANCH  14  15
HETATM   15  C   UNL     1     -12.102  10.736  70.293  1.00  0.00    -0.433 C  
BRANCH  15  16
HETATM   16  C   UNL     1     -11.999  11.573  69.021  1.00  0.00    -0.377 C  
BRANCH  16  17
HETATM   17  C   UNL     1     -11.023  10.952  68.026  1.00  0.00    -0.317 C  
HETATM   18  C   UNL     1     -11.227  11.495  66.631  1.00  0.00    -0.271 C  
HETATM   19  O   UNL     1     -12.060  12.326  66.307  1.00  0.00    -0.626 OA 
HETATM   20  O   UNL     1     -10.365  10.949  65.740  1.00  0.00    -0.247 OA 
ENDBRANCH  16  17
ENDBRANCH  15  16
ENDBRANCH  14  15
ENDBRANCH  13  14
ENDBRANCH  12  13
ENDBRANCH  11  12
ENDBRANCH  10  11
ENDBRANCH   9  10
ENDBRANCH   8   9
ENDBRANCH   7   8
ENDBRANCH   6   7
ENDBRANCH   5   6
ENDBRANCH   4   5
ENDBRANCH   3   4
ENDBRANCH   2   3
TORSDOF 15
ENDMDL
MODEL      408
REMARK 921   NORMALIZED FREE ENERGY PREDICTED BY IDOCK:   -2.43 KCAL/MOL
REMARK 922        TOTAL FREE ENERGY PREDICTED BY IDOCK:   -6.35 KCAL/MOL
REMARK 923 INTER-LIGAND FREE ENERGY PREDICTED BY IDOCK:   -4.99 KCAL/MOL
REMARK 924 INTRA-LIGAND FREE ENERGY PREDICTED BY IDOCK:   -1.36 KCAL/MOL
REMARK 927      BINDING AFFINITY PREDICTED BY RF-SCORE:    0.00 PKD
ROOT
HETATM    1  C   UNL     1     -10.715   7.894  68.681  1.00  0.00    -0.073 C  
HETATM    2  C   UNL     1     -10.991   6.697  69.574  1.00  0.00    -0.367 C  
ENDROOT
BRANCH   2   3
HETATM    3  C   UNL     1      -9.808   5.731  69.581  1.00  0.00    -0.230 C  
BRANCH   3   4
HETATM    4  C   UNL     1      -9.290   5.487  68.168  1.00  0.00    -0.123 C  
BRANCH   4   5
HETATM    5  C   UNL     1      -7.792   5.763  68.086  1.00  0.00    -0.104 C  
BRANCH   5   6
HETATM    6  C   UNL     1      -7.285   6.399  69.376  1.00  0.00    -0.086 C  
BRANCH   6   7
HETATM    7  C   UNL     1      -7.170   7.910  69.223  1.00  0.00    -0.080 C  
BRANCH   7   8
HETATM    8  C   UNL     1      -6.101   8.270  68.199  1.00  0.00    -0.050 C  
BRANCH   8   9
HETATM    9  C   UNL     1      -6.722   8.963  66.994  1.00  0.00    -0.069 C  
BRANCH   9  10
HETATM   10  C   UNL     1      -7.834   9.910  67.431  1.00  0.00    -0.098 C  
BRANCH  10  11
HETATM   11  C   UNL     1      -8.342  10.728  66.248  1.00  0.00    -0.160 C  
BRANCH  11  12
HETATM   12  C   UNL     1      -9.722  10.252  65.819  1.00  0.00    -0.297 C  
BRANCH  12  13
HETATM   13  C   UNL     1     -10.089  10.814  64.451  1.00  0.00    -0.419 C  
BRANCH  13  14
HETATM   14  C   UNL     1     -11.406  11.580  64.521  1.00  0.00    -0.250 C  
BRANCH  14  15
HETATM   15  C   UNL     1     -11.432  12.725  63.512  1.00  0.00    -0.521 C  
BRANCH  15  16
HETATM   16  C   UNL     1     -12.116  13.953  64.107  1.00  0.00    -0.464 C  
BRANCH  16  17
HETATM   17  C   UNL     1     -11.605  14.245  65.515  1.00  0.00    -0.338 C  
HETATM   18  C   UNL     1     -10.804  15.526  65.564  1.00  0.00    -0.361 C  
HETATM   19  O   UNL     1     -10.577  16.257  64.614  1.00  0.00    -0.621 OA 
HETATM   20  O   UNL     1     -10.346  15.793  66.809  1.00  0.00    -0.280 OA 
ENDBRANCH  16  17
ENDBRANCH  15  16
ENDBRANCH  14  15
ENDBRANCH  13  14
ENDBRANCH  12  13
ENDBRANCH  11  12
ENDBRANCH  10  11
ENDBRANCH   9  10
ENDBRANCH   8   9
ENDBRANCH   7   8
ENDBRANCH   6   7
ENDBRANCH   5   6
ENDBRANCH   4   5
ENDBRANCH   3   4
ENDBRANCH   2   3
TORSDOF 15
ENDMDL
MODEL      409
REMARK 921   NORMALIZED FREE ENERGY PREDICTED BY IDOCK:   -2.42 KCAL/MOL
REMARK 922        TOTAL FREE ENERGY PREDICTED BY IDOCK:   -6.33 KCAL/MOL
REMARK 923 INTER-LIGAND FREE ENERGY PREDICTED BY IDOCK:   -4.31 KCAL/MOL
REMARK 924 INTRA-LIGAND FREE ENERGY PREDICTED BY IDOCK:   -2.02 KCAL/MOL
REMARK 927      BINDING AFFINITY PREDICTED BY RF-SCORE:    0.00 PKD
ROOT
HETATM    1  C   UNL     1      -7.162  10.000  62.523  1.00  0.00    -0.134 C  
HETATM    2  C   UNL     1      -8.363   9.673  63.392  1.00  0.00    -0.170 C  
ENDROOT
BRANCH   2   3
HETATM    3  C   UNL     1      -7.964   8.793  64.574  1.00  0.00    -0.141 C  
BRANCH   3   4
HETATM    4  C   UNL     1      -7.867   9.609  65.858  1.00  0.00    -0.102 C  
BRANCH   4   5
HETATM    5  C   UNL     1      -8.605   8.915  66.998  1.00  0.00    -0.120 C  
BRANCH   5   6
HETATM    6  C   UNL     1     -10.005   8.494  66.562  1.00  0.00    -0.350 C  
BRANCH   6   7
HETATM    7  C   UNL     1     -10.433   7.221  67.282  1.00  0.00    -0.380 C  
BRANCH   7   8
HETATM    8  C   UNL     1      -9.486   6.072  66.957  1.00  0.00    -0.137 C  
BRANCH   8   9
HETATM    9  C   UNL     1      -9.754   4.881  67.868  1.00  0.00    -0.202 C  
BRANCH   9  10
HETATM   10  C   UNL     1      -8.475   4.439  68.569  1.00  0.00    -0.102 C  
BRANCH  10  11
HETATM   11  C   UNL     1      -8.606   4.593  70.081  1.00  0.00    -0.101 C  
BRANCH  11  12
HETATM   12  C   UNL     1     -10.066   4.759  70.478  1.00  0.00    -0.291 C  
BRANCH  12  13
HETATM   13  C   UNL     1     -10.203   5.712  71.659  1.00  0.00    -0.261 C  
BRANCH  13  14
HETATM   14  C   UNL     1     -10.542   7.119  71.176  1.00  0.00    -0.240 C  
BRANCH  14  15
HETATM   15  C   UNL     1      -9.292   7.990  71.094  1.00  0.00    -0.176 C  
BRANCH  15  16
HETATM   16  C   UNL     1      -9.551   9.226  70.235  1.00  0.00    -0.276 C  
BRANCH  16  17
HETATM   17  C   UNL     1     -10.855   9.912  70.631  1.00  0.00    -0.400 C  
HETATM   18  C   UNL     1     -11.203  11.037  69.684  1.00  0.00    -0.278 C  
HETATM   19  O   UNL     1     -10.545  11.379  68.716  1.00  0.00    -0.191 OA 
HETATM   20  O   UNL     1     -12.359  11.653  70.028  1.00  0.00    -0.255 OA 
ENDBRANCH  16  17
ENDBRANCH  15  16
ENDBRANCH  14  15
ENDBRANCH  13  14
ENDBRANCH  12  13
ENDBRANCH  11  12
ENDBRANCH  10  11
ENDBRANCH   9  10
ENDBRANCH   8   9
ENDBRANCH   7   8
ENDBRANCH   6   7
ENDBRANCH   5   6
ENDBRANCH   4   5
ENDBRANCH   3   4
ENDBRANCH   2   3
TORSDOF 15
ENDMDL
MODEL      410
REMARK 921   NORMALIZED FREE ENERGY PREDICTED BY IDOCK:   -2.42 KCAL/MOL
REMARK 922        TOTAL FREE ENERGY PREDICTED BY IDOCK:   -6.33 KCAL/MOL
REMARK 923 INTER-LIGAND FREE ENERGY PREDICTED BY IDOCK:   -6.02 KCAL/MOL
REMARK 924 INTRA-LIGAND FREE ENERGY PREDICTED BY IDOCK:   -0.31 KCAL/MOL
REMARK 927      BINDING AFFINITY PREDICTED BY RF-SCORE:    0.00 PKD
ROOT
HETATM    1  C   UNL     1     -10.328  19.922  66.118  1.00  0.00    -0.604 C  
HETATM    2  C   UNL     1      -9.424  19.550  67.279  1.00  0.00    -0.422 C  
ENDROOT
BRANCH   2   3
HETATM    3  C   UNL     1      -9.935  18.302  67.996  1.00  0.00    -0.362 C  
BRANCH   3   4
HETATM    4  C   UNL     1     -10.547  17.314  67.009  1.00  0.00    -0.231 C  
BRANCH   4   5
HETATM    5  C   UNL     1      -9.488  16.350  66.482  1.00  0.00    -0.296 C  
BRANCH   5   6
HETATM    6  C   UNL     1     -10.119  15.285  65.590  1.00  0.00    -0.401 C  
BRANCH   6   7
HETATM    7  C   UNL     1     -10.747  14.181  66.431  1.00  0.00    -0.288 C  
BRANCH   7   8
HETATM    8  C   UNL     1      -9.763  13.672  67.478  1.00  0.00    -0.227 C  
BRANCH   8   9
HETATM    9  C   UNL     1      -8.537  13.061  66.811  1.00  0.00    -0.061 C  
BRANCH   9  10
HETATM   10  C   UNL     1      -8.830  11.641  66.344  1.00  0.00    -0.182 C  
BRANCH  10  11
HETATM   11  C   UNL     1      -9.324  10.782  67.504  1.00  0.00    -0.158 C  
BRANCH  11  12
HETATM   12  C   UNL     1     -10.531   9.955  67.083  1.00  0.00    -0.305 C  
BRANCH  12  13
HETATM   13  C   UNL     1     -11.150   9.249  68.283  1.00  0.00     0.058 C  
BRANCH  13  14
HETATM   14  C   UNL     1     -10.368   9.564  69.554  1.00  0.00    -0.229 C  
BRANCH  14  15
HETATM   15  C   UNL     1     -11.124  10.555  70.435  1.00  0.00    -0.321 C  
BRANCH  15  16
HETATM   16  C   UNL     1     -12.390   9.916  71.001  1.00  0.00    -0.451 C  
BRANCH  16  17
HETATM   17  C   UNL     1     -13.034  10.804  72.060  1.00  0.00    -0.444 C  
HETATM   18  C   UNL     1     -13.064  12.253  71.631  1.00  0.00    -0.306 C  
HETATM   19  O   UNL     1     -12.635  12.690  70.576  1.00  0.00    -0.216 OA 
HETATM   20  O   UNL     1     -13.633  13.050  72.566  1.00  0.00    -0.572 OA 
ENDBRANCH  16  17
ENDBRANCH  15  16
ENDBRANCH  14  15
ENDBRANCH  13  14
ENDBRANCH  12  13
ENDBRANCH  11  12
ENDBRANCH  10  11
ENDBRANCH   9  10
ENDBRANCH   8   9
ENDBRANCH   7   8
ENDBRANCH   6   7
ENDBRANCH   5   6
ENDBRANCH   4   5
ENDBRANCH   3   4
ENDBRANCH   2   3
TORSDOF 15
ENDMDL
MODEL      411
REMARK 921   NORMALIZED FREE ENERGY PREDICTED BY IDOCK:   -2.41 KCAL/MOL
REMARK 922        TOTAL FREE ENERGY PREDICTED BY IDOCK:   -6.33 KCAL/MOL
REMARK 923 INTER-LIGAND FREE ENERGY PREDICTED BY IDOCK:   -4.47 KCAL/MOL
REMARK 924 INTRA-LIGAND FREE ENERGY PREDICTED BY IDOCK:   -1.86 KCAL/MOL
REMARK 927      BINDING AFFINITY PREDICTED BY RF-SCORE:    0.00 PKD
ROOT
HETATM    1  C   UNL     1      -9.932  15.164  66.515  1.00  0.00    -0.279 C  
HETATM    2  C   UNL     1      -9.834  14.651  67.941  1.00  0.00    -0.217 C  
ENDROOT
BRANCH   2   3
HETATM    3  C   UNL     1     -10.109  13.151  68.007  1.00  0.00    -0.232 C  
BRANCH   3   4
HETATM    4  C   UNL     1     -11.097  12.725  66.926  1.00  0.00    -0.308 C  
BRANCH   4   5
HETATM    5  C   UNL     1     -11.567  11.293  67.156  1.00  0.00    -0.113 C  
BRANCH   5   6
HETATM    6  C   UNL     1     -10.407  10.312  67.024  1.00  0.00    -0.299 C  
BRANCH   6   7
HETATM    7  C   UNL     1     -10.597   9.124  67.959  1.00  0.00    -0.253 C  
BRANCH   7   8
HETATM    8  C   UNL     1     -10.570   9.573  69.416  1.00  0.00    -0.235 C  
BRANCH   8   9
HETATM    9  C   UNL     1     -11.665   8.877  70.213  1.00  0.00     0.030 C  
BRANCH   9  10
HETATM   10  C   UNL     1     -11.342   8.894  71.702  1.00  0.00    -0.407 C  
BRANCH  10  11
HETATM   11  C   UNL     1      -9.874   8.552  71.939  1.00  0.00    -0.358 C  
BRANCH  11  12
HETATM   12  C   UNL     1      -9.745   7.384  72.908  1.00  0.00    -0.231 C  
BRANCH  12  13
HETATM   13  C   UNL     1     -10.795   6.319  72.618  1.00  0.00    -0.273 C  
BRANCH  13  14
HETATM   14  C   UNL     1     -10.146   4.945  72.497  1.00  0.00    -0.233 C  
BRANCH  14  15
HETATM   15  C   UNL     1      -9.345   4.824  71.204  1.00  0.00    -0.206 C  
BRANCH  15  16
HETATM   16  C   UNL     1     -10.171   5.304  70.012  1.00  0.00    -0.358 C  
BRANCH  16  17
HETATM   17  C   UNL     1      -9.299   6.025  68.988  1.00  0.00    -0.134 C  
HETATM   18  C   UNL     1      -9.398   5.386  67.622  1.00  0.00    -0.115 C  
HETATM   19  O   UNL     1     -10.080   4.415  67.340  1.00  0.00    -0.137 OA 
HETATM   20  O   UNL     1      -8.628   6.019  66.706  1.00  0.00    -0.109 OA 
ENDBRANCH  16  17
ENDBRANCH  15  16
ENDBRANCH  14  15
ENDBRANCH  13  14
ENDBRANCH  12  13
ENDBRANCH  11  12
ENDBRANCH  10  11
ENDBRANCH   9  10
ENDBRANCH   8   9
ENDBRANCH   7   8
ENDBRANCH   6   7
ENDBRANCH   5   6
ENDBRANCH   4   5
ENDBRANCH   3   4
ENDBRANCH   2   3
TORSDOF 15
ENDMDL
MODEL      412
REMARK 921   NORMALIZED FREE ENERGY PREDICTED BY IDOCK:   -2.40 KCAL/MOL
REMARK 922        TOTAL FREE ENERGY PREDICTED BY IDOCK:   -6.30 KCAL/MOL
REMARK 923 INTER-LIGAND FREE ENERGY PREDICTED BY IDOCK:   -5.50 KCAL/MOL
REMARK 924 INTRA-LIGAND FREE ENERGY PREDICTED BY IDOCK:   -0.80 KCAL/MOL
REMARK 927      BINDING AFFINITY PREDICTED BY RF-SCORE:    0.00 PKD
ROOT
HETATM    1  C   UNL     1     -13.450  12.252  71.955  1.00  0.00    -0.418 C  
HETATM    2  C   UNL     1     -12.603  13.446  72.359  1.00  0.00     0.027 C  
ENDROOT
BRANCH   2   3
HETATM    3  C   UNL     1     -13.473  14.582  72.894  1.00  0.00    -0.525 C  
BRANCH   3   4
HETATM    4  C   UNL     1     -12.934  15.939  72.454  1.00  0.00    -0.511 C  
BRANCH   4   5
HETATM    5  C   UNL     1     -11.647  15.776  71.652  1.00  0.00    -0.537 C  
BRANCH   5   6
HETATM    6  C   UNL     1     -11.939  15.746  70.155  1.00  0.00    -0.364 C  
BRANCH   6   7
HETATM    7  C   UNL     1     -10.671  15.451  69.364  1.00  0.00    -0.258 C  
BRANCH   7   8
HETATM    8  C   UNL     1     -10.805  15.938  67.926  1.00  0.00    -0.327 C  
BRANCH   8   9
HETATM    9  C   UNL     1     -10.642  14.781  66.950  1.00  0.00    -0.294 C  
BRANCH   9  10
HETATM   10  C   UNL     1     -11.908  13.934  66.900  1.00  0.00    -0.453 C  
BRANCH  10  11
HETATM   11  C   UNL     1     -11.788  12.729  67.828  1.00  0.00    -0.387 C  
BRANCH  11  12
HETATM   12  C   UNL     1     -10.942  11.639  67.185  1.00  0.00    -0.330 C  
BRANCH  12  13
HETATM   13  C   UNL     1     -11.278  10.274  67.771  1.00  0.00    -0.262 C  
BRANCH  13  14
HETATM   14  C   UNL     1     -10.014   9.570  68.252  1.00  0.00    -0.184 C  
BRANCH  14  15
HETATM   15  C   UNL     1      -9.455  10.237  69.506  1.00  0.00    -0.207 C  
BRANCH  15  16
HETATM   16  C   UNL     1      -7.948  10.448  69.379  1.00  0.00    -0.161 C  
BRANCH  16  17
HETATM   17  C   UNL     1      -7.549  10.741  67.936  1.00  0.00    -0.091 C  
HETATM   18  C   UNL     1      -6.858   9.559  67.297  1.00  0.00    -0.084 C  
HETATM   19  O   UNL     1      -6.631   8.490  67.840  1.00  0.00    -0.059 OA 
HETATM   20  O   UNL     1      -6.500   9.810  66.015  1.00  0.00    -0.074 OA 
ENDBRANCH  16  17
ENDBRANCH  15  16
ENDBRANCH  14  15
ENDBRANCH  13  14
ENDBRANCH  12  13
ENDBRANCH  11  12
ENDBRANCH  10  11
ENDBRANCH   9  10
ENDBRANCH   8   9
ENDBRANCH   7   8
ENDBRANCH   6   7
ENDBRANCH   5   6
ENDBRANCH   4   5
ENDBRANCH   3   4
ENDBRANCH   2   3
TORSDOF 15
ENDMDL
MODEL      413
REMARK 921   NORMALIZED FREE ENERGY PREDICTED BY IDOCK:   -2.39 KCAL/MOL
REMARK 922        TOTAL FREE ENERGY PREDICTED BY IDOCK:   -6.28 KCAL/MOL
REMARK 923 INTER-LIGAND FREE ENERGY PREDICTED BY IDOCK:   -5.24 KCAL/MOL
REMARK 924 INTRA-LIGAND FREE ENERGY PREDICTED BY IDOCK:   -1.05 KCAL/MOL
REMARK 927      BINDING AFFINITY PREDICTED BY RF-SCORE:    0.00 PKD
ROOT
HETATM    1  C   UNL     1      -9.907   3.347  71.026  1.00  0.00    -0.136 C  
HETATM    2  C   UNL     1     -10.008   4.659  71.782  1.00  0.00    -0.260 C  
ENDROOT
BRANCH   2   3
HETATM    3  C   UNL     1      -9.848   5.851  70.841  1.00  0.00    -0.224 C  
BRANCH   3   4
HETATM    4  C   UNL     1     -11.206   6.380  70.390  1.00  0.00    -0.435 C  
BRANCH   4   5
HETATM    5  C   UNL     1     -11.139   6.887  68.953  1.00  0.00    -0.171 C  
BRANCH   5   6
HETATM    6  C   UNL     1      -9.845   7.657  68.708  1.00  0.00    -0.165 C  
BRANCH   6   7
HETATM    7  C   UNL     1      -9.564   7.775  67.215  1.00  0.00    -0.207 C  
BRANCH   7   8
HETATM    8  C   UNL     1      -8.833   9.076  66.905  1.00  0.00    -0.129 C  
BRANCH   8   9
HETATM    9  C   UNL     1      -9.593   9.883  65.860  1.00  0.00    -0.300 C  
BRANCH   9  10
HETATM   10  C   UNL     1     -10.397  10.997  66.518  1.00  0.00    -0.295 C  
BRANCH  10  11
HETATM   11  C   UNL     1      -9.656  11.554  67.730  1.00  0.00    -0.177 C  
BRANCH  11  12
HETATM   12  C   UNL     1     -10.608  12.322  68.635  1.00  0.00    -0.249 C  
BRANCH  12  13
HETATM   13  C   UNL     1     -10.273  13.808  68.639  1.00  0.00    -0.209 C  
BRANCH  13  14
HETATM   14  C   UNL     1     -11.361  14.602  69.355  1.00  0.00    -0.314 C  
BRANCH  14  15
HETATM   15  C   UNL     1     -11.521  15.992  68.745  1.00  0.00    -0.375 C  
BRANCH  15  16
HETATM   16  C   UNL     1     -10.265  16.391  67.975  1.00  0.00    -0.264 C  
BRANCH  16  17
HETATM   17  C   UNL     1     -10.577  17.438  66.910  1.00  0.00    -0.216 C  
HETATM   18  C   UNL     1     -10.959  16.800  65.594  1.00  0.00     0.004 C  
HETATM   19  O   UNL     1     -11.019  15.600  65.378  1.00  0.00    -0.350 OA 
HETATM   20  O   UNL     1     -11.238  17.722  64.643  1.00  0.00    -0.764 OA 
ENDBRANCH  16  17
ENDBRANCH  15  16
ENDBRANCH  14  15
ENDBRANCH  13  14
ENDBRANCH  12  13
ENDBRANCH  11  12
ENDBRANCH  10  11
ENDBRANCH   9  10
ENDBRANCH   8   9
ENDBRANCH   7   8
ENDBRANCH   6   7
ENDBRANCH   5   6
ENDBRANCH   4   5
ENDBRANCH   3   4
ENDBRANCH   2   3
TORSDOF 15
ENDMDL
MODEL      414
REMARK 921   NORMALIZED FREE ENERGY PREDICTED BY IDOCK:   -2.39 KCAL/MOL
REMARK 922        TOTAL FREE ENERGY PREDICTED BY IDOCK:   -6.27 KCAL/MOL
REMARK 923 INTER-LIGAND FREE ENERGY PREDICTED BY IDOCK:   -4.72 KCAL/MOL
REMARK 924 INTRA-LIGAND FREE ENERGY PREDICTED BY IDOCK:   -1.55 KCAL/MOL
REMARK 927      BINDING AFFINITY PREDICTED BY RF-SCORE:    0.00 PKD
ROOT
HETATM    1  C   UNL     1     -13.273  10.271  71.191  1.00  0.00    -0.429 C  
HETATM    2  C   UNL     1     -11.963  10.931  70.801  1.00  0.00    -0.449 C  
ENDROOT
BRANCH   2   3
HETATM    3  C   UNL     1     -11.268  10.158  69.682  1.00  0.00    -0.310 C  
BRANCH   3   4
HETATM    4  C   UNL     1      -9.793   9.937  70.001  1.00  0.00    -0.291 C  
BRANCH   4   5
HETATM    5  C   UNL     1      -9.627   8.889  71.097  1.00  0.00    -0.342 C  
BRANCH   5   6
HETATM    6  C   UNL     1      -8.278   8.189  70.979  1.00  0.00    -0.114 C  
BRANCH   6   7
HETATM    7  C   UNL     1      -8.460   6.730  70.580  1.00  0.00    -0.137 C  
BRANCH   7   8
HETATM    8  C   UNL     1      -9.257   6.619  69.285  1.00  0.00    -0.140 C  
BRANCH   8   9
HETATM    9  C   UNL     1      -8.445   5.902  68.215  1.00  0.00    -0.114 C  
BRANCH   9  10
HETATM   10  C   UNL     1      -7.889   6.896  67.203  1.00  0.00    -0.109 C  
BRANCH  10  11
HETATM   11  C   UNL     1      -6.405   7.148  67.453  1.00  0.00    -0.050 C  
BRANCH  11  12
HETATM   12  C   UNL     1      -5.959   8.440  66.784  1.00  0.00    -0.053 C  
BRANCH  12  13
HETATM   13  C   UNL     1      -6.692   9.638  67.374  1.00  0.00    -0.071 C  
BRANCH  13  14
HETATM   14  C   UNL     1      -7.562  10.310  66.317  1.00  0.00    -0.117 C  
BRANCH  14  15
HETATM   15  C   UNL     1      -8.918  10.709  66.891  1.00  0.00    -0.147 C  
BRANCH  15  16
HETATM   16  C   UNL     1      -9.410  12.010  66.261  1.00  0.00    -0.228 C  
BRANCH  16  17
HETATM   17  C   UNL     1     -10.460  11.743  65.187  1.00  0.00    -0.330 C  
HETATM   18  C   UNL     1     -11.796  12.349  65.551  1.00  0.00    -0.412 C  
HETATM   19  O   UNL     1     -12.037  12.977  66.568  1.00  0.00    -0.398 OA 
HETATM   20  O   UNL     1     -12.736  12.117  64.604  1.00  0.00    -0.479 OA 
ENDBRANCH  16  17
ENDBRANCH  15  16
ENDBRANCH  14  15
ENDBRANCH  13  14
ENDBRANCH  12  13
ENDBRANCH  11  12
ENDBRANCH  10  11
ENDBRANCH   9  10
ENDBRANCH   8   9
ENDBRANCH   7   8
ENDBRANCH   6   7
ENDBRANCH   5   6
ENDBRANCH   4   5
ENDBRANCH   3   4
ENDBRANCH   2   3
TORSDOF 15
ENDMDL
MODEL      415
REMARK 921   NORMALIZED FREE ENERGY PREDICTED BY IDOCK:   -2.38 KCAL/MOL
REMARK 922        TOTAL FREE ENERGY PREDICTED BY IDOCK:   -6.27 KCAL/MOL
REMARK 923 INTER-LIGAND FREE ENERGY PREDICTED BY IDOCK:   -4.36 KCAL/MOL
REMARK 924 INTRA-LIGAND FREE ENERGY PREDICTED BY IDOCK:   -1.91 KCAL/MOL
REMARK 927      BINDING AFFINITY PREDICTED BY RF-SCORE:    0.00 PKD
ROOT
HETATM    1  C   UNL     1      -8.664   9.278  70.510  1.00  0.00    -0.276 C  
HETATM    2  C   UNL     1      -7.950   8.072  69.927  1.00  0.00    -0.111 C  
ENDROOT
BRANCH   2   3
HETATM    3  C   UNL     1      -7.960   6.900  70.905  1.00  0.00    -0.098 C  
BRANCH   3   4
HETATM    4  C   UNL     1      -7.868   5.568  70.167  1.00  0.00    -0.089 C  
BRANCH   4   5
HETATM    5  C   UNL     1      -9.053   4.674  70.517  1.00  0.00    -0.174 C  
BRANCH   5   6
HETATM    6  C   UNL     1     -10.333   5.188  69.866  1.00  0.00    -0.347 C  
BRANCH   6   7
HETATM    7  C   UNL     1     -10.181   5.247  68.352  1.00  0.00    -0.206 C  
BRANCH   7   8
HETATM    8  C   UNL     1     -11.177   6.228  67.746  1.00  0.00    -0.218 C  
BRANCH   8   9
HETATM    9  C   UNL     1     -10.486   7.532  67.369  1.00  0.00    -0.367 C  
BRANCH   9  10
HETATM   10  C   UNL     1      -9.210   7.257  66.582  1.00  0.00    -0.193 C  
BRANCH  10  11
HETATM   11  C   UNL     1      -8.420   8.544  66.369  1.00  0.00    -0.122 C  
BRANCH  11  12
HETATM   12  C   UNL     1      -9.357   9.708  66.076  1.00  0.00    -0.263 C  
BRANCH  12  13
HETATM   13  C   UNL     1      -8.572  10.995  65.854  1.00  0.00    -0.165 C  
BRANCH  13  14
HETATM   14  C   UNL     1      -8.031  11.528  67.177  1.00  0.00    -0.160 C  
BRANCH  14  15
HETATM   15  C   UNL     1      -8.210  13.041  67.275  1.00  0.00    -0.174 C  
BRANCH  15  16
HETATM   16  C   UNL     1      -9.288  13.391  68.298  1.00  0.00    -0.205 C  
BRANCH  16  17
HETATM   17  C   UNL     1      -9.559  14.892  68.326  1.00  0.00    -0.214 C  
HETATM   18  C   UNL     1     -11.021  15.200  68.105  1.00  0.00    -0.287 C  
HETATM   19  O   UNL     1     -11.901  14.374  67.924  1.00  0.00    -0.347 OA 
HETATM   20  O   UNL     1     -11.272  16.531  68.127  1.00  0.00    -0.341 OA 
ENDBRANCH  16  17
ENDBRANCH  15  16
ENDBRANCH  14  15
ENDBRANCH  13  14
ENDBRANCH  12  13
ENDBRANCH  11  12
ENDBRANCH  10  11
ENDBRANCH   9  10
ENDBRANCH   8   9
ENDBRANCH   7   8
ENDBRANCH   6   7
ENDBRANCH   5   6
ENDBRANCH   4   5
ENDBRANCH   3   4
ENDBRANCH   2   3
TORSDOF 15
ENDMDL
MODEL      416
REMARK 921   NORMALIZED FREE ENERGY PREDICTED BY IDOCK:   -2.38 KCAL/MOL
REMARK 922        TOTAL FREE ENERGY PREDICTED BY IDOCK:   -6.26 KCAL/MOL
REMARK 923 INTER-LIGAND FREE ENERGY PREDICTED BY IDOCK:   -3.72 KCAL/MOL
REMARK 924 INTRA-LIGAND FREE ENERGY PREDICTED BY IDOCK:   -2.54 KCAL/MOL
REMARK 927      BINDING AFFINITY PREDICTED BY RF-SCORE:    0.00 PKD
ROOT
HETATM    1  C   UNL     1      -9.242   8.710  72.053  1.00  0.00    -0.338 C  
HETATM    2  C   UNL     1      -7.789   8.782  71.619  1.00  0.00    -0.124 C  
ENDROOT
BRANCH   2   3
HETATM    3  C   UNL     1      -7.018   7.543  72.068  1.00  0.00    -0.063 C  
BRANCH   3   4
HETATM    4  C   UNL     1      -6.810   6.576  70.908  1.00  0.00    -0.063 C  
BRANCH   4   5
HETATM    5  C   UNL     1      -7.244   5.165  71.295  1.00  0.00    -0.069 C  
BRANCH   5   6
HETATM    6  C   UNL     1      -8.765   5.045  71.294  1.00  0.00    -0.140 C  
BRANCH   6   7
HETATM    7  C   UNL     1      -9.365   5.806  70.119  1.00  0.00    -0.184 C  
BRANCH   7   8
HETATM    8  C   UNL     1     -10.284   4.904  69.304  1.00  0.00    -0.205 C  
BRANCH   8   9
HETATM    9  C   UNL     1      -9.475   3.866  68.536  1.00  0.00    -0.213 C  
BRANCH   9  10
HETATM   10  C   UNL     1      -9.076   4.399  67.166  1.00  0.00    -0.143 C  
BRANCH  10  11
HETATM   11  C   UNL     1      -7.602   4.792  67.148  1.00  0.00    -0.087 C  
BRANCH  11  12
HETATM   12  C   UNL     1      -7.398   6.078  66.359  1.00  0.00    -0.081 C  
BRANCH  12  13
HETATM   13  C   UNL     1      -8.331   7.174  66.857  1.00  0.00    -0.118 C  
BRANCH  13  14
HETATM   14  C   UNL     1      -7.554   8.225  67.643  1.00  0.00    -0.098 C  
BRANCH  14  15
HETATM   15  C   UNL     1      -8.494   9.243  68.281  1.00  0.00    -0.120 C  
BRANCH  15  16
HETATM   16  C   UNL     1      -9.950   8.901  67.973  1.00  0.00    -0.215 C  
BRANCH  16  17
HETATM   17  C   UNL     1     -10.611   9.993  67.139  1.00  0.00    -0.296 C  
HETATM   18  C   UNL     1     -11.372  10.973  68.002  1.00  0.00    -0.306 C  
HETATM   19  O   UNL     1     -11.465  10.923  69.218  1.00  0.00    -0.252 OA 
HETATM   20  O   UNL     1     -11.962  11.946  67.270  1.00  0.00    -0.605 OA 
ENDBRANCH  16  17
ENDBRANCH  15  16
ENDBRANCH  14  15
ENDBRANCH  13  14
ENDBRANCH  12  13
ENDBRANCH  11  12
ENDBRANCH  10  11
ENDBRANCH   9  10
ENDBRANCH   8   9
ENDBRANCH   7   8
ENDBRANCH   6   7
ENDBRANCH   5   6
ENDBRANCH   4   5
ENDBRANCH   3   4
ENDBRANCH   2   3
TORSDOF 15
ENDMDL
MODEL      417
REMARK 921   NORMALIZED FREE ENERGY PREDICTED BY IDOCK:   -2.37 KCAL/MOL
REMARK 922        TOTAL FREE ENERGY PREDICTED BY IDOCK:   -6.25 KCAL/MOL
REMARK 923 INTER-LIGAND FREE ENERGY PREDICTED BY IDOCK:   -3.64 KCAL/MOL
REMARK 924 INTRA-LIGAND FREE ENERGY PREDICTED BY IDOCK:   -2.61 KCAL/MOL
REMARK 927      BINDING AFFINITY PREDICTED BY RF-SCORE:    0.00 PKD
ROOT
HETATM    1  C   UNL     1      -8.104  11.831  68.273  1.00  0.00    -0.154 C  
HETATM    2  C   UNL     1      -6.761  11.354  67.750  1.00  0.00    -0.070 C  
ENDROOT
BRANCH   2   3
HETATM    3  C   UNL     1      -6.895  10.766  66.347  1.00  0.00    -0.135 C  
BRANCH   3   4
HETATM    4  C   UNL     1      -6.995   9.245  66.397  1.00  0.00    -0.084 C  
BRANCH   4   5
HETATM    5  C   UNL     1      -6.141   8.683  67.530  1.00  0.00    -0.052 C  
BRANCH   5   6
HETATM    6  C   UNL     1      -6.672   7.330  67.991  1.00  0.00    -0.058 C  
BRANCH   6   7
HETATM    7  C   UNL     1      -6.524   7.178  69.499  1.00  0.00    -0.040 C  
BRANCH   7   8
HETATM    8  C   UNL     1      -6.181   8.515  70.145  1.00  0.00    -0.034 C  
BRANCH   8   9
HETATM    9  C   UNL     1      -7.273   8.937  71.120  1.00  0.00    -0.111 C  
BRANCH   9  10
HETATM   10  C   UNL     1      -7.603   7.804  72.083  1.00  0.00    -0.093 C  
BRANCH  10  11
HETATM   11  C   UNL     1      -8.672   8.238  73.081  1.00  0.00    -0.291 C  
BRANCH  11  12
HETATM   12  C   UNL     1      -9.669   7.114  73.323  1.00  0.00    -0.251 C  
BRANCH  12  13
HETATM   13  C   UNL     1     -11.078   7.545  72.935  1.00  0.00    -0.426 C  
BRANCH  13  14
HETATM   14  C   UNL     1     -11.031   8.646  71.881  1.00  0.00    -0.412 C  
BRANCH  14  15
HETATM   15  C   UNL     1     -11.530   8.139  70.531  1.00  0.00    -0.179 C  
BRANCH  15  16
HETATM   16  C   UNL     1     -10.365   7.948  69.563  1.00  0.00    -0.217 C  
BRANCH  16  17
HETATM   17  C   UNL     1     -10.290   9.090  68.554  1.00  0.00    -0.233 C  
HETATM   18  C   UNL     1     -10.531   8.607  67.143  1.00  0.00    -0.289 C  
HETATM   19  O   UNL     1     -10.759   7.453  66.818  1.00  0.00    -0.319 OA 
HETATM   20  O   UNL     1     -10.466   9.614  66.241  1.00  0.00    -0.191 OA 
ENDBRANCH  16  17
ENDBRANCH  15  16
ENDBRANCH  14  15
ENDBRANCH  13  14
ENDBRANCH  12  13
ENDBRANCH  11  12
ENDBRANCH  10  11
ENDBRANCH   9  10
ENDBRANCH   8   9
ENDBRANCH   7   8
ENDBRANCH   6   7
ENDBRANCH   5   6
ENDBRANCH   4   5
ENDBRANCH   3   4
ENDBRANCH   2   3
TORSDOF 15
ENDMDL
MODEL      418
REMARK 921   NORMALIZED FREE ENERGY PREDICTED BY IDOCK:   -2.37 KCAL/MOL
REMARK 922        TOTAL FREE ENERGY PREDICTED BY IDOCK:   -6.24 KCAL/MOL
REMARK 923 INTER-LIGAND FREE ENERGY PREDICTED BY IDOCK:   -5.39 KCAL/MOL
REMARK 924 INTRA-LIGAND FREE ENERGY PREDICTED BY IDOCK:   -0.85 KCAL/MOL
REMARK 927      BINDING AFFINITY PREDICTED BY RF-SCORE:    0.00 PKD
ROOT
HETATM    1  C   UNL     1      -6.565   1.947  65.351  1.00  0.00    -0.027 C  
HETATM    2  C   UNL     1      -7.831   2.767  65.526  1.00  0.00    -0.078 C  
ENDROOT
BRANCH   2   3
HETATM    3  C   UNL     1      -8.445   2.543  66.906  1.00  0.00    -0.107 C  
BRANCH   3   4
HETATM    4  C   UNL     1      -7.514   3.037  68.008  1.00  0.00    -0.053 C  
BRANCH   4   5
HETATM    5  C   UNL     1      -7.902   2.433  69.354  1.00  0.00    -0.050 C  
BRANCH   5   6
HETATM    6  C   UNL     1      -8.929   3.308  70.066  1.00  0.00    -0.172 C  
BRANCH   6   7
HETATM    7  C   UNL     1      -8.493   4.768  70.055  1.00  0.00    -0.087 C  
BRANCH   7   8
HETATM    8  C   UNL     1      -9.136   5.533  71.205  1.00  0.00    -0.158 C  
BRANCH   8   9
HETATM    9  C   UNL     1     -10.654   5.503  71.089  1.00  0.00    -0.303 C  
BRANCH   9  10
HETATM   10  C   UNL     1     -11.304   5.914  72.405  1.00  0.00    -0.358 C  
BRANCH  10  11
HETATM   11  C   UNL     1     -10.826   7.298  72.834  1.00  0.00    -0.380 C  
BRANCH  11  12
HETATM   12  C   UNL     1     -11.769   8.375  72.316  1.00  0.00    -0.453 C  
BRANCH  12  13
HETATM   13  C   UNL     1     -11.033   9.349  71.405  1.00  0.00    -0.443 C  
BRANCH  13  14
HETATM   14  C   UNL     1     -12.018  10.113  70.527  1.00  0.00    -0.400 C  
BRANCH  14  15
HETATM   15  C   UNL     1     -12.628  11.292  71.280  1.00  0.00    -0.487 C  
BRANCH  15  16
HETATM   16  C   UNL     1     -12.250  12.612  70.612  1.00  0.00    -0.373 C  
BRANCH  16  17
HETATM   17  C   UNL     1     -12.579  13.802  71.509  1.00  0.00    -0.405 C  
HETATM   18  C   UNL     1     -11.845  15.049  71.074  1.00  0.00    -0.323 C  
HETATM   19  O   UNL     1     -11.077  15.128  70.129  1.00  0.00    -0.252 OA 
HETATM   20  O   UNL     1     -12.131  16.110  71.865  1.00  0.00    -0.476 OA 
ENDBRANCH  16  17
ENDBRANCH  15  16
ENDBRANCH  14  15
ENDBRANCH  13  14
ENDBRANCH  12  13
ENDBRANCH  11  12
ENDBRANCH  10  11
ENDBRANCH   9  10
ENDBRANCH   8   9
ENDBRANCH   7   8
ENDBRANCH   6   7
ENDBRANCH   5   6
ENDBRANCH   4   5
ENDBRANCH   3   4
ENDBRANCH   2   3
TORSDOF 15
ENDMDL
MODEL      419
REMARK 921   NORMALIZED FREE ENERGY PREDICTED BY IDOCK:   -2.36 KCAL/MOL
REMARK 922        TOTAL FREE ENERGY PREDICTED BY IDOCK:   -6.23 KCAL/MOL
REMARK 923 INTER-LIGAND FREE ENERGY PREDICTED BY IDOCK:   -4.74 KCAL/MOL
REMARK 924 INTRA-LIGAND FREE ENERGY PREDICTED BY IDOCK:   -1.49 KCAL/MOL
REMARK 927      BINDING AFFINITY PREDICTED BY RF-SCORE:    0.00 PKD
ROOT
HETATM    1  C   UNL     1     -10.306  15.607  65.809  1.00  0.00    -0.386 C  
HETATM    2  C   UNL     1     -10.506  14.921  67.149  1.00  0.00    -0.271 C  
ENDROOT
BRANCH   2   3
HETATM    3  C   UNL     1     -11.266  13.607  66.986  1.00  0.00    -0.328 C  
BRANCH   3   4
HETATM    4  C   UNL     1     -12.445  13.768  66.032  1.00  0.00    -0.491 C  
BRANCH   4   5
HETATM    5  C   UNL     1     -12.448  12.659  64.984  1.00  0.00    -0.556 C  
BRANCH   5   6
HETATM    6  C   UNL     1     -11.479  12.980  63.851  1.00  0.00    -0.490 C  
BRANCH   6   7
HETATM    7  C   UNL     1     -10.659  11.751  63.479  1.00  0.00    -0.499 C  
BRANCH   7   8
HETATM    8  C   UNL     1      -9.701  11.380  64.605  1.00  0.00    -0.275 C  
BRANCH   8   9
HETATM    9  C   UNL     1      -9.699   9.875  64.835  1.00  0.00    -0.332 C  
BRANCH   9  10
HETATM   10  C   UNL     1      -9.660   9.557  66.325  1.00  0.00    -0.287 C  
BRANCH  10  11
HETATM   11  C   UNL     1      -9.166  10.760  67.121  1.00  0.00    -0.160 C  
BRANCH  11  12
HETATM   12  C   UNL     1      -7.659  10.690  67.323  1.00  0.00    -0.100 C  
BRANCH  12  13
HETATM   13  C   UNL     1      -7.296   9.603  68.327  1.00  0.00    -0.080 C  
BRANCH  13  14
HETATM   14  C   UNL     1      -6.084   8.812  67.848  1.00  0.00    -0.051 C  
BRANCH  14  15
HETATM   15  C   UNL     1      -6.238   8.398  66.387  1.00  0.00    -0.053 C  
BRANCH  15  16
HETATM   16  C   UNL     1      -6.530   6.903  66.278  1.00  0.00    -0.051 C  
BRANCH  16  17
HETATM   17  C   UNL     1      -7.596   6.622  65.224  1.00  0.00    -0.088 C  
HETATM   18  C   UNL     1      -7.209   7.181  63.874  1.00  0.00    -0.077 C  
HETATM   19  O   UNL     1      -6.179   7.786  63.626  1.00  0.00    -0.057 OA 
HETATM   20  O   UNL     1      -8.150   6.936  62.932  1.00  0.00    -0.108 OA 
ENDBRANCH  16  17
ENDBRANCH  15  16
ENDBRANCH  14  15
ENDBRANCH  13  14
ENDBRANCH  12  13
ENDBRANCH  11  12
ENDBRANCH  10  11
ENDBRANCH   9  10
ENDBRANCH   8   9
ENDBRANCH   7   8
ENDBRANCH   6   7
ENDBRANCH   5   6
ENDBRANCH   4   5
ENDBRANCH   3   4
ENDBRANCH   2   3
TORSDOF 15
ENDMDL
MODEL      420
REMARK 921   NORMALIZED FREE ENERGY PREDICTED BY IDOCK:   -2.36 KCAL/MOL
REMARK 922        TOTAL FREE ENERGY PREDICTED BY IDOCK:   -6.22 KCAL/MOL
REMARK 923 INTER-LIGAND FREE ENERGY PREDICTED BY IDOCK:   -4.70 KCAL/MOL
REMARK 924 INTRA-LIGAND FREE ENERGY PREDICTED BY IDOCK:   -1.52 KCAL/MOL
REMARK 927      BINDING AFFINITY PREDICTED BY RF-SCORE:    0.00 PKD
ROOT
HETATM    1  C   UNL     1     -11.694  12.223  67.828  1.00  0.00    -0.403 C  
HETATM    2  C   UNL     1     -11.080  13.510  67.307  1.00  0.00    -0.302 C  
ENDROOT
BRANCH   2   3
HETATM    3  C   UNL     1     -10.494  14.341  68.446  1.00  0.00    -0.249 C  
BRANCH   3   4
HETATM    4  C   UNL     1      -9.032  14.685  68.179  1.00  0.00    -0.179 C  
BRANCH   4   5
HETATM    5  C   UNL     1      -8.365  13.597  67.343  1.00  0.00    -0.198 C  
BRANCH   5   6
HETATM    6  C   UNL     1      -7.399  12.777  68.192  1.00  0.00    -0.118 C  
BRANCH   6   7
HETATM    7  C   UNL     1      -6.211  12.312  67.358  1.00  0.00    -0.153 C  
BRANCH   7   8
HETATM    8  C   UNL     1      -6.596  11.124  66.484  1.00  0.00    -0.124 C  
BRANCH   8   9
HETATM    9  C   UNL     1      -6.962   9.921  67.343  1.00  0.00    -0.083 C  
BRANCH   9  10
HETATM   10  C   UNL     1      -6.898   8.636  66.526  1.00  0.00    -0.072 C  
BRANCH  10  11
HETATM   11  C   UNL     1      -8.248   7.926  66.529  1.00  0.00    -0.113 C  
BRANCH  11  12
HETATM   12  C   UNL     1      -9.194   8.577  67.528  1.00  0.00    -0.151 C  
BRANCH  12  13
HETATM   13  C   UNL     1     -10.610   8.040  67.364  1.00  0.00    -0.337 C  
BRANCH  13  14
HETATM   14  C   UNL     1     -10.591   6.529  67.162  1.00  0.00    -0.398 C  
BRANCH  14  15
HETATM   15  C   UNL     1     -10.481   5.795  68.495  1.00  0.00    -0.290 C  
BRANCH  15  16
HETATM   16  C   UNL     1     -11.483   6.354  69.503  1.00  0.00    -0.412 C  
BRANCH  16  17
HETATM   17  C   UNL     1     -10.804   6.708  70.822  1.00  0.00    -0.299 C  
HETATM   18  C   UNL     1     -11.096   8.131  71.237  1.00  0.00    -0.248 C  
HETATM   19  O   UNL     1     -11.785   8.924  70.616  1.00  0.00    -0.264 OA 
HETATM   20  O   UNL     1     -10.497   8.454  72.408  1.00  0.00    -0.310 OA 
ENDBRANCH  16  17
ENDBRANCH  15  16
ENDBRANCH  14  15
ENDBRANCH  13  14
ENDBRANCH  12  13
ENDBRANCH  11  12
ENDBRANCH  10  11
ENDBRANCH   9  10
ENDBRANCH   8   9
ENDBRANCH   7   8
ENDBRANCH   6   7
ENDBRANCH   5   6
ENDBRANCH   4   5
ENDBRANCH   3   4
ENDBRANCH   2   3
TORSDOF 15
ENDMDL
MODEL      421
REMARK 921   NORMALIZED FREE ENERGY PREDICTED BY IDOCK:   -2.34 KCAL/MOL
REMARK 922        TOTAL FREE ENERGY PREDICTED BY IDOCK:   -6.20 KCAL/MOL
REMARK 923 INTER-LIGAND FREE ENERGY PREDICTED BY IDOCK:   -3.38 KCAL/MOL
REMARK 924 INTRA-LIGAND FREE ENERGY PREDICTED BY IDOCK:   -2.82 KCAL/MOL
REMARK 927      BINDING AFFINITY PREDICTED BY RF-SCORE:    0.00 PKD
ROOT
HETATM    1  C   UNL     1     -11.006   9.010  70.367  1.00  0.00    -0.283 C  
HETATM    2  C   UNL     1     -11.892   8.067  71.161  1.00  0.00    -0.307 C  
ENDROOT
BRANCH   2   3
HETATM    3  C   UNL     1     -11.826   6.648  70.602  1.00  0.00    -0.443 C  
BRANCH   3   4
HETATM    4  C   UNL     1     -11.154   6.627  69.233  1.00  0.00    -0.345 C  
BRANCH   4   5
HETATM    5  C   UNL     1     -10.166   5.469  69.132  1.00  0.00    -0.309 C  
BRANCH   5   6
HETATM    6  C   UNL     1      -9.239   5.439  70.342  1.00  0.00    -0.190 C  
BRANCH   6   7
HETATM    7  C   UNL     1      -8.046   6.362  70.129  1.00  0.00    -0.120 C  
BRANCH   7   8
HETATM    8  C   UNL     1      -7.186   5.876  68.969  1.00  0.00    -0.082 C  
BRANCH   8   9
HETATM    9  C   UNL     1      -6.345   7.015  68.409  1.00  0.00    -0.035 C  
BRANCH   9  10
HETATM   10  C   UNL     1      -7.061   8.349  68.580  1.00  0.00    -0.072 C  
BRANCH  10  11
HETATM   11  C   UNL     1      -6.504   9.390  67.614  1.00  0.00    -0.062 C  
BRANCH  11  12
HETATM   12  C   UNL     1      -7.534   9.742  66.551  1.00  0.00    -0.095 C  
BRANCH  12  13
HETATM   13  C   UNL     1      -8.916   9.236  66.945  1.00  0.00    -0.149 C  
BRANCH  13  14
HETATM   14  C   UNL     1      -9.399   8.173  65.964  1.00  0.00    -0.184 C  
BRANCH  14  15
HETATM   15  C   UNL     1      -8.354   7.903  64.885  1.00  0.00    -0.087 C  
BRANCH  15  16
HETATM   16  C   UNL     1      -7.907   6.443  64.922  1.00  0.00    -0.113 C  
BRANCH  16  17
HETATM   17  C   UNL     1      -8.937   5.566  65.627  1.00  0.00    -0.152 C  
HETATM   18  C   UNL     1      -8.469   4.133  65.736  1.00  0.00    -0.109 C  
HETATM   19  O   UNL     1      -7.407   3.700  65.321  1.00  0.00    -0.069 OA 
HETATM   20  O   UNL     1      -9.377   3.346  66.361  1.00  0.00    -0.170 OA 
ENDBRANCH  16  17
ENDBRANCH  15  16
ENDBRANCH  14  15
ENDBRANCH  13  14
ENDBRANCH  12  13
ENDBRANCH  11  12
ENDBRANCH  10  11
ENDBRANCH   9  10
ENDBRANCH   8   9
ENDBRANCH   7   8
ENDBRANCH   6   7
ENDBRANCH   5   6
ENDBRANCH   4   5
ENDBRANCH   3   4
ENDBRANCH   2   3
TORSDOF 15
ENDMDL
MODEL      422
REMARK 921   NORMALIZED FREE ENERGY PREDICTED BY IDOCK:   -2.34 KCAL/MOL
REMARK 922        TOTAL FREE ENERGY PREDICTED BY IDOCK:   -6.18 KCAL/MOL
REMARK 923 INTER-LIGAND FREE ENERGY PREDICTED BY IDOCK:   -4.39 KCAL/MOL
REMARK 924 INTRA-LIGAND FREE ENERGY PREDICTED BY IDOCK:   -1.79 KCAL/MOL
REMARK 927      BINDING AFFINITY PREDICTED BY RF-SCORE:    0.00 PKD
ROOT
HETATM    1  C   UNL     1      -8.635   8.908  71.514  1.00  0.00    -0.205 C  
HETATM    2  C   UNL     1      -7.446   7.976  71.664  1.00  0.00    -0.082 C  
ENDROOT
BRANCH   2   3
HETATM    3  C   UNL     1      -7.477   7.256  73.010  1.00  0.00    -0.081 C  
BRANCH   3   4
HETATM    4  C   UNL     1      -7.584   5.746  72.822  1.00  0.00    -0.097 C  
BRANCH   4   5
HETATM    5  C   UNL     1      -8.844   5.206  73.490  1.00  0.00    -0.116 C  
BRANCH   5   6
HETATM    6  C   UNL     1     -10.088   5.591  72.695  1.00  0.00    -0.211 C  
BRANCH   6   7
HETATM    7  C   UNL     1      -9.917   5.237  71.223  1.00  0.00    -0.256 C  
BRANCH   7   8
HETATM    8  C   UNL     1     -11.095   5.749  70.403  1.00  0.00    -0.287 C  
BRANCH   8   9
HETATM    9  C   UNL     1     -10.632   6.780  69.383  1.00  0.00    -0.265 C  
BRANCH   9  10
HETATM   10  C   UNL     1      -9.311   6.359  68.752  1.00  0.00    -0.125 C  
BRANCH  10  11
HETATM   11  C   UNL     1      -8.765   7.464  67.853  1.00  0.00    -0.123 C  
BRANCH  11  12
HETATM   12  C   UNL     1      -9.887   8.104  67.048  1.00  0.00    -0.299 C  
BRANCH  12  13
HETATM   13  C   UNL     1      -9.431   9.422  66.435  1.00  0.00    -0.259 C  
BRANCH  13  14
HETATM   14  C   UNL     1      -9.570  10.558  67.443  1.00  0.00    -0.181 C  
BRANCH  14  15
HETATM   15  C   UNL     1      -9.814  11.891  66.742  1.00  0.00    -0.214 C  
BRANCH  15  16
HETATM   16  C   UNL     1     -11.178  11.897  66.055  1.00  0.00    -0.377 C  
BRANCH  16  17
HETATM   17  C   UNL     1     -11.771  13.302  66.012  1.00  0.00    -0.408 C  
HETATM   18  C   UNL     1     -11.487  13.989  64.697  1.00  0.00    -0.383 C  
HETATM   19  O   UNL     1     -10.864  13.507  63.765  1.00  0.00    -0.084 OA 
HETATM   20  O   UNL     1     -12.009  15.237  64.650  1.00  0.00    -0.338 OA 
ENDBRANCH  16  17
ENDBRANCH  15  16
ENDBRANCH  14  15
ENDBRANCH  13  14
ENDBRANCH  12  13
ENDBRANCH  11  12
ENDBRANCH  10  11
ENDBRANCH   9  10
ENDBRANCH   8   9
ENDBRANCH   7   8
ENDBRANCH   6   7
ENDBRANCH   5   6
ENDBRANCH   4   5
ENDBRANCH   3   4
ENDBRANCH   2   3
TORSDOF 15
ENDMDL
MODEL      423
REMARK 921   NORMALIZED FREE ENERGY PREDICTED BY IDOCK:   -2.33 KCAL/MOL
REMARK 922        TOTAL FREE ENERGY PREDICTED BY IDOCK:   -6.17 KCAL/MOL
REMARK 923 INTER-LIGAND FREE ENERGY PREDICTED BY IDOCK:   -5.27 KCAL/MOL
REMARK 924 INTRA-LIGAND FREE ENERGY PREDICTED BY IDOCK:   -0.90 KCAL/MOL
REMARK 927      BINDING AFFINITY PREDICTED BY RF-SCORE:    0.00 PKD
ROOT
HETATM    1  C   UNL     1      -7.932   4.326  63.678  1.00  0.00    -0.089 C  
HETATM    2  C   UNL     1      -9.372   4.085  63.262  1.00  0.00    -0.131 C  
ENDROOT
BRANCH   2   3
HETATM    3  C   UNL     1     -10.263   3.842  64.478  1.00  0.00    -0.231 C  
BRANCH   3   4
HETATM    4  C   UNL     1      -9.444   3.354  65.669  1.00  0.00    -0.119 C  
BRANCH   4   5
HETATM    5  C   UNL     1      -9.690   4.234  66.891  1.00  0.00    -0.239 C  
BRANCH   5   6
HETATM    6  C   UNL     1      -8.571   4.067  67.915  1.00  0.00    -0.109 C  
BRANCH   6   7
HETATM    7  C   UNL     1      -8.994   4.619  69.270  1.00  0.00    -0.140 C  
BRANCH   7   8
HETATM    8  C   UNL     1      -8.188   5.864  69.621  1.00  0.00    -0.110 C  
BRANCH   8   9
HETATM    9  C   UNL     1      -9.109   6.989  70.078  1.00  0.00    -0.145 C  
BRANCH   9  10
HETATM   10  C   UNL     1      -8.342   8.301  70.190  1.00  0.00    -0.124 C  
BRANCH  10  11
HETATM   11  C   UNL     1      -9.301   9.474  70.366  1.00  0.00    -0.311 C  
BRANCH  11  12
HETATM   12  C   UNL     1     -10.734   9.042  70.086  1.00  0.00    -0.258 C  
BRANCH  12  13
HETATM   13  C   UNL     1     -11.269   9.718  68.831  1.00  0.00    -0.076 C  
BRANCH  13  14
HETATM   14  C   UNL     1     -10.332  10.834  68.380  1.00  0.00    -0.199 C  
BRANCH  14  15
HETATM   15  C   UNL     1     -10.415  11.048  66.872  1.00  0.00    -0.293 C  
BRANCH  15  16
HETATM   16  C   UNL     1     -11.569  11.985  66.523  1.00  0.00    -0.384 C  
BRANCH  16  17
HETATM   17  C   UNL     1     -11.589  12.307  65.032  1.00  0.00    -0.394 C  
HETATM   18  C   UNL     1     -12.516  13.460  64.722  1.00  0.00    -0.365 C  
HETATM   19  O   UNL     1     -13.179  14.077  65.540  1.00  0.00    -0.710 OA 
HETATM   20  O   UNL     1     -12.541  13.754  63.400  1.00  0.00    -0.842 OA 
ENDBRANCH  16  17
ENDBRANCH  15  16
ENDBRANCH  14  15
ENDBRANCH  13  14
ENDBRANCH  12  13
ENDBRANCH  11  12
ENDBRANCH  10  11
ENDBRANCH   9  10
ENDBRANCH   8   9
ENDBRANCH   7   8
ENDBRANCH   6   7
ENDBRANCH   5   6
ENDBRANCH   4   5
ENDBRANCH   3   4
ENDBRANCH   2   3
TORSDOF 15
ENDMDL
MODEL      424
REMARK 921   NORMALIZED FREE ENERGY PREDICTED BY IDOCK:   -2.32 KCAL/MOL
REMARK 922        TOTAL FREE ENERGY PREDICTED BY IDOCK:   -6.16 KCAL/MOL
REMARK 923 INTER-LIGAND FREE ENERGY PREDICTED BY IDOCK:   -4.99 KCAL/MOL
REMARK 924 INTRA-LIGAND FREE ENERGY PREDICTED BY IDOCK:   -1.17 KCAL/MOL
REMARK 927      BINDING AFFINITY PREDICTED BY RF-SCORE:    0.00 PKD
ROOT
HETATM    1  C   UNL     1      -7.757   9.188  66.846  1.00  0.00    -0.098 C  
HETATM    2  C   UNL     1      -8.165   7.899  66.155  1.00  0.00    -0.117 C  
ENDROOT
BRANCH   2   3
HETATM    3  C   UNL     1      -8.638   6.858  67.167  1.00  0.00    -0.121 C  
BRANCH   3   4
HETATM    4  C   UNL     1      -7.458   6.230  67.902  1.00  0.00    -0.093 C  
BRANCH   4   5
HETATM    5  C   UNL     1      -7.901   5.654  69.243  1.00  0.00    -0.089 C  
BRANCH   5   6
HETATM    6  C   UNL     1      -6.875   5.958  70.330  1.00  0.00    -0.053 C  
BRANCH   6   7
HETATM    7  C   UNL     1      -7.557   6.508  71.576  1.00  0.00    -0.094 C  
BRANCH   7   8
HETATM    8  C   UNL     1      -8.827   7.266  71.206  1.00  0.00    -0.135 C  
BRANCH   8   9
HETATM    9  C   UNL     1      -8.964   8.527  72.049  1.00  0.00    -0.301 C  
BRANCH   9  10
HETATM   10  C   UNL     1      -9.827   9.561  71.336  1.00  0.00     0.012 C  
BRANCH  10  11
HETATM   11  C   UNL     1     -11.293   9.140  71.347  1.00  0.00    -0.414 C  
BRANCH  11  12
HETATM   12  C   UNL     1     -12.156  10.180  70.645  1.00  0.00    -0.411 C  
BRANCH  12  13
HETATM   13  C   UNL     1     -11.529  10.603  69.323  1.00  0.00    -0.351 C  
BRANCH  13  14
HETATM   14  C   UNL     1     -11.651  12.110  69.128  1.00  0.00    -0.374 C  
BRANCH  14  15
HETATM   15  C   UNL     1     -10.397  12.685  68.475  1.00  0.00    -0.232 C  
BRANCH  15  16
HETATM   16  C   UNL     1     -10.754  13.851  67.556  1.00  0.00    -0.271 C  
BRANCH  16  17
HETATM   17  C   UNL     1     -11.953  13.515  66.675  1.00  0.00    -0.452 C  
HETATM   18  C   UNL     1     -11.845  14.163  65.314  1.00  0.00    -0.367 C  
HETATM   19  O   UNL     1     -10.927  14.872  64.936  1.00  0.00    -0.381 OA 
HETATM   20  O   UNL     1     -12.905  13.871  64.524  1.00  0.00    -0.644 OA 
ENDBRANCH  16  17
ENDBRANCH  15  16
ENDBRANCH  14  15
ENDBRANCH  13  14
ENDBRANCH  12  13
ENDBRANCH  11  12
ENDBRANCH  10  11
ENDBRANCH   9  10
ENDBRANCH   8   9
ENDBRANCH   7   8
ENDBRANCH   6   7
ENDBRANCH   5   6
ENDBRANCH   4   5
ENDBRANCH   3   4
ENDBRANCH   2   3
TORSDOF 15
ENDMDL
MODEL      425
REMARK 921   NORMALIZED FREE ENERGY PREDICTED BY IDOCK:   -2.32 KCAL/MOL
REMARK 922        TOTAL FREE ENERGY PREDICTED BY IDOCK:   -6.15 KCAL/MOL
REMARK 923 INTER-LIGAND FREE ENERGY PREDICTED BY IDOCK:   -5.13 KCAL/MOL
REMARK 924 INTRA-LIGAND FREE ENERGY PREDICTED BY IDOCK:   -1.01 KCAL/MOL
REMARK 927      BINDING AFFINITY PREDICTED BY RF-SCORE:    0.00 PKD
ROOT
HETATM    1  C   UNL     1      -6.182   4.981  68.346  1.00  0.00    -0.031 C  
HETATM    2  C   UNL     1      -7.534   4.540  68.878  1.00  0.00    -0.056 C  
ENDROOT
BRANCH   2   3
HETATM    3  C   UNL     1      -8.281   5.707  69.520  1.00  0.00    -0.103 C  
BRANCH   3   4
HETATM    4  C   UNL     1      -9.002   6.543  68.468  1.00  0.00    -0.126 C  
BRANCH   4   5
HETATM    5  C   UNL     1      -8.627   8.016  68.598  1.00  0.00    -0.128 C  
BRANCH   5   6
HETATM    6  C   UNL     1      -9.153   8.597  69.906  1.00  0.00    -0.151 C  
BRANCH   6   7
HETATM    7  C   UNL     1     -10.651   8.860  69.815  1.00  0.00    -0.230 C  
BRANCH   7   8
HETATM    8  C   UNL     1     -11.013  10.170  70.505  1.00  0.00    -0.380 C  
BRANCH   8   9
HETATM    9  C   UNL     1     -11.860  11.043  69.589  1.00  0.00    -0.414 C  
BRANCH   9  10
HETATM   10  C   UNL     1     -11.508  10.791  68.127  1.00  0.00    -0.346 C  
BRANCH  10  11
HETATM   11  C   UNL     1     -10.550  11.859  67.610  1.00  0.00    -0.241 C  
BRANCH  11  12
HETATM   12  C   UNL     1     -11.067  13.251  67.944  1.00  0.00    -0.287 C  
BRANCH  12  13
HETATM   13  C   UNL     1      -9.992  14.303  67.703  1.00  0.00    -0.225 C  
BRANCH  13  14
HETATM   14  C   UNL     1     -10.013  14.769  66.251  1.00  0.00    -0.308 C  
BRANCH  14  15
HETATM   15  C   UNL     1      -9.102  15.977  66.047  1.00  0.00    -0.361 C  
BRANCH  15  16
HETATM   16  C   UNL     1      -9.902  17.275  66.129  1.00  0.00    -0.269 C  
BRANCH  16  17
HETATM   17  C   UNL     1      -9.005  18.457  66.487  1.00  0.00    -0.294 C  
HETATM   18  C   UNL     1      -9.804  19.621  67.024  1.00  0.00    -0.374 C  
HETATM   19  O   UNL     1     -11.015  19.646  67.166  1.00  0.00    -0.467 OA 
HETATM   20  O   UNL     1      -9.016  20.675  67.344  1.00  0.00    -0.344 OA 
ENDBRANCH  16  17
ENDBRANCH  15  16
ENDBRANCH  14  15
ENDBRANCH  13  14
ENDBRANCH  12  13
ENDBRANCH  11  12
ENDBRANCH  10  11
ENDBRANCH   9  10
ENDBRANCH   8   9
ENDBRANCH   7   8
ENDBRANCH   6   7
ENDBRANCH   5   6
ENDBRANCH   4   5
ENDBRANCH   3   4
ENDBRANCH   2   3
TORSDOF 15
ENDMDL
MODEL      426
REMARK 921   NORMALIZED FREE ENERGY PREDICTED BY IDOCK:   -2.31 KCAL/MOL
REMARK 922        TOTAL FREE ENERGY PREDICTED BY IDOCK:   -6.13 KCAL/MOL
REMARK 923 INTER-LIGAND FREE ENERGY PREDICTED BY IDOCK:   -5.20 KCAL/MOL
REMARK 924 INTRA-LIGAND FREE ENERGY PREDICTED BY IDOCK:   -0.93 KCAL/MOL
REMARK 927      BINDING AFFINITY PREDICTED BY RF-SCORE:    0.00 PKD
ROOT
HETATM    1  C   UNL     1      -6.358  20.740  64.765  1.00  0.00    -0.305 C  
HETATM    2  C   UNL     1      -6.853  19.751  65.805  1.00  0.00    -0.303 C  
ENDROOT
BRANCH   2   3
HETATM    3  C   UNL     1      -8.331  19.974  66.117  1.00  0.00    -0.304 C  
BRANCH   3   4
HETATM    4  C   UNL     1      -9.065  18.647  66.276  1.00  0.00    -0.236 C  
BRANCH   4   5
HETATM    5  C   UNL     1      -8.193  17.630  67.006  1.00  0.00    -0.239 C  
BRANCH   5   6
HETATM    6  C   UNL     1      -8.893  17.113  68.259  1.00  0.00    -0.245 C  
BRANCH   6   7
HETATM    7  C   UNL     1     -10.398  17.330  68.163  1.00  0.00    -0.357 C  
BRANCH   7   8
HETATM    8  C   UNL     1     -11.125  16.575  69.269  1.00  0.00    -0.260 C  
BRANCH   8   9
HETATM    9  C   UNL     1     -11.094  15.075  69.005  1.00  0.00    -0.270 C  
BRANCH   9  10
HETATM   10  C   UNL     1     -11.741  14.312  70.155  1.00  0.00    -0.357 C  
BRANCH  10  11
HETATM   11  C   UNL     1     -11.961  12.851  69.777  1.00  0.00    -0.365 C  
BRANCH  11  12
HETATM   12  C   UNL     1     -12.294  12.022  71.010  1.00  0.00    -0.340 C  
BRANCH  12  13
HETATM   13  C   UNL     1     -12.727  10.615  70.617  1.00  0.00    -0.445 C  
BRANCH  13  14
HETATM   14  C   UNL     1     -11.712   9.986  69.669  1.00  0.00    -0.098 C  
BRANCH  14  15
HETATM   15  C   UNL     1     -10.974   8.830  70.340  1.00  0.00    -0.262 C  
BRANCH  15  16
HETATM   16  C   UNL     1      -9.725   9.334  71.060  1.00  0.00    -0.341 C  
BRANCH  16  17
HETATM   17  C   UNL     1      -8.548   9.469  70.098  1.00  0.00    -0.250 C  
HETATM   18  C   UNL     1      -7.708   8.214  70.062  1.00  0.00    -0.086 C  
HETATM   19  O   UNL     1      -7.918   7.201  70.710  1.00  0.00    -0.098 OA 
HETATM   20  O   UNL     1      -6.661   8.325  69.211  1.00  0.00    -0.042 OA 
ENDBRANCH  16  17
ENDBRANCH  15  16
ENDBRANCH  14  15
ENDBRANCH  13  14
ENDBRANCH  12  13
ENDBRANCH  11  12
ENDBRANCH  10  11
ENDBRANCH   9  10
ENDBRANCH   8   9
ENDBRANCH   7   8
ENDBRANCH   6   7
ENDBRANCH   5   6
ENDBRANCH   4   5
ENDBRANCH   3   4
ENDBRANCH   2   3
TORSDOF 15
ENDMDL
MODEL      427
REMARK 921   NORMALIZED FREE ENERGY PREDICTED BY IDOCK:   -2.31 KCAL/MOL
REMARK 922        TOTAL FREE ENERGY PREDICTED BY IDOCK:   -6.13 KCAL/MOL
REMARK 923 INTER-LIGAND FREE ENERGY PREDICTED BY IDOCK:   -4.87 KCAL/MOL
REMARK 924 INTRA-LIGAND FREE ENERGY PREDICTED BY IDOCK:   -1.25 KCAL/MOL
REMARK 927      BINDING AFFINITY PREDICTED BY RF-SCORE:    0.00 PKD
ROOT
HETATM    1  C   UNL     1      -9.602   4.105  69.921  1.00  0.00    -0.282 C  
HETATM    2  C   UNL     1     -10.614   5.193  70.230  1.00  0.00    -0.230 C  
ENDROOT
BRANCH   2   3
HETATM    3  C   UNL     1     -10.406   6.410  69.331  1.00  0.00    -0.252 C  
BRANCH   3   4
HETATM    4  C   UNL     1     -11.158   6.255  68.013  1.00  0.00    -0.365 C  
BRANCH   4   5
HETATM    5  C   UNL     1     -10.195   5.924  66.877  1.00  0.00    -0.262 C  
BRANCH   5   6
HETATM    6  C   UNL     1      -8.787   6.413  67.199  1.00  0.00    -0.113 C  
BRANCH   6   7
HETATM    7  C   UNL     1      -7.972   6.586  65.923  1.00  0.00    -0.115 C  
BRANCH   7   8
HETATM    8  C   UNL     1      -7.652   8.057  65.682  1.00  0.00    -0.084 C  
BRANCH   8   9
HETATM    9  C   UNL     1      -8.641   8.667  64.697  1.00  0.00    -0.116 C  
BRANCH   9  10
HETATM   10  C   UNL     1      -9.429   9.794  65.353  1.00  0.00    -0.333 C  
BRANCH  10  11
HETATM   11  C   UNL     1      -8.607  10.460  66.451  1.00  0.00    -0.137 C  
BRANCH  11  12
HETATM   12  C   UNL     1      -9.076  11.890  66.681  1.00  0.00    -0.203 C  
BRANCH  12  13
HETATM   13  C   UNL     1     -10.588  11.943  66.862  1.00  0.00    -0.264 C  
BRANCH  13  14
HETATM   14  C   UNL     1     -11.216  12.898  65.852  1.00  0.00    -0.323 C  
BRANCH  14  15
HETATM   15  C   UNL     1     -12.233  13.818  66.522  1.00  0.00    -0.475 C  
BRANCH  15  16
HETATM   16  C   UNL     1     -11.842  14.087  67.973  1.00  0.00    -0.403 C  
BRANCH  16  17
HETATM   17  C   UNL     1     -11.600  15.574  68.215  1.00  0.00    -0.344 C  
HETATM   18  C   UNL     1     -10.796  15.811  69.472  1.00  0.00    -0.287 C  
HETATM   19  O   UNL     1     -10.379  14.944  70.222  1.00  0.00    -0.038 OA 
HETATM   20  O   UNL     1     -10.576  17.128  69.695  1.00  0.00    -0.249 OA 
ENDBRANCH  16  17
ENDBRANCH  15  16
ENDBRANCH  14  15
ENDBRANCH  13  14
ENDBRANCH  12  13
ENDBRANCH  11  12
ENDBRANCH  10  11
ENDBRANCH   9  10
ENDBRANCH   8   9
ENDBRANCH   7   8
ENDBRANCH   6   7
ENDBRANCH   5   6
ENDBRANCH   4   5
ENDBRANCH   3   4
ENDBRANCH   2   3
TORSDOF 15
ENDMDL
MODEL      428
REMARK 921   NORMALIZED FREE ENERGY PREDICTED BY IDOCK:   -2.30 KCAL/MOL
REMARK 922        TOTAL FREE ENERGY PREDICTED BY IDOCK:   -6.12 KCAL/MOL
REMARK 923 INTER-LIGAND FREE ENERGY PREDICTED BY IDOCK:   -5.23 KCAL/MOL
REMARK 924 INTRA-LIGAND FREE ENERGY PREDICTED BY IDOCK:   -0.88 KCAL/MOL
REMARK 927      BINDING AFFINITY PREDICTED BY RF-SCORE:    0.00 PKD
ROOT
HETATM    1  C   UNL     1     -10.680   4.513  72.914  1.00  0.00    -0.281 C  
HETATM    2  C   UNL     1      -9.951   5.409  71.929  1.00  0.00    -0.233 C  
ENDROOT
BRANCH   2   3
HETATM    3  C   UNL     1     -10.628   5.386  70.560  1.00  0.00    -0.312 C  
BRANCH   3   4
HETATM    4  C   UNL     1     -11.548   6.589  70.382  1.00  0.00    -0.470 C  
BRANCH   4   5
HETATM    5  C   UNL     1     -10.945   7.832  71.030  1.00  0.00    -0.260 C  
BRANCH   5   6
HETATM    6  C   UNL     1     -10.791   8.956  70.010  1.00  0.00    -0.239 C  
BRANCH   6   7
HETATM    7  C   UNL     1      -9.954   8.495  68.824  1.00  0.00    -0.197 C  
BRANCH   7   8
HETATM    8  C   UNL     1     -10.556   8.990  67.514  1.00  0.00    -0.306 C  
BRANCH   8   9
HETATM    9  C   UNL     1     -10.937  10.461  67.619  1.00  0.00    -0.374 C  
BRANCH   9  10
HETATM   10  C   UNL     1      -9.796  11.349  67.137  1.00  0.00    -0.212 C  
BRANCH  10  11
HETATM   11  C   UNL     1     -10.329  12.684  66.627  1.00  0.00    -0.249 C  
BRANCH  11  12
HETATM   12  C   UNL     1      -9.922  13.817  67.559  1.00  0.00    -0.233 C  
BRANCH  12  13
HETATM   13  C   UNL     1      -8.846  14.686  66.919  1.00  0.00    -0.267 C  
BRANCH  13  14
HETATM   14  C   UNL     1      -8.643  15.966  67.722  1.00  0.00    -0.164 C  
BRANCH  14  15
HETATM   15  C   UNL     1      -9.011  17.197  66.898  1.00  0.00    -0.253 C  
BRANCH  15  16
HETATM   16  C   UNL     1      -8.077  18.361  67.221  1.00  0.00    -0.243 C  
BRANCH  16  17
HETATM   17  C   UNL     1      -7.417  18.909  65.959  1.00  0.00    -0.273 C  
HETATM   18  C   UNL     1      -6.111  18.209  65.662  1.00  0.00    -0.230 C  
HETATM   19  O   UNL     1      -5.618  17.314  66.330  1.00  0.00    -0.228 OA 
HETATM   20  O   UNL     1      -5.518  18.688  64.544  1.00  0.00    -0.210 OA 
ENDBRANCH  16  17
ENDBRANCH  15  16
ENDBRANCH  14  15
ENDBRANCH  13  14
ENDBRANCH  12  13
ENDBRANCH  11  12
ENDBRANCH  10  11
ENDBRANCH   9  10
ENDBRANCH   8   9
ENDBRANCH   7   8
ENDBRANCH   6   7
ENDBRANCH   5   6
ENDBRANCH   4   5
ENDBRANCH   3   4
ENDBRANCH   2   3
TORSDOF 15
ENDMDL
MODEL      429
REMARK 921   NORMALIZED FREE ENERGY PREDICTED BY IDOCK:   -2.30 KCAL/MOL
REMARK 922        TOTAL FREE ENERGY PREDICTED BY IDOCK:   -6.11 KCAL/MOL
REMARK 923 INTER-LIGAND FREE ENERGY PREDICTED BY IDOCK:   -4.81 KCAL/MOL
REMARK 924 INTRA-LIGAND FREE ENERGY PREDICTED BY IDOCK:   -1.29 KCAL/MOL
REMARK 927      BINDING AFFINITY PREDICTED BY RF-SCORE:    0.00 PKD
ROOT
HETATM    1  C   UNL     1      -6.453  13.614  69.319  1.00  0.00    -0.110 C  
HETATM    2  C   UNL     1      -6.735  13.794  67.838  1.00  0.00    -0.162 C  
ENDROOT
BRANCH   2   3
HETATM    3  C   UNL     1      -7.331  12.525  67.233  1.00  0.00    -0.113 C  
BRANCH   3   4
HETATM    4  C   UNL     1      -6.244  11.502  66.921  1.00  0.00    -0.143 C  
BRANCH   4   5
HETATM    5  C   UNL     1      -6.692  10.558  65.809  1.00  0.00    -0.123 C  
BRANCH   5   6
HETATM    6  C   UNL     1      -8.102  10.039  66.072  1.00  0.00    -0.124 C  
BRANCH   6   7
HETATM    7  C   UNL     1      -8.799   9.688  64.765  1.00  0.00    -0.242 C  
BRANCH   7   8
HETATM    8  C   UNL     1      -9.362  10.938  64.099  1.00  0.00    -0.264 C  
BRANCH   8   9
HETATM    9  C   UNL     1     -10.059  11.824  65.123  1.00  0.00    -0.298 C  
BRANCH   9  10
HETATM   10  C   UNL     1     -11.569  11.620  65.073  1.00  0.00    -0.133 C  
BRANCH  10  11
HETATM   11  C   UNL     1     -12.231  12.695  64.217  1.00  0.00    -0.524 C  
BRANCH  11  12
HETATM   12  C   UNL     1     -12.608  13.901  65.067  1.00  0.00    -0.422 C  
BRANCH  12  13
HETATM   13  C   UNL     1     -11.670  15.070  64.797  1.00  0.00    -0.370 C  
BRANCH  13  14
HETATM   14  C   UNL     1     -10.660  15.220  65.930  1.00  0.00    -0.345 C  
BRANCH  14  15
HETATM   15  C   UNL     1     -10.540  16.675  66.373  1.00  0.00    -0.200 C  
BRANCH  15  16
HETATM   16  C   UNL     1      -9.081  17.039  66.641  1.00  0.00    -0.278 C  
BRANCH  16  17
HETATM   17  C   UNL     1      -8.882  17.510  68.078  1.00  0.00    -0.258 C  
HETATM   18  C   UNL     1      -9.257  18.964  68.246  1.00  0.00    -0.330 C  
HETATM   19  O   UNL     1      -9.668  19.698  67.362  1.00  0.00    -0.321 OA 
HETATM   20  O   UNL     1      -9.083  19.392  69.519  1.00  0.00    -0.050 OA 
ENDBRANCH  16  17
ENDBRANCH  15  16
ENDBRANCH  14  15
ENDBRANCH  13  14
ENDBRANCH  12  13
ENDBRANCH  11  12
ENDBRANCH  10  11
ENDBRANCH   9  10
ENDBRANCH   8   9
ENDBRANCH   7   8
ENDBRANCH   6   7
ENDBRANCH   5   6
ENDBRANCH   4   5
ENDBRANCH   3   4
ENDBRANCH   2   3
TORSDOF 15
ENDMDL
MODEL      430
REMARK 921   NORMALIZED FREE ENERGY PREDICTED BY IDOCK:   -2.28 KCAL/MOL
REMARK 922        TOTAL FREE ENERGY PREDICTED BY IDOCK:   -6.08 KCAL/MOL
REMARK 923 INTER-LIGAND FREE ENERGY PREDICTED BY IDOCK:   -4.42 KCAL/MOL
REMARK 924 INTRA-LIGAND FREE ENERGY PREDICTED BY IDOCK:   -1.66 KCAL/MOL
REMARK 927      BINDING AFFINITY PREDICTED BY RF-SCORE:    0.00 PKD
ROOT
HETATM    1  C   UNL     1      -9.748  10.448  64.103  1.00  0.00    -0.387 C  
HETATM    2  C   UNL     1      -9.878  11.678  64.983  1.00  0.00    -0.280 C  
ENDROOT
BRANCH   2   3
HETATM    3  C   UNL     1     -11.292  11.807  65.544  1.00  0.00    -0.283 C  
BRANCH   3   4
HETATM    4  C   UNL     1     -12.090  12.862  64.785  1.00  0.00    -0.474 C  
BRANCH   4   5
HETATM    5  C   UNL     1     -12.832  13.779  65.752  1.00  0.00    -0.430 C  
BRANCH   5   6
HETATM    6  C   UNL     1     -12.234  13.690  67.152  1.00  0.00    -0.340 C  
BRANCH   6   7
HETATM    7  C   UNL     1     -11.738  15.055  67.613  1.00  0.00    -0.281 C  
BRANCH   7   8
HETATM    8  C   UNL     1     -10.445  14.920  68.409  1.00  0.00    -0.243 C  
BRANCH   8   9
HETATM    9  C   UNL     1      -9.492  13.950  67.723  1.00  0.00    -0.214 C  
BRANCH   9  10
HETATM   10  C   UNL     1      -8.305  14.695  67.123  1.00  0.00    -0.236 C  
BRANCH  10  11
HETATM   11  C   UNL     1      -6.992  14.025  67.517  1.00  0.00    -0.167 C  
BRANCH  11  12
HETATM   12  C   UNL     1      -6.634  14.351  68.960  1.00  0.00    -0.103 C  
BRANCH  12  13
HETATM   13  C   UNL     1      -6.390  13.078  69.760  1.00  0.00    -0.063 C  
BRANCH  13  14
HETATM   14  C   UNL     1      -5.537  12.097  68.962  1.00  0.00    -0.059 C  
BRANCH  14  15
HETATM   15  C   UNL     1      -6.300  10.806  68.681  1.00  0.00    -0.050 C  
BRANCH  15  16
HETATM   16  C   UNL     1      -7.625  10.785  69.440  1.00  0.00    -0.114 C  
BRANCH  16  17
HETATM   17  C   UNL     1      -8.524   9.653  68.954  1.00  0.00    -0.125 C  
HETATM   18  C   UNL     1      -9.911  10.148  68.616  1.00  0.00    -0.170 C  
HETATM   19  O   UNL     1     -10.295  11.303  68.709  1.00  0.00    -0.195 OA 
HETATM   20  O   UNL     1     -10.718   9.150  68.184  1.00  0.00    -0.206 OA 
ENDBRANCH  16  17
ENDBRANCH  15  16
ENDBRANCH  14  15
ENDBRANCH  13  14
ENDBRANCH  12  13
ENDBRANCH  11  12
ENDBRANCH  10  11
ENDBRANCH   9  10
ENDBRANCH   8   9
ENDBRANCH   7   8
ENDBRANCH   6   7
ENDBRANCH   5   6
ENDBRANCH   4   5
ENDBRANCH   3   4
ENDBRANCH   2   3
TORSDOF 15
ENDMDL
MODEL      431
REMARK 921   NORMALIZED FREE ENERGY PREDICTED BY IDOCK:   -2.28 KCAL/MOL
REMARK 922        TOTAL FREE ENERGY PREDICTED BY IDOCK:   -6.08 KCAL/MOL
REMARK 923 INTER-LIGAND FREE ENERGY PREDICTED BY IDOCK:   -4.51 KCAL/MOL
REMARK 924 INTRA-LIGAND FREE ENERGY PREDICTED BY IDOCK:   -1.57 KCAL/MOL
REMARK 927      BINDING AFFINITY PREDICTED BY RF-SCORE:    0.00 PKD
ROOT
HETATM    1  C   UNL     1      -7.168   9.800  68.662  1.00  0.00    -0.073 C  
HETATM    2  C   UNL     1      -7.159   9.384  67.202  1.00  0.00    -0.086 C  
ENDROOT
BRANCH   2   3
HETATM    3  C   UNL     1      -7.223   7.865  67.062  1.00  0.00    -0.090 C  
BRANCH   3   4
HETATM    4  C   UNL     1      -6.488   7.397  65.810  1.00  0.00    -0.045 C  
BRANCH   4   5
HETATM    5  C   UNL     1      -7.471   6.873  64.769  1.00  0.00    -0.096 C  
BRANCH   5   6
HETATM    6  C   UNL     1      -8.342   8.001  64.227  1.00  0.00    -0.005 C  
BRANCH   6   7
HETATM    7  C   UNL     1      -7.572   8.835  63.210  1.00  0.00    -0.113 C  
BRANCH   7   8
HETATM    8  C   UNL     1      -7.858  10.319  63.402  1.00  0.00    -0.136 C  
BRANCH   8   9
HETATM    9  C   UNL     1      -8.991  10.770  62.489  1.00  0.00    -0.344 C  
BRANCH   9  10
HETATM   10  C   UNL     1     -10.228  11.130  63.303  1.00  0.00    -0.403 C  
BRANCH  10  11
HETATM   11  C   UNL     1      -9.835  11.800  64.616  1.00  0.00    -0.230 C  
BRANCH  11  12
HETATM   12  C   UNL     1     -10.272  10.954  65.803  1.00  0.00    -0.318 C  
BRANCH  12  13
HETATM   13  C   UNL     1     -11.154  11.758  66.748  1.00  0.00    -0.360 C  
BRANCH  13  14
HETATM   14  C   UNL     1     -11.085  11.190  68.162  1.00  0.00    -0.324 C  
BRANCH  14  15
HETATM   15  C   UNL     1     -11.628  12.185  69.183  1.00  0.00    -0.374 C  
BRANCH  15  16
HETATM   16  C   UNL     1     -11.991  13.506  68.510  1.00  0.00    -0.379 C  
BRANCH  16  17
HETATM   17  C   UNL     1     -11.204  14.668  69.109  1.00  0.00    -0.291 C  
HETATM   18  C   UNL     1     -10.693  15.606  68.040  1.00  0.00    -0.287 C  
HETATM   19  O   UNL     1     -10.870  15.478  66.840  1.00  0.00    -0.314 OA 
HETATM   20  O   UNL     1      -9.993  16.641  68.562  1.00  0.00    -0.238 OA 
ENDBRANCH  16  17
ENDBRANCH  15  16
ENDBRANCH  14  15
ENDBRANCH  13  14
ENDBRANCH  12  13
ENDBRANCH  11  12
ENDBRANCH  10  11
ENDBRANCH   9  10
ENDBRANCH   8   9
ENDBRANCH   7   8
ENDBRANCH   6   7
ENDBRANCH   5   6
ENDBRANCH   4   5
ENDBRANCH   3   4
ENDBRANCH   2   3
TORSDOF 15
ENDMDL
MODEL      432
REMARK 921   NORMALIZED FREE ENERGY PREDICTED BY IDOCK:   -2.28 KCAL/MOL
REMARK 922        TOTAL FREE ENERGY PREDICTED BY IDOCK:   -6.08 KCAL/MOL
REMARK 923 INTER-LIGAND FREE ENERGY PREDICTED BY IDOCK:   -4.31 KCAL/MOL
REMARK 924 INTRA-LIGAND FREE ENERGY PREDICTED BY IDOCK:   -1.77 KCAL/MOL
REMARK 927      BINDING AFFINITY PREDICTED BY RF-SCORE:    0.00 PKD
ROOT
HETATM    1  C   UNL     1     -11.278  15.471  64.800  1.00  0.00    -0.399 C  
HETATM    2  C   UNL     1     -12.197  14.292  65.066  1.00  0.00    -0.438 C  
ENDROOT
BRANCH   2   3
HETATM    3  C   UNL     1     -12.096  13.832  66.518  1.00  0.00    -0.483 C  
BRANCH   3   4
HETATM    4  C   UNL     1     -11.756  12.348  66.601  1.00  0.00    -0.438 C  
BRANCH   4   5
HETATM    5  C   UNL     1     -11.206  11.843  65.271  1.00  0.00    -0.351 C  
BRANCH   5   6
HETATM    6  C   UNL     1      -9.824  11.223  65.454  1.00  0.00    -0.281 C  
BRANCH   6   7
HETATM    7  C   UNL     1      -9.449  11.172  66.929  1.00  0.00    -0.203 C  
BRANCH   7   8
HETATM    8  C   UNL     1      -9.043   9.759  67.335  1.00  0.00    -0.148 C  
BRANCH   8   9
HETATM    9  C   UNL     1      -9.610   8.737  66.359  1.00  0.00    -0.316 C  
BRANCH   9  10
HETATM   10  C   UNL     1     -10.724   7.927  67.012  1.00  0.00    -0.289 C  
BRANCH  10  11
HETATM   11  C   UNL     1     -10.391   6.438  66.993  1.00  0.00    -0.307 C  
BRANCH  11  12
HETATM   12  C   UNL     1      -9.107   6.185  66.216  1.00  0.00    -0.165 C  
BRANCH  12  13
HETATM   13  C   UNL     1      -9.133   4.812  65.558  1.00  0.00    -0.152 C  
BRANCH  13  14
HETATM   14  C   UNL     1      -8.322   4.821  64.266  1.00  0.00    -0.127 C  
BRANCH  14  15
HETATM   15  C   UNL     1      -8.486   6.143  63.522  1.00  0.00     0.187 C  
BRANCH  15  16
HETATM   16  C   UNL     1      -7.123   6.737  63.171  1.00  0.00    -0.059 C  
BRANCH  16  17
HETATM   17  C   UNL     1      -6.582   7.593  64.312  1.00  0.00    -0.052 C  
HETATM   18  C   UNL     1      -6.960   9.047  64.147  1.00  0.00    -0.094 C  
HETATM   19  O   UNL     1      -7.614   9.510  63.227  1.00  0.00    -0.109 OA 
HETATM   20  O   UNL     1      -6.483   9.815  65.155  1.00  0.00    -0.083 OA 
ENDBRANCH  16  17
ENDBRANCH  15  16
ENDBRANCH  14  15
ENDBRANCH  13  14
ENDBRANCH  12  13
ENDBRANCH  11  12
ENDBRANCH  10  11
ENDBRANCH   9  10
ENDBRANCH   8   9
ENDBRANCH   7   8
ENDBRANCH   6   7
ENDBRANCH   5   6
ENDBRANCH   4   5
ENDBRANCH   3   4
ENDBRANCH   2   3
TORSDOF 15
ENDMDL
MODEL      433
REMARK 921   NORMALIZED FREE ENERGY PREDICTED BY IDOCK:   -2.24 KCAL/MOL
REMARK 922        TOTAL FREE ENERGY PREDICTED BY IDOCK:   -6.01 KCAL/MOL
REMARK 923 INTER-LIGAND FREE ENERGY PREDICTED BY IDOCK:   -4.58 KCAL/MOL
REMARK 924 INTRA-LIGAND FREE ENERGY PREDICTED BY IDOCK:   -1.43 KCAL/MOL
REMARK 927      BINDING AFFINITY PREDICTED BY RF-SCORE:    0.00 PKD
ROOT
HETATM    1  C   UNL     1      -5.761  12.589  69.529  1.00  0.00    -0.097 C  
HETATM    2  C   UNL     1      -5.820  11.346  68.660  1.00  0.00    -0.042 C  
ENDROOT
BRANCH   2   3
HETATM    3  C   UNL     1      -6.784  10.314  69.241  1.00  0.00    -0.063 C  
BRANCH   3   4
HETATM    4  C   UNL     1      -6.088   9.434  70.274  1.00  0.00    -0.049 C  
BRANCH   4   5
HETATM    5  C   UNL     1      -6.525   7.979  70.127  1.00  0.00    -0.036 C  
BRANCH   5   6
HETATM    6  C   UNL     1      -7.887   7.753  70.775  1.00  0.00    -0.099 C  
BRANCH   6   7
HETATM    7  C   UNL     1      -8.852   7.108  69.788  1.00  0.00    -0.142 C  
BRANCH   7   8
HETATM    8  C   UNL     1     -10.071   7.996  69.565  1.00  0.00    -0.196 C  
BRANCH   8   9
HETATM    9  C   UNL     1     -10.579   8.554  70.888  1.00  0.00    -0.252 C  
BRANCH   9  10
HETATM   10  C   UNL     1     -11.679   9.582  70.652  1.00  0.00    -0.330 C  
BRANCH  10  11
HETATM   11  C   UNL     1     -11.214  10.655  69.673  1.00  0.00    -0.351 C  
BRANCH  11  12
HETATM   12  C   UNL     1     -12.172  11.838  69.678  1.00  0.00    -0.248 C  
BRANCH  12  13
HETATM   13  C   UNL     1     -11.478  13.101  69.185  1.00  0.00    -0.358 C  
BRANCH  13  14
HETATM   14  C   UNL     1     -10.111  12.768  68.597  1.00  0.00    -0.132 C  
BRANCH  14  15
HETATM   15  C   UNL     1      -9.965  13.331  67.187  1.00  0.00    -0.238 C  
BRANCH  15  16
HETATM   16  C   UNL     1     -11.065  14.349  66.896  1.00  0.00    -0.325 C  
BRANCH  16  17
HETATM   17  C   UNL     1     -10.502  15.764  66.803  1.00  0.00    -0.305 C  
HETATM   18  C   UNL     1     -10.767  16.383  65.450  1.00  0.00    -0.296 C  
HETATM   19  O   UNL     1     -11.355  15.845  64.526  1.00  0.00    -0.444 OA 
HETATM   20  O   UNL     1     -10.270  17.639  65.358  1.00  0.00    -0.576 OA 
ENDBRANCH  16  17
ENDBRANCH  15  16
ENDBRANCH  14  15
ENDBRANCH  13  14
ENDBRANCH  12  13
ENDBRANCH  11  12
ENDBRANCH  10  11
ENDBRANCH   9  10
ENDBRANCH   8   9
ENDBRANCH   7   8
ENDBRANCH   6   7
ENDBRANCH   5   6
ENDBRANCH   4   5
ENDBRANCH   3   4
ENDBRANCH   2   3
TORSDOF 15
ENDMDL
MODEL      434
REMARK 921   NORMALIZED FREE ENERGY PREDICTED BY IDOCK:   -2.23 KCAL/MOL
REMARK 922        TOTAL FREE ENERGY PREDICTED BY IDOCK:   -5.98 KCAL/MOL
REMARK 923 INTER-LIGAND FREE ENERGY PREDICTED BY IDOCK:   -4.36 KCAL/MOL
REMARK 924 INTRA-LIGAND FREE ENERGY PREDICTED BY IDOCK:   -1.62 KCAL/MOL
REMARK 927      BINDING AFFINITY PREDICTED BY RF-SCORE:    0.00 PKD
ROOT
HETATM    1  C   UNL     1      -9.744   4.007  69.631  1.00  0.00    -0.245 C  
HETATM    2  C   UNL     1     -10.439   5.197  70.267  1.00  0.00    -0.296 C  
ENDROOT
BRANCH   2   3
HETATM    3  C   UNL     1     -10.251   6.458  69.427  1.00  0.00    -0.230 C  
BRANCH   3   4
HETATM    4  C   UNL     1     -11.249   6.504  68.274  1.00  0.00    -0.259 C  
BRANCH   4   5
HETATM    5  C   UNL     1     -10.524   6.596  66.935  1.00  0.00    -0.349 C  
BRANCH   5   6
HETATM    6  C   UNL     1      -9.215   7.365  67.077  1.00  0.00    -0.169 C  
BRANCH   6   7
HETATM    7  C   UNL     1      -8.859   8.068  65.774  1.00  0.00    -0.170 C  
BRANCH   7   8
HETATM    8  C   UNL     1      -8.741   9.573  65.986  1.00  0.00    -0.166 C  
BRANCH   8   9
HETATM    9  C   UNL     1      -9.873  10.306  65.278  1.00  0.00    -0.372 C  
BRANCH   9  10
HETATM   10  C   UNL     1     -10.512  11.334  66.205  1.00  0.00    -0.305 C  
BRANCH  10  11
HETATM   11  C   UNL     1      -9.457  11.995  67.087  1.00  0.00    -0.187 C  
BRANCH  11  12
HETATM   12  C   UNL     1      -9.869  13.417  67.442  1.00  0.00    -0.227 C  
BRANCH  12  13
HETATM   13  C   UNL     1     -11.340  13.475  67.832  1.00  0.00    -0.320 C  
BRANCH  13  14
HETATM   14  C   UNL     1     -11.559  14.491  68.948  1.00  0.00    -0.341 C  
BRANCH  14  15
HETATM   15  C   UNL     1     -12.572  13.978  69.969  1.00  0.00    -0.250 C  
BRANCH  15  16
HETATM   16  C   UNL     1     -12.750  12.467  69.839  1.00  0.00     0.369 C  
BRANCH  16  17
HETATM   17  C   UNL     1     -12.002  11.724  70.942  1.00  0.00    -0.116 C  
HETATM   18  C   UNL     1     -11.503  10.378  70.469  1.00  0.00    -0.345 C  
HETATM   19  O   UNL     1     -11.664   9.914  69.353  1.00  0.00    -0.042 OA 
HETATM   20  O   UNL     1     -10.837   9.711  71.442  1.00  0.00    -0.340 OA 
ENDBRANCH  16  17
ENDBRANCH  15  16
ENDBRANCH  14  15
ENDBRANCH  13  14
ENDBRANCH  12  13
ENDBRANCH  11  12
ENDBRANCH  10  11
ENDBRANCH   9  10
ENDBRANCH   8   9
ENDBRANCH   7   8
ENDBRANCH   6   7
ENDBRANCH   5   6
ENDBRANCH   4   5
ENDBRANCH   3   4
ENDBRANCH   2   3
TORSDOF 15
ENDMDL
MODEL      435
REMARK 921   NORMALIZED FREE ENERGY PREDICTED BY IDOCK:   -2.23 KCAL/MOL
REMARK 922        TOTAL FREE ENERGY PREDICTED BY IDOCK:   -5.98 KCAL/MOL
REMARK 923 INTER-LIGAND FREE ENERGY PREDICTED BY IDOCK:   -4.98 KCAL/MOL
REMARK 924 INTRA-LIGAND FREE ENERGY PREDICTED BY IDOCK:   -1.00 KCAL/MOL
REMARK 927      BINDING AFFINITY PREDICTED BY RF-SCORE:    0.00 PKD
ROOT
HETATM    1  C   UNL     1     -11.337  14.490  66.726  1.00  0.00    -0.358 C  
HETATM    2  C   UNL     1     -12.496  14.298  65.765  1.00  0.00    -0.421 C  
ENDROOT
BRANCH   2   3
HETATM    3  C   UNL     1     -12.006  13.830  64.397  1.00  0.00    -0.480 C  
BRANCH   3   4
HETATM    4  C   UNL     1     -12.534  12.437  64.071  1.00  0.00    -0.554 C  
BRANCH   4   5
HETATM    5  C   UNL     1     -11.622  11.362  64.654  1.00  0.00    -0.014 C  
BRANCH   5   6
HETATM    6  C   UNL     1     -10.248  11.397  63.992  1.00  0.00    -0.398 C  
BRANCH   6   7
HETATM    7  C   UNL     1      -9.176  10.892  64.949  1.00  0.00    -0.230 C  
BRANCH   7   8
HETATM    8  C   UNL     1      -9.515   9.494  65.452  1.00  0.00    -0.336 C  
BRANCH   8   9
HETATM    9  C   UNL     1      -8.287   8.829  66.058  1.00  0.00    -0.130 C  
BRANCH   9  10
HETATM   10  C   UNL     1      -8.654   7.490  66.688  1.00  0.00    -0.131 C  
BRANCH  10  11
HETATM   11  C   UNL     1      -9.594   7.690  67.872  1.00  0.00    -0.164 C  
BRANCH  11  12
HETATM   12  C   UNL     1     -10.723   6.670  67.840  1.00  0.00    -0.341 C  
BRANCH  12  13
HETATM   13  C   UNL     1     -11.597   6.789  69.082  1.00  0.00    -0.016 C  
BRANCH  13  14
HETATM   14  C   UNL     1     -11.061   5.905  70.203  1.00  0.00    -0.395 C  
BRANCH  14  15
HETATM   15  C   UNL     1     -10.164   4.800  69.652  1.00  0.00    -0.200 C  
BRANCH  15  16
HETATM   16  C   UNL     1      -9.715   3.862  70.771  1.00  0.00    -0.255 C  
BRANCH  16  17
HETATM   17  C   UNL     1      -9.179   4.643  71.967  1.00  0.00    -0.167 C  
HETATM   18  C   UNL     1      -9.772   4.150  73.266  1.00  0.00    -0.120 C  
HETATM   19  O   UNL     1     -10.581   3.243  73.379  1.00  0.00    -0.157 OA 
HETATM   20  O   UNL     1      -9.303   4.837  74.334  1.00  0.00    -0.116 OA 
ENDBRANCH  16  17
ENDBRANCH  15  16
ENDBRANCH  14  15
ENDBRANCH  13  14
ENDBRANCH  12  13
ENDBRANCH  11  12
ENDBRANCH  10  11
ENDBRANCH   9  10
ENDBRANCH   8   9
ENDBRANCH   7   8
ENDBRANCH   6   7
ENDBRANCH   5   6
ENDBRANCH   4   5
ENDBRANCH   3   4
ENDBRANCH   2   3
TORSDOF 15
ENDMDL
MODEL      436
REMARK 921   NORMALIZED FREE ENERGY PREDICTED BY IDOCK:   -2.22 KCAL/MOL
REMARK 922        TOTAL FREE ENERGY PREDICTED BY IDOCK:   -5.97 KCAL/MOL
REMARK 923 INTER-LIGAND FREE ENERGY PREDICTED BY IDOCK:   -4.09 KCAL/MOL
REMARK 924 INTRA-LIGAND FREE ENERGY PREDICTED BY IDOCK:   -1.88 KCAL/MOL
REMARK 927      BINDING AFFINITY PREDICTED BY RF-SCORE:    0.00 PKD
ROOT
HETATM    1  C   UNL     1      -5.226  13.206  69.881  1.00  0.00    -0.089 C  
HETATM    2  C   UNL     1      -5.480  12.302  68.689  1.00  0.00    -0.053 C  
ENDROOT
BRANCH   2   3
HETATM    3  C   UNL     1      -6.906  12.466  68.167  1.00  0.00    -0.081 C  
BRANCH   3   4
HETATM    4  C   UNL     1      -7.072  11.803  66.804  1.00  0.00    -0.047 C  
BRANCH   4   5
HETATM    5  C   UNL     1      -5.900  10.872  66.509  1.00  0.00    -0.106 C  
BRANCH   5   6
HETATM    6  C   UNL     1      -6.389   9.551  65.925  1.00  0.00    -0.075 C  
BRANCH   6   7
HETATM    7  C   UNL     1      -6.350   8.450  66.977  1.00  0.00    -0.057 C  
BRANCH   7   8
HETATM    8  C   UNL     1      -7.051   7.194  66.472  1.00  0.00    -0.078 C  
BRANCH   8   9
HETATM    9  C   UNL     1      -8.260   6.868  67.339  1.00  0.00    -0.119 C  
BRANCH   9  10
HETATM   10  C   UNL     1      -9.555   7.149  66.586  1.00  0.00    -0.226 C  
BRANCH  10  11
HETATM   11  C   UNL     1     -10.444   8.103  67.377  1.00  0.00    -0.356 C  
BRANCH  11  12
HETATM   12  C   UNL     1      -9.834   9.497  67.417  1.00  0.00    -0.218 C  
BRANCH  12  13
HETATM   13  C   UNL     1     -10.888  10.560  67.136  1.00  0.00    -0.319 C  
BRANCH  13  14
HETATM   14  C   UNL     1     -10.564  11.310  65.848  1.00  0.00    -0.309 C  
BRANCH  14  15
HETATM   15  C   UNL     1     -11.556  12.444  65.607  1.00  0.00    -0.441 C  
BRANCH  15  16
HETATM   16  C   UNL     1     -11.273  13.618  66.542  1.00  0.00    -0.321 C  
BRANCH  16  17
HETATM   17  C   UNL     1      -9.849  14.136  66.365  1.00  0.00    -0.308 C  
HETATM   18  C   UNL     1      -9.814  15.643  66.253  1.00  0.00    -0.295 C  
HETATM   19  O   UNL     1     -10.785  16.381  66.295  1.00  0.00    -0.266 OA 
HETATM   20  O   UNL     1      -8.554  16.113  66.095  1.00  0.00    -0.326 OA 
ENDBRANCH  16  17
ENDBRANCH  15  16
ENDBRANCH  14  15
ENDBRANCH  13  14
ENDBRANCH  12  13
ENDBRANCH  11  12
ENDBRANCH  10  11
ENDBRANCH   9  10
ENDBRANCH   8   9
ENDBRANCH   7   8
ENDBRANCH   6   7
ENDBRANCH   5   6
ENDBRANCH   4   5
ENDBRANCH   3   4
ENDBRANCH   2   3
TORSDOF 15
ENDMDL
MODEL      437
REMARK 921   NORMALIZED FREE ENERGY PREDICTED BY IDOCK:   -2.22 KCAL/MOL
REMARK 922        TOTAL FREE ENERGY PREDICTED BY IDOCK:   -5.97 KCAL/MOL
REMARK 923 INTER-LIGAND FREE ENERGY PREDICTED BY IDOCK:   -3.98 KCAL/MOL
REMARK 924 INTRA-LIGAND FREE ENERGY PREDICTED BY IDOCK:   -1.98 KCAL/MOL
REMARK 927      BINDING AFFINITY PREDICTED BY RF-SCORE:    0.00 PKD
ROOT
HETATM    1  C   UNL     1     -11.711  14.819  64.822  1.00  0.00    -0.422 C  
HETATM    2  C   UNL     1     -12.120  13.590  65.615  1.00  0.00    -0.467 C  
ENDROOT
BRANCH   2   3
HETATM    3  C   UNL     1     -10.899  12.790  66.060  1.00  0.00    -0.301 C  
BRANCH   3   4
HETATM    4  C   UNL     1     -11.110  11.296  65.836  1.00  0.00    -0.168 C  
BRANCH   4   5
HETATM    5  C   UNL     1      -9.832  10.640  65.322  1.00  0.00    -0.334 C  
BRANCH   5   6
HETATM    6  C   UNL     1      -9.680   9.230  65.885  1.00  0.00    -0.355 C  
BRANCH   6   7
HETATM    7  C   UNL     1     -10.318   9.129  67.264  1.00  0.00    -0.338 C  
BRANCH   7   8
HETATM    8  C   UNL     1     -10.789   7.706  67.540  1.00  0.00    -0.205 C  
BRANCH   8   9
HETATM    9  C   UNL     1      -9.941   6.702  66.770  1.00  0.00    -0.238 C  
BRANCH   9  10
HETATM   10  C   UNL     1     -10.646   5.353  66.688  1.00  0.00    -0.359 C  
BRANCH  10  11
HETATM   11  C   UNL     1     -10.074   4.514  65.550  1.00  0.00    -0.240 C  
BRANCH  11  12
HETATM   12  C   UNL     1      -8.648   4.084  65.863  1.00  0.00    -0.110 C  
BRANCH  12  13
HETATM   13  C   UNL     1      -7.726   4.362  64.683  1.00  0.00    -0.077 C  
BRANCH  13  14
HETATM   14  C   UNL     1      -6.562   5.251  65.109  1.00  0.00    -0.040 C  
BRANCH  14  15
HETATM   15  C   UNL     1      -6.858   6.720  64.821  1.00  0.00    -0.050 C  
BRANCH  15  16
HETATM   16  C   UNL     1      -6.266   7.612  65.911  1.00  0.00    -0.042 C  
BRANCH  16  17
HETATM   17  C   UNL     1      -6.341   6.941  67.278  1.00  0.00    -0.048 C  
HETATM   18  C   UNL     1      -6.752   7.915  68.357  1.00  0.00    -0.066 C  
HETATM   19  O   UNL     1      -6.999   9.098  68.189  1.00  0.00    -0.074 OA 
HETATM   20  O   UNL     1      -6.821   7.328  69.575  1.00  0.00    -0.047 OA 
ENDBRANCH  16  17
ENDBRANCH  15  16
ENDBRANCH  14  15
ENDBRANCH  13  14
ENDBRANCH  12  13
ENDBRANCH  11  12
ENDBRANCH  10  11
ENDBRANCH   9  10
ENDBRANCH   8   9
ENDBRANCH   7   8
ENDBRANCH   6   7
ENDBRANCH   5   6
ENDBRANCH   4   5
ENDBRANCH   3   4
ENDBRANCH   2   3
TORSDOF 15
ENDMDL
MODEL      438
REMARK 921   NORMALIZED FREE ENERGY PREDICTED BY IDOCK:   -2.21 KCAL/MOL
REMARK 922        TOTAL FREE ENERGY PREDICTED BY IDOCK:   -5.94 KCAL/MOL
REMARK 923 INTER-LIGAND FREE ENERGY PREDICTED BY IDOCK:   -4.64 KCAL/MOL
REMARK 924 INTRA-LIGAND FREE ENERGY PREDICTED BY IDOCK:   -1.30 KCAL/MOL
REMARK 927      BINDING AFFINITY PREDICTED BY RF-SCORE:    0.00 PKD
ROOT
HETATM    1  C   UNL     1      -5.172  14.061  72.200  1.00  0.00    -0.212 C  
HETATM    2  C   UNL     1      -5.137  14.383  70.717  1.00  0.00    -0.116 C  
ENDROOT
BRANCH   2   3
HETATM    3  C   UNL     1      -6.545  14.414  70.128  1.00  0.00    -0.104 C  
BRANCH   3   4
HETATM    4  C   UNL     1      -6.546  13.929  68.682  1.00  0.00    -0.095 C  
BRANCH   4   5
HETATM    5  C   UNL     1      -6.810  12.428  68.615  1.00  0.00    -0.087 C  
BRANCH   5   6
HETATM    6  C   UNL     1      -7.946  12.119  67.645  1.00  0.00    -0.157 C  
BRANCH   6   7
HETATM    7  C   UNL     1      -7.650  10.849  66.857  1.00  0.00    -0.128 C  
BRANCH   7   8
HETATM    8  C   UNL     1      -8.624  10.696  65.695  1.00  0.00    -0.187 C  
BRANCH   8   9
HETATM    9  C   UNL     1      -9.716  11.755  65.765  1.00  0.00    -0.260 C  
BRANCH   9  10
HETATM   10  C   UNL     1     -10.831  11.447  64.772  1.00  0.00    -0.339 C  
BRANCH  10  11
HETATM   11  C   UNL     1     -11.849  12.582  64.734  1.00  0.00    -0.440 C  
BRANCH  11  12
HETATM   12  C   UNL     1     -11.262  13.850  65.338  1.00  0.00    -0.306 C  
BRANCH  12  13
HETATM   13  C   UNL     1     -12.208  14.447  66.372  1.00  0.00    -0.363 C  
BRANCH  13  14
HETATM   14  C   UNL     1     -12.533  13.425  67.456  1.00  0.00     0.164 C  
BRANCH  14  15
HETATM   15  C   UNL     1     -11.667  13.641  68.694  1.00  0.00    -0.389 C  
BRANCH  15  16
HETATM   16  C   UNL     1     -12.398  13.174  69.951  1.00  0.00    -0.201 C  
BRANCH  16  17
HETATM   17  C   UNL     1     -11.993  14.002  71.167  1.00  0.00    -0.257 C  
HETATM   18  C   UNL     1     -12.820  15.261  71.286  1.00  0.00    -0.425 C  
HETATM   19  O   UNL     1     -13.708  15.602  70.521  1.00  0.00    -0.299 OA 
HETATM   20  O   UNL     1     -12.468  16.003  72.362  1.00  0.00    -0.441 OA 
ENDBRANCH  16  17
ENDBRANCH  15  16
ENDBRANCH  14  15
ENDBRANCH  13  14
ENDBRANCH  12  13
ENDBRANCH  11  12
ENDBRANCH  10  11
ENDBRANCH   9  10
ENDBRANCH   8   9
ENDBRANCH   7   8
ENDBRANCH   6   7
ENDBRANCH   5   6
ENDBRANCH   4   5
ENDBRANCH   3   4
ENDBRANCH   2   3
TORSDOF 15
ENDMDL
MODEL      439
REMARK 921   NORMALIZED FREE ENERGY PREDICTED BY IDOCK:   -2.21 KCAL/MOL
REMARK 922        TOTAL FREE ENERGY PREDICTED BY IDOCK:   -5.94 KCAL/MOL
REMARK 923 INTER-LIGAND FREE ENERGY PREDICTED BY IDOCK:   -3.92 KCAL/MOL
REMARK 924 INTRA-LIGAND FREE ENERGY PREDICTED BY IDOCK:   -2.02 KCAL/MOL
REMARK 927      BINDING AFFINITY PREDICTED BY RF-SCORE:    0.00 PKD
ROOT
HETATM    1  C   UNL     1     -11.466  14.668  64.979  1.00  0.00    -0.386 C  
HETATM    2  C   UNL     1     -12.112  13.557  65.787  1.00  0.00    -0.473 C  
ENDROOT
BRANCH   2   3
HETATM    3  C   UNL     1     -11.099  12.893  66.717  1.00  0.00    -0.315 C  
BRANCH   3   4
HETATM    4  C   UNL     1     -10.999  11.397  66.442  1.00  0.00    -0.315 C  
BRANCH   4   5
HETATM    5  C   UNL     1      -9.541  10.957  66.363  1.00  0.00    -0.229 C  
BRANCH   5   6
HETATM    6  C   UNL     1      -9.255   9.839  67.361  1.00  0.00    -0.151 C  
BRANCH   6   7
HETATM    7  C   UNL     1      -9.045  10.406  68.759  1.00  0.00    -0.165 C  
BRANCH   7   8
HETATM    8  C   UNL     1      -9.854   9.625  69.787  1.00  0.00    -0.253 C  
BRANCH   8   9
HETATM    9  C   UNL     1     -10.069   8.190  69.323  1.00  0.00    -0.202 C  
BRANCH   9  10
HETATM   10  C   UNL     1     -11.124   7.499  70.180  1.00  0.00    -0.246 C  
BRANCH  10  11
HETATM   11  C   UNL     1     -10.625   6.139  70.657  1.00  0.00    -0.307 C  
BRANCH  11  12
HETATM   12  C   UNL     1      -9.312   6.283  71.412  1.00  0.00    -0.160 C  
BRANCH  12  13
HETATM   13  C   UNL     1      -8.398   5.094  71.143  1.00  0.00    -0.121 C  
BRANCH  13  14
HETATM   14  C   UNL     1      -6.999   5.567  70.763  1.00  0.00    -0.053 C  
BRANCH  14  15
HETATM   15  C   UNL     1      -6.979   6.151  69.353  1.00  0.00    -0.067 C  
BRANCH  15  16
HETATM   16  C   UNL     1      -6.258   7.497  69.336  1.00  0.00    -0.031 C  
BRANCH  16  17
HETATM   17  C   UNL     1      -6.341   8.187  70.694  1.00  0.00    -0.036 C  
HETATM   18  C   UNL     1      -5.936   9.640  70.607  1.00  0.00    -0.072 C  
HETATM   19  O   UNL     1      -5.581  10.219  69.594  1.00  0.00    -0.037 OA 
HETATM   20  O   UNL     1      -6.007  10.262  71.808  1.00  0.00    -0.300 OA 
ENDBRANCH  16  17
ENDBRANCH  15  16
ENDBRANCH  14  15
ENDBRANCH  13  14
ENDBRANCH  12  13
ENDBRANCH  11  12
ENDBRANCH  10  11
ENDBRANCH   9  10
ENDBRANCH   8   9
ENDBRANCH   7   8
ENDBRANCH   6   7
ENDBRANCH   5   6
ENDBRANCH   4   5
ENDBRANCH   3   4
ENDBRANCH   2   3
TORSDOF 15
ENDMDL
MODEL      440
REMARK 921   NORMALIZED FREE ENERGY PREDICTED BY IDOCK:   -2.20 KCAL/MOL
REMARK 922        TOTAL FREE ENERGY PREDICTED BY IDOCK:   -5.93 KCAL/MOL
REMARK 923 INTER-LIGAND FREE ENERGY PREDICTED BY IDOCK:   -4.34 KCAL/MOL
REMARK 924 INTRA-LIGAND FREE ENERGY PREDICTED BY IDOCK:   -1.59 KCAL/MOL
REMARK 927      BINDING AFFINITY PREDICTED BY RF-SCORE:    0.00 PKD
ROOT
HETATM    1  C   UNL     1      -8.905   8.873  71.345  1.00  0.00    -0.283 C  
HETATM    2  C   UNL     1      -7.843   7.874  71.767  1.00  0.00    -0.110 C  
ENDROOT
BRANCH   2   3
HETATM    3  C   UNL     1      -8.389   6.892  72.800  1.00  0.00    -0.118 C  
BRANCH   3   4
HETATM    4  C   UNL     1      -8.733   5.553  72.156  1.00  0.00    -0.130 C  
BRANCH   4   5
HETATM    5  C   UNL     1     -10.219   5.245  72.308  1.00  0.00    -0.250 C  
BRANCH   5   6
HETATM    6  C   UNL     1     -11.035   5.963  71.238  1.00  0.00    -0.325 C  
BRANCH   6   7
HETATM    7  C   UNL     1     -10.536   5.598  69.845  1.00  0.00    -0.378 C  
BRANCH   7   8
HETATM    8  C   UNL     1     -11.160   6.506  68.792  1.00  0.00    -0.357 C  
BRANCH   8   9
HETATM    9  C   UNL     1     -10.082   7.267  68.032  1.00  0.00    -0.207 C  
BRANCH   9  10
HETATM   10  C   UNL     1      -8.742   7.166  68.751  1.00  0.00    -0.124 C  
BRANCH  10  11
HETATM   11  C   UNL     1      -7.615   7.697  67.870  1.00  0.00    -0.117 C  
BRANCH  11  12
HETATM   12  C   UNL     1      -7.577   6.956  66.542  1.00  0.00    -0.089 C  
BRANCH  12  13
HETATM   13  C   UNL     1      -7.107   7.874  65.421  1.00  0.00    -0.060 C  
BRANCH  13  14
HETATM   14  C   UNL     1      -8.297   8.531  64.730  1.00  0.00    -0.163 C  
BRANCH  14  15
HETATM   15  C   UNL     1      -8.324  10.034  64.990  1.00  0.00    -0.158 C  
BRANCH  15  16
HETATM   16  C   UNL     1      -9.476  10.400  65.924  1.00  0.00    -0.237 C  
BRANCH  16  17
HETATM   17  C   UNL     1      -9.323  11.819  66.463  1.00  0.00    -0.217 C  
HETATM   18  C   UNL     1     -10.635  12.366  66.975  1.00  0.00    -0.225 C  
HETATM   19  O   UNL     1     -11.702  11.773  66.970  1.00  0.00    -0.555 OA 
HETATM   20  O   UNL     1     -10.509  13.626  67.455  1.00  0.00    -0.239 OA 
ENDBRANCH  16  17
ENDBRANCH  15  16
ENDBRANCH  14  15
ENDBRANCH  13  14
ENDBRANCH  12  13
ENDBRANCH  11  12
ENDBRANCH  10  11
ENDBRANCH   9  10
ENDBRANCH   8   9
ENDBRANCH   7   8
ENDBRANCH   6   7
ENDBRANCH   5   6
ENDBRANCH   4   5
ENDBRANCH   3   4
ENDBRANCH   2   3
TORSDOF 15
ENDMDL
MODEL      441
REMARK 921   NORMALIZED FREE ENERGY PREDICTED BY IDOCK:   -2.18 KCAL/MOL
REMARK 922        TOTAL FREE ENERGY PREDICTED BY IDOCK:   -5.88 KCAL/MOL
REMARK 923 INTER-LIGAND FREE ENERGY PREDICTED BY IDOCK:   -3.84 KCAL/MOL
REMARK 924 INTRA-LIGAND FREE ENERGY PREDICTED BY IDOCK:   -2.05 KCAL/MOL
REMARK 927      BINDING AFFINITY PREDICTED BY RF-SCORE:    0.00 PKD
ROOT
HETATM    1  C   UNL     1      -7.787   9.297  63.083  1.00  0.00    -0.135 C  
HETATM    2  C   UNL     1      -8.594   8.277  63.865  1.00  0.00     0.155 C  
ENDROOT
BRANCH   2   3
HETATM    3  C   UNL     1      -7.689   7.410  64.737  1.00  0.00    -0.114 C  
BRANCH   3   4
HETATM    4  C   UNL     1      -7.530   8.010  66.130  1.00  0.00    -0.075 C  
BRANCH   4   5
HETATM    5  C   UNL     1      -8.104   7.075  67.191  1.00  0.00    -0.118 C  
BRANCH   5   6
HETATM    6  C   UNL     1      -9.300   6.303  66.645  1.00  0.00    -0.167 C  
BRANCH   6   7
HETATM    7  C   UNL     1     -10.418   6.240  67.678  1.00  0.00    -0.288 C  
BRANCH   7   8
HETATM    8  C   UNL     1      -9.944   5.536  68.944  1.00  0.00    -0.236 C  
BRANCH   8   9
HETATM    9  C   UNL     1     -10.940   5.741  70.078  1.00  0.00    -0.382 C  
BRANCH   9  10
HETATM   10  C   UNL     1     -10.233   6.239  71.333  1.00  0.00    -0.237 C  
BRANCH  10  11
HETATM   11  C   UNL     1     -10.723   7.633  71.711  1.00  0.00    -0.252 C  
BRANCH  11  12
HETATM   12  C   UNL     1     -12.006   7.972  70.966  1.00  0.00    -0.260 C  
BRANCH  12  13
HETATM   13  C   UNL     1     -12.152   9.478  70.793  1.00  0.00    -0.305 C  
BRANCH  13  14
HETATM   14  C   UNL     1     -11.624   9.916  69.431  1.00  0.00    -0.004 C  
BRANCH  14  15
HETATM   15  C   UNL     1     -10.212  10.485  69.544  1.00  0.00    -0.230 C  
BRANCH  15  16
HETATM   16  C   UNL     1      -9.550  10.560  68.170  1.00  0.00    -0.163 C  
BRANCH  16  17
HETATM   17  C   UNL     1     -10.590  10.634  67.057  1.00  0.00    -0.317 C  
HETATM   18  C   UNL     1      -9.988  11.131  65.763  1.00  0.00    -0.245 C  
HETATM   19  O   UNL     1      -8.820  11.443  65.597  1.00  0.00    -0.174 OA 
HETATM   20  O   UNL     1     -10.904  11.200  64.768  1.00  0.00    -0.289 OA 
ENDBRANCH  16  17
ENDBRANCH  15  16
ENDBRANCH  14  15
ENDBRANCH  13  14
ENDBRANCH  12  13
ENDBRANCH  11  12
ENDBRANCH  10  11
ENDBRANCH   9  10
ENDBRANCH   8   9
ENDBRANCH   7   8
ENDBRANCH   6   7
ENDBRANCH   5   6
ENDBRANCH   4   5
ENDBRANCH   3   4
ENDBRANCH   2   3
TORSDOF 15
ENDMDL
MODEL      442
REMARK 921   NORMALIZED FREE ENERGY PREDICTED BY IDOCK:   -2.17 KCAL/MOL
REMARK 922        TOTAL FREE ENERGY PREDICTED BY IDOCK:   -5.87 KCAL/MOL
REMARK 923 INTER-LIGAND FREE ENERGY PREDICTED BY IDOCK:   -3.46 KCAL/MOL
REMARK 924 INTRA-LIGAND FREE ENERGY PREDICTED BY IDOCK:   -2.41 KCAL/MOL
REMARK 927      BINDING AFFINITY PREDICTED BY RF-SCORE:    0.00 PKD
ROOT
HETATM    1  C   UNL     1      -8.018   8.729  63.794  1.00  0.00    -0.157 C  
HETATM    2  C   UNL     1      -7.934   7.250  64.126  1.00  0.00    -0.084 C  
ENDROOT
BRANCH   2   3
HETATM    3  C   UNL     1      -6.639   6.925  64.867  1.00  0.00    -0.043 C  
BRANCH   3   4
HETATM    4  C   UNL     1      -6.871   6.851  66.372  1.00  0.00    -0.064 C  
BRANCH   4   5
HETATM    5  C   UNL     1      -6.415   5.504  66.924  1.00  0.00    -0.044 C  
BRANCH   5   6
HETATM    6  C   UNL     1      -6.374   4.450  65.822  1.00  0.00    -0.036 C  
BRANCH   6   7
HETATM    7  C   UNL     1      -7.539   3.478  65.964  1.00  0.00    -0.081 C  
BRANCH   7   8
HETATM    8  C   UNL     1      -7.793   3.149  67.430  1.00  0.00    -0.077 C  
BRANCH   8   9
HETATM    9  C   UNL     1      -9.277   3.253  67.755  1.00  0.00    -0.240 C  
BRANCH   9  10
HETATM   10  C   UNL     1      -9.488   3.943  69.097  1.00  0.00    -0.246 C  
BRANCH  10  11
HETATM   11  C   UNL     1     -10.161   5.299  68.907  1.00  0.00    -0.248 C  
BRANCH  11  12
HETATM   12  C   UNL     1     -10.293   5.630  67.427  1.00  0.00    -0.284 C  
BRANCH  12  13
HETATM   13  C   UNL     1     -11.200   6.836  67.219  1.00  0.00    -0.279 C  
BRANCH  13  14
HETATM   14  C   UNL     1     -10.390   8.046  66.766  1.00  0.00    -0.360 C  
BRANCH  14  15
HETATM   15  C   UNL     1      -9.893   8.855  67.961  1.00  0.00    -0.199 C  
BRANCH  15  16
HETATM   16  C   UNL     1      -8.897   9.922  67.512  1.00  0.00    -0.131 C  
BRANCH  16  17
HETATM   17  C   UNL     1      -9.479  10.793  66.403  1.00  0.00    -0.200 C  
HETATM   18  C   UNL     1      -9.795  12.187  66.895  1.00  0.00    -0.203 C  
HETATM   19  O   UNL     1      -9.619  12.595  68.031  1.00  0.00    -0.201 OA 
HETATM   20  O   UNL     1     -10.313  12.967  65.917  1.00  0.00    -0.277 OA 
ENDBRANCH  16  17
ENDBRANCH  15  16
ENDBRANCH  14  15
ENDBRANCH  13  14
ENDBRANCH  12  13
ENDBRANCH  11  12
ENDBRANCH  10  11
ENDBRANCH   9  10
ENDBRANCH   8   9
ENDBRANCH   7   8
ENDBRANCH   6   7
ENDBRANCH   5   6
ENDBRANCH   4   5
ENDBRANCH   3   4
ENDBRANCH   2   3
TORSDOF 15
ENDMDL
MODEL      443
REMARK 921   NORMALIZED FREE ENERGY PREDICTED BY IDOCK:   -2.17 KCAL/MOL
REMARK 922        TOTAL FREE ENERGY PREDICTED BY IDOCK:   -5.86 KCAL/MOL
REMARK 923 INTER-LIGAND FREE ENERGY PREDICTED BY IDOCK:   -4.00 KCAL/MOL
REMARK 924 INTRA-LIGAND FREE ENERGY PREDICTED BY IDOCK:   -1.86 KCAL/MOL
REMARK 927      BINDING AFFINITY PREDICTED BY RF-SCORE:    0.00 PKD
ROOT
HETATM    1  C   UNL     1      -5.917  13.292  70.120  1.00  0.00    -0.139 C  
HETATM    2  C   UNL     1      -6.082  12.406  68.899  1.00  0.00    -0.074 C  
ENDROOT
BRANCH   2   3
HETATM    3  C   UNL     1      -7.385  12.717  68.165  1.00  0.00    -0.118 C  
BRANCH   3   4
HETATM    4  C   UNL     1      -7.577  11.790  66.970  1.00  0.00    -0.147 C  
BRANCH   4   5
HETATM    5  C   UNL     1      -6.585  10.633  67.018  1.00  0.00    -0.081 C  
BRANCH   5   6
HETATM    6  C   UNL     1      -7.300   9.314  67.292  1.00  0.00    -0.091 C  
BRANCH   6   7
HETATM    7  C   UNL     1      -6.802   8.691  68.589  1.00  0.00    -0.063 C  
BRANCH   7   8
HETATM    8  C   UNL     1      -7.560   7.404  68.896  1.00  0.00    -0.103 C  
BRANCH   8   9
HETATM    9  C   UNL     1      -8.317   7.529  70.212  1.00  0.00    -0.133 C  
BRANCH   9  10
HETATM   10  C   UNL     1      -9.819   7.603  69.963  1.00  0.00    -0.180 C  
BRANCH  10  11
HETATM   11  C   UNL     1     -10.402   8.881  70.558  1.00  0.00    -0.246 C  
BRANCH  11  12
HETATM   12  C   UNL     1     -10.003  10.091  69.726  1.00  0.00    -0.276 C  
BRANCH  12  13
HETATM   13  C   UNL     1     -11.228  10.756  69.111  1.00  0.00    -0.323 C  
BRANCH  13  14
HETATM   14  C   UNL     1     -10.813  11.885  68.174  1.00  0.00    -0.259 C  
BRANCH  14  15
HETATM   15  C   UNL     1     -11.972  12.846  67.922  1.00  0.00    -0.333 C  
BRANCH  15  16
HETATM   16  C   UNL     1     -11.954  13.990  68.934  1.00  0.00    -0.387 C  
BRANCH  16  17
HETATM   17  C   UNL     1     -10.546  14.546  69.118  1.00  0.00    -0.242 C  
HETATM   18  C   UNL     1     -10.455  15.991  68.687  1.00  0.00    -0.251 C  
HETATM   19  O   UNL     1     -11.375  16.658  68.242  1.00  0.00    -0.309 OA 
HETATM   20  O   UNL     1      -9.208  16.494  68.846  1.00  0.00    -0.247 OA 
ENDBRANCH  16  17
ENDBRANCH  15  16
ENDBRANCH  14  15
ENDBRANCH  13  14
ENDBRANCH  12  13
ENDBRANCH  11  12
ENDBRANCH  10  11
ENDBRANCH   9  10
ENDBRANCH   8   9
ENDBRANCH   7   8
ENDBRANCH   6   7
ENDBRANCH   5   6
ENDBRANCH   4   5
ENDBRANCH   3   4
ENDBRANCH   2   3
TORSDOF 15
ENDMDL
MODEL      444
REMARK 921   NORMALIZED FREE ENERGY PREDICTED BY IDOCK:   -2.15 KCAL/MOL
REMARK 922        TOTAL FREE ENERGY PREDICTED BY IDOCK:   -5.83 KCAL/MOL
REMARK 923 INTER-LIGAND FREE ENERGY PREDICTED BY IDOCK:   -4.24 KCAL/MOL
REMARK 924 INTRA-LIGAND FREE ENERGY PREDICTED BY IDOCK:   -1.59 KCAL/MOL
REMARK 927      BINDING AFFINITY PREDICTED BY RF-SCORE:    0.00 PKD
ROOT
HETATM    1  C   UNL     1     -11.397  14.483  66.684  1.00  0.00    -0.359 C  
HETATM    2  C   UNL     1     -12.358  14.114  65.568  1.00  0.00    -0.472 C  
ENDROOT
BRANCH   2   3
HETATM    3  C   UNL     1     -11.605  13.642  64.327  1.00  0.00    -0.413 C  
BRANCH   3   4
HETATM    4  C   UNL     1     -11.846  12.159  64.068  1.00  0.00    -0.523 C  
BRANCH   4   5
HETATM    5  C   UNL     1     -11.087  11.303  65.077  1.00  0.00    -0.159 C  
BRANCH   5   6
HETATM    6  C   UNL     1      -9.581  11.499  64.933  1.00  0.00    -0.212 C  
BRANCH   6   7
HETATM    7  C   UNL     1      -8.912  11.557  66.300  1.00  0.00    -0.199 C  
BRANCH   7   8
HETATM    8  C   UNL     1      -9.271  10.329  67.129  1.00  0.00    -0.163 C  
BRANCH   8   9
HETATM    9  C   UNL     1      -8.429  10.273  68.397  1.00  0.00    -0.124 C  
BRANCH   9  10
HETATM   10  C   UNL     1      -8.893   9.138  69.302  1.00  0.00    -0.144 C  
BRANCH  10  11
HETATM   11  C   UNL     1     -10.360   9.316  69.681  1.00  0.00    -0.227 C  
BRANCH  11  12
HETATM   12  C   UNL     1     -11.053   7.965  69.794  1.00  0.00    -0.079 C  
BRANCH  12  13
HETATM   13  C   UNL     1     -10.335   7.070  70.796  1.00  0.00    -0.222 C  
BRANCH  13  14
HETATM   14  C   UNL     1     -10.043   5.704  70.183  1.00  0.00    -0.293 C  
BRANCH  14  15
HETATM   15  C   UNL     1     -10.422   5.671  68.705  1.00  0.00    -0.289 C  
BRANCH  15  16
HETATM   16  C   UNL     1      -9.359   4.935  67.892  1.00  0.00    -0.155 C  
BRANCH  16  17
HETATM   17  C   UNL     1      -7.957   5.428  68.237  1.00  0.00    -0.088 C  
HETATM   18  C   UNL     1      -6.998   4.281  68.452  1.00  0.00    -0.051 C  
HETATM   19  O   UNL     1      -7.279   3.096  68.369  1.00  0.00    -0.049 OA 
HETATM   20  O   UNL     1      -5.751   4.709  68.758  1.00  0.00    -0.018 OA 
ENDBRANCH  16  17
ENDBRANCH  15  16
ENDBRANCH  14  15
ENDBRANCH  13  14
ENDBRANCH  12  13
ENDBRANCH  11  12
ENDBRANCH  10  11
ENDBRANCH   9  10
ENDBRANCH   8   9
ENDBRANCH   7   8
ENDBRANCH   6   7
ENDBRANCH   5   6
ENDBRANCH   4   5
ENDBRANCH   3   4
ENDBRANCH   2   3
TORSDOF 15
ENDMDL
MODEL      445
REMARK 921   NORMALIZED FREE ENERGY PREDICTED BY IDOCK:   -2.15 KCAL/MOL
REMARK 922        TOTAL FREE ENERGY PREDICTED BY IDOCK:   -5.83 KCAL/MOL
REMARK 923 INTER-LIGAND FREE ENERGY PREDICTED BY IDOCK:   -4.71 KCAL/MOL
REMARK 924 INTRA-LIGAND FREE ENERGY PREDICTED BY IDOCK:   -1.12 KCAL/MOL
REMARK 927      BINDING AFFINITY PREDICTED BY RF-SCORE:    0.00 PKD
ROOT
HETATM    1  C   UNL     1      -5.753  20.981  64.722  1.00  0.00    -0.271 C  
HETATM    2  C   UNL     1      -6.101  20.159  65.950  1.00  0.00    -0.207 C  
ENDROOT
BRANCH   2   3
HETATM    3  C   UNL     1      -7.566  20.345  66.340  1.00  0.00    -0.222 C  
BRANCH   3   4
HETATM    4  C   UNL     1      -8.166  19.042  66.860  1.00  0.00    -0.286 C  
BRANCH   4   5
HETATM    5  C   UNL     1      -7.348  17.844  66.387  1.00  0.00    -0.300 C  
BRANCH   5   6
HETATM    6  C   UNL     1      -7.621  16.623  67.259  1.00  0.00    -0.199 C  
BRANCH   6   7
HETATM    7  C   UNL     1      -8.575  16.973  68.393  1.00  0.00    -0.243 C  
BRANCH   7   8
HETATM    8  C   UNL     1      -9.559  15.835  68.642  1.00  0.00    -0.207 C  
BRANCH   8   9
HETATM    9  C   UNL     1     -10.514  15.683  67.466  1.00  0.00    -0.285 C  
BRANCH   9  10
HETATM   10  C   UNL     1     -10.961  14.233  67.319  1.00  0.00    -0.302 C  
BRANCH  10  11
HETATM   11  C   UNL     1     -11.199  13.888  65.852  1.00  0.00    -0.297 C  
BRANCH  11  12
HETATM   12  C   UNL     1     -11.268  12.380  65.660  1.00  0.00    -0.360 C  
BRANCH  12  13
HETATM   13  C   UNL     1     -10.081  11.881  64.847  1.00  0.00    -0.296 C  
BRANCH  13  14
HETATM   14  C   UNL     1      -9.669  10.484  65.299  1.00  0.00    -0.328 C  
BRANCH  14  15
HETATM   15  C   UNL     1     -10.145  10.203  66.721  1.00  0.00    -0.277 C  
BRANCH  15  16
HETATM   16  C   UNL     1      -9.003   9.654  67.574  1.00  0.00    -0.136 C  
BRANCH  16  17
HETATM   17  C   UNL     1      -9.436   8.413  68.348  1.00  0.00    -0.145 C  
HETATM   18  C   UNL     1      -8.683   7.183  67.897  1.00  0.00    -0.126 C  
HETATM   19  O   UNL     1      -7.830   7.153  67.025  1.00  0.00    -0.105 OA 
HETATM   20  O   UNL     1      -9.061   6.076  68.579  1.00  0.00    -0.114 OA 
ENDBRANCH  16  17
ENDBRANCH  15  16
ENDBRANCH  14  15
ENDBRANCH  13  14
ENDBRANCH  12  13
ENDBRANCH  11  12
ENDBRANCH  10  11
ENDBRANCH   9  10
ENDBRANCH   8   9
ENDBRANCH   7   8
ENDBRANCH   6   7
ENDBRANCH   5   6
ENDBRANCH   4   5
ENDBRANCH   3   4
ENDBRANCH   2   3
TORSDOF 15
ENDMDL
MODEL      446
REMARK 921   NORMALIZED FREE ENERGY PREDICTED BY IDOCK:   -2.14 KCAL/MOL
REMARK 922        TOTAL FREE ENERGY PREDICTED BY IDOCK:   -5.81 KCAL/MOL
REMARK 923 INTER-LIGAND FREE ENERGY PREDICTED BY IDOCK:   -4.23 KCAL/MOL
REMARK 924 INTRA-LIGAND FREE ENERGY PREDICTED BY IDOCK:   -1.58 KCAL/MOL
REMARK 927      BINDING AFFINITY PREDICTED BY RF-SCORE:    0.00 PKD
ROOT
HETATM    1  C   UNL     1     -11.807  14.716  64.698  1.00  0.00    -0.459 C  
HETATM    2  C   UNL     1     -12.171  13.482  65.503  1.00  0.00    -0.490 C  
ENDROOT
BRANCH   2   3
HETATM    3  C   UNL     1     -10.929  12.834  66.110  1.00  0.00    -0.310 C  
BRANCH   3   4
HETATM    4  C   UNL     1     -10.923  11.328  65.872  1.00  0.00    -0.221 C  
BRANCH   4   5
HETATM    5  C   UNL     1      -9.529  10.848  65.479  1.00  0.00    -0.249 C  
BRANCH   5   6
HETATM    6  C   UNL     1      -9.219   9.498  66.118  1.00  0.00    -0.226 C  
BRANCH   6   7
HETATM    7  C   UNL     1      -9.993   9.327  67.419  1.00  0.00    -0.253 C  
BRANCH   7   8
HETATM    8  C   UNL     1     -10.762   8.011  67.422  1.00  0.00    -0.260 C  
BRANCH   8   9
HETATM    9  C   UNL     1      -9.826   6.843  67.706  1.00  0.00    -0.161 C  
BRANCH   9  10
HETATM   10  C   UNL     1     -10.441   5.533  67.230  1.00  0.00    -0.300 C  
BRANCH  10  11
HETATM   11  C   UNL     1      -9.398   4.419  67.221  1.00  0.00    -0.175 C  
BRANCH  11  12
HETATM   12  C   UNL     1      -8.941   4.101  68.637  1.00  0.00    -0.158 C  
BRANCH  12  13
HETATM   13  C   UNL     1      -7.423   3.994  68.706  1.00  0.00    -0.055 C  
BRANCH  13  14
HETATM   14  C   UNL     1      -6.870   4.900  69.800  1.00  0.00    -0.052 C  
BRANCH  14  15
HETATM   15  C   UNL     1      -6.614   6.309  69.272  1.00  0.00    -0.044 C  
BRANCH  15  16
HETATM   16  C   UNL     1      -6.999   7.355  70.316  1.00  0.00    -0.059 C  
BRANCH  16  17
HETATM   17  C   UNL     1      -8.250   6.937  71.083  1.00  0.00    -0.118 C  
HETATM   18  C   UNL     1      -9.080   8.132  71.492  1.00  0.00    -0.158 C  
HETATM   19  O   UNL     1      -8.810   9.298  71.254  1.00  0.00    -0.290 OA 
HETATM   20  O   UNL     1     -10.192   7.771  72.174  1.00  0.00    -0.192 OA 
ENDBRANCH  16  17
ENDBRANCH  15  16
ENDBRANCH  14  15
ENDBRANCH  13  14
ENDBRANCH  12  13
ENDBRANCH  11  12
ENDBRANCH  10  11
ENDBRANCH   9  10
ENDBRANCH   8   9
ENDBRANCH   7   8
ENDBRANCH   6   7
ENDBRANCH   5   6
ENDBRANCH   4   5
ENDBRANCH   3   4
ENDBRANCH   2   3
TORSDOF 15
ENDMDL
MODEL      447
REMARK 921   NORMALIZED FREE ENERGY PREDICTED BY IDOCK:   -2.14 KCAL/MOL
REMARK 922        TOTAL FREE ENERGY PREDICTED BY IDOCK:   -5.80 KCAL/MOL
REMARK 923 INTER-LIGAND FREE ENERGY PREDICTED BY IDOCK:   -4.69 KCAL/MOL
REMARK 924 INTRA-LIGAND FREE ENERGY PREDICTED BY IDOCK:   -1.11 KCAL/MOL
REMARK 927      BINDING AFFINITY PREDICTED BY RF-SCORE:    0.00 PKD
ROOT
HETATM    1  C   UNL     1     -11.985  14.997  72.158  1.00  0.00    -0.456 C  
HETATM    2  C   UNL     1     -11.437  14.516  70.826  1.00  0.00    -0.188 C  
ENDROOT
BRANCH   2   3
HETATM    3  C   UNL     1     -11.300  15.672  69.838  1.00  0.00    -0.340 C  
BRANCH   3   4
HETATM    4  C   UNL     1     -11.154  15.158  68.409  1.00  0.00    -0.286 C  
BRANCH   4   5
HETATM    5  C   UNL     1     -12.076  13.968  68.166  1.00  0.00    -0.307 C  
BRANCH   5   6
HETATM    6  C   UNL     1     -11.458  12.997  67.164  1.00  0.00    -0.379 C  
BRANCH   6   7
HETATM    7  C   UNL     1     -11.854  11.563  67.490  1.00  0.00    -0.157 C  
BRANCH   7   8
HETATM    8  C   UNL     1     -11.800  11.315  68.993  1.00  0.00    -0.421 C  
BRANCH   8   9
HETATM    9  C   UNL     1     -10.502  10.615  69.376  1.00  0.00    -0.252 C  
BRANCH   9  10
HETATM   10  C   UNL     1     -10.781   9.419  70.279  1.00  0.00    -0.299 C  
BRANCH  10  11
HETATM   11  C   UNL     1      -9.948   9.500  71.554  1.00  0.00     0.081 C  
BRANCH  11  12
HETATM   12  C   UNL     1     -10.370   8.422  72.541  1.00  0.00    -0.371 C  
BRANCH  12  13
HETATM   13  C   UNL     1      -9.154   7.754  73.170  1.00  0.00    -0.280 C  
BRANCH  13  14
HETATM   14  C   UNL     1      -9.229   6.240  73.007  1.00  0.00    -0.134 C  
BRANCH  14  15
HETATM   15  C   UNL     1     -10.149   5.617  74.054  1.00  0.00    -0.242 C  
BRANCH  15  16
HETATM   16  C   UNL     1     -10.950   4.465  73.451  1.00  0.00    -0.375 C  
BRANCH  16  17
HETATM   17  C   UNL     1     -10.487   4.152  72.032  1.00  0.00    -0.068 C  
HETATM   18  C   UNL     1     -10.178   2.683  71.856  1.00  0.00     0.010 C  
HETATM   19  O   UNL     1     -10.276   1.829  72.722  1.00  0.00    -0.111 OA 
HETATM   20  O   UNL     1      -9.767   2.395  70.599  1.00  0.00    -0.116 OA 
ENDBRANCH  16  17
ENDBRANCH  15  16
ENDBRANCH  14  15
ENDBRANCH  13  14
ENDBRANCH  12  13
ENDBRANCH  11  12
ENDBRANCH  10  11
ENDBRANCH   9  10
ENDBRANCH   8   9
ENDBRANCH   7   8
ENDBRANCH   6   7
ENDBRANCH   5   6
ENDBRANCH   4   5
ENDBRANCH   3   4
ENDBRANCH   2   3
TORSDOF 15
ENDMDL
MODEL      448
REMARK 921   NORMALIZED FREE ENERGY PREDICTED BY IDOCK:   -2.13 KCAL/MOL
REMARK 922        TOTAL FREE ENERGY PREDICTED BY IDOCK:   -5.80 KCAL/MOL
REMARK 923 INTER-LIGAND FREE ENERGY PREDICTED BY IDOCK:   -3.80 KCAL/MOL
REMARK 924 INTRA-LIGAND FREE ENERGY PREDICTED BY IDOCK:   -1.99 KCAL/MOL
REMARK 927      BINDING AFFINITY PREDICTED BY RF-SCORE:    0.00 PKD
ROOT
HETATM    1  C   UNL     1      -7.761   8.477  66.942  1.00  0.00    -0.091 C  
HETATM    2  C   UNL     1      -8.185   7.536  65.829  1.00  0.00    -0.137 C  
ENDROOT
BRANCH   2   3
HETATM    3  C   UNL     1      -9.195   6.507  66.332  1.00  0.00    -0.178 C  
BRANCH   3   4
HETATM    4  C   UNL     1      -9.171   5.248  65.472  1.00  0.00    -0.122 C  
BRANCH   4   5
HETATM    5  C   UNL     1      -9.857   4.090  66.189  1.00  0.00    -0.176 C  
BRANCH   5   6
HETATM    6  C   UNL     1      -9.128   2.777  65.923  1.00  0.00    -0.121 C  
BRANCH   6   7
HETATM    7  C   UNL     1      -8.883   2.024  67.223  1.00  0.00    -0.154 C  
BRANCH   7   8
HETATM    8  C   UNL     1      -9.373   2.833  68.418  1.00  0.00    -0.252 C  
BRANCH   8   9
HETATM    9  C   UNL     1      -8.203   3.264  69.292  1.00  0.00    -0.076 C  
BRANCH   9  10
HETATM   10  C   UNL     1      -8.432   4.665  69.847  1.00  0.00    -0.089 C  
BRANCH  10  11
HETATM   11  C   UNL     1      -9.439   4.634  70.992  1.00  0.00    -0.227 C  
BRANCH  11  12
HETATM   12  C   UNL     1     -10.539   5.661  70.768  1.00  0.00    -0.335 C  
BRANCH  12  13
HETATM   13  C   UNL     1     -10.132   6.670  69.701  1.00  0.00    -0.202 C  
BRANCH  13  14
HETATM   14  C   UNL     1     -10.934   7.958  69.846  1.00  0.00    -0.179 C  
BRANCH  14  15
HETATM   15  C   UNL     1     -10.025   9.183  69.795  1.00  0.00    -0.204 C  
BRANCH  15  16
HETATM   16  C   UNL     1     -10.811  10.422  69.373  1.00  0.00    -0.287 C  
BRANCH  16  17
HETATM   17  C   UNL     1     -11.122  10.399  67.880  1.00  0.00    -0.363 C  
HETATM   18  C   UNL     1     -10.153  11.252  67.095  1.00  0.00    -0.192 C  
HETATM   19  O   UNL     1      -9.227  11.892  67.566  1.00  0.00    -0.170 OA 
HETATM   20  O   UNL     1     -10.421  11.238  65.768  1.00  0.00    -0.246 OA 
ENDBRANCH  16  17
ENDBRANCH  15  16
ENDBRANCH  14  15
ENDBRANCH  13  14
ENDBRANCH  12  13
ENDBRANCH  11  12
ENDBRANCH  10  11
ENDBRANCH   9  10
ENDBRANCH   8   9
ENDBRANCH   7   8
ENDBRANCH   6   7
ENDBRANCH   5   6
ENDBRANCH   4   5
ENDBRANCH   3   4
ENDBRANCH   2   3
TORSDOF 15
ENDMDL
MODEL      449
REMARK 921   NORMALIZED FREE ENERGY PREDICTED BY IDOCK:   -2.11 KCAL/MOL
REMARK 922        TOTAL FREE ENERGY PREDICTED BY IDOCK:   -5.75 KCAL/MOL
REMARK 923 INTER-LIGAND FREE ENERGY PREDICTED BY IDOCK:   -4.43 KCAL/MOL
REMARK 924 INTRA-LIGAND FREE ENERGY PREDICTED BY IDOCK:   -1.32 KCAL/MOL
REMARK 927      BINDING AFFINITY PREDICTED BY RF-SCORE:    0.00 PKD
ROOT
HETATM    1  C   UNL     1      -5.280   4.326  67.850  1.00  0.00    -0.011 C  
HETATM    2  C   UNL     1      -6.468   3.982  68.729  1.00  0.00    -0.037 C  
ENDROOT
BRANCH   2   3
HETATM    3  C   UNL     1      -6.941   5.201  69.519  1.00  0.00    -0.054 C  
BRANCH   3   4
HETATM    4  C   UNL     1      -8.191   5.810  68.893  1.00  0.00    -0.101 C  
BRANCH   4   5
HETATM    5  C   UNL     1      -7.829   7.002  68.013  1.00  0.00    -0.114 C  
BRANCH   5   6
HETATM    6  C   UNL     1      -7.717   8.277  68.843  1.00  0.00    -0.102 C  
BRANCH   6   7
HETATM    7  C   UNL     1      -8.936   8.444  69.741  1.00  0.00    -0.146 C  
BRANCH   7   8
HETATM    8  C   UNL     1      -9.381   9.901  69.783  1.00  0.00    -0.248 C  
BRANCH   8   9
HETATM    9  C   UNL     1     -10.771  10.056  69.182  1.00  0.00    -0.244 C  
BRANCH   9  10
HETATM   10  C   UNL     1     -10.819   9.471  67.775  1.00  0.00    -0.258 C  
BRANCH  10  11
HETATM   11  C   UNL     1     -10.477  10.534  66.736  1.00  0.00    -0.302 C  
BRANCH  11  12
HETATM   12  C   UNL     1     -11.078  11.878  67.126  1.00  0.00    -0.347 C  
BRANCH  12  13
HETATM   13  C   UNL     1     -10.084  13.007  66.887  1.00  0.00    -0.243 C  
BRANCH  13  14
HETATM   14  C   UNL     1     -10.391  13.726  65.578  1.00  0.00    -0.333 C  
BRANCH  14  15
HETATM   15  C   UNL     1      -9.703  15.086  65.521  1.00  0.00    -0.294 C  
BRANCH  15  16
HETATM   16  C   UNL     1     -10.653  16.191  65.977  1.00  0.00    -0.303 C  
BRANCH  16  17
HETATM   17  C   UNL     1     -10.175  16.832  67.277  1.00  0.00    -0.292 C  
HETATM   18  C   UNL     1     -10.974  16.349  68.465  1.00  0.00    -0.350 C  
HETATM   19  O   UNL     1     -11.894  15.548  68.423  1.00  0.00    -0.351 OA 
HETATM   20  O   UNL     1     -10.557  16.912  69.623  1.00  0.00    -0.301 OA 
ENDBRANCH  16  17
ENDBRANCH  15  16
ENDBRANCH  14  15
ENDBRANCH  13  14
ENDBRANCH  12  13
ENDBRANCH  11  12
ENDBRANCH  10  11
ENDBRANCH   9  10
ENDBRANCH   8   9
ENDBRANCH   7   8
ENDBRANCH   6   7
ENDBRANCH   5   6
ENDBRANCH   4   5
ENDBRANCH   3   4
ENDBRANCH   2   3
TORSDOF 15
ENDMDL
MODEL      450
REMARK 921   NORMALIZED FREE ENERGY PREDICTED BY IDOCK:   -2.10 KCAL/MOL
REMARK 922        TOTAL FREE ENERGY PREDICTED BY IDOCK:   -5.73 KCAL/MOL
REMARK 923 INTER-LIGAND FREE ENERGY PREDICTED BY IDOCK:   -4.17 KCAL/MOL
REMARK 924 INTRA-LIGAND FREE ENERGY PREDICTED BY IDOCK:   -1.56 KCAL/MOL
REMARK 927      BINDING AFFINITY PREDICTED BY RF-SCORE:    0.00 PKD
ROOT
HETATM    1  C   UNL     1      -6.311  13.002  70.163  1.00  0.00     0.053 C  
HETATM    2  C   UNL     1      -6.682  11.821  69.284  1.00  0.00    -0.110 C  
ENDROOT
BRANCH   2   3
HETATM    3  C   UNL     1      -8.036  12.039  68.612  1.00  0.00    -0.082 C  
BRANCH   3   4
HETATM    4  C   UNL     1      -8.867  10.760  68.622  1.00  0.00    -0.152 C  
BRANCH   4   5
HETATM    5  C   UNL     1      -8.249   9.722  69.554  1.00  0.00    -0.146 C  
BRANCH   5   6
HETATM    6  C   UNL     1      -9.151   8.498  69.677  1.00  0.00    -0.149 C  
BRANCH   6   7
HETATM    7  C   UNL     1      -9.072   7.909  71.080  1.00  0.00    -0.155 C  
BRANCH   7   8
HETATM    8  C   UNL     1      -9.779   6.560  71.141  1.00  0.00    -0.188 C  
BRANCH   8   9
HETATM    9  C   UNL     1     -11.011   6.639  72.033  1.00  0.00    -0.274 C  
BRANCH   9  10
HETATM   10  C   UNL     1     -12.284   6.514  71.205  1.00  0.00    -0.287 C  
BRANCH  10  11
HETATM   11  C   UNL     1     -13.475   7.105  71.954  1.00  0.00    -0.276 C  
BRANCH  11  12
HETATM   12  C   UNL     1     -13.270   8.593  72.198  1.00  0.00    -0.420 C  
BRANCH  12  13
HETATM   13  C   UNL     1     -12.729   9.279  70.950  1.00  0.00    -0.124 C  
BRANCH  13  14
HETATM   14  C   UNL     1     -11.655  10.298  71.319  1.00  0.00    -0.318 C  
BRANCH  14  15
HETATM   15  C   UNL     1     -11.632  11.458  70.329  1.00  0.00    -0.334 C  
BRANCH  15  16
HETATM   16  C   UNL     1     -12.910  12.287  70.439  1.00  0.00     0.177 C  
BRANCH  16  17
HETATM   17  C   UNL     1     -12.863  13.221  71.644  1.00  0.00    -0.397 C  
HETATM   18  C   UNL     1     -12.544  14.641  71.238  1.00  0.00    -0.333 C  
HETATM   19  O   UNL     1     -12.343  15.025  70.098  1.00  0.00    -0.323 OA 
HETATM   20  O   UNL     1     -12.499  15.477  72.302  1.00  0.00    -0.331 OA 
ENDBRANCH  16  17
ENDBRANCH  15  16
ENDBRANCH  14  15
ENDBRANCH  13  14
ENDBRANCH  12  13
ENDBRANCH  11  12
ENDBRANCH  10  11
ENDBRANCH   9  10
ENDBRANCH   8   9
ENDBRANCH   7   8
ENDBRANCH   6   7
ENDBRANCH   5   6
ENDBRANCH   4   5
ENDBRANCH   3   4
ENDBRANCH   2   3
TORSDOF 15
ENDMDL
MODEL      451
REMARK 921   NORMALIZED FREE ENERGY PREDICTED BY IDOCK:   -2.09 KCAL/MOL
REMARK 922        TOTAL FREE ENERGY PREDICTED BY IDOCK:   -5.72 KCAL/MOL
REMARK 923 INTER-LIGAND FREE ENERGY PREDICTED BY IDOCK:   -4.39 KCAL/MOL
REMARK 924 INTRA-LIGAND FREE ENERGY PREDICTED BY IDOCK:   -1.34 KCAL/MOL
REMARK 927      BINDING AFFINITY PREDICTED BY RF-SCORE:    0.00 PKD
ROOT
HETATM    1  C   UNL     1     -11.458  11.584  67.382  1.00  0.00    -0.349 C  
HETATM    2  C   UNL     1     -11.511  12.697  66.351  1.00  0.00    -0.409 C  
ENDROOT
BRANCH   2   3
HETATM    3  C   UNL     1     -11.939  14.017  66.986  1.00  0.00    -0.472 C  
BRANCH   3   4
HETATM    4  C   UNL     1     -11.017  15.155  66.564  1.00  0.00    -0.318 C  
BRANCH   4   5
HETATM    5  C   UNL     1      -9.554  14.746  66.703  1.00  0.00    -0.289 C  
BRANCH   5   6
HETATM    6  C   UNL     1      -9.074  14.925  68.140  1.00  0.00    -0.177 C  
BRANCH   6   7
HETATM    7  C   UNL     1      -7.741  15.660  68.176  1.00  0.00    -0.127 C  
BRANCH   7   8
HETATM    8  C   UNL     1      -6.599  14.729  67.788  1.00  0.00    -0.188 C  
BRANCH   8   9
HETATM    9  C   UNL     1      -6.593  13.489  68.674  1.00  0.00    -0.098 C  
BRANCH   9  10
HETATM   10  C   UNL     1      -6.175  12.259  67.876  1.00  0.00    -0.089 C  
BRANCH  10  11
HETATM   11  C   UNL     1      -6.672  10.985  68.551  1.00  0.00    -0.061 C  
BRANCH  11  12
HETATM   12  C   UNL     1      -8.192  10.921  68.526  1.00  0.00    -0.140 C  
BRANCH  12  13
HETATM   13  C   UNL     1      -8.719  10.060  69.667  1.00  0.00    -0.210 C  
BRANCH  13  14
HETATM   14  C   UNL     1      -9.101   8.673  69.161  1.00  0.00    -0.142 C  
BRANCH  14  15
HETATM   15  C   UNL     1      -8.576   7.583  70.091  1.00  0.00    -0.141 C  
BRANCH  15  16
HETATM   16  C   UNL     1      -9.728   6.894  70.819  1.00  0.00    -0.176 C  
BRANCH  16  17
HETATM   17  C   UNL     1      -9.484   6.850  72.325  1.00  0.00    -0.151 C  
HETATM   18  C   UNL     1     -10.664   6.263  73.064  1.00  0.00    -0.253 C  
HETATM   19  O   UNL     1     -11.697   5.866  72.551  1.00  0.00    -0.303 OA 
HETATM   20  O   UNL     1     -10.457   6.219  74.402  1.00  0.00    -0.293 OA 
ENDBRANCH  16  17
ENDBRANCH  15  16
ENDBRANCH  14  15
ENDBRANCH  13  14
ENDBRANCH  12  13
ENDBRANCH  11  12
ENDBRANCH  10  11
ENDBRANCH   9  10
ENDBRANCH   8   9
ENDBRANCH   7   8
ENDBRANCH   6   7
ENDBRANCH   5   6
ENDBRANCH   4   5
ENDBRANCH   3   4
ENDBRANCH   2   3
TORSDOF 15
ENDMDL
MODEL      452
REMARK 921   NORMALIZED FREE ENERGY PREDICTED BY IDOCK:   -2.09 KCAL/MOL
REMARK 922        TOTAL FREE ENERGY PREDICTED BY IDOCK:   -5.72 KCAL/MOL
REMARK 923 INTER-LIGAND FREE ENERGY PREDICTED BY IDOCK:   -5.04 KCAL/MOL
REMARK 924 INTRA-LIGAND FREE ENERGY PREDICTED BY IDOCK:   -0.67 KCAL/MOL
REMARK 927      BINDING AFFINITY PREDICTED BY RF-SCORE:    0.00 PKD
ROOT
HETATM    1  C   UNL     1     -11.307  11.909  67.587  1.00  0.00    -0.372 C  
HETATM    2  C   UNL     1     -11.318  13.169  66.741  1.00  0.00    -0.353 C  
ENDROOT
BRANCH   2   3
HETATM    3  C   UNL     1     -11.415  14.418  67.614  1.00  0.00    -0.369 C  
BRANCH   3   4
HETATM    4  C   UNL     1     -10.250  15.366  67.348  1.00  0.00    -0.249 C  
BRANCH   4   5
HETATM    5  C   UNL     1      -8.974  14.585  67.051  1.00  0.00    -0.258 C  
BRANCH   5   6
HETATM    6  C   UNL     1      -8.273  14.177  68.343  1.00  0.00    -0.149 C  
BRANCH   6   7
HETATM    7  C   UNL     1      -6.768  14.075  68.131  1.00  0.00    -0.125 C  
BRANCH   7   8
HETATM    8  C   UNL     1      -6.406  12.762  67.448  1.00  0.00    -0.139 C  
BRANCH   8   9
HETATM    9  C   UNL     1      -6.899  11.576  68.268  1.00  0.00    -0.066 C  
BRANCH   9  10
HETATM   10  C   UNL     1      -7.479  10.497  67.361  1.00  0.00    -0.094 C  
BRANCH  10  11
HETATM   11  C   UNL     1      -8.539   9.685  68.098  1.00  0.00    -0.119 C  
BRANCH  11  12
HETATM   12  C   UNL     1      -8.501   9.982  69.590  1.00  0.00    -0.193 C  
BRANCH  12  13
HETATM   13  C   UNL     1      -9.710   9.379  70.295  1.00  0.00    -0.292 C  
BRANCH  13  14
HETATM   14  C   UNL     1     -10.605   8.652  69.297  1.00  0.00    -0.204 C  
BRANCH  14  15
HETATM   15  C   UNL     1     -10.820   7.198  69.707  1.00  0.00    -0.261 C  
BRANCH  15  16
HETATM   16  C   UNL     1     -11.524   7.117  71.059  1.00  0.00    -0.331 C  
BRANCH  16  17
HETATM   17  C   UNL     1     -11.878   8.505  71.584  1.00  0.00    -0.370 C  
HETATM   18  C   UNL     1     -13.373   8.702  71.679  1.00  0.00    -0.350 C  
HETATM   19  O   UNL     1     -14.218   7.874  71.380  1.00  0.00    -0.392 OA 
HETATM   20  O   UNL     1     -13.697   9.932  72.143  1.00  0.00    -0.359 OA 
ENDBRANCH  16  17
ENDBRANCH  15  16
ENDBRANCH  14  15
ENDBRANCH  13  14
ENDBRANCH  12  13
ENDBRANCH  11  12
ENDBRANCH  10  11
ENDBRANCH   9  10
ENDBRANCH   8   9
ENDBRANCH   7   8
ENDBRANCH   6   7
ENDBRANCH   5   6
ENDBRANCH   4   5
ENDBRANCH   3   4
ENDBRANCH   2   3
TORSDOF 15
ENDMDL
MODEL      453
REMARK 921   NORMALIZED FREE ENERGY PREDICTED BY IDOCK:   -2.08 KCAL/MOL
REMARK 922        TOTAL FREE ENERGY PREDICTED BY IDOCK:   -5.71 KCAL/MOL
REMARK 923 INTER-LIGAND FREE ENERGY PREDICTED BY IDOCK:   -3.35 KCAL/MOL
REMARK 924 INTRA-LIGAND FREE ENERGY PREDICTED BY IDOCK:   -2.36 KCAL/MOL
REMARK 927      BINDING AFFINITY PREDICTED BY RF-SCORE:    0.00 PKD
ROOT
HETATM    1  C   UNL     1      -7.609   9.052  66.509  1.00  0.00    -0.089 C  
HETATM    2  C   UNL     1      -9.055   8.716  66.190  1.00  0.00    -0.250 C  
ENDROOT
BRANCH   2   3
HETATM    3  C   UNL     1      -9.431   7.337  66.727  1.00  0.00    -0.218 C  
BRANCH   3   4
HETATM    4  C   UNL     1      -8.962   6.234  65.784  1.00  0.00    -0.083 C  
BRANCH   4   5
HETATM    5  C   UNL     1      -8.399   5.054  66.569  1.00  0.00    -0.107 C  
BRANCH   5   6
HETATM    6  C   UNL     1      -6.874   5.085  66.579  1.00  0.00    -0.062 C  
BRANCH   6   7
HETATM    7  C   UNL     1      -6.344   5.021  68.005  1.00  0.00    -0.036 C  
BRANCH   7   8
HETATM    8  C   UNL     1      -7.347   5.621  68.983  1.00  0.00    -0.082 C  
BRANCH   8   9
HETATM    9  C   UNL     1      -7.377   4.823  70.280  1.00  0.00    -0.051 C  
BRANCH   9  10
HETATM   10  C   UNL     1      -8.701   5.025  71.008  1.00  0.00    -0.141 C  
BRANCH  10  11
HETATM   11  C   UNL     1      -9.876   4.821  70.057  1.00  0.00    -0.297 C  
BRANCH  11  12
HETATM   12  C   UNL     1     -11.032   5.739  70.427  1.00  0.00    -0.333 C  
BRANCH  12  13
HETATM   13  C   UNL     1     -10.717   7.184  70.059  1.00  0.00    -0.268 C  
BRANCH  13  14
HETATM   14  C   UNL     1     -10.652   8.055  71.309  1.00  0.00    -0.245 C  
BRANCH  14  15
HETATM   15  C   UNL     1     -10.107   9.443  70.986  1.00  0.00    -0.353 C  
BRANCH  15  16
HETATM   16  C   UNL     1      -9.026   9.362  69.911  1.00  0.00    -0.215 C  
BRANCH  16  17
HETATM   17  C   UNL     1      -7.781   8.650  70.430  1.00  0.00    -0.081 C  
HETATM   18  C   UNL     1      -6.682   9.628  70.776  1.00  0.00    -0.094 C  
HETATM   19  O   UNL     1      -6.751  10.841  70.665  1.00  0.00    -0.310 OA 
HETATM   20  O   UNL     1      -5.572   9.006  71.238  1.00  0.00    -0.037 OA 
ENDBRANCH  16  17
ENDBRANCH  15  16
ENDBRANCH  14  15
ENDBRANCH  13  14
ENDBRANCH  12  13
ENDBRANCH  11  12
ENDBRANCH  10  11
ENDBRANCH   9  10
ENDBRANCH   8   9
ENDBRANCH   7   8
ENDBRANCH   6   7
ENDBRANCH   5   6
ENDBRANCH   4   5
ENDBRANCH   3   4
ENDBRANCH   2   3
TORSDOF 15
ENDMDL
MODEL      454
REMARK 921   NORMALIZED FREE ENERGY PREDICTED BY IDOCK:   -2.08 KCAL/MOL
REMARK 922        TOTAL FREE ENERGY PREDICTED BY IDOCK:   -5.71 KCAL/MOL
REMARK 923 INTER-LIGAND FREE ENERGY PREDICTED BY IDOCK:   -5.02 KCAL/MOL
REMARK 924 INTRA-LIGAND FREE ENERGY PREDICTED BY IDOCK:   -0.69 KCAL/MOL
REMARK 927      BINDING AFFINITY PREDICTED BY RF-SCORE:    0.00 PKD
ROOT
HETATM    1  C   UNL     1      -7.824  16.319  67.657  1.00  0.00    -0.162 C  
HETATM    2  C   UNL     1      -8.524  15.438  66.639  1.00  0.00    -0.296 C  
ENDROOT
BRANCH   2   3
HETATM    3  C   UNL     1      -9.674  16.184  65.964  1.00  0.00    -0.376 C  
BRANCH   3   4
HETATM    4  C   UNL     1     -11.012  15.820  66.599  1.00  0.00    -0.179 C  
BRANCH   4   5
HETATM    5  C   UNL     1     -10.812  14.868  67.774  1.00  0.00    -0.286 C  
BRANCH   5   6
HETATM    6  C   UNL     1     -11.604  13.580  67.570  1.00  0.00    -0.385 C  
BRANCH   6   7
HETATM    7  C   UNL     1     -10.666  12.401  67.349  1.00  0.00    -0.257 C  
BRANCH   7   8
HETATM    8  C   UNL     1     -11.435  11.085  67.380  1.00  0.00    -0.217 C  
BRANCH   8   9
HETATM    9  C   UNL     1     -10.567   9.969  67.945  1.00  0.00    -0.298 C  
BRANCH   9  10
HETATM   10  C   UNL     1     -10.594   9.984  69.469  1.00  0.00    -0.267 C  
BRANCH  10  11
HETATM   11  C   UNL     1      -9.836   8.786  70.034  1.00  0.00    -0.187 C  
BRANCH  11  12
HETATM   12  C   UNL     1     -10.253   8.518  71.473  1.00  0.00    -0.320 C  
BRANCH  12  13
HETATM   13  C   UNL     1      -9.102   8.792  72.432  1.00  0.00    -0.091 C  
BRANCH  13  14
HETATM   14  C   UNL     1      -9.059   7.738  73.534  1.00  0.00    -0.342 C  
BRANCH  14  15
HETATM   15  C   UNL     1     -10.355   6.934  73.579  1.00  0.00    -0.368 C  
BRANCH  15  16
HETATM   16  C   UNL     1     -10.066   5.460  73.849  1.00  0.00    -0.232 C  
BRANCH  16  17
HETATM   17  C   UNL     1     -11.177   4.568  73.303  1.00  0.00    -0.388 C  
HETATM   18  C   UNL     1     -10.992   3.127  73.718  1.00  0.00    -0.220 C  
HETATM   19  O   UNL     1     -10.078   2.698  74.403  1.00  0.00    -0.107 OA 
HETATM   20  O   UNL     1     -11.974   2.328  73.237  1.00  0.00    -0.039 OA 
ENDBRANCH  16  17
ENDBRANCH  15  16
ENDBRANCH  14  15
ENDBRANCH  13  14
ENDBRANCH  12  13
ENDBRANCH  11  12
ENDBRANCH  10  11
ENDBRANCH   9  10
ENDBRANCH   8   9
ENDBRANCH   7   8
ENDBRANCH   6   7
ENDBRANCH   5   6
ENDBRANCH   4   5
ENDBRANCH   3   4
ENDBRANCH   2   3
TORSDOF 15
ENDMDL
MODEL      455
REMARK 921   NORMALIZED FREE ENERGY PREDICTED BY IDOCK:   -2.08 KCAL/MOL
REMARK 922        TOTAL FREE ENERGY PREDICTED BY IDOCK:   -5.70 KCAL/MOL
REMARK 923 INTER-LIGAND FREE ENERGY PREDICTED BY IDOCK:   -4.78 KCAL/MOL
REMARK 924 INTRA-LIGAND FREE ENERGY PREDICTED BY IDOCK:   -0.91 KCAL/MOL
REMARK 927      BINDING AFFINITY PREDICTED BY RF-SCORE:    0.00 PKD
ROOT
HETATM    1  C   UNL     1     -11.777  15.222  71.596  1.00  0.00    -0.463 C  
HETATM    2  C   UNL     1     -11.205  14.763  70.267  1.00  0.00    -0.239 C  
ENDROOT
BRANCH   2   3
HETATM    3  C   UNL     1     -11.020  15.939  69.311  1.00  0.00    -0.293 C  
BRANCH   3   4
HETATM    4  C   UNL     1     -10.863  15.458  67.873  1.00  0.00    -0.300 C  
BRANCH   4   5
HETATM    5  C   UNL     1     -11.838  14.324  67.572  1.00  0.00    -0.429 C  
BRANCH   5   6
HETATM    6  C   UNL     1     -11.856  14.004  66.081  1.00  0.00    -0.422 C  
BRANCH   6   7
HETATM    7  C   UNL     1     -12.161  12.529  65.851  1.00  0.00    -0.310 C  
BRANCH   7   8
HETATM    8  C   UNL     1     -11.410  11.659  66.851  1.00  0.00    -0.364 C  
BRANCH   8   9
HETATM    9  C   UNL     1     -10.166  11.055  66.211  1.00  0.00    -0.295 C  
BRANCH   9  10
HETATM   10  C   UNL     1     -10.113   9.551  66.450  1.00  0.00    -0.328 C  
BRANCH  10  11
HETATM   11  C   UNL     1      -8.770   9.148  67.050  1.00  0.00    -0.131 C  
BRANCH  11  12
HETATM   12  C   UNL     1      -8.789   7.687  67.477  1.00  0.00    -0.124 C  
BRANCH  12  13
HETATM   13  C   UNL     1      -7.516   6.976  67.038  1.00  0.00    -0.094 C  
BRANCH  13  14
HETATM   14  C   UNL     1      -7.849   5.723  66.234  1.00  0.00    -0.101 C  
BRANCH  14  15
HETATM   15  C   UNL     1      -8.227   4.564  67.151  1.00  0.00    -0.101 C  
BRANCH  15  16
HETATM   16  C   UNL     1      -9.354   3.736  66.538  1.00  0.00    -0.204 C  
BRANCH  16  17
HETATM   17  C   UNL     1      -9.669   4.195  65.117  1.00  0.00    -0.198 C  
HETATM   18  C   UNL     1      -9.657   3.041  64.142  1.00  0.00    -0.146 C  
HETATM   19  O   UNL     1      -9.428   1.876  64.423  1.00  0.00    -0.134 OA 
HETATM   20  O   UNL     1      -9.936   3.439  62.878  1.00  0.00    -0.108 OA 
ENDBRANCH  16  17
ENDBRANCH  15  16
ENDBRANCH  14  15
ENDBRANCH  13  14
ENDBRANCH  12  13
ENDBRANCH  11  12
ENDBRANCH  10  11
ENDBRANCH   9  10
ENDBRANCH   8   9
ENDBRANCH   7   8
ENDBRANCH   6   7
ENDBRANCH   5   6
ENDBRANCH   4   5
ENDBRANCH   3   4
ENDBRANCH   2   3
TORSDOF 15
ENDMDL
MODEL      456
REMARK 921   NORMALIZED FREE ENERGY PREDICTED BY IDOCK:   -2.05 KCAL/MOL
REMARK 922        TOTAL FREE ENERGY PREDICTED BY IDOCK:   -5.65 KCAL/MOL
REMARK 923 INTER-LIGAND FREE ENERGY PREDICTED BY IDOCK:   -4.22 KCAL/MOL
REMARK 924 INTRA-LIGAND FREE ENERGY PREDICTED BY IDOCK:   -1.43 KCAL/MOL
REMARK 927      BINDING AFFINITY PREDICTED BY RF-SCORE:    0.00 PKD
ROOT
HETATM    1  C   UNL     1     -10.483  17.623  67.958  1.00  0.00    -0.395 C  
HETATM    2  C   UNL     1      -9.628  17.602  66.704  1.00  0.00    -0.301 C  
ENDROOT
BRANCH   2   3
HETATM    3  C   UNL     1      -8.985  16.233  66.498  1.00  0.00    -0.313 C  
BRANCH   3   4
HETATM    4  C   UNL     1      -9.361  15.275  67.624  1.00  0.00    -0.199 C  
BRANCH   4   5
HETATM    5  C   UNL     1      -8.267  14.233  67.835  1.00  0.00    -0.156 C  
BRANCH   5   6
HETATM    6  C   UNL     1      -8.815  12.823  67.644  1.00  0.00    -0.189 C  
BRANCH   6   7
HETATM    7  C   UNL     1      -9.335  12.636  66.224  1.00  0.00    -0.162 C  
BRANCH   7   8
HETATM    8  C   UNL     1     -10.680  11.919  66.232  1.00  0.00    -0.309 C  
BRANCH   8   9
HETATM    9  C   UNL     1     -10.990  11.343  64.856  1.00  0.00    -0.284 C  
BRANCH   9  10
HETATM   10  C   UNL     1      -9.793  11.497  63.925  1.00  0.00    -0.326 C  
BRANCH  10  11
HETATM   11  C   UNL     1      -9.767  10.378  62.890  1.00  0.00    -0.266 C  
BRANCH  11  12
HETATM   12  C   UNL     1      -8.532   9.507  63.071  1.00  0.00    -0.198 C  
BRANCH  12  13
HETATM   13  C   UNL     1      -7.784   9.884  64.343  1.00  0.00    -0.142 C  
BRANCH  13  14
HETATM   14  C   UNL     1      -7.331   8.633  65.090  1.00  0.00    -0.088 C  
BRANCH  14  15
HETATM   15  C   UNL     1      -7.957   7.377  64.492  1.00  0.00    -0.122 C  
BRANCH  15  16
HETATM   16  C   UNL     1      -8.583   6.514  65.585  1.00  0.00    -0.132 C  
BRANCH  16  17
HETATM   17  C   UNL     1      -8.246   7.047  66.974  1.00  0.00    -0.117 C  
HETATM   18  C   UNL     1      -9.490   7.313  67.788  1.00  0.00    -0.131 C  
HETATM   19  O   UNL     1     -10.637   7.136  67.410  1.00  0.00    -0.243 OA 
HETATM   20  O   UNL     1      -9.201   7.788  69.023  1.00  0.00    -0.144 OA 
ENDBRANCH  16  17
ENDBRANCH  15  16
ENDBRANCH  14  15
ENDBRANCH  13  14
ENDBRANCH  12  13
ENDBRANCH  11  12
ENDBRANCH  10  11
ENDBRANCH   9  10
ENDBRANCH   8   9
ENDBRANCH   7   8
ENDBRANCH   6   7
ENDBRANCH   5   6
ENDBRANCH   4   5
ENDBRANCH   3   4
ENDBRANCH   2   3
TORSDOF 15
ENDMDL
MODEL      457
REMARK 921   NORMALIZED FREE ENERGY PREDICTED BY IDOCK:   -2.03 KCAL/MOL
REMARK 922        TOTAL FREE ENERGY PREDICTED BY IDOCK:   -5.62 KCAL/MOL
REMARK 923 INTER-LIGAND FREE ENERGY PREDICTED BY IDOCK:   -4.06 KCAL/MOL
REMARK 924 INTRA-LIGAND FREE ENERGY PREDICTED BY IDOCK:   -1.55 KCAL/MOL
REMARK 927      BINDING AFFINITY PREDICTED BY RF-SCORE:    0.00 PKD
ROOT
HETATM    1  C   UNL     1      -9.432  16.070  67.741  1.00  0.00    -0.217 C  
HETATM    2  C   UNL     1      -9.777  15.054  66.668  1.00  0.00    -0.273 C  
ENDROOT
BRANCH   2   3
HETATM    3  C   UNL     1     -10.426  15.727  65.461  1.00  0.00    -0.425 C  
BRANCH   3   4
HETATM    4  C   UNL     1     -11.513  14.844  64.858  1.00  0.00    -0.407 C  
BRANCH   4   5
HETATM    5  C   UNL     1     -11.610  13.518  65.606  1.00  0.00    -0.343 C  
BRANCH   5   6
HETATM    6  C   UNL     1     -11.594  12.343  64.634  1.00  0.00    -0.400 C  
BRANCH   6   7
HETATM    7  C   UNL     1     -10.168  11.867  64.388  1.00  0.00    -0.333 C  
BRANCH   7   8
HETATM    8  C   UNL     1     -10.123  10.865  63.240  1.00  0.00    -0.368 C  
BRANCH   8   9
HETATM    9  C   UNL     1      -9.123   9.755  63.534  1.00  0.00    -0.263 C  
BRANCH   9  10
HETATM   10  C   UNL     1      -7.719  10.167  63.107  1.00  0.00    -0.151 C  
BRANCH  10  11
HETATM   11  C   UNL     1      -6.704   9.837  64.196  1.00  0.00    -0.120 C  
BRANCH  11  12
HETATM   12  C   UNL     1      -7.380   9.774  65.559  1.00  0.00    -0.112 C  
BRANCH  12  13
HETATM   13  C   UNL     1      -6.403   9.303  66.629  1.00  0.00    -0.066 C  
BRANCH  13  14
HETATM   14  C   UNL     1      -6.980   8.120  67.398  1.00  0.00    -0.075 C  
BRANCH  14  15
HETATM   15  C   UNL     1      -8.215   7.557  66.700  1.00  0.00    -0.125 C  
BRANCH  15  16
HETATM   16  C   UNL     1      -8.027   6.075  66.383  1.00  0.00    -0.105 C  
BRANCH  16  17
HETATM   17  C   UNL     1      -8.866   5.656  65.179  1.00  0.00    -0.055 C  
HETATM   18  C   UNL     1      -8.087   5.769  63.889  1.00  0.00    -0.113 C  
HETATM   19  O   UNL     1      -6.931   6.146  63.789  1.00  0.00    -0.043 OA 
HETATM   20  O   UNL     1      -8.824   5.399  62.815  1.00  0.00    -0.066 OA 
ENDBRANCH  16  17
ENDBRANCH  15  16
ENDBRANCH  14  15
ENDBRANCH  13  14
ENDBRANCH  12  13
ENDBRANCH  11  12
ENDBRANCH  10  11
ENDBRANCH   9  10
ENDBRANCH   8   9
ENDBRANCH   7   8
ENDBRANCH   6   7
ENDBRANCH   5   6
ENDBRANCH   4   5
ENDBRANCH   3   4
ENDBRANCH   2   3
TORSDOF 15
ENDMDL
MODEL      458
REMARK 921   NORMALIZED FREE ENERGY PREDICTED BY IDOCK:   -2.02 KCAL/MOL
REMARK 922        TOTAL FREE ENERGY PREDICTED BY IDOCK:   -5.58 KCAL/MOL
REMARK 923 INTER-LIGAND FREE ENERGY PREDICTED BY IDOCK:   -3.95 KCAL/MOL
REMARK 924 INTRA-LIGAND FREE ENERGY PREDICTED BY IDOCK:   -1.63 KCAL/MOL
REMARK 927      BINDING AFFINITY PREDICTED BY RF-SCORE:    0.00 PKD
ROOT
HETATM    1  C   UNL     1      -9.637   4.025  69.621  1.00  0.00    -0.270 C  
HETATM    2  C   UNL     1     -10.045   5.329  70.283  1.00  0.00    -0.329 C  
ENDROOT
BRANCH   2   3
HETATM    3  C   UNL     1      -9.259   6.506  69.710  1.00  0.00    -0.145 C  
BRANCH   3   4
HETATM    4  C   UNL     1      -9.737   6.853  68.304  1.00  0.00    -0.132 C  
BRANCH   4   5
HETATM    5  C   UNL     1      -8.563   6.902  67.331  1.00  0.00    -0.121 C  
BRANCH   5   6
HETATM    6  C   UNL     1      -7.311   7.439  68.016  1.00  0.00    -0.096 C  
BRANCH   6   7
HETATM    7  C   UNL     1      -6.366   8.063  66.998  1.00  0.00    -0.056 C  
BRANCH   7   8
HETATM    8  C   UNL     1      -6.266   9.570  67.204  1.00  0.00    -0.064 C  
BRANCH   8   9
HETATM    9  C   UNL     1      -6.692  10.314  65.946  1.00  0.00    -0.117 C  
BRANCH   9  10
HETATM   10  C   UNL     1      -7.874  11.232  66.236  1.00  0.00    -0.069 C  
BRANCH  10  11
HETATM   11  C   UNL     1      -7.772  11.814  67.642  1.00  0.00    -0.137 C  
BRANCH  11  12
HETATM   12  C   UNL     1      -8.096  13.301  67.633  1.00  0.00    -0.174 C  
BRANCH  12  13
HETATM   13  C   UNL     1      -9.338  13.581  66.795  1.00  0.00    -0.262 C  
BRANCH  13  14
HETATM   14  C   UNL     1     -10.165  14.700  67.418  1.00  0.00    -0.240 C  
BRANCH  14  15
HETATM   15  C   UNL     1     -11.652  14.357  67.408  1.00  0.00    -0.398 C  
BRANCH  15  16
HETATM   16  C   UNL     1     -11.861  12.869  67.133  1.00  0.00    -0.424 C  
BRANCH  16  17
HETATM   17  C   UNL     1     -12.025  12.084  68.431  1.00  0.00    -0.256 C  
HETATM   18  C   UNL     1     -11.480  10.680  68.306  1.00  0.00    -0.245 C  
HETATM   19  O   UNL     1     -10.967  10.204  67.307  1.00  0.00    -0.266 OA 
HETATM   20  O   UNL     1     -11.621   9.974  69.453  1.00  0.00    -0.150 OA 
ENDBRANCH  16  17
ENDBRANCH  15  16
ENDBRANCH  14  15
ENDBRANCH  13  14
ENDBRANCH  12  13
ENDBRANCH  11  12
ENDBRANCH  10  11
ENDBRANCH   9  10
ENDBRANCH   8   9
ENDBRANCH   7   8
ENDBRANCH   6   7
ENDBRANCH   5   6
ENDBRANCH   4   5
ENDBRANCH   3   4
ENDBRANCH   2   3
TORSDOF 15
ENDMDL
MODEL      459
REMARK 921   NORMALIZED FREE ENERGY PREDICTED BY IDOCK:   -2.01 KCAL/MOL
REMARK 922        TOTAL FREE ENERGY PREDICTED BY IDOCK:   -5.57 KCAL/MOL
REMARK 923 INTER-LIGAND FREE ENERGY PREDICTED BY IDOCK:   -4.10 KCAL/MOL
REMARK 924 INTRA-LIGAND FREE ENERGY PREDICTED BY IDOCK:   -1.47 KCAL/MOL
REMARK 927      BINDING AFFINITY PREDICTED BY RF-SCORE:    0.00 PKD
ROOT
HETATM    1  C   UNL     1     -11.672  11.773  67.535  1.00  0.00    -0.312 C  
HETATM    2  C   UNL     1     -11.836  13.074  66.772  1.00  0.00    -0.451 C  
ENDROOT
BRANCH   2   3
HETATM    3  C   UNL     1     -12.178  14.226  67.714  1.00  0.00    -0.199 C  
BRANCH   3   4
HETATM    4  C   UNL     1     -11.238  15.408  67.501  1.00  0.00    -0.302 C  
BRANCH   4   5
HETATM    5  C   UNL     1      -9.817  14.925  67.227  1.00  0.00    -0.229 C  
BRANCH   5   6
HETATM    6  C   UNL     1      -9.156  14.426  68.507  1.00  0.00    -0.193 C  
BRANCH   6   7
HETATM    7  C   UNL     1      -7.645  14.609  68.441  1.00  0.00    -0.119 C  
BRANCH   7   8
HETATM    8  C   UNL     1      -7.015  13.577  67.512  1.00  0.00    -0.157 C  
BRANCH   8   9
HETATM    9  C   UNL     1      -7.364  12.165  67.964  1.00  0.00    -0.105 C  
BRANCH   9  10
HETATM   10  C   UNL     1      -7.586  11.254  66.762  1.00  0.00    -0.151 C  
BRANCH  10  11
HETATM   11  C   UNL     1      -8.231   9.941  67.192  1.00  0.00    -0.121 C  
BRANCH  11  12
HETATM   12  C   UNL     1      -8.085   9.737  68.693  1.00  0.00    -0.105 C  
BRANCH  12  13
HETATM   13  C   UNL     1      -8.800   8.468  69.141  1.00  0.00    -0.142 C  
BRANCH  13  14
HETATM   14  C   UNL     1      -9.586   8.719  70.423  1.00  0.00    -0.210 C  
BRANCH  14  15
HETATM   15  C   UNL     1     -11.013   8.191  70.307  1.00  0.00    -0.240 C  
BRANCH  15  16
HETATM   16  C   UNL     1     -11.173   6.892  71.094  1.00  0.00    -0.314 C  
BRANCH  16  17
HETATM   17  C   UNL     1     -10.700   5.690  70.282  1.00  0.00    -0.364 C  
HETATM   18  C   UNL     1      -9.471   5.056  70.889  1.00  0.00    -0.162 C  
HETATM   19  O   UNL     1      -8.903   5.433  71.900  1.00  0.00    -0.133 OA 
HETATM   20  O   UNL     1      -9.043   3.988  70.174  1.00  0.00    -0.094 OA 
ENDBRANCH  16  17
ENDBRANCH  15  16
ENDBRANCH  14  15
ENDBRANCH  13  14
ENDBRANCH  12  13
ENDBRANCH  11  12
ENDBRANCH  10  11
ENDBRANCH   9  10
ENDBRANCH   8   9
ENDBRANCH   7   8
ENDBRANCH   6   7
ENDBRANCH   5   6
ENDBRANCH   4   5
ENDBRANCH   3   4
ENDBRANCH   2   3
TORSDOF 15
ENDMDL
MODEL      460
REMARK 921   NORMALIZED FREE ENERGY PREDICTED BY IDOCK:   -2.01 KCAL/MOL
REMARK 922        TOTAL FREE ENERGY PREDICTED BY IDOCK:   -5.57 KCAL/MOL
REMARK 923 INTER-LIGAND FREE ENERGY PREDICTED BY IDOCK:   -4.70 KCAL/MOL
REMARK 924 INTRA-LIGAND FREE ENERGY PREDICTED BY IDOCK:   -0.87 KCAL/MOL
REMARK 927      BINDING AFFINITY PREDICTED BY RF-SCORE:    0.00 PKD
ROOT
HETATM    1  C   UNL     1     -12.284  16.968  74.011  1.00  0.00    -0.046 C  
HETATM    2  C   UNL     1     -12.342  15.458  74.151  1.00  0.00    -0.800 C  
ENDROOT
BRANCH   2   3
HETATM    3  C   UNL     1     -12.510  14.786  72.790  1.00  0.00    -0.417 C  
BRANCH   3   4
HETATM    4  C   UNL     1     -11.287  15.017  71.908  1.00  0.00    -0.281 C  
BRANCH   4   5
HETATM    5  C   UNL     1     -11.556  14.555  70.479  1.00  0.00    -0.295 C  
BRANCH   5   6
HETATM    6  C   UNL     1     -10.254  14.197  69.770  1.00  0.00     0.467 C  
BRANCH   6   7
HETATM    7  C   UNL     1     -10.071  15.045  68.519  1.00  0.00    -0.225 C  
BRANCH   7   8
HETATM    8  C   UNL     1     -11.382  15.166  67.751  1.00  0.00    -0.335 C  
BRANCH   8   9
HETATM    9  C   UNL     1     -11.358  14.291  66.505  1.00  0.00    -0.351 C  
BRANCH   9  10
HETATM   10  C   UNL     1     -11.726  12.852  66.850  1.00  0.00    -0.445 C  
BRANCH  10  11
HETATM   11  C   UNL     1     -10.859  11.871  66.067  1.00  0.00    -0.342 C  
BRANCH  11  12
HETATM   12  C   UNL     1     -10.923  10.484  66.689  1.00  0.00    -0.102 C  
BRANCH  12  13
HETATM   13  C   UNL     1      -9.591  10.114  67.329  1.00  0.00    -0.189 C  
BRANCH  13  14
HETATM   14  C   UNL     1      -9.670  10.246  68.847  1.00  0.00    -0.193 C  
BRANCH  14  15
HETATM   15  C   UNL     1     -10.351   9.031  69.471  1.00  0.00    -0.211 C  
BRANCH  15  16
HETATM   16  C   UNL     1      -9.813   8.773  70.876  1.00  0.00    -0.278 C  
BRANCH  16  17
HETATM   17  C   UNL     1     -10.168   7.370  71.357  1.00  0.00    -0.198 C  
HETATM   18  C   UNL     1      -9.389   6.310  70.612  1.00  0.00    -0.162 C  
HETATM   19  O   UNL     1      -8.572   6.518  69.731  1.00  0.00    -0.133 OA 
HETATM   20  O   UNL     1      -9.698   5.061  71.032  1.00  0.00    -0.163 OA 
ENDBRANCH  16  17
ENDBRANCH  15  16
ENDBRANCH  14  15
ENDBRANCH  13  14
ENDBRANCH  12  13
ENDBRANCH  11  12
ENDBRANCH  10  11
ENDBRANCH   9  10
ENDBRANCH   8   9
ENDBRANCH   7   8
ENDBRANCH   6   7
ENDBRANCH   5   6
ENDBRANCH   4   5
ENDBRANCH   3   4
ENDBRANCH   2   3
TORSDOF 15
ENDMDL
MODEL      461
REMARK 921   NORMALIZED FREE ENERGY PREDICTED BY IDOCK:   -1.99 KCAL/MOL
REMARK 922        TOTAL FREE ENERGY PREDICTED BY IDOCK:   -5.54 KCAL/MOL
REMARK 923 INTER-LIGAND FREE ENERGY PREDICTED BY IDOCK:   -4.50 KCAL/MOL
REMARK 924 INTRA-LIGAND FREE ENERGY PREDICTED BY IDOCK:   -1.04 KCAL/MOL
REMARK 927      BINDING AFFINITY PREDICTED BY RF-SCORE:    0.00 PKD
ROOT
HETATM    1  C   UNL     1     -11.740  15.447  71.662  1.00  0.00    -0.483 C  
HETATM    2  C   UNL     1     -11.064  15.121  70.342  1.00  0.00    -0.289 C  
ENDROOT
BRANCH   2   3
HETATM    3  C   UNL     1     -10.897  16.374  69.485  1.00  0.00    -0.338 C  
BRANCH   3   4
HETATM    4  C   UNL     1     -10.626  16.011  68.029  1.00  0.00    -0.295 C  
BRANCH   4   5
HETATM    5  C   UNL     1     -11.468  14.812  67.605  1.00  0.00    -0.363 C  
BRANCH   5   6
HETATM    6  C   UNL     1     -10.887  14.154  66.357  1.00  0.00    -0.304 C  
BRANCH   6   7
HETATM    7  C   UNL     1     -11.089  12.645  66.400  1.00  0.00    -0.325 C  
BRANCH   7   8
HETATM    8  C   UNL     1     -11.146  12.148  67.840  1.00  0.00    -0.295 C  
BRANCH   8   9
HETATM    9  C   UNL     1      -9.850  11.442  68.217  1.00  0.00    -0.202 C  
BRANCH   9  10
HETATM   10  C   UNL     1     -10.134  10.044  68.753  1.00  0.00    -0.197 C  
BRANCH  10  11
HETATM   11  C   UNL     1      -9.619   9.899  70.181  1.00  0.00    -0.237 C  
BRANCH  11  12
HETATM   12  C   UNL     1     -10.159   8.627  70.820  1.00  0.00    -0.244 C  
BRANCH  12  13
HETATM   13  C   UNL     1      -9.075   7.921  71.625  1.00  0.00    -0.175 C  
BRANCH  13  14
HETATM   14  C   UNL     1      -8.673   6.613  70.953  1.00  0.00    -0.138 C  
BRANCH  14  15
HETATM   15  C   UNL     1      -7.577   6.840  69.915  1.00  0.00    -0.100 C  
BRANCH  15  16
HETATM   16  C   UNL     1      -7.227   5.534  69.205  1.00  0.00    -0.065 C  
BRANCH  16  17
HETATM   17  C   UNL     1      -7.799   4.330  69.946  1.00  0.00    -0.052 C  
HETATM   18  C   UNL     1      -8.919   3.676  69.170  1.00  0.00    -0.117 C  
HETATM   19  O   UNL     1      -9.337   4.042  68.084  1.00  0.00    -0.142 OA 
HETATM   20  O   UNL     1      -9.433   2.606  69.821  1.00  0.00    -0.138 OA 
ENDBRANCH  16  17
ENDBRANCH  15  16
ENDBRANCH  14  15
ENDBRANCH  13  14
ENDBRANCH  12  13
ENDBRANCH  11  12
ENDBRANCH  10  11
ENDBRANCH   9  10
ENDBRANCH   8   9
ENDBRANCH   7   8
ENDBRANCH   6   7
ENDBRANCH   5   6
ENDBRANCH   4   5
ENDBRANCH   3   4
ENDBRANCH   2   3
TORSDOF 15
ENDMDL
MODEL      462
REMARK 921   NORMALIZED FREE ENERGY PREDICTED BY IDOCK:   -1.99 KCAL/MOL
REMARK 922        TOTAL FREE ENERGY PREDICTED BY IDOCK:   -5.52 KCAL/MOL
REMARK 923 INTER-LIGAND FREE ENERGY PREDICTED BY IDOCK:   -4.26 KCAL/MOL
REMARK 924 INTRA-LIGAND FREE ENERGY PREDICTED BY IDOCK:   -1.26 KCAL/MOL
REMARK 927      BINDING AFFINITY PREDICTED BY RF-SCORE:    0.00 PKD
ROOT
HETATM    1  C   UNL     1     -11.114  11.560  66.248  1.00  0.00    -0.321 C  
HETATM    2  C   UNL     1     -11.709  12.338  65.087  1.00  0.00    -0.414 C  
ENDROOT
BRANCH   2   3
HETATM    3  C   UNL     1     -12.584  13.486  65.585  1.00  0.00    -0.512 C  
BRANCH   3   4
HETATM    4  C   UNL     1     -12.354  14.748  64.761  1.00  0.00    -0.303 C  
BRANCH   4   5
HETATM    5  C   UNL     1     -10.987  15.352  65.067  1.00  0.00    -0.450 C  
BRANCH   5   6
HETATM    6  C   UNL     1     -10.865  15.701  66.546  1.00  0.00    -0.260 C  
BRANCH   6   7
HETATM    7  C   UNL     1      -9.541  16.398  66.828  1.00  0.00    -0.263 C  
BRANCH   7   8
HETATM    8  C   UNL     1      -8.368  15.471  66.529  1.00  0.00    -0.234 C  
BRANCH   8   9
HETATM    9  C   UNL     1      -8.644  14.069  67.055  1.00  0.00    -0.193 C  
BRANCH   9  10
HETATM   10  C   UNL     1      -7.339  13.332  67.336  1.00  0.00    -0.125 C  
BRANCH  10  11
HETATM   11  C   UNL     1      -7.586  11.834  67.486  1.00  0.00    -0.135 C  
BRANCH  11  12
HETATM   12  C   UNL     1      -6.420  11.039  66.916  1.00  0.00    -0.108 C  
BRANCH  12  13
HETATM   13  C   UNL     1      -6.700  10.618  65.479  1.00  0.00    -0.050 C  
BRANCH  13  14
HETATM   14  C   UNL     1      -6.616   9.102  65.337  1.00  0.00    -0.069 C  
BRANCH  14  15
HETATM   15  C   UNL     1      -7.999   8.462  65.422  1.00  0.00    -0.122 C  
BRANCH  15  16
HETATM   16  C   UNL     1      -7.917   7.084  66.075  1.00  0.00    -0.109 C  
BRANCH  16  17
HETATM   17  C   UNL     1      -9.302   6.569  66.456  1.00  0.00    -0.188 C  
HETATM   18  C   UNL     1      -9.366   5.059  66.416  1.00  0.00    -0.145 C  
HETATM   19  O   UNL     1      -8.443   4.317  66.120  1.00  0.00    -0.112 OA 
HETATM   20  O   UNL     1     -10.591   4.592  66.752  1.00  0.00    -0.148 OA 
ENDBRANCH  16  17
ENDBRANCH  15  16
ENDBRANCH  14  15
ENDBRANCH  13  14
ENDBRANCH  12  13
ENDBRANCH  11  12
ENDBRANCH  10  11
ENDBRANCH   9  10
ENDBRANCH   8   9
ENDBRANCH   7   8
ENDBRANCH   6   7
ENDBRANCH   5   6
ENDBRANCH   4   5
ENDBRANCH   3   4
ENDBRANCH   2   3
TORSDOF 15
ENDMDL
MODEL      463
REMARK 921   NORMALIZED FREE ENERGY PREDICTED BY IDOCK:   -1.95 KCAL/MOL
REMARK 922        TOTAL FREE ENERGY PREDICTED BY IDOCK:   -5.46 KCAL/MOL
REMARK 923 INTER-LIGAND FREE ENERGY PREDICTED BY IDOCK:   -4.46 KCAL/MOL
REMARK 924 INTRA-LIGAND FREE ENERGY PREDICTED BY IDOCK:   -1.00 KCAL/MOL
REMARK 927      BINDING AFFINITY PREDICTED BY RF-SCORE:    0.00 PKD
ROOT
HETATM    1  C   UNL     1      -6.143  10.270  67.226  1.00  0.00    -0.054 C  
HETATM    2  C   UNL     1      -6.701   9.323  68.273  1.00  0.00    -0.060 C  
ENDROOT
BRANCH   2   3
HETATM    3  C   UNL     1      -5.678   8.255  68.651  1.00  0.00    -0.037 C  
BRANCH   3   4
HETATM    4  C   UNL     1      -6.264   6.855  68.503  1.00  0.00    -0.031 C  
BRANCH   4   5
HETATM    5  C   UNL     1      -6.561   6.245  69.869  1.00  0.00    -0.048 C  
BRANCH   5   6
HETATM    6  C   UNL     1      -5.609   6.794  70.927  1.00  0.00    -0.027 C  
BRANCH   6   7
HETATM    7  C   UNL     1      -6.371   7.602  71.970  1.00  0.00    -0.042 C  
BRANCH   7   8
HETATM    8  C   UNL     1      -7.574   6.822  72.486  1.00  0.00    -0.095 C  
BRANCH   8   9
HETATM    9  C   UNL     1      -8.850   7.640  72.337  1.00  0.00    -0.176 C  
BRANCH   9  10
HETATM   10  C   UNL     1     -10.075   6.790  72.653  1.00  0.00    -0.193 C  
BRANCH  10  11
HETATM   11  C   UNL     1     -11.294   7.673  72.902  1.00  0.00    -0.394 C  
BRANCH  11  12
HETATM   12  C   UNL     1     -12.296   7.537  71.765  1.00  0.00    -0.357 C  
BRANCH  12  13
HETATM   13  C   UNL     1     -13.033   8.850  71.530  1.00  0.00    -0.379 C  
BRANCH  13  14
HETATM   14  C   UNL     1     -12.045   9.974  71.235  1.00  0.00    -0.487 C  
BRANCH  14  15
HETATM   15  C   UNL     1     -12.772  11.255  70.834  1.00  0.00    -0.412 C  
BRANCH  15  16
HETATM   16  C   UNL     1     -11.797  12.259  70.222  1.00  0.00    -0.324 C  
BRANCH  16  17
HETATM   17  C   UNL     1     -11.988  12.366  68.712  1.00  0.00    -0.276 C  
HETATM   18  C   UNL     1     -11.923  13.800  68.242  1.00  0.00    -0.357 C  
HETATM   19  O   UNL     1     -11.742  14.774  68.955  1.00  0.00    -0.286 OA 
HETATM   20  O   UNL     1     -12.091  13.905  66.902  1.00  0.00    -0.424 OA 
ENDBRANCH  16  17
ENDBRANCH  15  16
ENDBRANCH  14  15
ENDBRANCH  13  14
ENDBRANCH  12  13
ENDBRANCH  11  12
ENDBRANCH  10  11
ENDBRANCH   9  10
ENDBRANCH   8   9
ENDBRANCH   7   8
ENDBRANCH   6   7
ENDBRANCH   5   6
ENDBRANCH   4   5
ENDBRANCH   3   4
ENDBRANCH   2   3
TORSDOF 15
ENDMDL
MODEL      464
REMARK 921   NORMALIZED FREE ENERGY PREDICTED BY IDOCK:   -1.94 KCAL/MOL
REMARK 922        TOTAL FREE ENERGY PREDICTED BY IDOCK:   -5.45 KCAL/MOL
REMARK 923 INTER-LIGAND FREE ENERGY PREDICTED BY IDOCK:   -3.75 KCAL/MOL
REMARK 924 INTRA-LIGAND FREE ENERGY PREDICTED BY IDOCK:   -1.70 KCAL/MOL
REMARK 927      BINDING AFFINITY PREDICTED BY RF-SCORE:    0.00 PKD
ROOT
HETATM    1  C   UNL     1      -6.130   5.767  64.618  1.00  0.00    -0.025 C  
HETATM    2  C   UNL     1      -7.429   5.408  63.918  1.00  0.00    -0.061 C  
ENDROOT
BRANCH   2   3
HETATM    3  C   UNL     1      -8.425   4.784  64.893  1.00  0.00    -0.140 C  
BRANCH   3   4
HETATM    4  C   UNL     1      -7.756   4.447  66.221  1.00  0.00    -0.094 C  
BRANCH   4   5
HETATM    5  C   UNL     1      -8.521   5.067  67.385  1.00  0.00    -0.105 C  
BRANCH   5   6
HETATM    6  C   UNL     1      -7.683   5.046  68.659  1.00  0.00    -0.078 C  
BRANCH   6   7
HETATM    7  C   UNL     1      -8.577   5.083  69.892  1.00  0.00    -0.110 C  
BRANCH   7   8
HETATM    8  C   UNL     1      -7.756   5.358  71.147  1.00  0.00    -0.102 C  
BRANCH   8   9
HETATM    9  C   UNL     1      -8.628   5.962  72.239  1.00  0.00    -0.124 C  
BRANCH   9  10
HETATM   10  C   UNL     1      -8.047   7.285  72.723  1.00  0.00    -0.122 C  
BRANCH  10  11
HETATM   11  C   UNL     1      -9.147   8.191  73.268  1.00  0.00    -0.327 C  
BRANCH  11  12
HETATM   12  C   UNL     1     -10.447   7.417  73.432  1.00  0.00    -0.419 C  
BRANCH  12  13
HETATM   13  C   UNL     1     -11.535   7.986  72.530  1.00  0.00    -0.471 C  
BRANCH  13  14
HETATM   14  C   UNL     1     -10.997   9.156  71.712  1.00  0.00    -0.429 C  
BRANCH  14  15
HETATM   15  C   UNL     1     -10.959   8.818  70.225  1.00  0.00    -0.255 C  
BRANCH  15  16
HETATM   16  C   UNL     1      -9.888   9.640  69.512  1.00  0.00    -0.219 C  
BRANCH  16  17
HETATM   17  C   UNL     1      -9.068   8.776  68.559  1.00  0.00    -0.138 C  
HETATM   18  C   UNL     1      -9.495   8.968  67.122  1.00  0.00    -0.152 C  
HETATM   19  O   UNL     1     -10.382   9.714  66.739  1.00  0.00    -0.239 OA 
HETATM   20  O   UNL     1      -8.773   8.205  66.269  1.00  0.00    -0.134 OA 
ENDBRANCH  16  17
ENDBRANCH  15  16
ENDBRANCH  14  15
ENDBRANCH  13  14
ENDBRANCH  12  13
ENDBRANCH  11  12
ENDBRANCH  10  11
ENDBRANCH   9  10
ENDBRANCH   8   9
ENDBRANCH   7   8
ENDBRANCH   6   7
ENDBRANCH   5   6
ENDBRANCH   4   5
ENDBRANCH   3   4
ENDBRANCH   2   3
TORSDOF 15
ENDMDL
MODEL      465
REMARK 921   NORMALIZED FREE ENERGY PREDICTED BY IDOCK:   -1.93 KCAL/MOL
REMARK 922        TOTAL FREE ENERGY PREDICTED BY IDOCK:   -5.42 KCAL/MOL
REMARK 923 INTER-LIGAND FREE ENERGY PREDICTED BY IDOCK:   -4.30 KCAL/MOL
REMARK 924 INTRA-LIGAND FREE ENERGY PREDICTED BY IDOCK:   -1.13 KCAL/MOL
REMARK 927      BINDING AFFINITY PREDICTED BY RF-SCORE:    0.00 PKD
ROOT
HETATM    1  C   UNL     1      -6.602  20.393  64.830  1.00  0.00    -0.327 C  
HETATM    2  C   UNL     1      -7.028  19.394  65.891  1.00  0.00    -0.297 C  
ENDROOT
BRANCH   2   3
HETATM    3  C   UNL     1      -8.510  19.545  66.227  1.00  0.00    -0.370 C  
BRANCH   3   4
HETATM    4  C   UNL     1      -9.152  18.189  66.499  1.00  0.00    -0.287 C  
BRANCH   4   5
HETATM    5  C   UNL     1      -8.321  17.387  67.496  1.00  0.00    -0.212 C  
BRANCH   5   6
HETATM    6  C   UNL     1      -9.129  16.228  68.070  1.00  0.00    -0.188 C  
BRANCH   6   7
HETATM    7  C   UNL     1     -10.508  16.162  67.425  1.00  0.00    -0.310 C  
BRANCH   7   8
HETATM    8  C   UNL     1     -10.946  14.715  67.233  1.00  0.00    -0.317 C  
BRANCH   8   9
HETATM    9  C   UNL     1      -9.969  13.973  66.330  1.00  0.00    -0.317 C  
BRANCH   9  10
HETATM   10  C   UNL     1     -10.248  12.475  66.348  1.00  0.00    -0.260 C  
BRANCH  10  11
HETATM   11  C   UNL     1      -8.945  11.683  66.376  1.00  0.00    -0.198 C  
BRANCH  11  12
HETATM   12  C   UNL     1      -9.226  10.190  66.469  1.00  0.00    -0.182 C  
BRANCH  12  13
HETATM   13  C   UNL     1      -8.103   9.385  65.828  1.00  0.00    -0.114 C  
BRANCH  13  14
HETATM   14  C   UNL     1      -7.330   8.604  66.886  1.00  0.00    -0.079 C  
BRANCH  14  15
HETATM   15  C   UNL     1      -8.095   8.559  68.206  1.00  0.00    -0.119 C  
BRANCH  15  16
HETATM   16  C   UNL     1      -8.463   7.122  68.566  1.00  0.00    -0.125 C  
BRANCH  16  17
HETATM   17  C   UNL     1      -9.879   6.782  68.111  1.00  0.00    -0.144 C  
HETATM   18  C   UNL     1      -9.875   5.847  66.923  1.00  0.00    -0.156 C  
HETATM   19  O   UNL     1      -8.880   5.403  66.374  1.00  0.00    -0.118 OA 
HETATM   20  O   UNL     1     -11.127   5.540  66.511  1.00  0.00    -0.179 OA 
ENDBRANCH  16  17
ENDBRANCH  15  16
ENDBRANCH  14  15
ENDBRANCH  13  14
ENDBRANCH  12  13
ENDBRANCH  11  12
ENDBRANCH  10  11
ENDBRANCH   9  10
ENDBRANCH   8   9
ENDBRANCH   7   8
ENDBRANCH   6   7
ENDBRANCH   5   6
ENDBRANCH   4   5
ENDBRANCH   3   4
ENDBRANCH   2   3
TORSDOF 15
ENDMDL
MODEL      466
REMARK 921   NORMALIZED FREE ENERGY PREDICTED BY IDOCK:   -1.93 KCAL/MOL
REMARK 922        TOTAL FREE ENERGY PREDICTED BY IDOCK:   -5.41 KCAL/MOL
REMARK 923 INTER-LIGAND FREE ENERGY PREDICTED BY IDOCK:   -4.10 KCAL/MOL
REMARK 924 INTRA-LIGAND FREE ENERGY PREDICTED BY IDOCK:   -1.31 KCAL/MOL
REMARK 927      BINDING AFFINITY PREDICTED BY RF-SCORE:    0.00 PKD
ROOT
HETATM    1  C   UNL     1      -8.480  16.507  68.257  1.00  0.00    -0.199 C  
HETATM    2  C   UNL     1      -8.930  15.265  67.508  1.00  0.00    -0.192 C  
ENDROOT
BRANCH   2   3
HETATM    3  C   UNL     1      -9.509  15.626  66.143  1.00  0.00    -0.376 C  
BRANCH   3   4
HETATM    4  C   UNL     1     -10.868  14.968  65.931  1.00  0.00    -0.339 C  
BRANCH   4   5
HETATM    5  C   UNL     1     -11.400  14.392  67.240  1.00  0.00    -0.357 C  
BRANCH   5   6
HETATM    6  C   UNL     1     -11.638  12.891  67.117  1.00  0.00    -0.421 C  
BRANCH   6   7
HETATM    7  C   UNL     1     -10.407  12.112  67.561  1.00  0.00    -0.219 C  
BRANCH   7   8
HETATM    8  C   UNL     1     -10.603  10.617  67.337  1.00  0.00    -0.304 C  
BRANCH   8   9
HETATM    9  C   UNL     1      -9.969   9.817  68.467  1.00  0.00    -0.177 C  
BRANCH   9  10
HETATM   10  C   UNL     1     -10.915   9.722  69.658  1.00  0.00    -0.269 C  
BRANCH  10  11
HETATM   11  C   UNL     1     -10.897   8.317  70.251  1.00  0.00    -0.241 C  
BRANCH  11  12
HETATM   12  C   UNL     1     -10.588   7.285  69.177  1.00  0.00    -0.219 C  
BRANCH  12  13
HETATM   13  C   UNL     1     -10.386   5.905  69.791  1.00  0.00    -0.309 C  
BRANCH  13  14
HETATM   14  C   UNL     1      -9.152   5.230  69.202  1.00  0.00    -0.136 C  
BRANCH  14  15
HETATM   15  C   UNL     1      -8.323   6.216  68.383  1.00  0.00    -0.114 C  
BRANCH  15  16
HETATM   16  C   UNL     1      -6.849   6.133  68.770  1.00  0.00    -0.066 C  
BRANCH  16  17
HETATM   17  C   UNL     1      -6.393   7.398  69.491  1.00  0.00    -0.035 C  
HETATM   18  C   UNL     1      -6.346   7.202  70.988  1.00  0.00    -0.036 C  
HETATM   19  O   UNL     1      -6.631   6.173  71.579  1.00  0.00    -0.051 OA 
HETATM   20  O   UNL     1      -5.943   8.320  71.637  1.00  0.00    -0.035 OA 
ENDBRANCH  16  17
ENDBRANCH  15  16
ENDBRANCH  14  15
ENDBRANCH  13  14
ENDBRANCH  12  13
ENDBRANCH  11  12
ENDBRANCH  10  11
ENDBRANCH   9  10
ENDBRANCH   8   9
ENDBRANCH   7   8
ENDBRANCH   6   7
ENDBRANCH   5   6
ENDBRANCH   4   5
ENDBRANCH   3   4
ENDBRANCH   2   3
TORSDOF 15
ENDMDL
MODEL      467
REMARK 921   NORMALIZED FREE ENERGY PREDICTED BY IDOCK:   -1.89 KCAL/MOL
REMARK 922        TOTAL FREE ENERGY PREDICTED BY IDOCK:   -5.35 KCAL/MOL
REMARK 923 INTER-LIGAND FREE ENERGY PREDICTED BY IDOCK:   -4.03 KCAL/MOL
REMARK 924 INTRA-LIGAND FREE ENERGY PREDICTED BY IDOCK:   -1.32 KCAL/MOL
REMARK 927      BINDING AFFINITY PREDICTED BY RF-SCORE:    0.00 PKD
ROOT
HETATM    1  C   UNL     1      -6.891   3.876  66.466  1.00  0.00    -0.058 C  
HETATM    2  C   UNL     1      -8.143   3.117  66.062  1.00  0.00    -0.089 C  
ENDROOT
BRANCH   2   3
HETATM    3  C   UNL     1      -9.040   3.972  65.170  1.00  0.00    -0.139 C  
BRANCH   3   4
HETATM    4  C   UNL     1      -9.338   5.319  65.819  1.00  0.00    -0.151 C  
BRANCH   4   5
HETATM    5  C   UNL     1     -10.570   5.228  66.714  1.00  0.00    -0.309 C  
BRANCH   5   6
HETATM    6  C   UNL     1     -10.997   6.611  67.194  1.00  0.00    -0.478 C  
BRANCH   6   7
HETATM    7  C   UNL     1     -10.027   7.676  66.699  1.00  0.00    -0.284 C  
BRANCH   7   8
HETATM    8  C   UNL     1     -10.118   8.932  67.557  1.00  0.00    -0.285 C  
BRANCH   8   9
HETATM    9  C   UNL     1      -9.085   8.894  68.676  1.00  0.00    -0.137 C  
BRANCH   9  10
HETATM   10  C   UNL     1      -9.735   9.197  70.021  1.00  0.00    -0.217 C  
BRANCH  10  11
HETATM   11  C   UNL     1      -8.715   9.089  71.150  1.00  0.00    -0.266 C  
BRANCH  11  12
HETATM   12  C   UNL     1      -9.287   8.296  72.316  1.00  0.00    -0.323 C  
BRANCH  12  13
HETATM   13  C   UNL     1      -9.410   6.820  71.962  1.00  0.00    -0.144 C  
BRANCH  13  14
HETATM   14  C   UNL     1      -8.031   6.197  71.768  1.00  0.00    -0.103 C  
BRANCH  14  15
HETATM   15  C   UNL     1      -7.921   4.863  72.500  1.00  0.00    -0.094 C  
BRANCH  15  16
HETATM   16  C   UNL     1      -8.917   4.797  73.656  1.00  0.00    -0.104 C  
BRANCH  16  17
HETATM   17  C   UNL     1      -9.633   3.451  73.694  1.00  0.00    -0.137 C  
HETATM   18  C   UNL     1     -11.118   3.602  73.461  1.00  0.00    -0.225 C  
HETATM   19  O   UNL     1     -11.703   4.655  73.264  1.00  0.00    -0.290 OA 
HETATM   20  O   UNL     1     -11.763   2.412  73.494  1.00  0.00    -0.201 OA 
ENDBRANCH  16  17
ENDBRANCH  15  16
ENDBRANCH  14  15
ENDBRANCH  13  14
ENDBRANCH  12  13
ENDBRANCH  11  12
ENDBRANCH  10  11
ENDBRANCH   9  10
ENDBRANCH   8   9
ENDBRANCH   7   8
ENDBRANCH   6   7
ENDBRANCH   5   6
ENDBRANCH   4   5
ENDBRANCH   3   4
ENDBRANCH   2   3
TORSDOF 15
ENDMDL
MODEL      468
REMARK 921   NORMALIZED FREE ENERGY PREDICTED BY IDOCK:   -1.89 KCAL/MOL
REMARK 922        TOTAL FREE ENERGY PREDICTED BY IDOCK:   -5.34 KCAL/MOL
REMARK 923 INTER-LIGAND FREE ENERGY PREDICTED BY IDOCK:   -3.52 KCAL/MOL
REMARK 924 INTRA-LIGAND FREE ENERGY PREDICTED BY IDOCK:   -1.83 KCAL/MOL
REMARK 927      BINDING AFFINITY PREDICTED BY RF-SCORE:    0.00 PKD
ROOT
HETATM    1  C   UNL     1      -5.885  13.237  70.107  1.00  0.00    -0.147 C  
HETATM    2  C   UNL     1      -6.038  12.203  69.006  1.00  0.00    -0.075 C  
ENDROOT
BRANCH   2   3
HETATM    3  C   UNL     1      -7.093  12.633  67.989  1.00  0.00    -0.103 C  
BRANCH   3   4
HETATM    4  C   UNL     1      -7.468  11.479  67.065  1.00  0.00    -0.151 C  
BRANCH   4   5
HETATM    5  C   UNL     1      -6.235  10.664  66.689  1.00  0.00    -0.083 C  
BRANCH   5   6
HETATM    6  C   UNL     1      -6.295   9.271  67.306  1.00  0.00    -0.059 C  
BRANCH   6   7
HETATM    7  C   UNL     1      -5.183   9.087  68.330  1.00  0.00    -0.034 C  
BRANCH   7   8
HETATM    8  C   UNL     1      -5.386   7.802  69.124  1.00  0.00    -0.019 C  
BRANCH   8   9
HETATM    9  C   UNL     1      -5.624   8.112  70.596  1.00  0.00    -0.029 C  
BRANCH   9  10
HETATM   10  C   UNL     1      -7.041   7.728  71.005  1.00  0.00    -0.053 C  
BRANCH  10  11
HETATM   11  C   UNL     1      -7.834   8.961  71.426  1.00  0.00    -0.141 C  
BRANCH  11  12
HETATM   12  C   UNL     1      -8.346   9.712  70.205  1.00  0.00    -0.221 C  
BRANCH  12  13
HETATM   13  C   UNL     1      -9.869   9.746  70.188  1.00  0.00    -0.306 C  
BRANCH  13  14
HETATM   14  C   UNL     1     -10.382  10.143  68.807  1.00  0.00    -0.211 C  
BRANCH  14  15
HETATM   15  C   UNL     1     -11.783  10.742  68.891  1.00  0.00    -0.338 C  
BRANCH  15  16
HETATM   16  C   UNL     1     -11.718  12.268  68.888  1.00  0.00    -0.380 C  
BRANCH  16  17
HETATM   17  C   UNL     1     -10.738  12.779  67.837  1.00  0.00    -0.235 C  
HETATM   18  C   UNL     1     -11.451  13.459  66.692  1.00  0.00    -0.344 C  
HETATM   19  O   UNL     1     -12.659  13.597  66.590  1.00  0.00    -0.306 OA 
HETATM   20  O   UNL     1     -10.589  13.916  65.753  1.00  0.00    -0.284 OA 
ENDBRANCH  16  17
ENDBRANCH  15  16
ENDBRANCH  14  15
ENDBRANCH  13  14
ENDBRANCH  12  13
ENDBRANCH  11  12
ENDBRANCH  10  11
ENDBRANCH   9  10
ENDBRANCH   8   9
ENDBRANCH   7   8
ENDBRANCH   6   7
ENDBRANCH   5   6
ENDBRANCH   4   5
ENDBRANCH   3   4
ENDBRANCH   2   3
TORSDOF 15
ENDMDL
MODEL      469
REMARK 921   NORMALIZED FREE ENERGY PREDICTED BY IDOCK:   -1.87 KCAL/MOL
REMARK 922        TOTAL FREE ENERGY PREDICTED BY IDOCK:   -5.30 KCAL/MOL
REMARK 923 INTER-LIGAND FREE ENERGY PREDICTED BY IDOCK:   -4.13 KCAL/MOL
REMARK 924 INTRA-LIGAND FREE ENERGY PREDICTED BY IDOCK:   -1.17 KCAL/MOL
REMARK 927      BINDING AFFINITY PREDICTED BY RF-SCORE:    0.00 PKD
ROOT
HETATM    1  C   UNL     1      -6.179   5.873  64.408  1.00  0.00    -0.029 C  
HETATM    2  C   UNL     1      -7.537   6.162  63.794  1.00  0.00    -0.089 C  
ENDROOT
BRANCH   2   3
HETATM    3  C   UNL     1      -8.659   5.918  64.800  1.00  0.00    -0.001 C  
BRANCH   3   4
HETATM    4  C   UNL     1      -8.170   5.077  65.975  1.00  0.00    -0.113 C  
BRANCH   4   5
HETATM    5  C   UNL     1      -8.465   5.775  67.299  1.00  0.00    -0.107 C  
BRANCH   5   6
HETATM    6  C   UNL     1      -8.452   4.778  68.453  1.00  0.00    -0.096 C  
BRANCH   6   7
HETATM    7  C   UNL     1      -9.517   3.707  68.251  1.00  0.00    -0.214 C  
BRANCH   7   8
HETATM    8  C   UNL     1      -9.207   2.472  69.089  1.00  0.00    -0.199 C  
BRANCH   8   9
HETATM    9  C   UNL     1      -9.647   2.678  70.532  1.00  0.00    -0.149 C  
BRANCH   9  10
HETATM   10  C   UNL     1      -8.442   2.909  71.436  1.00  0.00    -0.092 C  
BRANCH  10  11
HETATM   11  C   UNL     1      -8.854   3.644  72.708  1.00  0.00    -0.104 C  
BRANCH  11  12
HETATM   12  C   UNL     1     -10.354   3.521  72.936  1.00  0.00    -0.246 C  
BRANCH  12  13
HETATM   13  C   UNL     1     -10.946   4.854  73.376  1.00  0.00    -0.394 C  
BRANCH  13  14
HETATM   14  C   UNL     1      -9.965   5.611  74.264  1.00  0.00    -0.245 C  
BRANCH  14  15
HETATM   15  C   UNL     1     -10.093   7.119  74.066  1.00  0.00    -0.303 C  
BRANCH  15  16
HETATM   16  C   UNL     1     -10.342   7.451  72.597  1.00  0.00    -0.292 C  
BRANCH  16  17
HETATM   17  C   UNL     1     -11.592   8.309  72.427  1.00  0.00    -0.464 C  
HETATM   18  C   UNL     1     -11.335   9.497  71.529  1.00  0.00    -0.385 C  
HETATM   19  O   UNL     1     -10.273   9.765  70.992  1.00  0.00    -0.249 OA 
HETATM   20  O   UNL     1     -12.440  10.265  71.372  1.00  0.00    -0.359 OA 
ENDBRANCH  16  17
ENDBRANCH  15  16
ENDBRANCH  14  15
ENDBRANCH  13  14
ENDBRANCH  12  13
ENDBRANCH  11  12
ENDBRANCH  10  11
ENDBRANCH   9  10
ENDBRANCH   8   9
ENDBRANCH   7   8
ENDBRANCH   6   7
ENDBRANCH   5   6
ENDBRANCH   4   5
ENDBRANCH   3   4
ENDBRANCH   2   3
TORSDOF 15
ENDMDL
MODEL      470
REMARK 921   NORMALIZED FREE ENERGY PREDICTED BY IDOCK:   -1.84 KCAL/MOL
REMARK 922        TOTAL FREE ENERGY PREDICTED BY IDOCK:   -5.24 KCAL/MOL
REMARK 923 INTER-LIGAND FREE ENERGY PREDICTED BY IDOCK:   -4.28 KCAL/MOL
REMARK 924 INTRA-LIGAND FREE ENERGY PREDICTED BY IDOCK:   -0.96 KCAL/MOL
REMARK 927      BINDING AFFINITY PREDICTED BY RF-SCORE:    0.00 PKD
ROOT
HETATM    1  C   UNL     1      -6.117   3.558  66.537  1.00  0.00    -0.024 C  
HETATM    2  C   UNL     1      -7.249   3.164  65.606  1.00  0.00    -0.070 C  
ENDROOT
BRANCH   2   3
HETATM    3  C   UNL     1      -7.833   4.386  64.901  1.00  0.00    -0.085 C  
BRANCH   3   4
HETATM    4  C   UNL     1      -7.946   5.569  65.856  1.00  0.00    -0.106 C  
BRANCH   4   5
HETATM    5  C   UNL     1      -9.364   5.687  66.405  1.00  0.00    -0.165 C  
BRANCH   5   6
HETATM    6  C   UNL     1      -9.683   7.130  66.781  1.00  0.00    -0.252 C  
BRANCH   6   7
HETATM    7  C   UNL     1      -8.674   8.085  66.157  1.00  0.00    -0.177 C  
BRANCH   7   8
HETATM    8  C   UNL     1      -9.147   9.529  66.280  1.00  0.00    -0.202 C  
BRANCH   8   9
HETATM    9  C   UNL     1      -8.330  10.275  67.326  1.00  0.00    -0.121 C  
BRANCH   9  10
HETATM   10  C   UNL     1      -9.152  11.392  67.957  1.00  0.00    -0.171 C  
BRANCH  10  11
HETATM   11  C   UNL     1      -9.606  11.002  69.360  1.00  0.00     0.094 C  
BRANCH  11  12
HETATM   12  C   UNL     1     -10.756  10.008  69.295  1.00  0.00    -0.249 C  
BRANCH  12  13
HETATM   13  C   UNL     1     -12.097  10.730  69.257  1.00  0.00    -0.278 C  
BRANCH  13  14
HETATM   14  C   UNL     1     -12.518  11.156  70.660  1.00  0.00    -0.448 C  
BRANCH  14  15
HETATM   15  C   UNL     1     -12.522  12.676  70.797  1.00  0.00    -0.357 C  
BRANCH  15  16
HETATM   16  C   UNL     1     -13.435  13.112  71.941  1.00  0.00    -0.513 C  
BRANCH  16  17
HETATM   17  C   UNL     1     -13.544  14.631  72.015  1.00  0.00    -0.496 C  
HETATM   18  C   UNL     1     -12.511  15.220  72.947  1.00  0.00    -0.406 C  
HETATM   19  O   UNL     1     -11.680  14.586  73.577  1.00  0.00     0.075 OA 
HETATM   20  O   UNL     1     -12.599  16.569  73.019  1.00  0.00    -0.331 OA 
ENDBRANCH  16  17
ENDBRANCH  15  16
ENDBRANCH  14  15
ENDBRANCH  13  14
ENDBRANCH  12  13
ENDBRANCH  11  12
ENDBRANCH  10  11
ENDBRANCH   9  10
ENDBRANCH   8   9
ENDBRANCH   7   8
ENDBRANCH   6   7
ENDBRANCH   5   6
ENDBRANCH   4   5
ENDBRANCH   3   4
ENDBRANCH   2   3
TORSDOF 15
ENDMDL
MODEL      471
REMARK 921   NORMALIZED FREE ENERGY PREDICTED BY IDOCK:   -1.79 KCAL/MOL
REMARK 922        TOTAL FREE ENERGY PREDICTED BY IDOCK:   -5.16 KCAL/MOL
REMARK 923 INTER-LIGAND FREE ENERGY PREDICTED BY IDOCK:   -4.41 KCAL/MOL
REMARK 924 INTRA-LIGAND FREE ENERGY PREDICTED BY IDOCK:   -0.75 KCAL/MOL
REMARK 927      BINDING AFFINITY PREDICTED BY RF-SCORE:    0.00 PKD
ROOT
HETATM    1  C   UNL     1      -5.970  14.149  73.828  1.00  0.00     0.161 C  
HETATM    2  C   UNL     1      -5.137  14.517  72.614  1.00  0.00    -0.237 C  
ENDROOT
BRANCH   2   3
HETATM    3  C   UNL     1      -6.023  14.960  71.452  1.00  0.00     0.229 C  
BRANCH   3   4
HETATM    4  C   UNL     1      -5.448  14.499  70.116  1.00  0.00    -0.111 C  
BRANCH   4   5
HETATM    5  C   UNL     1      -6.478  13.688  69.336  1.00  0.00    -0.106 C  
BRANCH   5   6
HETATM    6  C   UNL     1      -7.723  14.521  69.049  1.00  0.00    -0.113 C  
BRANCH   6   7
HETATM    7  C   UNL     1      -7.346  15.846  68.398  1.00  0.00    -0.125 C  
BRANCH   7   8
HETATM    8  C   UNL     1      -8.569  16.744  68.253  1.00  0.00    -0.226 C  
BRANCH   8   9
HETATM    9  C   UNL     1      -9.560  16.146  67.263  1.00  0.00    -0.231 C  
BRANCH   9  10
HETATM   10  C   UNL     1     -10.670  15.402  67.995  1.00  0.00    -0.279 C  
BRANCH  10  11
HETATM   11  C   UNL     1     -11.060  14.135  67.240  1.00  0.00    -0.315 C  
BRANCH  11  12
HETATM   12  C   UNL     1     -12.000  13.279  68.076  1.00  0.00    -0.351 C  
BRANCH  12  13
HETATM   13  C   UNL     1     -11.638  13.359  69.554  1.00  0.00    -0.352 C  
BRANCH  13  14
HETATM   14  C   UNL     1     -12.842  13.009  70.422  1.00  0.00     0.084 C  
BRANCH  14  15
HETATM   15  C   UNL     1     -12.554  11.795  71.300  1.00  0.00    -0.401 C  
BRANCH  15  16
HETATM   16  C   UNL     1     -12.528  10.518  70.463  1.00  0.00    -0.433 C  
BRANCH  16  17
HETATM   17  C   UNL     1     -11.673   9.440  71.124  1.00  0.00    -0.418 C  
HETATM   18  C   UNL     1     -12.421   8.737  72.233  1.00  0.00    -0.386 C  
HETATM   19  O   UNL     1     -13.564   8.979  72.583  1.00  0.00    -0.465 OA 
HETATM   20  O   UNL     1     -11.670   7.779  72.826  1.00  0.00    -0.337 OA 
ENDBRANCH  16  17
ENDBRANCH  15  16
ENDBRANCH  14  15
ENDBRANCH  13  14
ENDBRANCH  12  13
ENDBRANCH  11  12
ENDBRANCH  10  11
ENDBRANCH   9  10
ENDBRANCH   8   9
ENDBRANCH   7   8
ENDBRANCH   6   7
ENDBRANCH   5   6
ENDBRANCH   4   5
ENDBRANCH   3   4
ENDBRANCH   2   3
TORSDOF 15
ENDMDL
MODEL      472
REMARK 921   NORMALIZED FREE ENERGY PREDICTED BY IDOCK:   -1.77 KCAL/MOL
REMARK 922        TOTAL FREE ENERGY PREDICTED BY IDOCK:   -5.12 KCAL/MOL
REMARK 923 INTER-LIGAND FREE ENERGY PREDICTED BY IDOCK:   -3.39 KCAL/MOL
REMARK 924 INTRA-LIGAND FREE ENERGY PREDICTED BY IDOCK:   -1.74 KCAL/MOL
REMARK 927      BINDING AFFINITY PREDICTED BY RF-SCORE:    0.00 PKD
ROOT
HETATM    1  C   UNL     1     -11.227  15.566  64.750  1.00  0.00    -0.399 C  
HETATM    2  C   UNL     1     -12.013  14.402  65.325  1.00  0.00    -0.382 C  
ENDROOT
BRANCH   2   3
HETATM    3  C   UNL     1     -11.719  14.221  66.813  1.00  0.00    -0.424 C  
BRANCH   3   4
HETATM    4  C   UNL     1     -11.098  12.856  67.088  1.00  0.00    -0.309 C  
BRANCH   4   5
HETATM    5  C   UNL     1     -10.397  12.844  68.443  1.00  0.00    -0.249 C  
BRANCH   5   6
HETATM    6  C   UNL     1     -10.961  11.744  69.337  1.00  0.00    -0.185 C  
BRANCH   6   7
HETATM    7  C   UNL     1     -11.977  10.902  68.578  1.00  0.00    -0.137 C  
BRANCH   7   8
HETATM    8  C   UNL     1     -11.534   9.445  68.517  1.00  0.00     0.456 C  
BRANCH   8   9
HETATM    9  C   UNL     1     -10.052   9.320  68.847  1.00  0.00    -0.207 C  
BRANCH   9  10
HETATM   10  C   UNL     1      -9.236   9.078  67.583  1.00  0.00    -0.150 C  
BRANCH  10  11
HETATM   11  C   UNL     1      -8.429   7.789  67.699  1.00  0.00    -0.121 C  
BRANCH  11  12
HETATM   12  C   UNL     1      -8.794   7.041  68.973  1.00  0.00    -0.134 C  
BRANCH  12  13
HETATM   13  C   UNL     1      -7.547   6.492  69.656  1.00  0.00    -0.098 C  
BRANCH  13  14
HETATM   14  C   UNL     1      -7.628   6.694  71.165  1.00  0.00    -0.089 C  
BRANCH  14  15
HETATM   15  C   UNL     1      -8.429   7.946  71.511  1.00  0.00    -0.133 C  
BRANCH  15  16
HETATM   16  C   UNL     1      -9.474   7.640  72.582  1.00  0.00    -0.230 C  
BRANCH  16  17
HETATM   17  C   UNL     1     -10.816   7.270  71.957  1.00  0.00    -0.264 C  
HETATM   18  C   UNL     1     -11.810   8.404  72.057  1.00  0.00    -0.353 C  
HETATM   19  O   UNL     1     -11.597   9.491  72.569  1.00  0.00     0.346 OA 
HETATM   20  O   UNL     1     -13.004   8.086  71.505  1.00  0.00    -0.321 OA 
ENDBRANCH  16  17
ENDBRANCH  15  16
ENDBRANCH  14  15
ENDBRANCH  13  14
ENDBRANCH  12  13
ENDBRANCH  11  12
ENDBRANCH  10  11
ENDBRANCH   9  10
ENDBRANCH   8   9
ENDBRANCH   7   8
ENDBRANCH   6   7
ENDBRANCH   5   6
ENDBRANCH   4   5
ENDBRANCH   3   4
ENDBRANCH   2   3
TORSDOF 15
ENDMDL
MODEL      473
REMARK 921   NORMALIZED FREE ENERGY PREDICTED BY IDOCK:   -1.77 KCAL/MOL
REMARK 922        TOTAL FREE ENERGY PREDICTED BY IDOCK:   -5.11 KCAL/MOL
REMARK 923 INTER-LIGAND FREE ENERGY PREDICTED BY IDOCK:   -4.38 KCAL/MOL
REMARK 924 INTRA-LIGAND FREE ENERGY PREDICTED BY IDOCK:   -0.73 KCAL/MOL
REMARK 927      BINDING AFFINITY PREDICTED BY RF-SCORE:    0.00 PKD
ROOT
HETATM    1  C   UNL     1      -9.895   3.066  73.278  1.00  0.00    -0.166 C  
HETATM    2  C   UNL     1      -9.885   2.170  72.053  1.00  0.00    -0.221 C  
ENDROOT
BRANCH   2   3
HETATM    3  C   UNL     1      -9.581   2.970  70.789  1.00  0.00    -0.203 C  
BRANCH   3   4
HETATM    4  C   UNL     1      -9.570   4.468  71.075  1.00  0.00    -0.248 C  
BRANCH   4   5
HETATM    5  C   UNL     1     -10.331   5.231  69.996  1.00  0.00    -0.365 C  
BRANCH   5   6
HETATM    6  C   UNL     1     -11.075   6.421  70.594  1.00  0.00    -0.376 C  
BRANCH   6   7
HETATM    7  C   UNL     1     -10.512   7.731  70.059  1.00  0.00    -0.230 C  
BRANCH   7   8
HETATM    8  C   UNL     1      -9.144   8.020  70.665  1.00  0.00    -0.154 C  
BRANCH   8   9
HETATM    9  C   UNL     1      -8.034   7.559  69.729  1.00  0.00    -0.124 C  
BRANCH   9  10
HETATM   10  C   UNL     1      -7.296   8.755  69.139  1.00  0.00    -0.072 C  
BRANCH  10  11
HETATM   11  C   UNL     1      -8.019  10.055  69.475  1.00  0.00    -0.161 C  
BRANCH  11  12
HETATM   12  C   UNL     1      -8.632  10.667  68.223  1.00  0.00    -0.128 C  
BRANCH  12  13
HETATM   13  C   UNL     1      -7.700  11.709  67.616  1.00  0.00    -0.133 C  
BRANCH  13  14
HETATM   14  C   UNL     1      -8.494  12.906  67.105  1.00  0.00    -0.179 C  
BRANCH  14  15
HETATM   15  C   UNL     1      -9.589  13.303  68.091  1.00  0.00    -0.227 C  
BRANCH  15  16
HETATM   16  C   UNL     1      -9.229  14.606  68.802  1.00  0.00    -0.184 C  
BRANCH  16  17
HETATM   17  C   UNL     1      -9.366  15.803  67.867  1.00  0.00    -0.200 C  
HETATM   18  C   UNL     1     -10.478  16.729  68.304  1.00  0.00    -0.341 C  
HETATM   19  O   UNL     1     -11.195  16.566  69.278  1.00  0.00    -0.296 OA 
HETATM   20  O   UNL     1     -10.608  17.795  67.480  1.00  0.00    -0.377 OA 
ENDBRANCH  16  17
ENDBRANCH  15  16
ENDBRANCH  14  15
ENDBRANCH  13  14
ENDBRANCH  12  13
ENDBRANCH  11  12
ENDBRANCH  10  11
ENDBRANCH   9  10
ENDBRANCH   8   9
ENDBRANCH   7   8
ENDBRANCH   6   7
ENDBRANCH   5   6
ENDBRANCH   4   5
ENDBRANCH   3   4
ENDBRANCH   2   3
TORSDOF 15
ENDMDL
MODEL      474
REMARK 921   NORMALIZED FREE ENERGY PREDICTED BY IDOCK:   -1.75 KCAL/MOL
REMARK 922        TOTAL FREE ENERGY PREDICTED BY IDOCK:   -5.09 KCAL/MOL
REMARK 923 INTER-LIGAND FREE ENERGY PREDICTED BY IDOCK:   -4.29 KCAL/MOL
REMARK 924 INTRA-LIGAND FREE ENERGY PREDICTED BY IDOCK:   -0.79 KCAL/MOL
REMARK 927      BINDING AFFINITY PREDICTED BY RF-SCORE:    0.00 PKD
ROOT
HETATM    1  C   UNL     1      -5.889  10.889  70.268  1.00  0.00    -0.118 C  
HETATM    2  C   UNL     1      -7.159  10.559  69.505  1.00  0.00    -0.124 C  
ENDROOT
BRANCH   2   3
HETATM    3  C   UNL     1      -7.709  11.793  68.793  1.00  0.00    -0.091 C  
BRANCH   3   4
HETATM    4  C   UNL     1      -8.909  11.434  67.922  1.00  0.00    -0.149 C  
BRANCH   4   5
HETATM    5  C   UNL     1      -8.668  10.122  67.182  1.00  0.00    -0.131 C  
BRANCH   5   6
HETATM    6  C   UNL     1      -9.358  10.129  65.823  1.00  0.00    -0.239 C  
BRANCH   6   7
HETATM    7  C   UNL     1     -10.304  11.317  65.705  1.00  0.00    -0.310 C  
BRANCH   7   8
HETATM    8  C   UNL     1      -9.883  12.233  64.562  1.00  0.00    -0.125 C  
BRANCH   8   9
HETATM    9  C   UNL     1     -11.028  13.151  64.159  1.00  0.00    -0.418 C  
BRANCH   9  10
HETATM   10  C   UNL     1     -11.940  13.430  65.348  1.00  0.00    -0.419 C  
BRANCH  10  11
HETATM   11  C   UNL     1     -11.159  14.082  66.485  1.00  0.00    -0.315 C  
BRANCH  11  12
HETATM   12  C   UNL     1     -11.444  15.576  66.545  1.00  0.00     0.080 C  
BRANCH  12  13
HETATM   13  C   UNL     1     -10.324  16.370  65.884  1.00  0.00    -0.378 C  
BRANCH  13  14
HETATM   14  C   UNL     1     -10.034  17.644  66.669  1.00  0.00    -0.328 C  
BRANCH  14  15
HETATM   15  C   UNL     1     -10.863  17.705  67.949  1.00  0.00    -0.245 C  
BRANCH  15  16
HETATM   16  C   UNL     1      -9.973  17.533  69.177  1.00  0.00    -0.197 C  
BRANCH  16  17
HETATM   17  C   UNL     1      -9.353  16.140  69.222  1.00  0.00    -0.227 C  
HETATM   18  C   UNL     1      -7.859  16.186  69.001  1.00  0.00    -0.227 C  
HETATM   19  O   UNL     1      -7.201  17.196  68.808  1.00  0.00    -0.211 OA 
HETATM   20  O   UNL     1      -7.299  14.954  69.039  1.00  0.00    -0.122 OA 
ENDBRANCH  16  17
ENDBRANCH  15  16
ENDBRANCH  14  15
ENDBRANCH  13  14
ENDBRANCH  12  13
ENDBRANCH  11  12
ENDBRANCH  10  11
ENDBRANCH   9  10
ENDBRANCH   8   9
ENDBRANCH   7   8
ENDBRANCH   6   7
ENDBRANCH   5   6
ENDBRANCH   4   5
ENDBRANCH   3   4
ENDBRANCH   2   3
TORSDOF 15
ENDMDL
MODEL      475
REMARK 921   NORMALIZED FREE ENERGY PREDICTED BY IDOCK:   -1.68 KCAL/MOL
REMARK 922        TOTAL FREE ENERGY PREDICTED BY IDOCK:   -4.94 KCAL/MOL
REMARK 923 INTER-LIGAND FREE ENERGY PREDICTED BY IDOCK:   -4.49 KCAL/MOL
REMARK 924 INTRA-LIGAND FREE ENERGY PREDICTED BY IDOCK:   -0.45 KCAL/MOL
REMARK 927      BINDING AFFINITY PREDICTED BY RF-SCORE:    0.00 PKD
ROOT
HETATM    1  C   UNL     1     -11.956  15.184  64.457  1.00  0.00    -0.326 C  
HETATM    2  C   UNL     1     -12.281  14.069  65.435  1.00  0.00    -0.453 C  
ENDROOT
BRANCH   2   3
HETATM    3  C   UNL     1     -11.031  13.614  66.185  1.00  0.00    -0.285 C  
BRANCH   3   4
HETATM    4  C   UNL     1     -11.194  12.192  66.711  1.00  0.00    -0.375 C  
BRANCH   4   5
HETATM    5  C   UNL     1     -10.122  11.274  66.132  1.00  0.00    -0.279 C  
BRANCH   5   6
HETATM    6  C   UNL     1      -8.745  11.634  66.679  1.00  0.00    -0.187 C  
BRANCH   6   7
HETATM    7  C   UNL     1      -8.749  13.040  67.265  1.00  0.00    -0.209 C  
BRANCH   7   8
HETATM    8  C   UNL     1      -8.125  13.048  68.656  1.00  0.00    -0.011 C  
BRANCH   8   9
HETATM    9  C   UNL     1      -7.167  14.222  68.808  1.00  0.00    -0.129 C  
BRANCH   9  10
HETATM   10  C   UNL     1      -6.282  14.041  70.036  1.00  0.00    -0.142 C  
BRANCH  10  11
HETATM   11  C   UNL     1      -5.213  15.127  70.096  1.00  0.00    -0.116 C  
BRANCH  11  12
HETATM   12  C   UNL     1      -5.847  16.492  70.325  1.00  0.00    -0.117 C  
BRANCH  12  13
HETATM   13  C   UNL     1      -5.547  17.431  69.164  1.00  0.00    -0.180 C  
BRANCH  13  14
HETATM   14  C   UNL     1      -6.829  18.086  68.659  1.00  0.00    -0.249 C  
BRANCH  14  15
HETATM   15  C   UNL     1      -7.380  17.351  67.441  1.00  0.00    -0.188 C  
BRANCH  15  16
HETATM   16  C   UNL     1      -8.894  17.183  67.551  1.00  0.00    -0.218 C  
BRANCH  16  17
HETATM   17  C   UNL     1      -9.351  17.220  69.006  1.00  0.00    -0.120 C  
HETATM   18  C   UNL     1     -10.580  16.370  69.227  1.00  0.00    -0.311 C  
HETATM   19  O   UNL     1     -11.160  15.723  68.370  1.00  0.00    -0.305 OA 
HETATM   20  O   UNL     1     -10.993  16.397  70.516  1.00  0.00    -0.296 OA 
ENDBRANCH  16  17
ENDBRANCH  15  16
ENDBRANCH  14  15
ENDBRANCH  13  14
ENDBRANCH  12  13
ENDBRANCH  11  12
ENDBRANCH  10  11
ENDBRANCH   9  10
ENDBRANCH   8   9
ENDBRANCH   7   8
ENDBRANCH   6   7
ENDBRANCH   5   6
ENDBRANCH   4   5
ENDBRANCH   3   4
ENDBRANCH   2   3
TORSDOF 15
ENDMDL
MODEL      476
REMARK 921   NORMALIZED FREE ENERGY PREDICTED BY IDOCK:   -1.67 KCAL/MOL
REMARK 922        TOTAL FREE ENERGY PREDICTED BY IDOCK:   -4.94 KCAL/MOL
REMARK 923 INTER-LIGAND FREE ENERGY PREDICTED BY IDOCK:   -3.97 KCAL/MOL
REMARK 924 INTRA-LIGAND FREE ENERGY PREDICTED BY IDOCK:   -0.97 KCAL/MOL
REMARK 927      BINDING AFFINITY PREDICTED BY RF-SCORE:    0.00 PKD
ROOT
HETATM    1  C   UNL     1     -11.116   9.183  67.028  1.00  0.00     0.376 C  
HETATM    2  C   UNL     1      -9.852   9.439  67.828  1.00  0.00    -0.207 C  
ENDROOT
BRANCH   2   3
HETATM    3  C   UNL     1      -9.692  10.925  68.143  1.00  0.00    -0.174 C  
BRANCH   3   4
HETATM    4  C   UNL     1     -10.416  11.294  69.434  1.00  0.00    -0.089 C  
BRANCH   4   5
HETATM    5  C   UNL     1     -11.450  12.387  69.181  1.00  0.00    -0.358 C  
BRANCH   5   6
HETATM    6  C   UNL     1     -11.609  12.649  67.687  1.00  0.00    -0.414 C  
BRANCH   6   7
HETATM    7  C   UNL     1     -11.045  14.014  67.316  1.00  0.00    -0.314 C  
BRANCH   7   8
HETATM    8  C   UNL     1     -11.681  14.532  66.032  1.00  0.00    -0.347 C  
BRANCH   8   9
HETATM    9  C   UNL     1     -13.001  13.821  65.762  1.00  0.00    -0.310 C  
BRANCH   9  10
HETATM   10  C   UNL     1     -12.786  12.604  64.870  1.00  0.00    -0.450 C  
BRANCH  10  11
HETATM   11  C   UNL     1     -12.141  13.011  63.549  1.00  0.00    -0.617 C  
BRANCH  11  12
HETATM   12  C   UNL     1     -10.685  12.568  63.503  1.00  0.00    -0.417 C  
BRANCH  12  13
HETATM   13  C   UNL     1     -10.577  11.050  63.566  1.00  0.00    -0.303 C  
BRANCH  13  14
HETATM   14  C   UNL     1      -9.526  10.545  62.582  1.00  0.00    -0.326 C  
BRANCH  14  15
HETATM   15  C   UNL     1      -9.168   9.088  62.858  1.00  0.00     0.457 C  
BRANCH  15  16
HETATM   16  C   UNL     1      -8.332   8.969  64.130  1.00  0.00    -0.178 C  
BRANCH  16  17
HETATM   17  C   UNL     1      -7.358   7.797  64.046  1.00  0.00    -0.098 C  
HETATM   18  C   UNL     1      -6.147   8.137  63.209  1.00  0.00    -0.072 C  
HETATM   19  O   UNL     1      -5.943   9.205  62.656  1.00  0.00    -0.093 OA 
HETATM   20  O   UNL     1      -5.277   7.102  63.128  1.00  0.00    -0.031 OA 
ENDBRANCH  16  17
ENDBRANCH  15  16
ENDBRANCH  14  15
ENDBRANCH  13  14
ENDBRANCH  12  13
ENDBRANCH  11  12
ENDBRANCH  10  11
ENDBRANCH   9  10
ENDBRANCH   8   9
ENDBRANCH   7   8
ENDBRANCH   6   7
ENDBRANCH   5   6
ENDBRANCH   4   5
ENDBRANCH   3   4
ENDBRANCH   2   3
TORSDOF 15
ENDMDL
MODEL      477
REMARK 921   NORMALIZED FREE ENERGY PREDICTED BY IDOCK:   -1.64 KCAL/MOL
REMARK 922        TOTAL FREE ENERGY PREDICTED BY IDOCK:   -4.87 KCAL/MOL
REMARK 923 INTER-LIGAND FREE ENERGY PREDICTED BY IDOCK:   -4.70 KCAL/MOL
REMARK 924 INTRA-LIGAND FREE ENERGY PREDICTED BY IDOCK:   -0.17 KCAL/MOL
REMARK 927      BINDING AFFINITY PREDICTED BY RF-SCORE:    0.00 PKD
ROOT
HETATM    1  C   UNL     1     -11.114  14.182  66.872  1.00  0.00    -0.312 C  
HETATM    2  C   UNL     1     -12.432  13.954  66.155  1.00  0.00    -0.478 C  
ENDROOT
BRANCH   2   3
HETATM    3  C   UNL     1     -12.214  13.278  64.804  1.00  0.00    -0.466 C  
BRANCH   3   4
HETATM    4  C   UNL     1     -12.106  11.764  64.958  1.00  0.00     0.082 C  
BRANCH   4   5
HETATM    5  C   UNL     1     -10.849  11.389  65.736  1.00  0.00    -0.290 C  
BRANCH   5   6
HETATM    6  C   UNL     1      -9.723  10.986  64.788  1.00  0.00    -0.311 C  
BRANCH   6   7
HETATM    7  C   UNL     1      -8.853   9.904  65.414  1.00  0.00    -0.196 C  
BRANCH   7   8
HETATM    8  C   UNL     1      -9.650   9.088  66.426  1.00  0.00    -0.309 C  
BRANCH   8   9
HETATM    9  C   UNL     1      -9.027   7.711  66.616  1.00  0.00    -0.181 C  
BRANCH   9  10
HETATM   10  C   UNL     1      -9.376   7.146  67.988  1.00  0.00    -0.129 C  
BRANCH  10  11
HETATM   11  C   UNL     1      -8.644   7.909  69.087  1.00  0.00    -0.138 C  
BRANCH  11  12
HETATM   12  C   UNL     1      -9.636   8.570  70.034  1.00  0.00    -0.170 C  
BRANCH  12  13
HETATM   13  C   UNL     1      -8.913   9.420  71.071  1.00  0.00    -0.117 C  
BRANCH  13  14
HETATM   14  C   UNL     1      -8.004   8.554  71.937  1.00  0.00    -0.170 C  
BRANCH  14  15
HETATM   15  C   UNL     1      -8.442   8.586  73.398  1.00  0.00    -0.055 C  
BRANCH  15  16
HETATM   16  C   UNL     1      -9.248   7.337  73.747  1.00  0.00    -0.281 C  
BRANCH  16  17
HETATM   17  C   UNL     1     -10.666   7.420  73.192  1.00  0.00    -0.436 C  
HETATM   18  C   UNL     1     -10.869   6.472  72.033  1.00  0.00    -0.234 C  
HETATM   19  O   UNL     1     -10.023   5.721  71.574  1.00  0.00    -0.172 OA 
HETATM   20  O   UNL     1     -12.125   6.539  71.533  1.00  0.00    -0.336 OA 
ENDBRANCH  16  17
ENDBRANCH  15  16
ENDBRANCH  14  15
ENDBRANCH  13  14
ENDBRANCH  12  13
ENDBRANCH  11  12
ENDBRANCH  10  11
ENDBRANCH   9  10
ENDBRANCH   8   9
ENDBRANCH   7   8
ENDBRANCH   6   7
ENDBRANCH   5   6
ENDBRANCH   4   5
ENDBRANCH   3   4
ENDBRANCH   2   3
TORSDOF 15
ENDMDL
MODEL      478
REMARK 921   NORMALIZED FREE ENERGY PREDICTED BY IDOCK:   -1.61 KCAL/MOL
REMARK 922        TOTAL FREE ENERGY PREDICTED BY IDOCK:   -4.82 KCAL/MOL
REMARK 923 INTER-LIGAND FREE ENERGY PREDICTED BY IDOCK:   -3.58 KCAL/MOL
REMARK 924 INTRA-LIGAND FREE ENERGY PREDICTED BY IDOCK:   -1.24 KCAL/MOL
REMARK 927      BINDING AFFINITY PREDICTED BY RF-SCORE:    0.00 PKD
ROOT
HETATM    1  C   UNL     1     -11.327  14.484  66.714  1.00  0.00    -0.358 C  
HETATM    2  C   UNL     1     -12.363  14.195  65.642  1.00  0.00    -0.473 C  
ENDROOT
BRANCH   2   3
HETATM    3  C   UNL     1     -11.698  13.796  64.327  1.00  0.00    -0.426 C  
BRANCH   3   4
HETATM    4  C   UNL     1     -12.002  12.343  63.977  1.00  0.00    -0.546 C  
BRANCH   4   5
HETATM    5  C   UNL     1     -11.040  11.401  64.693  1.00  0.00    -0.277 C  
BRANCH   5   6
HETATM    6  C   UNL     1      -9.606  11.635  64.230  1.00  0.00    -0.131 C  
BRANCH   6   7
HETATM    7  C   UNL     1      -8.619  11.298  65.341  1.00  0.00     0.066 C  
BRANCH   7   8
HETATM    8  C   UNL     1      -8.802   9.858  65.808  1.00  0.00    -0.171 C  
BRANCH   8   9
HETATM    9  C   UNL     1      -7.619   9.415  66.659  1.00  0.00    -0.094 C  
BRANCH   9  10
HETATM   10  C   UNL     1      -7.845   8.010  67.206  1.00  0.00    -0.109 C  
BRANCH  10  11
HETATM   11  C   UNL     1      -9.079   7.973  68.102  1.00  0.00    -0.134 C  
BRANCH  11  12
HETATM   12  C   UNL     1      -9.841   6.669  67.912  1.00  0.00    -0.138 C  
BRANCH  12  13
HETATM   13  C   UNL     1      -8.929   5.469  68.133  1.00  0.00    -0.108 C  
BRANCH  13  14
HETATM   14  C   UNL     1      -8.908   4.576  66.897  1.00  0.00    -0.112 C  
BRANCH  14  15
HETATM   15  C   UNL     1      -9.715   5.192  65.758  1.00  0.00    -0.124 C  
BRANCH  15  16
HETATM   16  C   UNL     1      -9.725   4.267  64.543  1.00  0.00    -0.137 C  
BRANCH  16  17
HETATM   17  C   UNL     1      -8.316   3.805  64.186  1.00  0.00    -0.091 C  
HETATM   18  C   UNL     1      -8.267   2.319  63.916  1.00  0.00    -0.081 C  
HETATM   19  O   UNL     1      -9.217   1.556  63.969  1.00  0.00    -0.102 OA 
HETATM   20  O   UNL     1      -7.019   1.900  63.598  1.00  0.00    -0.033 OA 
ENDBRANCH  16  17
ENDBRANCH  15  16
ENDBRANCH  14  15
ENDBRANCH  13  14
ENDBRANCH  12  13
ENDBRANCH  11  12
ENDBRANCH  10  11
ENDBRANCH   9  10
ENDBRANCH   8   9
ENDBRANCH   7   8
ENDBRANCH   6   7
ENDBRANCH   5   6
ENDBRANCH   4   5
ENDBRANCH   3   4
ENDBRANCH   2   3
TORSDOF 15
ENDMDL
MODEL      479
REMARK 921   NORMALIZED FREE ENERGY PREDICTED BY IDOCK:   -1.61 KCAL/MOL
REMARK 922        TOTAL FREE ENERGY PREDICTED BY IDOCK:   -4.82 KCAL/MOL
REMARK 923 INTER-LIGAND FREE ENERGY PREDICTED BY IDOCK:   -3.43 KCAL/MOL
REMARK 924 INTRA-LIGAND FREE ENERGY PREDICTED BY IDOCK:   -1.39 KCAL/MOL
REMARK 927      BINDING AFFINITY PREDICTED BY RF-SCORE:    0.00 PKD
ROOT
HETATM    1  C   UNL     1     -11.117  16.174  68.283  1.00  0.00    -0.348 C  
HETATM    2  C   UNL     1     -10.101  16.565  67.224  1.00  0.00    -0.273 C  
ENDROOT
BRANCH   2   3
HETATM    3  C   UNL     1      -9.240  15.371  66.820  1.00  0.00    -0.273 C  
BRANCH   3   4
HETATM    4  C   UNL     1      -9.368  14.234  67.830  1.00  0.00    -0.198 C  
BRANCH   4   5
HETATM    5  C   UNL     1      -8.088  13.405  67.876  1.00  0.00    -0.162 C  
BRANCH   5   6
HETATM    6  C   UNL     1      -8.408  11.916  67.945  1.00  0.00    -0.152 C  
BRANCH   6   7
HETATM    7  C   UNL     1      -9.698  11.606  67.196  1.00  0.00    -0.195 C  
BRANCH   7   8
HETATM    8  C   UNL     1     -10.832  11.311  68.172  1.00  0.00    -0.263 C  
BRANCH   8   9
HETATM    9  C   UNL     1     -11.245   9.848  68.087  1.00  0.00    -0.142 C  
BRANCH   9  10
HETATM   10  C   UNL     1     -10.324   9.080  67.146  1.00  0.00    -0.342 C  
BRANCH  10  11
HETATM   11  C   UNL     1      -9.624   7.943  67.884  1.00  0.00    -0.169 C  
BRANCH  11  12
HETATM   12  C   UNL     1      -8.763   7.132  66.927  1.00  0.00    -0.126 C  
BRANCH  12  13
HETATM   13  C   UNL     1      -8.268   7.997  65.775  1.00  0.00    -0.132 C  
BRANCH  13  14
HETATM   14  C   UNL     1      -6.846   8.480  66.039  1.00  0.00    -0.061 C  
BRANCH  14  15
HETATM   15  C   UNL     1      -6.251   7.797  67.267  1.00  0.00    -0.054 C  
BRANCH  15  16
HETATM   16  C   UNL     1      -6.001   8.812  68.381  1.00  0.00    -0.046 C  
BRANCH  16  17
HETATM   17  C   UNL     1      -6.207   8.186  69.757  1.00  0.00    -0.029 C  
HETATM   18  C   UNL     1      -6.662   9.209  70.772  1.00  0.00    -0.082 C  
HETATM   19  O   UNL     1      -6.850  10.394  70.551  1.00  0.00    -0.289 OA 
HETATM   20  O   UNL     1      -6.848   8.663  71.997  1.00  0.00    -0.091 OA 
ENDBRANCH  16  17
ENDBRANCH  15  16
ENDBRANCH  14  15
ENDBRANCH  13  14
ENDBRANCH  12  13
ENDBRANCH  11  12
ENDBRANCH  10  11
ENDBRANCH   9  10
ENDBRANCH   8   9
ENDBRANCH   7   8
ENDBRANCH   6   7
ENDBRANCH   5   6
ENDBRANCH   4   5
ENDBRANCH   3   4
ENDBRANCH   2   3
TORSDOF 15
ENDMDL
MODEL      480
REMARK 921   NORMALIZED FREE ENERGY PREDICTED BY IDOCK:   -1.60 KCAL/MOL
REMARK 922        TOTAL FREE ENERGY PREDICTED BY IDOCK:   -4.81 KCAL/MOL
REMARK 923 INTER-LIGAND FREE ENERGY PREDICTED BY IDOCK:   -4.02 KCAL/MOL
REMARK 924 INTRA-LIGAND FREE ENERGY PREDICTED BY IDOCK:   -0.79 KCAL/MOL
REMARK 927      BINDING AFFINITY PREDICTED BY RF-SCORE:    0.00 PKD
ROOT
HETATM    1  C   UNL     1     -11.123  14.092  66.902  1.00  0.00    -0.312 C  
HETATM    2  C   UNL     1     -12.229  13.847  65.891  1.00  0.00    -0.497 C  
ENDROOT
BRANCH   2   3
HETATM    3  C   UNL     1     -11.685  13.173  64.633  1.00  0.00    -0.404 C  
BRANCH   3   4
HETATM    4  C   UNL     1     -11.828  11.657  64.718  1.00  0.00    -0.066 C  
BRANCH   4   5
HETATM    5  C   UNL     1     -11.030  11.103  65.894  1.00  0.00    -0.171 C  
BRANCH   5   6
HETATM    6  C   UNL     1      -9.741  10.445  65.414  1.00  0.00    -0.325 C  
BRANCH   6   7
HETATM    7  C   UNL     1      -9.491   9.142  66.163  1.00  0.00    -0.309 C  
BRANCH   7   8
HETATM    8  C   UNL     1     -10.768   8.650  66.833  1.00  0.00    -0.152 C  
BRANCH   8   9
HETATM    9  C   UNL     1     -10.870   7.133  66.746  1.00  0.00    -0.184 C  
BRANCH   9  10
HETATM   10  C   UNL     1     -10.789   6.506  68.133  1.00  0.00    -0.370 C  
BRANCH  10  11
HETATM   11  C   UNL     1      -9.338   6.401  68.593  1.00  0.00    -0.124 C  
BRANCH  11  12
HETATM   12  C   UNL     1      -9.176   6.980  69.992  1.00  0.00    -0.148 C  
BRANCH  12  13
HETATM   13  C   UNL     1      -7.709   7.004  70.402  1.00  0.00    -0.096 C  
BRANCH  13  14
HETATM   14  C   UNL     1      -7.094   5.614  70.277  1.00  0.00    -0.063 C  
BRANCH  14  15
HETATM   15  C   UNL     1      -6.349   5.224  71.551  1.00  0.00    -0.034 C  
BRANCH  15  16
HETATM   16  C   UNL     1      -7.302   4.591  72.561  1.00  0.00    -0.082 C  
BRANCH  16  17
HETATM   17  C   UNL     1      -7.831   5.626  73.549  1.00  0.00    -0.106 C  
HETATM   18  C   UNL     1      -9.335   5.753  73.473  1.00  0.00    -0.134 C  
HETATM   19  O   UNL     1     -10.063   5.122  72.726  1.00  0.00    -0.161 OA 
HETATM   20  O   UNL     1      -9.813   6.670  74.347  1.00  0.00    -0.284 OA 
ENDBRANCH  16  17
ENDBRANCH  15  16
ENDBRANCH  14  15
ENDBRANCH  13  14
ENDBRANCH  12  13
ENDBRANCH  11  12
ENDBRANCH  10  11
ENDBRANCH   9  10
ENDBRANCH   8   9
ENDBRANCH   7   8
ENDBRANCH   6   7
ENDBRANCH   5   6
ENDBRANCH   4   5
ENDBRANCH   3   4
ENDBRANCH   2   3
TORSDOF 15
ENDMDL
MODEL      481
REMARK 921   NORMALIZED FREE ENERGY PREDICTED BY IDOCK:   -1.49 KCAL/MOL
REMARK 922        TOTAL FREE ENERGY PREDICTED BY IDOCK:   -4.59 KCAL/MOL
REMARK 923 INTER-LIGAND FREE ENERGY PREDICTED BY IDOCK:   -3.70 KCAL/MOL
REMARK 924 INTRA-LIGAND FREE ENERGY PREDICTED BY IDOCK:   -0.89 KCAL/MOL
REMARK 927      BINDING AFFINITY PREDICTED BY RF-SCORE:    0.00 PKD
ROOT
HETATM    1  C   UNL     1     -10.456  11.189  64.796  1.00  0.00    -0.388 C  
HETATM    2  C   UNL     1      -9.963  11.615  66.167  1.00  0.00    -0.252 C  
ENDROOT
BRANCH   2   3
HETATM    3  C   UNL     1     -11.130  11.966  67.087  1.00  0.00    -0.347 C  
BRANCH   3   4
HETATM    4  C   UNL     1     -11.557  13.418  66.902  1.00  0.00    -0.404 C  
BRANCH   4   5
HETATM    5  C   UNL     1     -12.107  13.990  68.205  1.00  0.00    -0.312 C  
BRANCH   5   6
HETATM    6  C   UNL     1     -11.315  13.475  69.402  1.00  0.00    -0.293 C  
BRANCH   6   7
HETATM    7  C   UNL     1     -12.166  13.504  70.665  1.00  0.00    -0.434 C  
BRANCH   7   8
HETATM    8  C   UNL     1     -13.172  12.358  70.665  1.00  0.00     0.519 C  
BRANCH   8   9
HETATM    9  C   UNL     1     -12.593  11.135  69.967  1.00  0.00    -0.213 C  
BRANCH   9  10
HETATM   10  C   UNL     1     -11.321  10.668  70.664  1.00  0.00    -0.288 C  
BRANCH  10  11
HETATM   11  C   UNL     1     -10.368  10.014  69.668  1.00  0.00    -0.274 C  
BRANCH  11  12
HETATM   12  C   UNL     1      -9.703   8.791  70.284  1.00  0.00    -0.198 C  
BRANCH  12  13
HETATM   13  C   UNL     1      -9.585   7.666  69.264  1.00  0.00    -0.159 C  
BRANCH  13  14
HETATM   14  C   UNL     1      -8.389   6.775  69.584  1.00  0.00    -0.132 C  
BRANCH  14  15
HETATM   15  C   UNL     1      -7.075   7.481  69.264  1.00  0.00    -0.077 C  
BRANCH  15  16
HETATM   16  C   UNL     1      -6.988   7.813  67.777  1.00  0.00    -0.081 C  
BRANCH  16  17
HETATM   17  C   UNL     1      -6.538   9.254  67.555  1.00  0.00    -0.064 C  
HETATM   18  C   UNL     1      -7.009   9.788  66.222  1.00  0.00    -0.094 C  
HETATM   19  O   UNL     1      -7.667   9.169  65.403  1.00  0.00    -0.096 OA 
HETATM   20  O   UNL     1      -6.614  11.067  66.017  1.00  0.00    -0.111 OA 
ENDBRANCH  16  17
ENDBRANCH  15  16
ENDBRANCH  14  15
ENDBRANCH  13  14
ENDBRANCH  12  13
ENDBRANCH  11  12
ENDBRANCH  10  11
ENDBRANCH   9  10
ENDBRANCH   8   9
ENDBRANCH   7   8
ENDBRANCH   6   7
ENDBRANCH   5   6
ENDBRANCH   4   5
ENDBRANCH   3   4
ENDBRANCH   2   3
TORSDOF 15
ENDMDL
MODEL      482
REMARK 921   NORMALIZED FREE ENERGY PREDICTED BY IDOCK:   -1.41 KCAL/MOL
REMARK 922        TOTAL FREE ENERGY PREDICTED BY IDOCK:   -4.45 KCAL/MOL
REMARK 923 INTER-LIGAND FREE ENERGY PREDICTED BY IDOCK:   -3.54 KCAL/MOL
REMARK 924 INTRA-LIGAND FREE ENERGY PREDICTED BY IDOCK:   -0.91 KCAL/MOL
REMARK 927      BINDING AFFINITY PREDICTED BY RF-SCORE:    0.00 PKD
ROOT
HETATM    1  C   UNL     1     -10.630   5.464  68.198  1.00  0.00    -0.146 C  
HETATM    2  C   UNL     1      -9.517   4.441  68.332  1.00  0.00    -0.213 C  
ENDROOT
BRANCH   2   3
HETATM    3  C   UNL     1      -9.312   4.040  69.791  1.00  0.00    -0.242 C  
BRANCH   3   4
HETATM    4  C   UNL     1     -10.349   4.699  70.693  1.00  0.00    -0.119 C  
BRANCH   4   5
HETATM    5  C   UNL     1     -10.174   4.247  72.140  1.00  0.00    -0.234 C  
BRANCH   5   6
HETATM    6  C   UNL     1      -8.697   4.092  72.485  1.00  0.00    -0.112 C  
BRANCH   6   7
HETATM    7  C   UNL     1      -8.065   5.448  72.770  1.00  0.00    -0.109 C  
BRANCH   7   8
HETATM    8  C   UNL     1      -9.058   6.372  73.464  1.00  0.00    -0.134 C  
BRANCH   8   9
HETATM    9  C   UNL     1      -8.920   7.797  72.943  1.00  0.00    -0.243 C  
BRANCH   9  10
HETATM   10  C   UNL     1      -8.275   7.807  71.562  1.00  0.00    -0.113 C  
BRANCH  10  11
HETATM   11  C   UNL     1      -9.339   7.775  70.470  1.00  0.00    -0.163 C  
BRANCH  11  12
HETATM   12  C   UNL     1     -10.252   8.988  70.574  1.00  0.00    -0.268 C  
BRANCH  12  13
HETATM   13  C   UNL     1      -9.605  10.212  69.938  1.00  0.00    -0.172 C  
BRANCH  13  14
HETATM   14  C   UNL     1     -10.651  11.066  69.231  1.00  0.00    -0.236 C  
BRANCH  14  15
HETATM   15  C   UNL     1     -11.259  10.324  68.044  1.00  0.00    -0.303 C  
BRANCH  15  16
HETATM   16  C   UNL     1     -10.333  10.395  66.832  1.00  0.00    -0.297 C  
BRANCH  16  17
HETATM   17  C   UNL     1      -8.872  10.511  67.256  1.00  0.00    -0.138 C  
HETATM   18  C   UNL     1      -8.078   9.287  66.864  1.00  0.00    -0.108 C  
HETATM   19  O   UNL     1      -8.520   8.311  66.280  1.00  0.00    -0.116 OA 
HETATM   20  O   UNL     1      -6.779   9.381  67.237  1.00  0.00    -0.073 OA 
ENDBRANCH  16  17
ENDBRANCH  15  16
ENDBRANCH  14  15
ENDBRANCH  13  14
ENDBRANCH  12  13
ENDBRANCH  11  12
ENDBRANCH  10  11
ENDBRANCH   9  10
ENDBRANCH   8   9
ENDBRANCH   7   8
ENDBRANCH   6   7
ENDBRANCH   5   6
ENDBRANCH   4   5
ENDBRANCH   3   4
ENDBRANCH   2   3
TORSDOF 15
ENDMDL
MODEL      483
REMARK 921   NORMALIZED FREE ENERGY PREDICTED BY IDOCK:   -1.19 KCAL/MOL
REMARK 922        TOTAL FREE ENERGY PREDICTED BY IDOCK:   -4.03 KCAL/MOL
REMARK 923 INTER-LIGAND FREE ENERGY PREDICTED BY IDOCK:   -4.12 KCAL/MOL
REMARK 924 INTRA-LIGAND FREE ENERGY PREDICTED BY IDOCK:    0.09 KCAL/MOL
REMARK 927      BINDING AFFINITY PREDICTED BY RF-SCORE:    0.00 PKD
ROOT
HETATM    1  C   UNL     1      -9.409   6.696  73.967  1.00  0.00    -0.216 C  
HETATM    2  C   UNL     1      -9.760   5.584  72.995  1.00  0.00    -0.164 C  
ENDROOT
BRANCH   2   3
HETATM    3  C   UNL     1     -11.215   5.688  72.542  1.00  0.00    -0.346 C  
BRANCH   3   4
HETATM    4  C   UNL     1     -11.408   6.855  71.579  1.00  0.00    -0.302 C  
BRANCH   4   5
HETATM    5  C   UNL     1     -11.707   8.142  72.341  1.00  0.00    -0.461 C  
BRANCH   5   6
HETATM    6  C   UNL     1     -11.192   9.358  71.578  1.00  0.00    -0.457 C  
BRANCH   6   7
HETATM    7  C   UNL     1     -11.443   9.201  70.083  1.00  0.00    -0.110 C  
BRANCH   7   8
HETATM    8  C   UNL     1     -10.584  10.175  69.286  1.00  0.00    -0.254 C  
BRANCH   8   9
HETATM    9  C   UNL     1     -10.761   9.948  67.790  1.00  0.00    -0.332 C  
BRANCH   9  10
HETATM   10  C   UNL     1     -10.161   8.610  67.373  1.00  0.00    -0.329 C  
BRANCH  10  11
HETATM   11  C   UNL     1     -10.892   7.456  68.052  1.00  0.00    -0.127 C  
BRANCH  11  12
HETATM   12  C   UNL     1     -11.017   6.270  67.106  1.00  0.00    -0.453 C  
BRANCH  12  13
HETATM   13  C   UNL     1      -9.750   6.099  66.279  1.00  0.00    -0.106 C  
BRANCH  13  14
HETATM   14  C   UNL     1      -9.025   4.814  66.667  1.00  0.00    -0.111 C  
BRANCH  14  15
HETATM   15  C   UNL     1      -9.298   3.701  65.659  1.00  0.00    -0.162 C  
BRANCH  15  16
HETATM   16  C   UNL     1      -8.338   3.799  64.475  1.00  0.00    -0.097 C  
BRANCH  16  17
HETATM   17  C   UNL     1      -6.961   3.246  64.831  1.00  0.00    -0.053 C  
HETATM   18  C   UNL     1      -6.374   2.437  63.697  1.00  0.00    -0.014 C  
HETATM   19  O   UNL     1      -6.909   2.233  62.620  1.00  0.00    -0.025 OA 
HETATM   20  O   UNL     1      -5.152   1.942  64.004  1.00  0.00    -0.004 OA 
ENDBRANCH  16  17
ENDBRANCH  15  16
ENDBRANCH  14  15
ENDBRANCH  13  14
ENDBRANCH  12  13
ENDBRANCH  11  12
ENDBRANCH  10  11
ENDBRANCH   9  10
ENDBRANCH   8   9
ENDBRANCH   7   8
ENDBRANCH   6   7
ENDBRANCH   5   6
ENDBRANCH   4   5
ENDBRANCH   3   4
ENDBRANCH   2   3
TORSDOF 15
ENDMDL
MODEL      484
REMARK 921   NORMALIZED FREE ENERGY PREDICTED BY IDOCK:   -1.04 KCAL/MOL
REMARK 922        TOTAL FREE ENERGY PREDICTED BY IDOCK:   -3.74 KCAL/MOL
REMARK 923 INTER-LIGAND FREE ENERGY PREDICTED BY IDOCK:   -3.35 KCAL/MOL
REMARK 924 INTRA-LIGAND FREE ENERGY PREDICTED BY IDOCK:   -0.40 KCAL/MOL
REMARK 927      BINDING AFFINITY PREDICTED BY RF-SCORE:    0.00 PKD
ROOT
HETATM    1  C   UNL     1      -5.699  13.227  74.181  1.00  0.00     0.370 C  
HETATM    2  C   UNL     1      -5.136  13.934  72.961  1.00  0.00    -0.238 C  
ENDROOT
BRANCH   2   3
HETATM    3  C   UNL     1      -6.255  14.487  72.081  1.00  0.00     0.620 C  
BRANCH   3   4
HETATM    4  C   UNL     1      -5.711  14.976  70.743  1.00  0.00    -0.094 C  
BRANCH   4   5
HETATM    5  C   UNL     1      -6.687  14.661  69.614  1.00  0.00    -0.163 C  
BRANCH   5   6
HETATM    6  C   UNL     1      -7.489  15.899  69.227  1.00  0.00    -0.219 C  
BRANCH   6   7
HETATM    7  C   UNL     1      -6.562  17.022  68.780  1.00  0.00    -0.187 C  
BRANCH   7   8
HETATM    8  C   UNL     1      -7.348  18.305  68.531  1.00  0.00    -0.297 C  
BRANCH   8   9
HETATM    9  C   UNL     1      -8.058  18.246  67.185  1.00  0.00    -0.232 C  
BRANCH   9  10
HETATM   10  C   UNL     1      -9.081  17.117  67.164  1.00  0.00    -0.237 C  
BRANCH  10  11
HETATM   11  C   UNL     1      -8.775  16.131  66.041  1.00  0.00    -0.282 C  
BRANCH  11  12
HETATM   12  C   UNL     1      -9.904  15.121  65.890  1.00  0.00    -0.372 C  
BRANCH  12  13
HETATM   13  C   UNL     1     -10.233  14.472  67.228  1.00  0.00    -0.255 C  
BRANCH  13  14
HETATM   14  C   UNL     1     -11.741  14.430  67.449  1.00  0.00    -0.424 C  
BRANCH  14  15
HETATM   15  C   UNL     1     -12.269  13.000  67.381  1.00  0.00    -0.155 C  
BRANCH  15  16
HETATM   16  C   UNL     1     -11.390  12.142  66.475  1.00  0.00    -0.405 C  
BRANCH  16  17
HETATM   17  C   UNL     1     -10.895  10.895  67.201  1.00  0.00    -0.337 C  
HETATM   18  C   UNL     1      -9.386  10.826  67.229  1.00  0.00    -0.151 C  
HETATM   19  O   UNL     1      -8.629  11.648  66.740  1.00  0.00    -0.171 OA 
HETATM   20  O   UNL     1      -8.938   9.722  67.872  1.00  0.00    -0.119 OA 
ENDBRANCH  16  17
ENDBRANCH  15  16
ENDBRANCH  14  15
ENDBRANCH  13  14
ENDBRANCH  12  13
ENDBRANCH  11  12
ENDBRANCH  10  11
ENDBRANCH   9  10
ENDBRANCH   8   9
ENDBRANCH   7   8
ENDBRANCH   6   7
ENDBRANCH   5   6
ENDBRANCH   4   5
ENDBRANCH   3   4
ENDBRANCH   2   3
TORSDOF 15
ENDMDL
MODEL      485
REMARK 921   NORMALIZED FREE ENERGY PREDICTED BY IDOCK:   -1.01 KCAL/MOL
REMARK 922        TOTAL FREE ENERGY PREDICTED BY IDOCK:   -3.69 KCAL/MOL
REMARK 923 INTER-LIGAND FREE ENERGY PREDICTED BY IDOCK:   -2.46 KCAL/MOL
REMARK 924 INTRA-LIGAND FREE ENERGY PREDICTED BY IDOCK:   -1.23 KCAL/MOL
REMARK 927      BINDING AFFINITY PREDICTED BY RF-SCORE:    0.00 PKD
ROOT
HETATM    1  C   UNL     1      -7.493   8.239  66.316  1.00  0.00    -0.079 C  
HETATM    2  C   UNL     1      -7.570   7.496  64.994  1.00  0.00    -0.098 C  
ENDROOT
BRANCH   2   3
HETATM    3  C   UNL     1      -8.565   6.341  65.069  1.00  0.00     0.010 C  
BRANCH   3   4
HETATM    4  C   UNL     1      -8.144   5.193  64.158  1.00  0.00    -0.119 C  
BRANCH   4   5
HETATM    5  C   UNL     1      -8.473   3.847  64.796  1.00  0.00    -0.105 C  
BRANCH   5   6
HETATM    6  C   UNL     1      -7.645   2.731  64.169  1.00  0.00    -0.071 C  
BRANCH   6   7
HETATM    7  C   UNL     1      -7.107   1.792  65.242  1.00  0.00    -0.048 C  
BRANCH   7   8
HETATM    8  C   UNL     1      -7.623   2.192  66.619  1.00  0.00    -0.066 C  
BRANCH   8   9
HETATM    9  C   UNL     1      -6.464   2.490  67.561  1.00  0.00    -0.035 C  
BRANCH   9  10
HETATM   10  C   UNL     1      -6.807   3.653  68.485  1.00  0.00    -0.046 C  
BRANCH  10  11
HETATM   11  C   UNL     1      -7.801   3.216  69.556  1.00  0.00    -0.054 C  
BRANCH  11  12
HETATM   12  C   UNL     1      -9.109   3.984  69.420  1.00  0.00    -0.191 C  
BRANCH  12  13
HETATM   13  C   UNL     1      -8.846   5.460  69.153  1.00  0.00    -0.110 C  
BRANCH  13  14
HETATM   14  C   UNL     1     -10.113   6.150  68.658  1.00  0.00    -0.196 C  
BRANCH  14  15
HETATM   15  C   UNL     1     -10.716   7.039  69.742  1.00  0.00    -0.265 C  
BRANCH  15  16
HETATM   16  C   UNL     1     -10.258   6.587  71.127  1.00  0.00    -0.219 C  
BRANCH  16  17
HETATM   17  C   UNL     1     -11.188   5.520  71.697  1.00  0.00    -0.135 C  
HETATM   18  C   UNL     1     -10.983   5.338  73.183  1.00  0.00    -0.305 C  
HETATM   19  O   UNL     1     -10.183   5.951  73.870  1.00  0.00    -0.212 OA 
HETATM   20  O   UNL     1     -11.804   4.393  73.698  1.00  0.00    -0.117 OA 
ENDBRANCH  16  17
ENDBRANCH  15  16
ENDBRANCH  14  15
ENDBRANCH  13  14
ENDBRANCH  12  13
ENDBRANCH  11  12
ENDBRANCH  10  11
ENDBRANCH   9  10
ENDBRANCH   8   9
ENDBRANCH   7   8
ENDBRANCH   6   7
ENDBRANCH   5   6
ENDBRANCH   4   5
ENDBRANCH   3   4
ENDBRANCH   2   3
TORSDOF 15
ENDMDL
MODEL      486
REMARK 921   NORMALIZED FREE ENERGY PREDICTED BY IDOCK:   -0.82 KCAL/MOL
REMARK 922        TOTAL FREE ENERGY PREDICTED BY IDOCK:   -3.34 KCAL/MOL
REMARK 923 INTER-LIGAND FREE ENERGY PREDICTED BY IDOCK:   -4.24 KCAL/MOL
REMARK 924 INTRA-LIGAND FREE ENERGY PREDICTED BY IDOCK:    0.90 KCAL/MOL
REMARK 927      BINDING AFFINITY PREDICTED BY RF-SCORE:    0.00 PKD
ROOT
HETATM    1  C   UNL     1      -9.407   6.683  73.959  1.00  0.00    -0.216 C  
HETATM    2  C   UNL     1      -9.622   5.561  72.960  1.00  0.00    -0.161 C  
ENDROOT
BRANCH   2   3
HETATM    3  C   UNL     1     -11.071   5.520  72.480  1.00  0.00    -0.324 C  
BRANCH   3   4
HETATM    4  C   UNL     1     -11.412   6.759  71.659  1.00  0.00    -0.322 C  
BRANCH   4   5
HETATM    5  C   UNL     1     -11.926   7.879  72.557  1.00  0.00    -0.349 C  
BRANCH   5   6
HETATM    6  C   UNL     1     -11.601   9.246  71.963  1.00  0.00    -0.305 C  
BRANCH   6   7
HETATM    7  C   UNL     1     -11.778   9.230  70.450  1.00  0.00    -0.157 C  
BRANCH   7   8
HETATM    8  C   UNL     1     -11.084  10.429  69.813  1.00  0.00    -0.352 C  
BRANCH   8   9
HETATM    9  C   UNL     1     -11.084  10.305  68.295  1.00  0.00    -0.311 C  
BRANCH   9  10
HETATM   10  C   UNL     1     -10.330   9.055  67.856  1.00  0.00    -0.290 C  
BRANCH  10  11
HETATM   11  C   UNL     1     -10.517   7.929  68.868  1.00  0.00    -0.205 C  
BRANCH  11  12
HETATM   12  C   UNL     1     -10.596   6.582  68.163  1.00  0.00    -0.307 C  
BRANCH  12  13
HETATM   13  C   UNL     1      -9.624   6.524  66.991  1.00  0.00    -0.174 C  
BRANCH  13  14
HETATM   14  C   UNL     1      -8.504   5.528  67.272  1.00  0.00    -0.110 C  
BRANCH  14  15
HETATM   15  C   UNL     1      -8.936   4.104  66.934  1.00  0.00    -0.134 C  
BRANCH  15  16
HETATM   16  C   UNL     1      -8.464   3.127  68.009  1.00  0.00    -0.105 C  
BRANCH  16  17
HETATM   17  C   UNL     1      -9.358   3.188  69.244  1.00  0.00    -0.223 C  
HETATM   18  C   UNL     1      -8.599   2.828  70.500  1.00  0.00    -0.060 C  
HETATM   19  O   UNL     1      -7.419   2.523  70.554  1.00  0.00    -0.036 OA 
HETATM   20  O   UNL     1      -9.385   2.879  71.602  1.00  0.00    -0.105 OA 
ENDBRANCH  16  17
ENDBRANCH  15  16
ENDBRANCH  14  15
ENDBRANCH  13  14
ENDBRANCH  12  13
ENDBRANCH  11  12
ENDBRANCH  10  11
ENDBRANCH   9  10
ENDBRANCH   8   9
ENDBRANCH   7   8
ENDBRANCH   6   7
ENDBRANCH   5   6
ENDBRANCH   4   5
ENDBRANCH   3   4
ENDBRANCH   2   3
TORSDOF 15
ENDMDL
MODEL      487
REMARK 921   NORMALIZED FREE ENERGY PREDICTED BY IDOCK:   -0.80 KCAL/MOL
REMARK 922        TOTAL FREE ENERGY PREDICTED BY IDOCK:   -3.30 KCAL/MOL
REMARK 923 INTER-LIGAND FREE ENERGY PREDICTED BY IDOCK:   -2.58 KCAL/MOL
REMARK 924 INTRA-LIGAND FREE ENERGY PREDICTED BY IDOCK:   -0.73 KCAL/MOL
REMARK 927      BINDING AFFINITY PREDICTED BY RF-SCORE:    0.00 PKD
ROOT
HETATM    1  C   UNL     1     -10.574   5.067  68.747  1.00  0.00     0.083 C  
HETATM    2  C   UNL     1      -9.378   4.197  68.402  1.00  0.00    -0.213 C  
ENDROOT
BRANCH   2   3
HETATM    3  C   UNL     1      -8.727   3.632  69.662  1.00  0.00    -0.127 C  
BRANCH   3   4
HETATM    4  C   UNL     1      -9.619   3.841  70.882  1.00  0.00    -0.256 C  
BRANCH   4   5
HETATM    5  C   UNL     1      -9.051   3.116  72.098  1.00  0.00    -0.147 C  
BRANCH   5   6
HETATM    6  C   UNL     1      -7.553   3.372  72.232  1.00  0.00    -0.058 C  
BRANCH   6   7
HETATM    7  C   UNL     1      -7.290   4.800  72.692  1.00  0.00    -0.084 C  
BRANCH   7   8
HETATM    8  C   UNL     1      -8.452   5.321  73.529  1.00  0.00    -0.112 C  
BRANCH   8   9
HETATM    9  C   UNL     1      -8.543   6.838  73.435  1.00  0.00    -0.137 C  
BRANCH   9  10
HETATM   10  C   UNL     1      -7.484   7.385  72.485  1.00  0.00    -0.082 C  
BRANCH  10  11
HETATM   11  C   UNL     1      -7.774   6.957  71.050  1.00  0.00    -0.096 C  
BRANCH  11  12
HETATM   12  C   UNL     1      -9.227   7.233  70.690  1.00  0.00    -0.157 C  
BRANCH  12  13
HETATM   13  C   UNL     1      -9.491   8.731  70.610  1.00  0.00    -0.237 C  
BRANCH  13  14
HETATM   14  C   UNL     1     -10.330   9.063  69.380  1.00  0.00    -0.217 C  
BRANCH  14  15
HETATM   15  C   UNL     1      -9.624   8.631  68.098  1.00  0.00    -0.162 C  
BRANCH  15  16
HETATM   16  C   UNL     1      -8.357   9.454  67.876  1.00  0.00    -0.115 C  
BRANCH  16  17
HETATM   17  C   UNL     1      -8.613  10.619  66.926  1.00  0.00    -0.126 C  
HETATM   18  C   UNL     1      -8.621  11.943  67.655  1.00  0.00    -0.156 C  
HETATM   19  O   UNL     1      -8.449  12.094  68.853  1.00  0.00     0.029 OA 
HETATM   20  O   UNL     1      -8.848  12.984  66.819  1.00  0.00    -0.207 OA 
ENDBRANCH  16  17
ENDBRANCH  15  16
ENDBRANCH  14  15
ENDBRANCH  13  14
ENDBRANCH  12  13
ENDBRANCH  11  12
ENDBRANCH  10  11
ENDBRANCH   9  10
ENDBRANCH   8   9
ENDBRANCH   7   8
ENDBRANCH   6   7
ENDBRANCH   5   6
ENDBRANCH   4   5
ENDBRANCH   3   4
ENDBRANCH   2   3
TORSDOF 15
ENDMDL
MODEL      488
REMARK 921   NORMALIZED FREE ENERGY PREDICTED BY IDOCK:   -0.38 KCAL/MOL
REMARK 922        TOTAL FREE ENERGY PREDICTED BY IDOCK:   -2.51 KCAL/MOL
REMARK 923 INTER-LIGAND FREE ENERGY PREDICTED BY IDOCK:   -2.46 KCAL/MOL
REMARK 924 INTRA-LIGAND FREE ENERGY PREDICTED BY IDOCK:   -0.05 KCAL/MOL
REMARK 927      BINDING AFFINITY PREDICTED BY RF-SCORE:    0.00 PKD
ROOT
HETATM    1  C   UNL     1      -5.125   2.508  65.345  1.00  0.00    -0.008 C  
HETATM    2  C   UNL     1      -6.252   1.666  64.774  1.00  0.00    -0.018 C  
ENDROOT
BRANCH   2   3
HETATM    3  C   UNL     1      -6.449   1.947  63.286  1.00  0.00    -0.014 C  
BRANCH   3   4
HETATM    4  C   UNL     1      -7.813   2.576  63.021  1.00  0.00    -0.064 C  
BRANCH   4   5
HETATM    5  C   UNL     1      -8.815   2.164  64.095  1.00  0.00    -0.100 C  
BRANCH   5   6
HETATM    6  C   UNL     1      -9.054   3.303  65.081  1.00  0.00    -0.146 C  
BRANCH   6   7
HETATM    7  C   UNL     1      -9.995   4.343  64.485  1.00  0.00    -0.046 C  
BRANCH   7   8
HETATM    8  C   UNL     1     -10.959   4.869  65.542  1.00  0.00     0.051 C  
BRANCH   8   9
HETATM    9  C   UNL     1     -10.217   5.700  66.580  1.00  0.00    -0.259 C  
BRANCH   9  10
HETATM   10  C   UNL     1     -10.801   5.474  67.970  1.00  0.00    -0.062 C  
BRANCH  10  11
HETATM   11  C   UNL     1     -10.879   6.786  68.743  1.00  0.00    -0.280 C  
BRANCH  11  12
HETATM   12  C   UNL     1     -10.241   6.639  70.117  1.00  0.00    -0.215 C  
BRANCH  12  13
HETATM   13  C   UNL     1      -8.895   7.351  70.170  1.00  0.00    -0.147 C  
BRANCH  13  14
HETATM   14  C   UNL     1      -8.975   8.585  71.062  1.00  0.00    -0.219 C  
BRANCH  14  15
HETATM   15  C   UNL     1      -9.916   9.632  70.473  1.00  0.00    -0.318 C  
BRANCH  15  16
HETATM   16  C   UNL     1      -9.623   9.845  68.989  1.00  0.00    -0.188 C  
BRANCH  16  17
HETATM   17  C   UNL     1      -8.122   9.917  68.725  1.00  0.00    -0.102 C  
HETATM   18  C   UNL     1      -7.817  10.623  67.424  1.00  0.00    -0.110 C  
HETATM   19  O   UNL     1      -8.645  11.087  66.658  1.00  0.00    -0.146 OA 
HETATM   20  O   UNL     1      -6.487  10.691  67.181  1.00  0.00    -0.069 OA 
ENDBRANCH  16  17
ENDBRANCH  15  16
ENDBRANCH  14  15
ENDBRANCH  13  14
ENDBRANCH  12  13
ENDBRANCH  11  12
ENDBRANCH  10  11
ENDBRANCH   9  10
ENDBRANCH   8   9
ENDBRANCH   7   8
ENDBRANCH   6   7
ENDBRANCH   5   6
ENDBRANCH   4   5
ENDBRANCH   3   4
ENDBRANCH   2   3
TORSDOF 15
ENDMDL
MODEL      489
REMARK 921   NORMALIZED FREE ENERGY PREDICTED BY IDOCK:   -0.17 KCAL/MOL
REMARK 922        TOTAL FREE ENERGY PREDICTED BY IDOCK:   -2.11 KCAL/MOL
REMARK 923 INTER-LIGAND FREE ENERGY PREDICTED BY IDOCK:   -1.36 KCAL/MOL
REMARK 924 INTRA-LIGAND FREE ENERGY PREDICTED BY IDOCK:   -0.75 KCAL/MOL
REMARK 927      BINDING AFFINITY PREDICTED BY RF-SCORE:    0.00 PKD
ROOT
HETATM    1  C   UNL     1      -6.200   3.998  65.355  1.00  0.00    -0.027 C  
HETATM    2  C   UNL     1      -7.515   3.401  64.888  1.00  0.00    -0.073 C  
ENDROOT
BRANCH   2   3
HETATM    3  C   UNL     1      -7.976   4.042  63.581  1.00  0.00    -0.088 C  
BRANCH   3   4
HETATM    4  C   UNL     1      -8.971   5.168  63.842  1.00  0.00     0.093 C  
BRANCH   4   5
HETATM    5  C   UNL     1      -9.721   4.935  65.149  1.00  0.00    -0.002 C  
BRANCH   5   6
HETATM    6  C   UNL     1      -9.199   5.854  66.247  1.00  0.00    -0.171 C  
BRANCH   6   7
HETATM    7  C   UNL     1      -8.766   7.195  65.667  1.00  0.00    -0.088 C  
BRANCH   7   8
HETATM    8  C   UNL     1      -9.104   8.332  66.624  1.00  0.00    -0.204 C  
BRANCH   8   9
HETATM    9  C   UNL     1      -8.304   8.206  67.913  1.00  0.00    -0.129 C  
BRANCH   9  10
HETATM   10  C   UNL     1      -9.133   8.659  69.109  1.00  0.00    -0.142 C  
BRANCH  10  11
HETATM   11  C   UNL     1      -8.315   9.569  70.019  1.00  0.00    -0.192 C  
BRANCH  11  12
HETATM   12  C   UNL     1      -8.426   9.119  71.469  1.00  0.00     0.044 C  
BRANCH  12  13
HETATM   13  C   UNL     1      -7.370   8.070  71.794  1.00  0.00    -0.084 C  
BRANCH  13  14
HETATM   14  C   UNL     1      -6.130   8.725  72.394  1.00  0.00    -0.066 C  
BRANCH  14  15
HETATM   15  C   UNL     1      -5.513   7.846  73.479  1.00  0.00    -0.045 C  
BRANCH  15  16
HETATM   16  C   UNL     1      -6.278   6.531  73.608  1.00  0.00    -0.064 C  
BRANCH  16  17
HETATM   17  C   UNL     1      -5.542   5.391  72.912  1.00  0.00    -0.022 C  
HETATM   18  C   UNL     1      -6.336   4.106  72.954  1.00  0.00    -0.021 C  
HETATM   19  O   UNL     1      -7.431   3.965  73.474  1.00  0.00    -0.067 OA 
HETATM   20  O   UNL     1      -5.690   3.087  72.339  1.00  0.00    -0.007 OA 
ENDBRANCH  16  17
ENDBRANCH  15  16
ENDBRANCH  14  15
ENDBRANCH  13  14
ENDBRANCH  12  13
ENDBRANCH  11  12
ENDBRANCH  10  11
ENDBRANCH   9  10
ENDBRANCH   8   9
ENDBRANCH   7   8
ENDBRANCH   6   7
ENDBRANCH   5   6
ENDBRANCH   4   5
ENDBRANCH   3   4
ENDBRANCH   2   3
TORSDOF 15
ENDMDL
MODEL      490
REMARK 921   NORMALIZED FREE ENERGY PREDICTED BY IDOCK:    1.56 KCAL/MOL
REMARK 922        TOTAL FREE ENERGY PREDICTED BY IDOCK:    1.13 KCAL/MOL
REMARK 923 INTER-LIGAND FREE ENERGY PREDICTED BY IDOCK:    1.10 KCAL/MOL
REMARK 924 INTRA-LIGAND FREE ENERGY PREDICTED BY IDOCK:    0.03 KCAL/MOL
REMARK 927      BINDING AFFINITY PREDICTED BY RF-SCORE:    0.00 PKD
ROOT
HETATM    1  C   UNL     1     -11.086  14.115  66.861  1.00  0.00    -0.312 C  
HETATM    2  C   UNL     1     -12.162  14.311  65.808  1.00  0.00    -0.415 C  
ENDROOT
BRANCH   2   3
HETATM    3  C   UNL     1     -11.551  14.438  64.415  1.00  0.00    -0.346 C  
BRANCH   3   4
HETATM    4  C   UNL     1     -11.334  13.066  63.784  1.00  0.00    -0.434 C  
BRANCH   4   5
HETATM    5  C   UNL     1     -10.396  12.220  64.638  1.00  0.00    -0.330 C  
BRANCH   5   6
HETATM    6  C   UNL     1      -8.958  12.331  64.140  1.00  0.00     1.069 C  
BRANCH   6   7
HETATM    7  C   UNL     1      -8.383  10.952  63.846  1.00  0.00     0.163 C  
BRANCH   7   8
HETATM    8  C   UNL     1      -9.491   9.967  63.494  1.00  0.00    -0.140 C  
BRANCH   8   9
HETATM    9  C   UNL     1      -9.025   8.995  62.418  1.00  0.00    -0.099 C  
BRANCH   9  10
HETATM   10  C   UNL     1      -9.202   7.553  62.880  1.00  0.00     1.744 C  
BRANCH  10  11
HETATM   11  C   UNL     1      -8.045   7.130  63.780  1.00  0.00    -0.000 C  
BRANCH  11  12
HETATM   12  C   UNL     1      -8.566   6.571  65.097  1.00  0.00     0.004 C  
BRANCH  12  13
HETATM   13  C   UNL     1      -7.437   5.947  65.907  1.00  0.00    -0.085 C  
BRANCH  13  14
HETATM   14  C   UNL     1      -6.482   5.182  64.997  1.00  0.00    -0.035 C  
BRANCH  14  15
HETATM   15  C   UNL     1      -7.033   3.799  64.658  1.00  0.00    -0.050 C  
BRANCH  15  16
HETATM   16  C   UNL     1      -8.085   3.893  63.556  1.00  0.00    -0.089 C  
BRANCH  16  17
HETATM   17  C   UNL     1      -9.063   2.724  63.623  1.00  0.00    -0.097 C  
HETATM   18  C   UNL     1     -10.321   3.092  64.376  1.00  0.00     0.048 C  
HETATM   19  O   UNL     1     -10.555   4.178  64.880  1.00  0.00    -0.250 OA 
HETATM   20  O   UNL     1     -11.196   2.060  64.441  1.00  0.00     0.757 OA 
ENDBRANCH  16  17
ENDBRANCH  15  16
ENDBRANCH  14  15
ENDBRANCH  13  14
ENDBRANCH  12  13
ENDBRANCH  11  12
ENDBRANCH  10  11
ENDBRANCH   9  10
ENDBRANCH   8   9
ENDBRANCH   7   8
ENDBRANCH   6   7
ENDBRANCH   5   6
ENDBRANCH   4   5
ENDBRANCH   3   4
ENDBRANCH   2   3
TORSDOF 15
ENDMDL
MODEL      491
REMARK 921   NORMALIZED FREE ENERGY PREDICTED BY IDOCK:    6.21 KCAL/MOL
REMARK 922        TOTAL FREE ENERGY PREDICTED BY IDOCK:    9.85 KCAL/MOL
REMARK 923 INTER-LIGAND FREE ENERGY PREDICTED BY IDOCK:    2.88 KCAL/MOL
REMARK 924 INTRA-LIGAND FREE ENERGY PREDICTED BY IDOCK:    6.97 KCAL/MOL
REMARK 927      BINDING AFFINITY PREDICTED BY RF-SCORE:    0.00 PKD
ROOT
HETATM    1  C   UNL     1      -8.993   5.368  71.891  1.00  0.00    -0.144 C  
HETATM    2  C   UNL     1     -10.472   5.592  71.634  1.00  0.00    -0.286 C  
ENDROOT
BRANCH   2   3
HETATM    3  C   UNL     1     -10.711   6.917  70.914  1.00  0.00    -0.258 C  
BRANCH   3   4
HETATM    4  C   UNL     1     -12.117   7.443  71.183  1.00  0.00    -0.357 C  
BRANCH   4   5
HETATM    5  C   UNL     1     -12.195   8.942  70.914  1.00  0.00    -0.177 C  
BRANCH   5   6
HETATM    6  C   UNL     1     -11.027   9.673  71.568  1.00  0.00    -0.266 C  
BRANCH   6   7
HETATM    7  C   UNL     1     -10.239  10.465  70.532  1.00  0.00     0.323 C  
BRANCH   7   8
HETATM    8  C   UNL     1      -8.797   9.978  70.462  1.00  0.00     0.361 C  
BRANCH   8   9
HETATM    9  C   UNL     1      -8.275  10.047  69.033  1.00  0.00    -0.124 C  
BRANCH   9  10
HETATM   10  C   UNL     1      -9.198  10.891  68.162  1.00  0.00    -0.158 C  
BRANCH  10  11
HETATM   11  C   UNL     1      -8.819  12.366  68.244  1.00  0.00    -0.174 C  
BRANCH  11  12
HETATM   12  C   UNL     1      -8.432  12.898  66.871  1.00  0.00    -0.093 C  
BRANCH  12  13
HETATM   13  C   UNL     1      -9.652  12.997  65.964  1.00  0.00    -0.175 C  
BRANCH  13  14
HETATM   14  C   UNL     1     -10.376  14.322  66.181  1.00  0.00    -0.305 C  
BRANCH  14  15
HETATM   15  C   UNL     1      -9.805  15.071  67.382  1.00  0.00    -0.224 C  
BRANCH  15  16
HETATM   16  C   UNL     1      -9.788  14.176  68.618  1.00  0.00    -0.206 C  
BRANCH  16  17
HETATM   17  C   UNL     1     -11.155  14.139  69.295  1.00  0.00    -0.286 C  
HETATM   18  C   UNL     1     -11.171  13.191  70.471  1.00  0.00     1.004 C  
HETATM   19  O   UNL     1     -10.226  12.524  70.858  1.00  0.00     4.781 OA 
HETATM   20  O   UNL     1     -12.381  13.151  71.078  1.00  0.00    -0.358 OA 
ENDBRANCH  16  17
ENDBRANCH  15  16
ENDBRANCH  14  15
ENDBRANCH  13  14
ENDBRANCH  12  13
ENDBRANCH  11  12
ENDBRANCH  10  11
ENDBRANCH   9  10
ENDBRANCH   8   9
ENDBRANCH   7   8
ENDBRANCH   6   7
ENDBRANCH   5   6
ENDBRANCH   4   5
ENDBRANCH   3   4
ENDBRANCH   2   3
TORSDOF 15
ENDMDL
MODEL      492
REMARK 921   NORMALIZED FREE ENERGY PREDICTED BY IDOCK:    6.53 KCAL/MOL
REMARK 922        TOTAL FREE ENERGY PREDICTED BY IDOCK:   10.46 KCAL/MOL
REMARK 923 INTER-LIGAND FREE ENERGY PREDICTED BY IDOCK:    1.42 KCAL/MOL
REMARK 924 INTRA-LIGAND FREE ENERGY PREDICTED BY IDOCK:    9.04 KCAL/MOL
REMARK 927      BINDING AFFINITY PREDICTED BY RF-SCORE:    0.00 PKD
ROOT
HETATM    1  C   UNL     1      -9.948  14.515  69.247  1.00  0.00    -0.050 C  
HETATM    2  C   UNL     1      -9.336  13.125  69.231  1.00  0.00     0.837 C  
ENDROOT
BRANCH   2   3
HETATM    3  C   UNL     1      -8.006  13.119  68.481  1.00  0.00    -0.094 C  
BRANCH   3   4
HETATM    4  C   UNL     1      -6.946  12.336  69.249  1.00  0.00     0.004 C  
BRANCH   4   5
HETATM    5  C   UNL     1      -5.891  13.275  69.824  1.00  0.00    -0.122 C  
BRANCH   5   6
HETATM    6  C   UNL     1      -5.602  14.422  68.862  1.00  0.00    -0.086 C  
BRANCH   6   7
HETATM    7  C   UNL     1      -6.894  15.105  68.433  1.00  0.00    -0.109 C  
BRANCH   7   8
HETATM    8  C   UNL     1      -6.803  15.573  66.985  1.00  0.00     0.061 C  
BRANCH   8   9
HETATM    9  C   UNL     1      -7.257  17.021  66.860  1.00  0.00    -0.244 C  
BRANCH   9  10
HETATM   10  C   UNL     1      -8.552  17.249  67.631  1.00  0.00    -0.218 C  
BRANCH  10  11
HETATM   11  C   UNL     1      -9.639  17.798  66.711  1.00  0.00    -0.301 C  
BRANCH  11  12
HETATM   12  C   UNL     1      -9.027  18.640  65.600  1.00  0.00     0.732 C  
BRANCH  12  13
HETATM   13  C   UNL     1      -7.544  18.878  65.854  1.00  0.00    -0.209 C  
BRANCH  13  14
HETATM   14  C   UNL     1      -7.333  19.566  67.198  1.00  0.00    -0.242 C  
BRANCH  14  15
HETATM   15  C   UNL     1      -8.594  20.300  67.646  1.00  0.00    -0.340 C  
BRANCH  15  16
HETATM   16  C   UNL     1      -8.430  20.836  69.067  1.00  0.00     1.460 C  
BRANCH  16  17
HETATM   17  C   UNL     1      -7.979  19.738  70.025  1.00  0.00     0.759 C  
HETATM   18  C   UNL     1      -6.538  19.350  69.791  1.00  0.00    -0.226 C  
HETATM   19  O   UNL     1      -5.800  19.835  68.949  1.00  0.00    -0.219 OA 
HETATM   20  O   UNL     1      -6.128  18.375  70.637  1.00  0.00     0.030 OA 
ENDBRANCH  16  17
ENDBRANCH  15  16
ENDBRANCH  14  15
ENDBRANCH  13  14
ENDBRANCH  12  13
ENDBRANCH  11  12
ENDBRANCH  10  11
ENDBRANCH   9  10
ENDBRANCH   8   9
ENDBRANCH   7   8
ENDBRANCH   6   7
ENDBRANCH   5   6
ENDBRANCH   4   5
ENDBRANCH   3   4
ENDBRANCH   2   3
TORSDOF 15
ENDMDL
