MODEL        1
REMARK 921   NORMALIZED FREE ENERGY PREDICTED BY IDOCK:   -8.97 KCAL/MOL
REMARK 922        TOTAL FREE ENERGY PREDICTED BY IDOCK:  -14.10 KCAL/MOL
REMARK 923 INTER-LIGAND FREE ENERGY PREDICTED BY IDOCK:  -12.11 KCAL/MOL
REMARK 924 INTRA-LIGAND FREE ENERGY PREDICTED BY IDOCK:   -1.98 KCAL/MOL
REMARK 927      BINDING AFFINITY PREDICTED BY RF-SCORE:    0.00 PKD
ROOT
HETATM    1  C   UNL     1      -7.384   5.714  69.557  1.00  0.00    -0.067 C  
HETATM    2  C   UNL     1      -8.333   6.716  70.326  1.00  0.00    -0.134 C  
HETATM    3  C   UNL     1      -7.729   6.945  71.710  1.00  0.00    -0.095 C  
HETATM    4  C   UNL     1      -8.678   7.742  72.582  1.00  0.00    -0.198 C  
HETATM    5  C   UNL     1      -9.929   6.974  72.939  1.00  0.00    -0.215 C  
HETATM    6  C   UNL     1     -10.572   6.049  71.854  1.00  0.00    -0.272 C  
HETATM    7  C   UNL     1      -9.694   5.912  70.497  1.00  0.00    -0.217 C  
HETATM    8  C   UNL     1     -12.034   6.474  71.534  1.00  0.00    -0.383 C  
HETATM    9  C   UNL     1     -10.874   4.763  72.717  1.00  0.00    -0.210 C  
HETATM   10  O   UNL     1     -11.595   4.811  73.721  1.00  0.00    -0.157 OA 
HETATM   11  O   UNL     1     -10.338   3.590  72.379  1.00  0.00    -0.159 OA 
HETATM   12  C   UNL     1     -10.423   5.858  69.138  1.00  0.00    -0.338 C  
HETATM   13  C   UNL     1     -10.508   7.178  68.400  1.00  0.00    -0.228 C  
HETATM   14  C   UNL     1      -9.253   8.038  68.199  1.00  0.00    -0.134 C  
HETATM   15  C   UNL     1      -8.410   7.856  66.921  1.00  0.00    -0.116 C  
HETATM   16  C   UNL     1      -7.873   9.270  66.672  1.00  0.00    -0.104 C  
HETATM   17  C   UNL     1      -6.997   9.540  65.695  1.00  0.00    -0.092 C  
HETATM   18  C   UNL     1      -8.593  10.298  67.577  1.00  0.00    -0.118 C  
HETATM   19  C   UNL     1      -7.849  10.543  68.910  1.00  0.00    -0.124 C  
HETATM   20  C   UNL     1      -8.289   8.049  69.424  1.00  0.00    -0.131 C  
HETATM   21  C   UNL     1      -9.806   9.443  67.867  1.00  0.00    -0.197 C  
HETATM   22  C   UNL     1      -8.194   9.487  70.009  1.00  0.00    -0.181 C  
ENDROOT
BRANCH  18  23
HETATM   23  O   UNL     1      -8.851  11.463  66.796  1.00  0.00    -0.166 OA 
BRANCH  23  24
HETATM   24  C   UNL     1     -10.158  12.035  66.608  1.00  0.00    -0.198 C  
HETATM   25  O   UNL     1     -10.465  12.129  65.209  1.00  0.00    -0.258 OA 
HETATM   26  C   UNL     1     -11.837  12.495  64.972  1.00  0.00    -0.396 C  
HETATM   27  C   UNL     1     -12.049  13.920  65.458  1.00  0.00    -0.407 C  
HETATM   28  H   UNL     1     -11.449  15.530  68.141  1.00  0.00     0.000 HD 
HETATM   29  C   UNL     1     -11.761  14.035  66.952  1.00  0.00    -0.410 C  
HETATM   30  H   UNL     1     -13.510  15.288  65.518  1.00  0.00     0.000 HD 
HETATM   31  O   UNL     1     -13.378  14.398  65.215  1.00  0.00    -0.574 OA 
HETATM   32  O   UNL     1     -11.628  15.459  67.211  1.00  0.00    -0.243 OA 
HETATM   33  C   UNL     1     -10.474  13.336  67.412  1.00  0.00    -0.243 C  
BRANCH  26  34
HETATM   34  C   UNL     1     -12.121  12.396  63.467  1.00  0.00    -0.558 C  
HETATM   35  H   UNL     1     -13.500  11.602  62.319  1.00  0.00     0.000 HD 
HETATM   36  O   UNL     1     -13.324  11.663  63.250  1.00  0.00    -0.445 OA 
ENDBRANCH  26  34
BRANCH  33  37
HETATM   37  O   UNL     1     -10.470  12.991  68.820  1.00  0.00    -0.235 OA 
BRANCH  37  38
HETATM   38  C   UNL     1     -11.709  12.927  69.550  1.00  0.00    -0.323 C  
HETATM   39  O   UNL     1     -11.843  14.089  70.344  1.00  0.00    -0.302 OA 
HETATM   40  C   UNL     1     -12.934  14.153  71.258  1.00  0.00    -0.356 C  
HETATM   41  C   UNL     1     -13.120  12.889  72.105  1.00  0.00    -0.361 C  
HETATM   42  H   UNL     1     -12.283   9.703  69.855  1.00  0.00     0.000 HD 
HETATM   43  O   UNL     1     -12.159  10.521  69.389  1.00  0.00    -0.225 OA 
HETATM   44  O   UNL     1     -14.363  12.955  72.812  1.00  0.00    -0.621 OA 
HETATM   45  C   UNL     1     -13.121  11.651  71.228  1.00  0.00    -0.157 C  
HETATM   46  H   UNL     1     -13.147   9.686  71.497  1.00  0.00     0.000 HD 
HETATM   47  O   UNL     1     -13.147  10.461  72.046  1.00  0.00    -0.455 OA 
HETATM   48  H   UNL     1     -14.479  12.172  73.338  1.00  0.00     0.000 HD 
HETATM   49  C   UNL     1     -11.911  11.599  70.307  1.00  0.00    -0.358 C  
BRANCH  40  50
HETATM   50  C   UNL     1     -12.646  15.344  72.193  1.00  0.00    -0.369 C  
HETATM   51  O   UNL     1     -13.841  15.899  72.750  1.00  0.00    -0.584 OA 
HETATM   52  H   UNL     1     -13.663  16.633  73.326  1.00  0.00     0.000 HD 
ENDBRANCH  40  50
ENDBRANCH  37  38
ENDBRANCH  33  37
ENDBRANCH  23  24
ENDBRANCH  18  23
TORSDOF 6
ENDMDL
MODEL        2
REMARK 921   NORMALIZED FREE ENERGY PREDICTED BY IDOCK:   -8.87 KCAL/MOL
REMARK 922        TOTAL FREE ENERGY PREDICTED BY IDOCK:  -13.96 KCAL/MOL
REMARK 923 INTER-LIGAND FREE ENERGY PREDICTED BY IDOCK:  -13.05 KCAL/MOL
REMARK 924 INTRA-LIGAND FREE ENERGY PREDICTED BY IDOCK:   -0.91 KCAL/MOL
REMARK 927      BINDING AFFINITY PREDICTED BY RF-SCORE:    0.00 PKD
ROOT
HETATM    1  C   UNL     1     -10.647  19.009  65.717  1.00  0.00    -0.388 C  
HETATM    2  C   UNL     1      -9.961  18.547  67.063  1.00  0.00    -0.365 C  
HETATM    3  C   UNL     1     -10.391  19.525  68.154  1.00  0.00    -0.550 C  
HETATM    4  C   UNL     1      -9.624  19.268  69.435  1.00  0.00    -0.138 C  
HETATM    5  C   UNL     1      -8.156  19.603  69.314  1.00  0.00    -0.030 C  
HETATM    6  C   UNL     1      -7.423  19.273  67.972  1.00  0.00    -0.312 C  
HETATM    7  C   UNL     1      -8.405  18.742  66.795  1.00  0.00    -0.288 C  
HETATM    8  C   UNL     1      -6.237  18.291  68.195  1.00  0.00    -0.183 C  
HETATM    9  C   UNL     1      -6.603  20.603  67.759  1.00  0.00    -0.323 C  
HETATM   10  O   UNL     1      -5.792  21.007  68.601  1.00  0.00    -0.347 OA 
HETATM   11  O   UNL     1      -6.784  21.331  66.657  1.00  0.00    -0.332 OA 
HETATM   12  C   UNL     1      -7.910  17.623  65.856  1.00  0.00    -0.109 C  
HETATM   13  C   UNL     1      -8.359  16.225  66.227  1.00  0.00    -0.343 C  
HETATM   14  C   UNL     1      -9.837  15.937  66.523  1.00  0.00    -0.277 C  
HETATM   15  C   UNL     1     -10.761  15.479  65.376  1.00  0.00    -0.422 C  
HETATM   16  C   UNL     1     -11.749  14.554  66.095  1.00  0.00    -0.355 C  
HETATM   17  C   UNL     1     -12.802  14.008  65.470  1.00  0.00    -0.453 C  
HETATM   18  C   UNL     1     -11.265  14.242  67.531  1.00  0.00    -0.307 C  
HETATM   19  C   UNL     1     -11.839  15.222  68.580  1.00  0.00    -0.329 C  
HETATM   20  C   UNL     1     -10.559  17.073  67.309  1.00  0.00    -0.267 C  
HETATM   21  C   UNL     1      -9.815  14.601  67.298  1.00  0.00    -0.231 C  
HETATM   22  C   UNL     1     -11.017  16.545  68.698  1.00  0.00    -0.344 C  
ENDROOT
BRANCH  18  23
HETATM   23  O   UNL     1     -11.510  12.860  67.785  1.00  0.00    -0.282 OA 
BRANCH  23  24
HETATM   24  C   UNL     1     -10.636  11.796  67.366  1.00  0.00    -0.224 C  
HETATM   25  O   UNL     1     -10.716  11.615  65.944  1.00  0.00    -0.263 OA 
HETATM   26  C   UNL     1      -9.711  10.712  65.448  1.00  0.00    -0.252 C  
HETATM   27  C   UNL     1     -10.009   9.319  65.980  1.00  0.00    -0.255 C  
HETATM   28  H   UNL     1     -10.609   8.046  68.838  1.00  0.00     0.000 HD 
HETATM   29  C   UNL     1      -9.978   9.299  67.505  1.00  0.00    -0.202 C  
HETATM   30  H   UNL     1      -9.275   7.462  65.828  1.00  0.00     0.000 HD 
HETATM   31  O   UNL     1      -9.089   8.332  65.496  1.00  0.00    -0.126 OA 
HETATM   32  O   UNL     1     -10.629   8.058  67.888  1.00  0.00    -0.209 OA 
HETATM   33  C   UNL     1     -10.719  10.463  68.176  1.00  0.00    -0.236 C  
BRANCH  26  34
HETATM   34  C   UNL     1      -9.755  10.719  63.915  1.00  0.00    -0.313 C  
HETATM   35  H   UNL     1     -11.033  11.241  62.520  1.00  0.00     0.000 HD 
HETATM   36  O   UNL     1     -11.006  11.237  63.469  1.00  0.00    -0.381 OA 
ENDBRANCH  26  34
BRANCH  33  37
HETATM   37  O   UNL     1     -10.267  10.744  69.524  1.00  0.00    -0.202 OA 
BRANCH  37  38
HETATM   38  C   UNL     1     -10.743   9.947  70.624  1.00  0.00    -0.303 C  
HETATM   39  O   UNL     1     -10.147   8.666  70.566  1.00  0.00    -0.186 OA 
HETATM   40  C   UNL     1     -10.599   7.674  71.483  1.00  0.00    -0.212 C  
HETATM   41  C   UNL     1     -12.125   7.561  71.586  1.00  0.00    -0.311 C  
HETATM   42  H   UNL     1     -13.704  11.213  71.296  1.00  0.00     0.000 HD 
HETATM   43  O   UNL     1     -12.757  11.217  71.212  1.00  0.00    -0.397 OA 
HETATM   44  O   UNL     1     -12.477   6.717  72.687  1.00  0.00    -0.449 OA 
HETATM   45  C   UNL     1     -12.751   8.928  71.794  1.00  0.00    -0.364 C  
HETATM   46  H   UNL     1     -14.583   9.684  71.871  1.00  0.00     0.000 HD 
HETATM   47  O   UNL     1     -14.191   8.828  71.741  1.00  0.00    -0.398 OA 
HETATM   48  H   UNL     1     -13.422   6.646  72.751  1.00  0.00     0.000 HD 
HETATM   49  C   UNL     1     -12.279   9.939  70.761  1.00  0.00    -0.291 C  
BRANCH  40  50
HETATM   50  C   UNL     1     -10.030   6.332  70.984  1.00  0.00    -0.182 C  
HETATM   51  O   UNL     1     -10.878   5.708  70.016  1.00  0.00    -0.325 OA 
HETATM   52  H   UNL     1     -10.527   4.880  69.709  1.00  0.00     0.000 HD 
ENDBRANCH  40  50
ENDBRANCH  37  38
ENDBRANCH  33  37
ENDBRANCH  23  24
ENDBRANCH  18  23
TORSDOF 6
ENDMDL
MODEL        3
REMARK 921   NORMALIZED FREE ENERGY PREDICTED BY IDOCK:   -8.40 KCAL/MOL
REMARK 922        TOTAL FREE ENERGY PREDICTED BY IDOCK:  -13.33 KCAL/MOL
REMARK 923 INTER-LIGAND FREE ENERGY PREDICTED BY IDOCK:  -11.61 KCAL/MOL
REMARK 924 INTRA-LIGAND FREE ENERGY PREDICTED BY IDOCK:   -1.72 KCAL/MOL
REMARK 927      BINDING AFFINITY PREDICTED BY RF-SCORE:    0.00 PKD
ROOT
HETATM    1  C   UNL     1      -6.696   7.085  65.984  1.00  0.00    -0.053 C  
HETATM    2  C   UNL     1      -7.359   6.829  67.394  1.00  0.00    -0.095 C  
HETATM    3  C   UNL     1      -6.230   6.727  68.418  1.00  0.00    -0.030 C  
HETATM    4  C   UNL     1      -6.767   6.289  69.765  1.00  0.00    -0.056 C  
HETATM    5  C   UNL     1      -7.275   4.866  69.758  1.00  0.00    -0.055 C  
HETATM    6  C   UNL     1      -8.035   4.352  68.491  1.00  0.00    -0.078 C  
HETATM    7  C   UNL     1      -8.040   5.398  67.252  1.00  0.00    -0.101 C  
HETATM    8  C   UNL     1      -9.479   3.890  68.839  1.00  0.00    -0.234 C  
HETATM    9  C   UNL     1      -7.363   2.937  68.310  1.00  0.00    -0.049 C  
HETATM   10  O   UNL     1      -7.396   2.083  69.204  1.00  0.00    -0.043 OA 
HETATM   11  O   UNL     1      -6.728   2.638  67.176  1.00  0.00    -0.039 OA 
HETATM   12  C   UNL     1      -9.312   5.529  66.389  1.00  0.00    -0.161 C  
HETATM   13  C   UNL     1     -10.228   6.677  66.760  1.00  0.00    -0.263 C  
HETATM   14  C   UNL     1      -9.664   8.093  66.940  1.00  0.00    -0.291 C  
HETATM   15  C   UNL     1      -9.637   9.054  65.734  1.00  0.00    -0.287 C  
HETATM   16  C   UNL     1      -9.843  10.422  66.394  1.00  0.00    -0.266 C  
HETATM   17  C   UNL     1      -9.786  11.566  65.700  1.00  0.00    -0.261 C  
HETATM   18  C   UNL     1     -10.266  10.260  67.874  1.00  0.00    -0.183 C  
HETATM   19  C   UNL     1      -9.061  10.276  68.844  1.00  0.00    -0.168 C  
HETATM   20  C   UNL     1      -8.267   8.136  67.631  1.00  0.00    -0.127 C  
HETATM   21  C   UNL     1     -10.751   8.833  67.753  1.00  0.00    -0.193 C  
HETATM   22  C   UNL     1      -8.374   8.881  68.992  1.00  0.00    -0.124 C  
ENDROOT
BRANCH  18  23
HETATM   23  O   UNL     1     -11.284  11.221  68.146  1.00  0.00    -0.239 OA 
BRANCH  23  24
HETATM   24  C   UNL     1     -11.566  11.748  69.456  1.00  0.00    -0.332 C  
HETATM   25  O   UNL     1     -12.420  10.851  70.181  1.00  0.00    -0.314 OA 
HETATM   26  C   UNL     1     -12.560  11.224  71.564  1.00  0.00    -0.312 C  
HETATM   27  C   UNL     1     -13.320  12.540  71.635  1.00  0.00    -0.196 C  
HETATM   28  H   UNL     1     -13.063  15.401  70.257  1.00  0.00     0.000 HD 
HETATM   29  C   UNL     1     -12.566  13.645  70.901  1.00  0.00    -0.346 C  
HETATM   30  H   UNL     1     -14.033  13.793  73.024  1.00  0.00     0.000 HD 
HETATM   31  O   UNL     1     -13.559  12.972  72.980  1.00  0.00    -0.354 OA 
HETATM   32  O   UNL     1     -13.533  14.713  70.714  1.00  0.00    -0.319 OA 
HETATM   33  C   UNL     1     -12.017  13.242  69.525  1.00  0.00    -0.307 C  
BRANCH  26  34
HETATM   34  C   UNL     1     -13.334  10.121  72.298  1.00  0.00    -0.238 C  
HETATM   35  H   UNL     1     -13.787   8.237  71.984  1.00  0.00     0.000 HD 
HETATM   36  O   UNL     1     -13.308   8.920  71.530  1.00  0.00    -0.341 OA 
ENDBRANCH  26  34
BRANCH  33  37
HETATM   37  O   UNL     1     -10.902  14.054  69.081  1.00  0.00    -0.245 OA 
BRANCH  37  38
HETATM   38  C   UNL     1     -11.065  14.955  67.970  1.00  0.00    -0.295 C  
HETATM   39  O   UNL     1     -11.739  14.286  66.922  1.00  0.00    -0.371 OA 
HETATM   40  C   UNL     1     -11.868  14.959  65.673  1.00  0.00    -0.131 C  
HETATM   41  C   UNL     1     -10.572  15.600  65.166  1.00  0.00    -0.424 C  
HETATM   42  H   UNL     1      -8.558  17.062  68.284  1.00  0.00     0.000 HD 
HETATM   43  O   UNL     1      -9.363  16.626  68.541  1.00  0.00    -0.220 OA 
HETATM   44  O   UNL     1     -10.852  16.440  64.041  1.00  0.00    -0.926 OA 
HETATM   45  C   UNL     1      -9.926  16.437  66.254  1.00  0.00    -0.323 C  
HETATM   46  H   UNL     1      -8.230  17.436  66.497  1.00  0.00     0.000 HD 
HETATM   47  O   UNL     1      -8.634  16.913  65.815  1.00  0.00    -0.505 OA 
HETATM   48  H   UNL     1     -10.048  16.837  63.725  1.00  0.00     0.000 HD 
HETATM   49  C   UNL     1      -9.759  15.661  67.552  1.00  0.00    -0.222 C  
BRANCH  40  50
HETATM   50  C   UNL     1     -12.334  13.898  64.656  1.00  0.00    -0.388 C  
HETATM   51  O   UNL     1     -12.421  14.420  63.328  1.00  0.00    -1.099 OA 
HETATM   52  H   UNL     1     -12.708  13.766  62.702  1.00  0.00     0.000 HD 
ENDBRANCH  40  50
ENDBRANCH  37  38
ENDBRANCH  33  37
ENDBRANCH  23  24
ENDBRANCH  18  23
TORSDOF 6
ENDMDL
MODEL        4
REMARK 921   NORMALIZED FREE ENERGY PREDICTED BY IDOCK:   -8.29 KCAL/MOL
REMARK 922        TOTAL FREE ENERGY PREDICTED BY IDOCK:  -13.18 KCAL/MOL
REMARK 923 INTER-LIGAND FREE ENERGY PREDICTED BY IDOCK:  -12.35 KCAL/MOL
REMARK 924 INTRA-LIGAND FREE ENERGY PREDICTED BY IDOCK:   -0.83 KCAL/MOL
REMARK 927      BINDING AFFINITY PREDICTED BY RF-SCORE:    0.00 PKD
ROOT
HETATM    1  C   UNL     1     -11.527   6.809  69.961  1.00  0.00    -0.390 C  
HETATM    2  C   UNL     1     -10.471   6.965  68.797  1.00  0.00    -0.223 C  
HETATM    3  C   UNL     1     -10.953   6.112  67.626  1.00  0.00    -0.400 C  
HETATM    4  C   UNL     1      -9.899   6.052  66.539  1.00  0.00    -0.186 C  
HETATM    5  C   UNL     1      -8.666   5.287  66.961  1.00  0.00    -0.107 C  
HETATM    6  C   UNL     1      -8.157   5.445  68.432  1.00  0.00    -0.091 C  
HETATM    7  C   UNL     1      -9.144   6.314  69.383  1.00  0.00    -0.139 C  
HETATM    8  C   UNL     1      -6.705   6.000  68.478  1.00  0.00    -0.061 C  
HETATM    9  C   UNL     1      -7.857   3.940  68.793  1.00  0.00    -0.063 C  
HETATM   10  O   UNL     1      -7.059   3.262  68.135  1.00  0.00    -0.049 OA 
HETATM   11  O   UNL     1      -8.477   3.363  69.822  1.00  0.00    -0.051 OA 
HETATM   12  C   UNL     1      -8.527   7.273  70.421  1.00  0.00    -0.139 C  
HETATM   13  C   UNL     1      -8.430   8.720  69.985  1.00  0.00    -0.133 C  
HETATM   14  C   UNL     1      -9.650   9.434  69.388  1.00  0.00    -0.177 C  
HETATM   15  C   UNL     1     -10.599  10.215  70.321  1.00  0.00    -0.324 C  
HETATM   16  C   UNL     1     -11.079  11.361  69.423  1.00  0.00    -0.301 C  
HETATM   17  C   UNL     1     -12.013  12.236  69.820  1.00  0.00    -0.365 C  
HETATM   18  C   UNL     1     -10.239  11.432  68.126  1.00  0.00    -0.187 C  
HETATM   19  C   UNL     1     -10.863  10.623  66.966  1.00  0.00    -0.298 C  
HETATM   20  C   UNL     1     -10.515   8.537  68.451  1.00  0.00    -0.215 C  
HETATM   21  C   UNL     1      -9.053  10.656  68.654  1.00  0.00    -0.170 C  
HETATM   22  C   UNL     1     -10.490   9.106  67.004  1.00  0.00    -0.311 C  
ENDROOT
BRANCH  18  23
HETATM   23  O   UNL     1      -9.982  12.806  67.846  1.00  0.00    -0.215 OA 
BRANCH  23  24
HETATM   24  C   UNL     1     -10.815  13.627  67.006  1.00  0.00    -0.286 C  
HETATM   25  O   UNL     1     -10.935  13.044  65.700  1.00  0.00    -0.271 OA 
HETATM   26  C   UNL     1     -11.923  13.709  64.891  1.00  0.00    -0.383 C  
HETATM   27  C   UNL     1     -11.432  15.115  64.586  1.00  0.00    -0.362 C  
HETATM   28  H   UNL     1     -10.301  17.558  66.291  1.00  0.00     0.000 HD 
HETATM   29  C   UNL     1     -11.231  15.913  65.871  1.00  0.00     0.065 C  
HETATM   30  H   UNL     1     -12.019  16.723  63.546  1.00  0.00     0.000 HD 
HETATM   31  O   UNL     1     -12.326  15.845  63.737  1.00  0.00    -0.791 OA 
HETATM   32  O   UNL     1     -10.426  17.062  65.491  1.00  0.00    -0.572 OA 
HETATM   33  C   UNL     1     -10.498  15.156  66.988  1.00  0.00    -0.282 C  
BRANCH  26  34
HETATM   34  C   UNL     1     -12.112  12.917  63.591  1.00  0.00    -0.535 C  
HETATM   35  H   UNL     1     -13.390  11.604  62.887  1.00  0.00     0.000 HD 
HETATM   36  O   UNL     1     -13.273  12.095  63.691  1.00  0.00    -0.770 OA 
ENDBRANCH  26  34
BRANCH  33  37
HETATM   37  O   UNL     1     -10.764  15.673  68.315  1.00  0.00    -0.263 OA 
BRANCH  37  38
HETATM   38  C   UNL     1      -9.919  16.695  68.873  1.00  0.00    -0.271 C  
HETATM   39  O   UNL     1     -10.398  17.966  68.476  1.00  0.00    -0.369 OA 
HETATM   40  C   UNL     1      -9.612  19.109  68.803  1.00  0.00    -0.416 C  
HETATM   41  C   UNL     1      -8.122  18.962  68.477  1.00  0.00    -0.348 C  
HETATM   42  H   UNL     1      -7.007  15.207  69.231  1.00  0.00     0.000 HD 
HETATM   43  O   UNL     1      -7.933  15.351  69.390  1.00  0.00    -0.216 OA 
HETATM   44  O   UNL     1      -7.389  20.052  69.049  1.00  0.00    -0.247 OA 
HETATM   45  C   UNL     1      -7.577  17.659  69.033  1.00  0.00    -0.155 C  
HETATM   46  H   UNL     1      -5.874  16.647  68.942  1.00  0.00     0.000 HD 
HETATM   47  O   UNL     1      -6.215  17.463  68.594  1.00  0.00    -0.164 OA 
HETATM   48  H   UNL     1      -6.465  19.962  68.847  1.00  0.00     0.000 HD 
HETATM   49  C   UNL     1      -8.416  16.462  68.615  1.00  0.00    -0.229 C  
BRANCH  40  50
HETATM   50  C   UNL     1     -10.191  20.279  67.984  1.00  0.00    -0.284 C  
HETATM   51  O   UNL     1      -9.246  20.810  67.052  1.00  0.00    -0.602 OA 
HETATM   52  H   UNL     1      -9.603  21.531  66.547  1.00  0.00     0.000 HD 
ENDBRANCH  40  50
ENDBRANCH  37  38
ENDBRANCH  33  37
ENDBRANCH  23  24
ENDBRANCH  18  23
TORSDOF 6
ENDMDL
MODEL        5
REMARK 921   NORMALIZED FREE ENERGY PREDICTED BY IDOCK:   -8.18 KCAL/MOL
REMARK 922        TOTAL FREE ENERGY PREDICTED BY IDOCK:  -13.03 KCAL/MOL
REMARK 923 INTER-LIGAND FREE ENERGY PREDICTED BY IDOCK:  -11.61 KCAL/MOL
REMARK 924 INTRA-LIGAND FREE ENERGY PREDICTED BY IDOCK:   -1.42 KCAL/MOL
REMARK 927      BINDING AFFINITY PREDICTED BY RF-SCORE:    0.00 PKD
ROOT
HETATM    1  C   UNL     1      -7.966   6.498  68.911  1.00  0.00    -0.111 C  
HETATM    2  C   UNL     1      -8.256   7.668  69.933  1.00  0.00    -0.130 C  
HETATM    3  C   UNL     1      -7.191   7.594  71.025  1.00  0.00    -0.058 C  
HETATM    4  C   UNL     1      -7.511   8.560  72.149  1.00  0.00    -0.111 C  
HETATM    5  C   UNL     1      -8.745   8.166  72.926  1.00  0.00    -0.290 C  
HETATM    6  C   UNL     1      -9.959   7.564  72.143  1.00  0.00    -0.218 C  
HETATM    7  C   UNL     1      -9.662   7.289  70.572  1.00  0.00    -0.176 C  
HETATM    8  C   UNL     1     -11.241   8.425  72.327  1.00  0.00    -0.446 C  
HETATM    9  C   UNL     1     -10.336   6.358  73.086  1.00  0.00    -0.226 C  
HETATM   10  O   UNL     1     -10.637   6.531  74.273  1.00  0.00    -0.269 OA 
HETATM   11  O   UNL     1     -10.326   5.111  72.613  1.00  0.00    -0.185 OA 
HETATM   12  C   UNL     1     -10.776   7.564  69.542  1.00  0.00    -0.222 C  
HETATM   13  C   UNL     1     -10.693   8.907  68.846  1.00  0.00    -0.132 C  
HETATM   14  C   UNL     1      -9.375   9.374  68.214  1.00  0.00    -0.140 C  
HETATM   15  C   UNL     1      -9.097   9.058  66.730  1.00  0.00    -0.178 C  
HETATM   16  C   UNL     1      -8.268  10.267  66.282  1.00  0.00    -0.131 C  
HETATM   17  C   UNL     1      -7.724  10.348  65.061  1.00  0.00    -0.095 C  
HETATM   18  C   UNL     1      -8.301  11.383  67.354  1.00  0.00    -0.144 C  
HETATM   19  C   UNL     1      -7.123  11.287  68.351  1.00  0.00    -0.081 C  
HETATM   20  C   UNL     1      -8.107   8.999  69.040  1.00  0.00    -0.107 C  
HETATM   21  C   UNL     1      -9.550  10.901  68.056  1.00  0.00    -0.170 C  
HETATM   22  C   UNL     1      -7.392  10.292  69.525  1.00  0.00    -0.132 C  
ENDROOT
BRANCH  18  23
HETATM   23  O   UNL     1      -8.433  12.633  66.680  1.00  0.00    -0.110 OA 
BRANCH  23  24
HETATM   24  C   UNL     1      -9.695  13.227  66.322  1.00  0.00    -0.268 C  
HETATM   25  O   UNL     1     -10.247  12.569  65.172  1.00  0.00    -0.281 OA 
HETATM   26  C   UNL     1     -11.600  12.980  64.901  1.00  0.00    -0.326 C  
HETATM   27  C   UNL     1     -11.585  14.441  64.477  1.00  0.00    -0.384 C  
HETATM   28  H   UNL     1     -10.351  17.141  65.633  1.00  0.00     0.000 HD 
HETATM   29  C   UNL     1     -11.015  15.324  65.583  1.00  0.00    -0.344 C  
HETATM   30  H   UNL     1     -12.877  15.844  63.867  1.00  0.00     0.000 HD 
HETATM   31  O   UNL     1     -12.887  14.932  64.132  1.00  0.00    -0.668 OA 
HETATM   32  O   UNL     1     -10.706  16.592  64.944  1.00  0.00    -0.702 OA 
HETATM   33  C   UNL     1      -9.735  14.786  66.237  1.00  0.00    -0.303 C  
BRANCH  26  34
HETATM   34  C   UNL     1     -12.167  12.104  63.777  1.00  0.00    -0.531 C  
HETATM   35  H   UNL     1     -13.920  11.384  63.267  1.00  0.00     0.000 HD 
HETATM   36  O   UNL     1     -13.569  11.927  63.963  1.00  0.00    -0.492 OA 
ENDBRANCH  26  34
BRANCH  33  37
HETATM   37  O   UNL     1      -9.500  15.301  67.571  1.00  0.00    -0.200 OA 
BRANCH  37  38
HETATM   38  C   UNL     1      -8.715  16.494  67.754  1.00  0.00    -0.196 C  
HETATM   39  O   UNL     1      -9.579  17.604  67.896  1.00  0.00    -0.269 OA 
HETATM   40  C   UNL     1      -8.997  18.904  67.940  1.00  0.00    -0.297 C  
HETATM   41  C   UNL     1      -7.952  19.163  66.849  1.00  0.00    -0.259 C  
HETATM   42  H   UNL     1      -5.873  15.812  66.244  1.00  0.00     0.000 HD 
HETATM   43  O   UNL     1      -6.558  15.704  66.894  1.00  0.00    -0.258 OA 
HETATM   44  O   UNL     1      -7.264  20.390  67.116  1.00  0.00    -0.266 OA 
HETATM   45  C   UNL     1      -6.939  18.034  66.799  1.00  0.00    -0.195 C  
HETATM   46  H   UNL     1      -5.416  17.507  65.643  1.00  0.00     0.000 HD 
HETATM   47  O   UNL     1      -6.050  18.213  65.675  1.00  0.00    -0.216 OA 
HETATM   48  H   UNL     1      -6.616  20.551  66.440  1.00  0.00     0.000 HD 
HETATM   49  C   UNL     1      -7.604  16.670  66.699  1.00  0.00    -0.279 C  
BRANCH  40  50
HETATM   50  C   UNL     1     -10.157  19.903  67.768  1.00  0.00    -0.429 C  
HETATM   51  O   UNL     1     -10.029  20.686  66.579  1.00  0.00    -0.580 OA 
HETATM   52  H   UNL     1     -10.745  21.302  66.473  1.00  0.00     0.000 HD 
ENDBRANCH  40  50
ENDBRANCH  37  38
ENDBRANCH  33  37
ENDBRANCH  23  24
ENDBRANCH  18  23
TORSDOF 6
ENDMDL
MODEL        6
REMARK 921   NORMALIZED FREE ENERGY PREDICTED BY IDOCK:   -8.02 KCAL/MOL
REMARK 922        TOTAL FREE ENERGY PREDICTED BY IDOCK:  -12.82 KCAL/MOL
REMARK 923 INTER-LIGAND FREE ENERGY PREDICTED BY IDOCK:  -11.69 KCAL/MOL
REMARK 924 INTRA-LIGAND FREE ENERGY PREDICTED BY IDOCK:   -1.13 KCAL/MOL
REMARK 927      BINDING AFFINITY PREDICTED BY RF-SCORE:    0.00 PKD
ROOT
HETATM    1  C   UNL     1      -7.256   5.839  69.847  1.00  0.00    -0.069 C  
HETATM    2  C   UNL     1      -8.228   6.766  70.679  1.00  0.00    -0.120 C  
HETATM    3  C   UNL     1      -7.601   6.963  72.058  1.00  0.00    -0.093 C  
HETATM    4  C   UNL     1      -8.562   7.680  72.984  1.00  0.00    -0.197 C  
HETATM    5  C   UNL     1      -9.770   6.843  73.336  1.00  0.00    -0.228 C  
HETATM    6  C   UNL     1     -10.399   5.938  72.227  1.00  0.00    -0.236 C  
HETATM    7  C   UNL     1      -9.550   5.897  70.846  1.00  0.00    -0.202 C  
HETATM    8  C   UNL     1     -11.885   6.312  71.958  1.00  0.00    -0.370 C  
HETATM    9  C   UNL     1     -10.625   4.606  73.040  1.00  0.00    -0.213 C  
HETATM   10  O   UNL     1     -11.323   4.579  74.060  1.00  0.00    -0.220 OA 
HETATM   11  O   UNL     1     -10.048   3.472  72.640  1.00  0.00    -0.152 OA 
HETATM   12  C   UNL     1     -10.308   5.869  69.502  1.00  0.00    -0.314 C  
HETATM   13  C   UNL     1     -10.467   7.213  68.824  1.00  0.00    -0.217 C  
HETATM   14  C   UNL     1      -9.255   8.135  68.632  1.00  0.00    -0.143 C  
HETATM   15  C   UNL     1      -8.435   8.043  67.329  1.00  0.00    -0.125 C  
HETATM   16  C   UNL     1      -7.965   9.488  67.130  1.00  0.00    -0.102 C  
HETATM   17  C   UNL     1      -7.126   9.837  66.145  1.00  0.00    -0.099 C  
HETATM   18  C   UNL     1      -8.707  10.445  68.094  1.00  0.00    -0.125 C  
HETATM   19  C   UNL     1      -7.942  10.666  69.419  1.00  0.00    -0.118 C  
HETATM   20  C   UNL     1      -8.263   8.136  69.835  1.00  0.00    -0.118 C  
HETATM   21  C   UNL     1      -9.874   9.527  68.373  1.00  0.00    -0.175 C  
HETATM   22  C   UNL     1      -8.215   9.551  70.479  1.00  0.00    -0.203 C  
ENDROOT
BRANCH  18  23
HETATM   23  O   UNL     1      -9.032  11.630  67.370  1.00  0.00    -0.159 OA 
BRANCH  23  24
HETATM   24  C   UNL     1     -10.137  11.736  66.452  1.00  0.00    -0.210 C  
HETATM   25  O   UNL     1      -9.670  11.648  65.098  1.00  0.00    -0.235 OA 
HETATM   26  C   UNL     1     -10.749  11.536  64.152  1.00  0.00    -0.368 C  
HETATM   27  C   UNL     1     -11.530  12.841  64.152  1.00  0.00    -0.393 C  
HETATM   28  H   UNL     1     -12.858  14.706  66.369  1.00  0.00     0.000 HD 
HETATM   29  C   UNL     1     -12.114  13.126  65.533  1.00  0.00    -0.442 C  
HETATM   30  H   UNL     1     -13.087  13.664  63.199  1.00  0.00     0.000 HD 
HETATM   31  O   UNL     1     -12.600  12.849  63.198  1.00  0.00    -0.636 OA 
HETATM   32  O   UNL     1     -12.495  14.528  65.509  1.00  0.00    -0.345 OA 
HETATM   33  C   UNL     1     -11.139  12.908  66.699  1.00  0.00    -0.284 C  
BRANCH  26  34
HETATM   34  C   UNL     1     -10.161  11.267  62.761  1.00  0.00    -0.088 C  
HETATM   35  H   UNL     1      -9.165   9.822  61.881  1.00  0.00     0.000 HD 
HETATM   36  O   UNL     1      -9.529   9.989  62.742  1.00  0.00    -0.295 OA 
ENDBRANCH  26  34
BRANCH  33  37
HETATM   37  O   UNL     1     -11.794  12.662  67.968  1.00  0.00    -0.338 OA 
BRANCH  37  38
HETATM   38  C   UNL     1     -11.445  13.448  69.122  1.00  0.00    -0.300 C  
HETATM   39  O   UNL     1     -12.475  13.345  70.086  1.00  0.00    -0.267 OA 
HETATM   40  C   UNL     1     -12.391  14.169  71.245  1.00  0.00    -0.369 C  
HETATM   41  C   UNL     1     -12.064  15.637  70.952  1.00  0.00    -0.407 C  
HETATM   42  H   UNL     1      -9.477  15.793  67.920  1.00  0.00     0.000 HD 
HETATM   43  O   UNL     1      -9.739  14.905  68.130  1.00  0.00    -0.207 OA 
HETATM   44  O   UNL     1     -11.772  16.324  72.174  1.00  0.00    -0.495 OA 
HETATM   45  C   UNL     1     -10.863  15.745  70.030  1.00  0.00    -0.342 C  
HETATM   46  H   UNL     1      -9.905  17.188  69.065  1.00  0.00     0.000 HD 
HETATM   47  O   UNL     1     -10.656  17.121  69.643  1.00  0.00    -0.249 OA 
HETATM   48  H   UNL     1     -11.569  17.235  71.993  1.00  0.00     0.000 HD 
HETATM   49  C   UNL     1     -11.020  14.891  68.781  1.00  0.00    -0.253 C  
BRANCH  40  50
HETATM   50  C   UNL     1     -13.769  14.091  71.932  1.00  0.00    -0.444 C  
HETATM   51  O   UNL     1     -13.944  12.875  72.663  1.00  0.00    -0.727 OA 
HETATM   52  H   UNL     1     -14.793  12.827  73.086  1.00  0.00     0.000 HD 
ENDBRANCH  40  50
ENDBRANCH  37  38
ENDBRANCH  33  37
ENDBRANCH  23  24
ENDBRANCH  18  23
TORSDOF 6
ENDMDL
MODEL        7
REMARK 921   NORMALIZED FREE ENERGY PREDICTED BY IDOCK:   -7.97 KCAL/MOL
REMARK 922        TOTAL FREE ENERGY PREDICTED BY IDOCK:  -12.74 KCAL/MOL
REMARK 923 INTER-LIGAND FREE ENERGY PREDICTED BY IDOCK:  -11.12 KCAL/MOL
REMARK 924 INTRA-LIGAND FREE ENERGY PREDICTED BY IDOCK:   -1.62 KCAL/MOL
REMARK 927      BINDING AFFINITY PREDICTED BY RF-SCORE:    0.00 PKD
ROOT
HETATM    1  C   UNL     1      -7.873   8.670  71.966  1.00  0.00    -0.104 C  
HETATM    2  C   UNL     1      -8.909   8.223  70.860  1.00  0.00    -0.171 C  
HETATM    3  C   UNL     1     -10.247   7.986  71.558  1.00  0.00    -0.243 C  
HETATM    4  C   UNL     1     -11.247   7.367  70.602  1.00  0.00    -0.292 C  
HETATM    5  C   UNL     1     -10.879   5.957  70.203  1.00  0.00    -0.402 C  
HETATM    6  C   UNL     1      -9.370   5.618  69.966  1.00  0.00    -0.183 C  
HETATM    7  C   UNL     1      -8.354   6.824  70.347  1.00  0.00    -0.130 C  
HETATM    8  C   UNL     1      -9.118   5.111  68.518  1.00  0.00    -0.133 C  
HETATM    9  C   UNL     1      -9.264   4.242  70.730  1.00  0.00    -0.137 C  
HETATM   10  O   UNL     1      -9.972   3.275  70.426  1.00  0.00    -0.018 OA 
HETATM   11  O   UNL     1      -8.403   4.103  71.739  1.00  0.00    -0.092 OA 
HETATM   12  C   UNL     1      -7.117   7.068  69.457  1.00  0.00    -0.071 C  
HETATM   13  C   UNL     1      -7.279   8.152  68.413  1.00  0.00    -0.093 C  
HETATM   14  C   UNL     1      -7.826   9.532  68.804  1.00  0.00    -0.084 C  
HETATM   15  C   UNL     1      -6.840  10.648  69.207  1.00  0.00    -0.086 C  
HETATM   16  C   UNL     1      -7.550  11.913  68.712  1.00  0.00    -0.090 C  
HETATM   17  C   UNL     1      -7.073  13.141  68.953  1.00  0.00    -0.075 C  
HETATM   18  C   UNL     1      -8.748  11.550  67.802  1.00  0.00    -0.142 C  
HETATM   19  C   UNL     1     -10.078  11.437  68.583  1.00  0.00    -0.217 C  
HETATM   20  C   UNL     1      -8.969   9.484  69.862  1.00  0.00    -0.231 C  
HETATM   21  C   UNL     1      -8.282  10.152  67.464  1.00  0.00    -0.114 C  
HETATM   22  C   UNL     1     -10.285  10.036  69.243  1.00  0.00    -0.229 C  
ENDROOT
BRANCH  18  23
HETATM   23  O   UNL     1      -8.758  12.463  66.706  1.00  0.00    -0.200 OA 
BRANCH  23  24
HETATM   24  C   UNL     1      -9.924  13.185  66.267  1.00  0.00    -0.285 C  
HETATM   25  O   UNL     1     -10.466  12.583  65.083  1.00  0.00    -0.280 OA 
HETATM   26  C   UNL     1     -11.747  13.133  64.725  1.00  0.00    -0.347 C  
HETATM   27  C   UNL     1     -11.551  14.581  64.305  1.00  0.00    -0.238 C  
HETATM   28  H   UNL     1     -10.116  17.143  65.542  1.00  0.00     0.000 HD 
HETATM   29  C   UNL     1     -10.964  15.405  65.447  1.00  0.00    -0.368 C  
HETATM   30  H   UNL     1     -12.646  16.109  63.614  1.00  0.00     0.000 HD 
HETATM   31  O   UNL     1     -12.769  15.205  63.877  1.00  0.00    -0.759 OA 
HETATM   32  O   UNL     1     -10.482  16.630  64.831  1.00  0.00    -0.657 OA 
HETATM   33  C   UNL     1      -9.793  14.739  66.182  1.00  0.00    -0.312 C  
BRANCH  26  34
HETATM   34  C   UNL     1     -12.330  12.315  63.565  1.00  0.00    -0.565 C  
HETATM   35  H   UNL     1     -13.994  11.343  63.191  1.00  0.00     0.000 HD 
HETATM   36  O   UNL     1     -13.633  11.849  63.909  1.00  0.00    -0.448 OA 
ENDBRANCH  26  34
BRANCH  33  37
HETATM   37  O   UNL     1      -9.592  15.234  67.529  1.00  0.00    -0.206 OA 
BRANCH  37  38
HETATM   38  C   UNL     1      -8.774  16.397  67.754  1.00  0.00    -0.180 C  
HETATM   39  O   UNL     1      -9.605  17.533  67.891  1.00  0.00    -0.265 OA 
HETATM   40  C   UNL     1      -8.981  18.811  67.973  1.00  0.00    -0.299 C  
HETATM   41  C   UNL     1      -7.898  19.053  66.916  1.00  0.00    -0.245 C  
HETATM   42  H   UNL     1      -5.914  15.646  66.311  1.00  0.00     0.000 HD 
HETATM   43  O   UNL     1      -6.620  15.550  66.940  1.00  0.00    -0.232 OA 
HETATM   44  O   UNL     1      -7.178  20.252  67.222  1.00  0.00    -0.256 OA 
HETATM   45  C   UNL     1      -6.922  17.892  66.874  1.00  0.00    -0.181 C  
HETATM   46  H   UNL     1      -5.385  17.333  65.751  1.00  0.00     0.000 HD 
HETATM   47  O   UNL     1      -5.996  18.060  65.778  1.00  0.00    -0.196 OA 
HETATM   48  H   UNL     1      -6.507  20.403  66.567  1.00  0.00     0.000 HD 
HETATM   49  C   UNL     1      -7.628  16.553  66.732  1.00  0.00    -0.263 C  
BRANCH  40  50
HETATM   50  C   UNL     1     -10.103  19.852  67.787  1.00  0.00    -0.429 C  
HETATM   51  O   UNL     1      -9.978  20.573  66.558  1.00  0.00    -0.574 OA 
HETATM   52  H   UNL     1     -10.669  21.214  66.444  1.00  0.00     0.000 HD 
ENDBRANCH  40  50
ENDBRANCH  37  38
ENDBRANCH  33  37
ENDBRANCH  23  24
ENDBRANCH  18  23
TORSDOF 6
ENDMDL
MODEL        8
REMARK 921   NORMALIZED FREE ENERGY PREDICTED BY IDOCK:   -7.91 KCAL/MOL
REMARK 922        TOTAL FREE ENERGY PREDICTED BY IDOCK:  -12.66 KCAL/MOL
REMARK 923 INTER-LIGAND FREE ENERGY PREDICTED BY IDOCK:  -10.93 KCAL/MOL
REMARK 924 INTRA-LIGAND FREE ENERGY PREDICTED BY IDOCK:   -1.74 KCAL/MOL
REMARK 927      BINDING AFFINITY PREDICTED BY RF-SCORE:    0.00 PKD
ROOT
HETATM    1  C   UNL     1      -7.644   6.761  69.486  1.00  0.00    -0.099 C  
HETATM    2  C   UNL     1      -8.629   6.850  68.254  1.00  0.00    -0.125 C  
HETATM    3  C   UNL     1      -9.968   6.265  68.698  1.00  0.00    -0.166 C  
HETATM    4  C   UNL     1     -10.911   6.134  67.518  1.00  0.00    -0.422 C  
HETATM    5  C   UNL     1     -10.460   5.092  66.522  1.00  0.00    -0.346 C  
HETATM    6  C   UNL     1      -8.930   4.958  66.223  1.00  0.00    -0.121 C  
HETATM    7  C   UNL     1      -7.988   5.878  67.170  1.00  0.00    -0.102 C  
HETATM    8  C   UNL     1      -8.618   5.202  64.719  1.00  0.00    -0.148 C  
HETATM    9  C   UNL     1      -8.769   3.390  66.256  1.00  0.00    -0.126 C  
HETATM   10  O   UNL     1      -9.418   2.655  65.502  1.00  0.00    -0.086 OA 
HETATM   11  O   UNL     1      -7.926   2.822  67.120  1.00  0.00    -0.073 OA 
HETATM   12  C   UNL     1      -6.746   6.556  66.556  1.00  0.00    -0.056 C  
HETATM   13  C   UNL     1      -6.940   7.998  66.136  1.00  0.00    -0.058 C  
HETATM   14  C   UNL     1      -7.568   9.011  67.104  1.00  0.00    -0.091 C  
HETATM   15  C   UNL     1      -6.653   9.840  68.027  1.00  0.00    -0.061 C  
HETATM   16  C   UNL     1      -7.417  11.163  68.152  1.00  0.00    -0.093 C  
HETATM   17  C   UNL     1      -7.011  12.150  68.962  1.00  0.00    -0.086 C  
HETATM   18  C   UNL     1      -8.573  11.229  67.124  1.00  0.00    -0.147 C  
HETATM   19  C   UNL     1      -9.912  10.714  67.700  1.00  0.00    -0.197 C  
HETATM   20  C   UNL     1      -8.732   8.430  67.962  1.00  0.00    -0.139 C  
HETATM   21  C   UNL     1      -8.026  10.172  66.192  1.00  0.00    -0.125 C  
HETATM   22  C   UNL     1     -10.060   9.161  67.616  1.00  0.00    -0.273 C  
ENDROOT
BRANCH  18  23
HETATM   23  O   UNL     1      -8.604  12.549  66.586  1.00  0.00    -0.160 OA 
BRANCH  23  24
HETATM   24  C   UNL     1      -9.807  13.219  66.164  1.00  0.00    -0.280 C  
HETATM   25  O   UNL     1     -10.279  12.665  64.927  1.00  0.00    -0.290 OA 
HETATM   26  C   UNL     1     -11.586  13.152  64.572  1.00  0.00    -0.364 C  
HETATM   27  C   UNL     1     -11.481  14.635  64.256  1.00  0.00    -0.161 C  
HETATM   28  H   UNL     1     -10.254  17.196  65.701  1.00  0.00     0.000 HD 
HETATM   29  C   UNL     1     -10.978  15.416  65.466  1.00  0.00    -0.343 C  
HETATM   30  H   UNL     1     -12.662  16.130  63.639  1.00  0.00     0.000 HD 
HETATM   31  O   UNL     1     -12.728  15.204  63.836  1.00  0.00    -0.759 OA 
HETATM   32  O   UNL     1     -10.567  16.710  64.947  1.00  0.00    -0.694 OA 
HETATM   33  C   UNL     1      -9.781  14.781  66.187  1.00  0.00    -0.312 C  
BRANCH  26  34
HETATM   34  C   UNL     1     -12.084  12.378  63.344  1.00  0.00    -0.524 C  
HETATM   35  H   UNL     1     -13.715  11.421  62.818  1.00  0.00     0.000 HD 
HETATM   36  O   UNL     1     -13.407  11.899  63.578  1.00  0.00    -0.605 OA 
ENDBRANCH  26  34
BRANCH  33  37
HETATM   37  O   UNL     1      -9.646  15.194  67.569  1.00  0.00    -0.206 OA 
BRANCH  37  38
HETATM   38  C   UNL     1      -8.754  16.270  67.915  1.00  0.00    -0.175 C  
HETATM   39  O   UNL     1      -9.499  17.462  68.073  1.00  0.00    -0.266 OA 
HETATM   40  C   UNL     1      -8.783  18.677  68.273  1.00  0.00    -0.323 C  
HETATM   41  C   UNL     1      -7.618  18.889  67.299  1.00  0.00    -0.229 C  
HETATM   42  H   UNL     1      -5.877  15.368  66.600  1.00  0.00     0.000 HD 
HETATM   43  O   UNL     1      -6.627  15.295  67.179  1.00  0.00    -0.292 OA 
HETATM   44  O   UNL     1      -6.827  20.004  67.722  1.00  0.00    -0.247 OA 
HETATM   45  C   UNL     1      -6.737  17.654  67.242  1.00  0.00    -0.161 C  
HETATM   46  H   UNL     1      -5.181  17.036  66.180  1.00  0.00     0.000 HD 
HETATM   47  O   UNL     1      -5.732  17.808  66.216  1.00  0.00    -0.165 OA 
HETATM   48  H   UNL     1      -6.105  20.136  67.119  1.00  0.00     0.000 HD 
HETATM   49  C   UNL     1      -7.537  16.389  66.975  1.00  0.00    -0.205 C  
BRANCH  40  50
HETATM   50  C   UNL     1      -9.805  19.816  68.086  1.00  0.00    -0.424 C  
HETATM   51  O   UNL     1      -9.540  20.597  66.917  1.00  0.00    -0.603 OA 
HETATM   52  H   UNL     1     -10.170  21.299  66.803  1.00  0.00     0.000 HD 
ENDBRANCH  40  50
ENDBRANCH  37  38
ENDBRANCH  33  37
ENDBRANCH  23  24
ENDBRANCH  18  23
TORSDOF 6
ENDMDL
MODEL        9
REMARK 921   NORMALIZED FREE ENERGY PREDICTED BY IDOCK:   -7.87 KCAL/MOL
REMARK 922        TOTAL FREE ENERGY PREDICTED BY IDOCK:  -12.61 KCAL/MOL
REMARK 923 INTER-LIGAND FREE ENERGY PREDICTED BY IDOCK:  -10.93 KCAL/MOL
REMARK 924 INTRA-LIGAND FREE ENERGY PREDICTED BY IDOCK:   -1.68 KCAL/MOL
REMARK 927      BINDING AFFINITY PREDICTED BY RF-SCORE:    0.00 PKD
ROOT
HETATM    1  C   UNL     1      -6.840   4.899  67.615  1.00  0.00    -0.060 C  
HETATM    2  C   UNL     1      -7.350   5.398  69.024  1.00  0.00    -0.070 C  
HETATM    3  C   UNL     1      -6.120   5.635  69.898  1.00  0.00    -0.025 C  
HETATM    4  C   UNL     1      -6.529   5.929  71.327  1.00  0.00    -0.045 C  
HETATM    5  C   UNL     1      -7.143   4.734  72.018  1.00  0.00    -0.062 C  
HETATM    6  C   UNL     1      -8.085   3.797  71.191  1.00  0.00    -0.064 C  
HETATM    7  C   UNL     1      -8.154   4.156  69.611  1.00  0.00    -0.060 C  
HETATM    8  C   UNL     1      -9.510   3.728  71.811  1.00  0.00    -0.214 C  
HETATM    9  C   UNL     1      -7.552   2.384  71.644  1.00  0.00    -0.041 C  
HETATM   10  O   UNL     1      -7.546   2.044  72.833  1.00  0.00    -0.035 OA 
HETATM   11  O   UNL     1      -7.080   1.526  70.740  1.00  0.00    -0.032 OA 
HETATM   12  C   UNL     1      -9.504   4.036  68.875  1.00  0.00    -0.237 C  
HETATM   13  C   UNL     1     -10.277   5.330  68.730  1.00  0.00    -0.231 C  
HETATM   14  C   UNL     1      -9.587   6.591  68.192  1.00  0.00    -0.123 C  
HETATM   15  C   UNL     1      -9.627   6.885  66.678  1.00  0.00    -0.218 C  
HETATM   16  C   UNL     1      -9.646   8.417  66.638  1.00  0.00    -0.294 C  
HETATM   17  C   UNL     1      -9.581   9.102  65.488  1.00  0.00    -0.239 C  
HETATM   18  C   UNL     1      -9.903   9.001  68.048  1.00  0.00    -0.166 C  
HETATM   19  C   UNL     1      -8.596   9.308  68.814  1.00  0.00    -0.131 C  
HETATM   20  C   UNL     1      -8.119   6.771  68.686  1.00  0.00    -0.120 C  
HETATM   21  C   UNL     1     -10.509   7.748  68.638  1.00  0.00    -0.199 C  
HETATM   22  C   UNL     1      -8.007   8.061  69.548  1.00  0.00    -0.115 C  
ENDROOT
BRANCH  18  23
HETATM   23  O   UNL     1     -10.804  10.098  67.909  1.00  0.00    -0.251 OA 
BRANCH  23  24
HETATM   24  C   UNL     1     -11.054  11.071  68.940  1.00  0.00    -0.239 C  
HETATM   25  O   UNL     1     -12.048  10.584  69.855  1.00  0.00    -0.283 OA 
HETATM   26  C   UNL     1     -12.181  11.422  71.017  1.00  0.00    -0.285 C  
HETATM   27  C   UNL     1     -12.753  12.763  70.584  1.00  0.00    -0.077 C  
HETATM   28  H   UNL     1     -12.056  14.928  68.352  1.00  0.00     0.000 HD 
HETATM   29  C   UNL     1     -11.829  13.452  69.584  1.00  0.00    -0.331 C  
HETATM   30  H   UNL     1     -13.332  14.492  71.413  1.00  0.00     0.000 HD 
HETATM   31  O   UNL     1     -12.974  13.655  71.684  1.00  0.00    -0.342 OA 
HETATM   32  O   UNL     1     -12.631  14.499  68.975  1.00  0.00    -0.047 OA 
HETATM   33  C   UNL     1     -11.295  12.541  68.470  1.00  0.00    -0.297 C  
BRANCH  26  34
HETATM   34  C   UNL     1     -13.124  10.738  72.014  1.00  0.00    -0.371 C  
HETATM   35  H   UNL     1     -13.351   8.940  72.770  1.00  0.00     0.000 HD 
HETATM   36  O   UNL     1     -12.767   9.364  72.152  1.00  0.00    -0.384 OA 
ENDBRANCH  26  34
BRANCH  33  37
HETATM   37  O   UNL     1     -10.065  13.013  67.869  1.00  0.00    -0.222 OA 
BRANCH  37  38
HETATM   38  C   UNL     1     -10.105  13.769  66.644  1.00  0.00    -0.277 C  
HETATM   39  O   UNL     1     -10.044  15.149  66.945  1.00  0.00    -0.249 OA 
HETATM   40  C   UNL     1     -10.220  16.075  65.876  1.00  0.00    -0.365 C  
HETATM   41  C   UNL     1     -11.416  15.768  64.967  1.00  0.00    -0.122 C  
HETATM   42  H   UNL     1     -11.733  11.812  64.560  1.00  0.00     0.000 HD 
HETATM   43  O   UNL     1     -11.021  12.063  65.138  1.00  0.00    -0.295 OA 
HETATM   44  O   UNL     1     -11.371  16.602  63.805  1.00  0.00    -1.457 OA 
HETATM   45  C   UNL     1     -11.396  14.315  64.529  1.00  0.00    -0.334 C  
HETATM   46  H   UNL     1     -12.589  13.090  63.524  1.00  0.00     0.000 HD 
HETATM   47  O   UNL     1     -12.601  14.000  63.798  1.00  0.00    -0.772 OA 
HETATM   48  H   UNL     1     -12.112  16.413  63.242  1.00  0.00     0.000 HD 
HETATM   49  C   UNL     1     -11.260  13.362  65.706  1.00  0.00    -0.290 C  
BRANCH  40  50
HETATM   50  C   UNL     1     -10.430  17.455  66.530  1.00  0.00    -0.264 C  
HETATM   51  O   UNL     1     -10.434  18.516  65.571  1.00  0.00    -0.597 OA 
HETATM   52  H   UNL     1     -10.564  19.366  65.975  1.00  0.00     0.000 HD 
ENDBRANCH  40  50
ENDBRANCH  37  38
ENDBRANCH  33  37
ENDBRANCH  23  24
ENDBRANCH  18  23
TORSDOF 6
ENDMDL
MODEL       10
REMARK 921   NORMALIZED FREE ENERGY PREDICTED BY IDOCK:   -7.80 KCAL/MOL
REMARK 922        TOTAL FREE ENERGY PREDICTED BY IDOCK:  -12.52 KCAL/MOL
REMARK 923 INTER-LIGAND FREE ENERGY PREDICTED BY IDOCK:  -11.56 KCAL/MOL
REMARK 924 INTRA-LIGAND FREE ENERGY PREDICTED BY IDOCK:   -0.96 KCAL/MOL
REMARK 927      BINDING AFFINITY PREDICTED BY RF-SCORE:    0.00 PKD
ROOT
HETATM    1  C   UNL     1     -10.591  19.091  65.599  1.00  0.00    -0.273 C  
HETATM    2  C   UNL     1     -10.000  18.549  66.960  1.00  0.00    -0.365 C  
HETATM    3  C   UNL     1     -10.521  19.452  68.076  1.00  0.00    -0.512 C  
HETATM    4  C   UNL     1      -9.846  19.120  69.392  1.00  0.00    -0.136 C  
HETATM    5  C   UNL     1      -8.377  19.473  69.402  1.00  0.00     0.113 C  
HETATM    6  C   UNL     1      -7.544  19.234  68.099  1.00  0.00    -0.325 C  
HETATM    7  C   UNL     1      -8.431  18.773  66.822  1.00  0.00    -0.292 C  
HETATM    8  C   UNL     1      -6.366  18.250  68.347  1.00  0.00    -0.198 C  
HETATM    9  C   UNL     1      -6.728  20.582  68.032  1.00  0.00    -0.295 C  
HETATM   10  O   UNL     1      -5.986  20.937  68.956  1.00  0.00    -0.347 OA 
HETATM   11  O   UNL     1      -6.836  21.377  66.967  1.00  0.00    -0.514 OA 
HETATM   12  C   UNL     1      -7.855  17.720  65.853  1.00  0.00    -0.100 C  
HETATM   13  C   UNL     1      -8.312  16.298  66.100  1.00  0.00    -0.260 C  
HETATM   14  C   UNL     1      -9.804  15.980  66.267  1.00  0.00    -0.331 C  
HETATM   15  C   UNL     1     -10.636  15.589  65.028  1.00  0.00    -0.435 C  
HETATM   16  C   UNL     1     -11.663  14.613  65.612  1.00  0.00    -0.304 C  
HETATM   17  C   UNL     1     -12.660  14.100  64.878  1.00  0.00    -0.362 C  
HETATM   18  C   UNL     1     -11.281  14.213  67.058  1.00  0.00    -0.318 C  
HETATM   19  C   UNL     1     -11.943  15.120  68.121  1.00  0.00    -0.151 C  
HETATM   20  C   UNL     1     -10.596  17.058  67.068  1.00  0.00    -0.226 C  
HETATM   21  C   UNL     1      -9.823  14.597  66.956  1.00  0.00    -0.244 C  
HETATM   22  C   UNL     1     -11.148  16.439  68.384  1.00  0.00    -0.351 C  
ENDROOT
BRANCH  18  23
HETATM   23  O   UNL     1     -11.528  12.816  67.205  1.00  0.00    -0.298 OA 
BRANCH  23  24
HETATM   24  C   UNL     1     -10.574  11.790  66.875  1.00  0.00    -0.235 C  
HETATM   25  O   UNL     1     -10.386  11.723  65.453  1.00  0.00    -0.247 OA 
HETATM   26  C   UNL     1      -9.292  10.864  65.084  1.00  0.00    -0.218 C  
HETATM   27  C   UNL     1      -9.660   9.432  65.441  1.00  0.00    -0.226 C  
HETATM   28  H   UNL     1     -10.759   7.935  68.031  1.00  0.00     0.000 HD 
HETATM   29  C   UNL     1      -9.911   9.291  66.939  1.00  0.00    -0.233 C  
HETATM   30  H   UNL     1      -8.880   7.594  65.285  1.00  0.00     0.000 HD 
HETATM   31  O   UNL     1      -8.650   8.488  65.062  1.00  0.00    -0.179 OA 
HETATM   32  O   UNL     1     -10.602   8.022  67.097  1.00  0.00    -0.320 OA 
HETATM   33  C   UNL     1     -10.784  10.397  67.550  1.00  0.00    -0.287 C  
BRANCH  26  34
HETATM   34  C   UNL     1      -9.050  10.992  63.575  1.00  0.00    -0.167 C  
HETATM   35  H   UNL     1      -9.963  11.812  62.042  1.00  0.00     0.000 HD 
HETATM   36  O   UNL     1     -10.112  11.732  62.977  1.00  0.00    -0.384 OA 
ENDBRANCH  26  34
BRANCH  33  37
HETATM   37  O   UNL     1     -10.594  10.571  68.975  1.00  0.00    -0.194 OA 
BRANCH  37  38
HETATM   38  C   UNL     1     -10.018   9.510  69.760  1.00  0.00    -0.213 C  
HETATM   39  O   UNL     1     -10.953   9.087  70.732  1.00  0.00    -0.229 OA 
HETATM   40  C   UNL     1     -10.523   8.143  71.709  1.00  0.00    -0.242 C  
HETATM   41  C   UNL     1      -9.176   8.478  72.358  1.00  0.00    -0.258 C  
HETATM   42  H   UNL     1      -6.780  10.068  69.593  1.00  0.00     0.000 HD 
HETATM   43  O   UNL     1      -7.644   9.864  69.253  1.00  0.00    -0.083 OA 
HETATM   44  O   UNL     1      -8.723   7.368  73.140  1.00  0.00    -0.127 OA 
HETATM   45  C   UNL     1      -8.134   8.790  71.300  1.00  0.00    -0.154 C  
HETATM   46  H   UNL     1      -6.262   9.443  71.261  1.00  0.00     0.000 HD 
HETATM   47  O   UNL     1      -6.914   9.248  71.923  1.00  0.00    -0.314 OA 
HETATM   48  H   UNL     1      -7.888   7.575  73.543  1.00  0.00     0.000 HD 
HETATM   49  C   UNL     1      -8.616   9.841  70.312  1.00  0.00    -0.129 C  
BRANCH  40  50
HETATM   50  C   UNL     1     -11.613   8.122  72.799  1.00  0.00    -0.304 C  
HETATM   51  O   UNL     1     -11.314   7.198  73.849  1.00  0.00    -0.292 OA 
HETATM   52  H   UNL     1     -11.985   7.186  74.520  1.00  0.00     0.000 HD 
ENDBRANCH  40  50
ENDBRANCH  37  38
ENDBRANCH  33  37
ENDBRANCH  23  24
ENDBRANCH  18  23
TORSDOF 6
ENDMDL
MODEL       11
REMARK 921   NORMALIZED FREE ENERGY PREDICTED BY IDOCK:   -7.80 KCAL/MOL
REMARK 922        TOTAL FREE ENERGY PREDICTED BY IDOCK:  -12.52 KCAL/MOL
REMARK 923 INTER-LIGAND FREE ENERGY PREDICTED BY IDOCK:  -11.31 KCAL/MOL
REMARK 924 INTRA-LIGAND FREE ENERGY PREDICTED BY IDOCK:   -1.21 KCAL/MOL
REMARK 927      BINDING AFFINITY PREDICTED BY RF-SCORE:    0.00 PKD
ROOT
HETATM    1  C   UNL     1      -7.930   5.695  68.859  1.00  0.00    -0.097 C  
HETATM    2  C   UNL     1      -8.344   6.467  70.173  1.00  0.00    -0.134 C  
HETATM    3  C   UNL     1      -7.087   6.626  71.025  1.00  0.00    -0.072 C  
HETATM    4  C   UNL     1      -7.432   7.184  72.390  1.00  0.00    -0.088 C  
HETATM    5  C   UNL     1      -8.228   6.217  73.234  1.00  0.00    -0.113 C  
HETATM    6  C   UNL     1      -9.315   5.336  72.534  1.00  0.00    -0.154 C  
HETATM    7  C   UNL     1      -9.335   5.470  70.918  1.00  0.00    -0.191 C  
HETATM    8  C   UNL     1     -10.728   5.588  73.133  1.00  0.00    -0.308 C  
HETATM    9  C   UNL     1      -9.016   3.935  73.194  1.00  0.00    -0.106 C  
HETATM   10  O   UNL     1      -9.058   3.773  74.419  1.00  0.00    -0.089 OA 
HETATM   11  O   UNL     1      -8.696   2.891  72.429  1.00  0.00    -0.073 OA 
HETATM   12  C   UNL     1     -10.691   5.465  70.184  1.00  0.00    -0.295 C  
HETATM   13  C   UNL     1     -11.244   6.833  69.842  1.00  0.00    -0.379 C  
HETATM   14  C   UNL     1     -10.362   7.874  69.140  1.00  0.00    -0.225 C  
HETATM   15  C   UNL     1     -10.363   7.950  67.600  1.00  0.00    -0.307 C  
HETATM   16  C   UNL     1     -10.133   9.443  67.340  1.00  0.00    -0.271 C  
HETATM   17  C   UNL     1      -9.965   9.936  66.106  1.00  0.00    -0.331 C  
HETATM   18  C   UNL     1     -10.283  10.257  68.647  1.00  0.00    -0.180 C  
HETATM   19  C   UNL     1      -8.938  10.456  69.384  1.00  0.00    -0.168 C  
HETATM   20  C   UNL     1      -8.882   7.883  69.629  1.00  0.00    -0.138 C  
HETATM   21  C   UNL     1     -11.081   9.217  69.400  1.00  0.00    -0.063 C  
HETATM   22  C   UNL     1      -8.556   9.249  70.299  1.00  0.00    -0.234 C  
ENDROOT
BRANCH  18  23
HETATM   23  O   UNL     1     -10.994  11.454  68.338  1.00  0.00    -0.186 OA 
BRANCH  23  24
HETATM   24  C   UNL     1     -11.173  12.547  69.258  1.00  0.00    -0.194 C  
HETATM   25  O   UNL     1     -12.323  12.319  70.086  1.00  0.00    -0.235 OA 
HETATM   26  C   UNL     1     -12.423  13.273  71.160  1.00  0.00    -0.308 C  
HETATM   27  C   UNL     1     -12.705  14.643  70.564  1.00  0.00    -0.337 C  
HETATM   28  H   UNL     1     -11.421  16.445  68.272  1.00  0.00     0.000 HD 
HETATM   29  C   UNL     1     -11.580  15.073  69.628  1.00  0.00    -0.304 C  
HETATM   30  H   UNL     1     -13.053  16.513  71.190  1.00  0.00     0.000 HD 
HETATM   31  O   UNL     1     -12.877  15.658  71.562  1.00  0.00    -0.425 OA 
HETATM   32  O   UNL     1     -12.122  16.178  68.855  1.00  0.00    -0.219 OA 
HETATM   33  C   UNL     1     -11.105  13.986  68.655  1.00  0.00    -0.264 C  
BRANCH  26  34
HETATM   34  C   UNL     1     -13.566  12.850  72.091  1.00  0.00    -0.495 C  
HETATM   35  H   UNL     1     -14.369  11.165  72.701  1.00  0.00     0.000 HD 
HETATM   36  O   UNL     1     -13.661  11.427  72.124  1.00  0.00    -0.297 OA 
ENDBRANCH  26  34
BRANCH  33  37
HETATM   37  O   UNL     1      -9.757  14.190  68.165  1.00  0.00    -0.212 OA 
BRANCH  37  38
HETATM   38  C   UNL     1      -9.476  15.273  67.258  1.00  0.00    -0.208 C  
HETATM   39  O   UNL     1      -9.247  16.455  67.999  1.00  0.00    -0.201 OA 
HETATM   40  C   UNL     1      -9.097  17.676  67.280  1.00  0.00    -0.237 C  
HETATM   41  C   UNL     1     -10.161  17.907  66.202  1.00  0.00    -0.343 C  
HETATM   42  H   UNL     1     -11.031  14.411  64.490  1.00  0.00     0.000 HD 
HETATM   43  O   UNL     1     -10.393  14.325  65.189  1.00  0.00    -0.371 OA 
HETATM   44  O   UNL     1      -9.795  19.027  65.388  1.00  0.00    -0.130 OA 
HETATM   45  C   UNL     1     -10.301  16.683  65.316  1.00  0.00    -0.092 C  
HETATM   46  H   UNL     1     -11.493  16.088  63.847  1.00  0.00     0.000 HD 
HETATM   47  O   UNL     1     -11.405  16.855  64.401  1.00  0.00    -1.133 OA 
HETATM   48  H   UNL     1     -10.455  19.171  64.720  1.00  0.00     0.000 HD 
HETATM   49  C   UNL     1     -10.512  15.411  66.123  1.00  0.00    -0.316 C  
BRANCH  40  50
HETATM   50  C   UNL     1      -9.189  18.806  68.324  1.00  0.00    -0.331 C  
HETATM   51  O   UNL     1     -10.427  18.786  69.039  1.00  0.00    -0.451 OA 
HETATM   52  H   UNL     1     -10.484  19.483  69.682  1.00  0.00     0.000 HD 
ENDBRANCH  40  50
ENDBRANCH  37  38
ENDBRANCH  33  37
ENDBRANCH  23  24
ENDBRANCH  18  23
TORSDOF 6
ENDMDL
MODEL       12
REMARK 921   NORMALIZED FREE ENERGY PREDICTED BY IDOCK:   -7.79 KCAL/MOL
REMARK 922        TOTAL FREE ENERGY PREDICTED BY IDOCK:  -12.51 KCAL/MOL
REMARK 923 INTER-LIGAND FREE ENERGY PREDICTED BY IDOCK:  -10.87 KCAL/MOL
REMARK 924 INTRA-LIGAND FREE ENERGY PREDICTED BY IDOCK:   -1.64 KCAL/MOL
REMARK 927      BINDING AFFINITY PREDICTED BY RF-SCORE:    0.00 PKD
ROOT
HETATM    1  C   UNL     1      -7.329   5.073  67.703  1.00  0.00    -0.078 C  
HETATM    2  C   UNL     1      -8.457   5.417  66.652  1.00  0.00    -0.108 C  
HETATM    3  C   UNL     1      -9.694   4.605  67.028  1.00  0.00    -0.216 C  
HETATM    4  C   UNL     1     -10.760   4.728  65.958  1.00  0.00    -0.211 C  
HETATM    5  C   UNL     1     -10.366   4.062  64.661  1.00  0.00    -0.220 C  
HETATM    6  C   UNL     1      -8.877   4.165  64.192  1.00  0.00    -0.133 C  
HETATM    7  C   UNL     1      -7.889   4.861  65.274  1.00  0.00    -0.091 C  
HETATM    8  C   UNL     1      -8.761   4.857  62.804  1.00  0.00    -0.120 C  
HETATM    9  C   UNL     1      -8.615   2.675  63.746  1.00  0.00    -0.086 C  
HETATM   10  O   UNL     1      -9.301   2.129  62.874  1.00  0.00    -0.090 OA 
HETATM   11  O   UNL     1      -7.642   1.967  64.320  1.00  0.00    -0.058 OA 
HETATM   12  C   UNL     1      -6.774   5.800  64.772  1.00  0.00    -0.047 C  
HETATM   13  C   UNL     1      -7.106   7.277  64.816  1.00  0.00    -0.064 C  
HETATM   14  C   UNL     1      -7.678   7.907  66.093  1.00  0.00    -0.091 C  
HETATM   15  C   UNL     1      -6.713   8.520  67.129  1.00  0.00    -0.063 C  
HETATM   16  C   UNL     1      -7.539   9.673  67.710  1.00  0.00    -0.087 C  
HETATM   17  C   UNL     1      -7.102  10.421  68.732  1.00  0.00    -0.074 C  
HETATM   18  C   UNL     1      -8.810   9.921  66.862  1.00  0.00    -0.134 C  
HETATM   19  C   UNL     1     -10.037   9.138  67.386  1.00  0.00    -0.289 C  
HETATM   20  C   UNL     1      -8.693   6.997  66.850  1.00  0.00    -0.122 C  
HETATM   21  C   UNL     1      -8.312   9.231  65.612  1.00  0.00    -0.128 C  
HETATM   22  C   UNL     1     -10.096   7.668  66.862  1.00  0.00    -0.348 C  
ENDROOT
BRANCH  18  23
HETATM   23  O   UNL     1      -8.988  11.330  66.742  1.00  0.00    -0.161 OA 
BRANCH  23  24
HETATM   24  C   UNL     1     -10.269  11.971  66.593  1.00  0.00    -0.204 C  
HETATM   25  O   UNL     1     -10.590  12.126  65.202  1.00  0.00    -0.267 OA 
HETATM   26  C   UNL     1     -11.945  12.566  64.998  1.00  0.00    -0.427 C  
HETATM   27  C   UNL     1     -12.080  13.983  65.532  1.00  0.00    -0.410 C  
HETATM   28  H   UNL     1     -11.364  15.473  68.256  1.00  0.00     0.000 HD 
HETATM   29  C   UNL     1     -11.766  14.035  67.024  1.00  0.00    -0.398 C  
HETATM   30  H   UNL     1     -13.471  15.418  65.659  1.00  0.00     0.000 HD 
HETATM   31  O   UNL     1     -13.387  14.533  65.326  1.00  0.00    -0.464 OA 
HETATM   32  O   UNL     1     -11.560  15.441  67.327  1.00  0.00    -0.243 OA 
HETATM   33  C   UNL     1     -10.509  13.260  67.443  1.00  0.00    -0.243 C  
BRANCH  26  34
HETATM   34  C   UNL     1     -12.255  12.530  63.496  1.00  0.00    -0.558 C  
HETATM   35  H   UNL     1     -13.662  11.798  62.339  1.00  0.00     0.000 HD 
HETATM   36  O   UNL     1     -13.470  11.819  63.269  1.00  0.00    -0.419 OA 
ENDBRANCH  26  34
BRANCH  33  37
HETATM   37  O   UNL     1     -10.502  12.869  68.838  1.00  0.00    -0.191 OA 
BRANCH  37  38
HETATM   38  C   UNL     1     -11.726  12.881  69.596  1.00  0.00    -0.299 C  
HETATM   39  O   UNL     1     -11.790  14.070  70.360  1.00  0.00    -0.302 OA 
HETATM   40  C   UNL     1     -12.856  14.207  71.294  1.00  0.00    -0.359 C  
HETATM   41  C   UNL     1     -13.079  12.977  72.181  1.00  0.00    -0.360 C  
HETATM   42  H   UNL     1     -12.437   9.696  70.006  1.00  0.00     0.000 HD 
HETATM   43  O   UNL     1     -12.286  10.494  69.514  1.00  0.00    -0.191 OA 
HETATM   44  O   UNL     1     -14.302  13.120  72.912  1.00  0.00    -0.553 OA 
HETATM   45  C   UNL     1     -13.155  11.717  71.339  1.00  0.00    -0.243 C  
HETATM   46  H   UNL     1     -13.263   9.763  71.666  1.00  0.00     0.000 HD 
HETATM   47  O   UNL     1     -13.216  10.552  72.192  1.00  0.00    -0.458 OA 
HETATM   48  H   UNL     1     -14.440  12.357  73.462  1.00  0.00     0.000 HD 
HETATM   49  C   UNL     1     -11.970  11.585  70.395  1.00  0.00    -0.368 C  
BRANCH  40  50
HETATM   50  C   UNL     1     -12.494  15.410  72.188  1.00  0.00    -0.373 C  
HETATM   51  O   UNL     1     -13.647  16.010  72.784  1.00  0.00    -0.521 OA 
HETATM   52  H   UNL     1     -13.424  16.751  73.335  1.00  0.00     0.000 HD 
ENDBRANCH  40  50
ENDBRANCH  37  38
ENDBRANCH  33  37
ENDBRANCH  23  24
ENDBRANCH  18  23
TORSDOF 6
ENDMDL
MODEL       13
REMARK 921   NORMALIZED FREE ENERGY PREDICTED BY IDOCK:   -7.73 KCAL/MOL
REMARK 922        TOTAL FREE ENERGY PREDICTED BY IDOCK:  -12.42 KCAL/MOL
REMARK 923 INTER-LIGAND FREE ENERGY PREDICTED BY IDOCK:  -10.69 KCAL/MOL
REMARK 924 INTRA-LIGAND FREE ENERGY PREDICTED BY IDOCK:   -1.73 KCAL/MOL
REMARK 927      BINDING AFFINITY PREDICTED BY RF-SCORE:    0.00 PKD
ROOT
HETATM    1  C   UNL     1     -11.025   5.449  72.490  1.00  0.00    -0.312 C  
HETATM    2  C   UNL     1      -9.880   5.954  71.526  1.00  0.00    -0.201 C  
HETATM    3  C   UNL     1      -9.579   4.824  70.544  1.00  0.00    -0.258 C  
HETATM    4  C   UNL     1      -8.358   5.153  69.708  1.00  0.00    -0.093 C  
HETATM    5  C   UNL     1      -7.083   5.175  70.518  1.00  0.00    -0.060 C  
HETATM    6  C   UNL     1      -7.129   5.765  71.966  1.00  0.00    -0.087 C  
HETATM    7  C   UNL     1      -8.621   6.142  72.480  1.00  0.00    -0.121 C  
HETATM    8  C   UNL     1      -6.162   6.973  72.123  1.00  0.00    -0.041 C  
HETATM    9  C   UNL     1      -6.292   4.678  72.744  1.00  0.00    -0.037 C  
HETATM   10  O   UNL     1      -5.127   4.409  72.428  1.00  0.00    -0.003 OA 
HETATM   11  O   UNL     1      -6.840   4.014  73.761  1.00  0.00    -0.053 OA 
HETATM   12  C   UNL     1      -8.819   7.412  73.332  1.00  0.00    -0.212 C  
HETATM   13  C   UNL     1      -9.273   8.638  72.567  1.00  0.00    -0.204 C  
HETATM   14  C   UNL     1     -10.467   8.555  71.606  1.00  0.00    -0.345 C  
HETATM   15  C   UNL     1     -11.882   8.874  72.131  1.00  0.00    -0.417 C  
HETATM   16  C   UNL     1     -12.561   9.490  70.903  1.00  0.00    -0.251 C  
HETATM   17  C   UNL     1     -13.858   9.825  70.897  1.00  0.00     0.126 C  
HETATM   18  C   UNL     1     -11.523   9.796  69.797  1.00  0.00    -0.098 C  
HETATM   19  C   UNL     1     -11.366   8.635  68.789  1.00  0.00     0.613 C  
HETATM   20  C   UNL     1     -10.535   7.228  70.792  1.00  0.00    -0.224 C  
HETATM   21  C   UNL     1     -10.312   9.799  70.702  1.00  0.00    -0.330 C  
HETATM   22  C   UNL     1     -10.373   7.531  69.274  1.00  0.00    -0.209 C  
ENDROOT
BRANCH  18  23
HETATM   23  O   UNL     1     -11.852  11.061  69.227  1.00  0.00    -0.298 OA 
BRANCH  23  24
HETATM   24  C   UNL     1     -11.530  12.327  69.833  1.00  0.00    -0.114 C  
HETATM   25  O   UNL     1     -12.574  12.729  70.732  1.00  0.00    -0.310 OA 
HETATM   26  C   UNL     1     -12.208  13.876  71.521  1.00  0.00    -0.142 C  
HETATM   27  C   UNL     1     -12.082  15.077  70.597  1.00  0.00    -0.321 C  
HETATM   28  H   UNL     1     -10.564  15.708  67.867  1.00  0.00     0.000 HD 
HETATM   29  C   UNL     1     -11.006  14.842  69.541  1.00  0.00    -0.273 C  
HETATM   30  H   UNL     1     -11.692  17.038  70.721  1.00  0.00     0.000 HD 
HETATM   31  O   UNL     1     -11.771  16.288  71.298  1.00  0.00    -0.435 OA 
HETATM   32  O   UNL     1     -11.235  15.855  68.524  1.00  0.00    -0.323 OA 
HETATM   33  C   UNL     1     -11.055  13.462  68.871  1.00  0.00    -0.266 C  
BRANCH  26  34
HETATM   34  C   UNL     1     -13.299  14.123  72.570  1.00  0.00    -0.518 C  
HETATM   35  H   UNL     1     -14.776  13.105  73.369  1.00  0.00     0.000 HD 
HETATM   36  O   UNL     1     -14.100  12.952  72.719  1.00  0.00    -0.483 OA 
ENDBRANCH  26  34
BRANCH  33  37
HETATM   37  O   UNL     1      -9.792  13.047  68.296  1.00  0.00    -0.223 OA 
BRANCH  37  38
HETATM   38  C   UNL     1      -9.708  12.724  66.896  1.00  0.00    -0.234 C  
HETATM   39  O   UNL     1     -10.811  13.296  66.219  1.00  0.00    -0.282 OA 
HETATM   40  C   UNL     1     -10.994  12.969  64.844  1.00  0.00    -0.307 C  
HETATM   41  C   UNL     1     -10.879  11.473  64.532  1.00  0.00    -0.327 C  
HETATM   42  H   UNL     1      -8.024   9.900  66.832  1.00  0.00     0.000 HD 
HETATM   43  O   UNL     1      -8.160  10.825  67.001  1.00  0.00    -0.117 OA 
HETATM   44  O   UNL     1     -10.843  11.273  63.115  1.00  0.00    -0.746 OA 
HETATM   45  C   UNL     1      -9.615  10.894  65.141  1.00  0.00    -0.243 C  
HETATM   46  H   UNL     1      -8.800   9.098  65.350  1.00  0.00     0.000 HD 
HETATM   47  O   UNL     1      -9.591   9.460  64.968  1.00  0.00    -0.228 OA 
HETATM   48  H   UNL     1     -10.772  10.345  62.921  1.00  0.00     0.000 HD 
HETATM   49  C   UNL     1      -9.488  11.223  66.620  1.00  0.00    -0.186 C  
BRANCH  40  50
HETATM   50  C   UNL     1     -12.410  13.450  64.471  1.00  0.00    -0.360 C  
HETATM   51  O   UNL     1     -12.451  14.074  63.185  1.00  0.00    -1.137 OA 
HETATM   52  H   UNL     1     -13.324  14.371  62.956  1.00  0.00     0.000 HD 
ENDBRANCH  40  50
ENDBRANCH  37  38
ENDBRANCH  33  37
ENDBRANCH  23  24
ENDBRANCH  18  23
TORSDOF 6
ENDMDL
MODEL       14
REMARK 921   NORMALIZED FREE ENERGY PREDICTED BY IDOCK:   -7.54 KCAL/MOL
REMARK 922        TOTAL FREE ENERGY PREDICTED BY IDOCK:  -12.16 KCAL/MOL
REMARK 923 INTER-LIGAND FREE ENERGY PREDICTED BY IDOCK:  -10.87 KCAL/MOL
REMARK 924 INTRA-LIGAND FREE ENERGY PREDICTED BY IDOCK:   -1.29 KCAL/MOL
REMARK 927      BINDING AFFINITY PREDICTED BY RF-SCORE:    0.00 PKD
ROOT
HETATM    1  C   UNL     1      -7.716   8.511  64.465  1.00  0.00    -0.126 C  
HETATM    2  C   UNL     1      -7.634   8.748  66.024  1.00  0.00    -0.093 C  
HETATM    3  C   UNL     1      -6.155   8.774  66.405  1.00  0.00    -0.060 C  
HETATM    4  C   UNL     1      -5.992   8.803  67.912  1.00  0.00    -0.050 C  
HETATM    5  C   UNL     1      -6.435   7.519  68.573  1.00  0.00    -0.045 C  
HETATM    6  C   UNL     1      -7.700   6.789  68.013  1.00  0.00    -0.112 C  
HETATM    7  C   UNL     1      -8.294   7.445  66.654  1.00  0.00    -0.124 C  
HETATM    8  C   UNL     1      -8.807   6.651  69.097  1.00  0.00    -0.129 C  
HETATM    9  C   UNL     1      -7.186   5.299  67.996  1.00  0.00    -0.071 C  
HETATM   10  O   UNL     1      -6.789   4.738  69.024  1.00  0.00    -0.048 OA 
HETATM   11  O   UNL     1      -7.159   4.614  66.852  1.00  0.00    -0.071 OA 
HETATM   12  C   UNL     1      -9.824   7.513  66.463  1.00  0.00    -0.226 C  
HETATM   13  C   UNL     1     -10.462   8.835  66.831  1.00  0.00    -0.319 C  
HETATM   14  C   UNL     1      -9.887  10.152  66.290  1.00  0.00    -0.288 C  
HETATM   15  C   UNL     1     -10.437  10.730  64.971  1.00  0.00    -0.307 C  
HETATM   16  C   UNL     1     -10.314  12.242  65.194  1.00  0.00    -0.316 C  
HETATM   17  C   UNL     1     -10.597  13.131  64.232  1.00  0.00    -0.432 C  
HETATM   18  C   UNL     1      -9.989  12.554  66.674  1.00  0.00    -0.236 C  
HETATM   19  C   UNL     1      -8.470  12.666  66.939  1.00  0.00    -0.118 C  
HETATM   20  C   UNL     1      -8.330  10.185  66.227  1.00  0.00    -0.130 C  
HETATM   21  C   UNL     1     -10.466  11.233  67.231  1.00  0.00    -0.249 C  
HETATM   22  C   UNL     1      -7.786  11.283  67.186  1.00  0.00    -0.151 C  
ENDROOT
BRANCH  18  23
HETATM   23  O   UNL     1     -10.763  13.687  67.063  1.00  0.00    -0.275 OA 
BRANCH  23  24
HETATM   24  C   UNL     1     -10.705  14.295  68.367  1.00  0.00    -0.251 C  
HETATM   25  O   UNL     1     -11.897  13.997  69.109  1.00  0.00    -0.307 OA 
HETATM   26  C   UNL     1     -11.800  14.399  70.488  1.00  0.00    -0.299 C  
HETATM   27  C   UNL     1     -11.740  15.918  70.545  1.00  0.00    -0.373 C  
HETATM   28  H   UNL     1     -10.014  18.190  69.127  1.00  0.00     0.000 HD 
HETATM   29  C   UNL     1     -10.522  16.444  69.792  1.00  0.00    -0.246 C  
HETATM   30  H   UNL     1     -11.658  17.370  71.922  1.00  0.00     0.000 HD 
HETATM   31  O   UNL     1     -11.695  16.422  71.886  1.00  0.00    -0.493 OA 
HETATM   32  O   UNL     1     -10.773  17.862  69.596  1.00  0.00     0.279 OA 
HETATM   33  C   UNL     1     -10.289  15.799  68.419  1.00  0.00    -0.233 C  
BRANCH  26  34
HETATM   34  C   UNL     1     -13.033  13.885  71.241  1.00  0.00    -0.341 C  
HETATM   35  H   UNL     1     -13.796  12.141  71.719  1.00  0.00     0.000 HD 
HETATM   36  O   UNL     1     -13.032  12.459  71.253  1.00  0.00    -0.319 OA 
ENDBRANCH  26  34
BRANCH  33  37
HETATM   37  O   UNL     1      -8.918  15.888  67.957  1.00  0.00    -0.180 OA 
BRANCH  37  38
HETATM   38  C   UNL     1      -8.423  17.123  67.408  1.00  0.00    -0.191 C  
HETATM   39  O   UNL     1      -7.674  17.806  68.394  1.00  0.00    -0.258 OA 
HETATM   40  C   UNL     1      -7.219  19.123  68.096  1.00  0.00    -0.266 C  
HETATM   41  C   UNL     1      -8.291  20.039  67.495  1.00  0.00    -0.334 C  
HETATM   42  H   UNL     1     -10.604  17.881  65.065  1.00  0.00     0.000 HD 
HETATM   43  O   UNL     1      -9.934  17.358  65.490  1.00  0.00    -0.555 OA 
HETATM   44  O   UNL     1      -7.688  21.246  67.019  1.00  0.00    -0.733 OA 
HETATM   45  C   UNL     1      -8.995  19.352  66.339  1.00  0.00    -0.363 C  
HETATM   46  H   UNL     1     -10.539  19.733  65.155  1.00  0.00     0.000 HD 
HETATM   47  O   UNL     1     -10.099  20.162  65.878  1.00  0.00    -0.463 OA 
HETATM   48  H   UNL     1      -8.352  21.815  66.646  1.00  0.00     0.000 HD 
HETATM   49  C   UNL     1      -9.510  17.973  66.718  1.00  0.00    -0.293 C  
BRANCH  40  50
HETATM   50  C   UNL     1      -6.737  19.725  69.431  1.00  0.00    -0.347 C  
HETATM   51  O   UNL     1      -5.676  20.667  69.251  1.00  0.00    -0.330 OA 
HETATM   52  H   UNL     1      -5.379  21.038  70.073  1.00  0.00     0.000 HD 
ENDBRANCH  40  50
ENDBRANCH  37  38
ENDBRANCH  33  37
ENDBRANCH  23  24
ENDBRANCH  18  23
TORSDOF 6
ENDMDL
MODEL       15
REMARK 921   NORMALIZED FREE ENERGY PREDICTED BY IDOCK:   -7.46 KCAL/MOL
REMARK 922        TOTAL FREE ENERGY PREDICTED BY IDOCK:  -12.06 KCAL/MOL
REMARK 923 INTER-LIGAND FREE ENERGY PREDICTED BY IDOCK:  -10.69 KCAL/MOL
REMARK 924 INTRA-LIGAND FREE ENERGY PREDICTED BY IDOCK:   -1.36 KCAL/MOL
REMARK 927      BINDING AFFINITY PREDICTED BY RF-SCORE:    0.00 PKD
ROOT
HETATM    1  C   UNL     1      -7.948   6.545  68.903  1.00  0.00    -0.111 C  
HETATM    2  C   UNL     1      -8.274   7.718  69.909  1.00  0.00    -0.125 C  
HETATM    3  C   UNL     1      -7.233   7.664  71.025  1.00  0.00    -0.058 C  
HETATM    4  C   UNL     1      -7.588   8.634  72.134  1.00  0.00    -0.061 C  
HETATM    5  C   UNL     1      -8.834   8.231  72.887  1.00  0.00    -0.302 C  
HETATM    6  C   UNL     1     -10.023   7.609  72.083  1.00  0.00    -0.232 C  
HETATM    7  C   UNL     1      -9.689   7.326  70.521  1.00  0.00    -0.176 C  
HETATM    8  C   UNL     1     -11.319   8.456  72.233  1.00  0.00    -0.448 C  
HETATM    9  C   UNL     1     -10.407   6.405  73.026  1.00  0.00    -0.214 C  
HETATM   10  O   UNL     1     -10.735   6.583  74.205  1.00  0.00    -0.207 OA 
HETATM   11  O   UNL     1     -10.371   5.155  72.562  1.00  0.00    -0.189 OA 
HETATM   12  C   UNL     1     -10.783   7.581  69.464  1.00  0.00    -0.222 C  
HETATM   13  C   UNL     1     -10.701   8.920  68.762  1.00  0.00    -0.123 C  
HETATM   14  C   UNL     1      -9.376   9.398  68.154  1.00  0.00    -0.142 C  
HETATM   15  C   UNL     1      -9.062   9.076  66.679  1.00  0.00    -0.196 C  
HETATM   16  C   UNL     1      -8.237  10.292  66.241  1.00  0.00    -0.131 C  
HETATM   17  C   UNL     1      -7.668  10.371  65.031  1.00  0.00    -0.095 C  
HETATM   18  C   UNL     1      -8.307  11.414  67.304  1.00  0.00    -0.149 C  
HETATM   19  C   UNL     1      -7.150  11.340  68.327  1.00  0.00    -0.074 C  
HETATM   20  C   UNL     1      -8.122   9.044  69.010  1.00  0.00    -0.107 C  
HETATM   21  C   UNL     1      -9.565  10.923  67.982  1.00  0.00    -0.170 C  
HETATM   22  C   UNL     1      -7.432  10.349  69.502  1.00  0.00    -0.148 C  
ENDROOT
BRANCH  18  23
HETATM   23  O   UNL     1      -8.439  12.658  66.619  1.00  0.00    -0.110 OA 
BRANCH  23  24
HETATM   24  C   UNL     1      -9.700  13.240  66.240  1.00  0.00    -0.268 C  
HETATM   25  O   UNL     1     -10.259  12.536  65.121  1.00  0.00    -0.281 OA 
HETATM   26  C   UNL     1     -11.611  12.940  64.838  1.00  0.00    -0.327 C  
HETATM   27  C   UNL     1     -11.593  14.381  64.352  1.00  0.00    -0.334 C  
HETATM   28  H   UNL     1     -10.345  17.124  65.385  1.00  0.00     0.000 HD 
HETATM   29  C   UNL     1     -11.016  15.308  65.416  1.00  0.00    -0.372 C  
HETATM   30  H   UNL     1     -12.883  15.761  63.687  1.00  0.00     0.000 HD 
HETATM   31  O   UNL     1     -12.894  14.861  63.991  1.00  0.00    -0.701 OA 
HETATM   32  O   UNL     1     -10.705  16.546  64.722  1.00  0.00    -0.719 OA 
HETATM   33  C   UNL     1      -9.735  14.794  66.088  1.00  0.00    -0.312 C  
BRANCH  26  34
HETATM   34  C   UNL     1     -12.186  12.018  63.755  1.00  0.00    -0.498 C  
HETATM   35  H   UNL     1     -11.480  10.774  62.410  1.00  0.00     0.000 HD 
HETATM   36  O   UNL     1     -11.125  11.345  63.081  1.00  0.00    -0.235 OA 
ENDBRANCH  26  34
BRANCH  33  37
HETATM   37  O   UNL     1      -9.493  15.366  67.397  1.00  0.00    -0.203 OA 
BRANCH  37  38
HETATM   38  C   UNL     1      -8.853  16.650  67.516  1.00  0.00    -0.196 C  
HETATM   39  O   UNL     1      -7.527  16.471  67.973  1.00  0.00    -0.149 OA 
HETATM   40  C   UNL     1      -6.768  17.632  68.297  1.00  0.00    -0.200 C  
HETATM   41  C   UNL     1      -7.514  18.647  69.172  1.00  0.00    -0.147 C  
HETATM   42  H   UNL     1     -11.344  18.729  68.061  1.00  0.00     0.000 HD 
HETATM   43  O   UNL     1     -10.835  18.095  67.569  1.00  0.00    -0.389 OA 
HETATM   44  O   UNL     1      -6.767  19.866  69.247  1.00  0.00    -0.333 OA 
HETATM   45  C   UNL     1      -8.885  18.946  68.596  1.00  0.00    -0.338 C  
HETATM   46  H   UNL     1     -10.492  19.972  69.142  1.00  0.00     0.000 HD 
HETATM   47  O   UNL     1      -9.633  19.785  69.503  1.00  0.00    -0.196 OA 
HETATM   48  H   UNL     1      -7.228  20.495  69.790  1.00  0.00     0.000 HD 
HETATM   49  C   UNL     1      -9.679  17.679  68.315  1.00  0.00    -0.315 C  
BRANCH  40  50
HETATM   50  C   UNL     1      -5.522  17.136  69.057  1.00  0.00    -0.150 C  
HETATM   51  O   UNL     1      -5.584  17.433  70.454  1.00  0.00    -0.237 OA 
HETATM   52  H   UNL     1      -4.815  17.128  70.922  1.00  0.00     0.000 HD 
ENDBRANCH  40  50
ENDBRANCH  37  38
ENDBRANCH  33  37
ENDBRANCH  23  24
ENDBRANCH  18  23
TORSDOF 6
ENDMDL
MODEL       16
REMARK 921   NORMALIZED FREE ENERGY PREDICTED BY IDOCK:   -7.41 KCAL/MOL
REMARK 922        TOTAL FREE ENERGY PREDICTED BY IDOCK:  -12.00 KCAL/MOL
REMARK 923 INTER-LIGAND FREE ENERGY PREDICTED BY IDOCK:  -10.32 KCAL/MOL
REMARK 924 INTRA-LIGAND FREE ENERGY PREDICTED BY IDOCK:   -1.68 KCAL/MOL
REMARK 927      BINDING AFFINITY PREDICTED BY RF-SCORE:    0.00 PKD
ROOT
HETATM    1  C   UNL     1     -10.467  15.600  70.260  1.00  0.00    -0.277 C  
HETATM    2  C   UNL     1      -9.802  15.355  68.848  1.00  0.00    -0.216 C  
HETATM    3  C   UNL     1      -8.384  15.920  68.907  1.00  0.00    -0.226 C  
HETATM    4  C   UNL     1      -7.743  15.900  67.534  1.00  0.00    -0.183 C  
HETATM    5  C   UNL     1      -8.394  16.864  66.570  1.00  0.00    -0.315 C  
HETATM    6  C   UNL     1      -9.948  17.037  66.624  1.00  0.00    -0.307 C  
HETATM    7  C   UNL     1     -10.659  16.250  67.851  1.00  0.00    -0.318 C  
HETATM    8  C   UNL     1     -10.611  16.669  65.265  1.00  0.00    -0.224 C  
HETATM    9  C   UNL     1     -10.064  18.607  66.536  1.00  0.00    -0.394 C  
HETATM   10  O   UNL     1      -9.596  19.240  65.582  1.00  0.00    -0.324 OA 
HETATM   11  O   UNL     1     -10.668  19.288  67.511  1.00  0.00    -0.463 OA 
HETATM   12  C   UNL     1     -12.025  15.573  67.614  1.00  0.00     0.242 C  
HETATM   13  C   UNL     1     -11.965  14.091  67.307  1.00  0.00    -0.448 C  
HETATM   14  C   UNL     1     -11.148  13.146  68.197  1.00  0.00    -0.284 C  
HETATM   15  C   UNL     1     -11.837  12.446  69.387  1.00  0.00    -0.365 C  
HETATM   16  C   UNL     1     -11.093  11.108  69.462  1.00  0.00    -0.311 C  
HETATM   17  C   UNL     1     -11.317  10.220  70.439  1.00  0.00    -0.410 C  
HETATM   18  C   UNL     1     -10.214  10.898  68.206  1.00  0.00    -0.173 C  
HETATM   19  C   UNL     1      -8.766  11.404  68.400  1.00  0.00    -0.157 C  
HETATM   20  C   UNL     1      -9.803  13.752  68.700  1.00  0.00    -0.158 C  
HETATM   21  C   UNL     1     -10.943  11.887  67.326  1.00  0.00    -0.319 C  
HETATM   22  C   UNL     1      -8.609  12.935  68.129  1.00  0.00    -0.188 C  
ENDROOT
BRANCH  18  23
HETATM   23  O   UNL     1     -10.337   9.533  67.810  1.00  0.00    -0.208 OA 
BRANCH  23  24
HETATM   24  C   UNL     1      -9.257   8.750  67.269  1.00  0.00    -0.139 C  
HETATM   25  O   UNL     1      -9.261   8.817  65.835  1.00  0.00    -0.204 OA 
HETATM   26  C   UNL     1      -8.083   8.229  65.255  1.00  0.00    -0.142 C  
HETATM   27  C   UNL     1      -8.110   6.732  65.519  1.00  0.00    -0.128 C  
HETATM   28  H   UNL     1      -8.521   4.871  68.073  1.00  0.00     0.000 HD 
HETATM   29  C   UNL     1      -8.116   6.443  67.017  1.00  0.00    -0.112 C  
HETATM   30  H   UNL     1      -7.016   5.108  65.096  1.00  0.00     0.000 HD 
HETATM   31  O   UNL     1      -6.999   6.043  64.931  1.00  0.00    -0.052 OA 
HETATM   32  O   UNL     1      -8.516   5.051  67.140  1.00  0.00    -0.107 OA 
HETATM   33  C   UNL     1      -9.094   7.302  67.831  1.00  0.00    -0.132 C  
BRANCH  26  34
HETATM   34  C   UNL     1      -8.085   8.504  63.746  1.00  0.00    -0.154 C  
HETATM   35  H   UNL     1      -9.139   9.581  62.487  1.00  0.00     0.000 HD 
HETATM   36  O   UNL     1      -9.137   9.410  63.421  1.00  0.00    -0.198 OA 
ENDBRANCH  26  34
BRANCH  33  37
HETATM   37  O   UNL     1      -8.743   7.416  69.233  1.00  0.00    -0.136 OA 
BRANCH  37  38
HETATM   38  C   UNL     1      -9.364   6.553  70.203  1.00  0.00    -0.158 C  
HETATM   39  O   UNL     1     -10.703   6.961  70.403  1.00  0.00    -0.229 OA 
HETATM   40  C   UNL     1     -11.449   6.326  71.437  1.00  0.00    -0.293 C  
HETATM   41  C   UNL     1     -10.707   6.219  72.774  1.00  0.00    -0.242 C  
HETATM   42  H   UNL     1      -6.852   5.497  72.046  1.00  0.00     0.000 HD 
HETATM   43  O   UNL     1      -7.360   5.601  71.250  1.00  0.00    -0.080 OA 
HETATM   44  O   UNL     1     -11.436   5.370  73.668  1.00  0.00    -0.426 OA 
HETATM   45  C   UNL     1      -9.318   5.642  72.571  1.00  0.00    -0.142 C  
HETATM   46  H   UNL     1      -7.708   5.323  73.683  1.00  0.00     0.000 HD 
HETATM   47  O   UNL     1      -8.577   5.684  73.810  1.00  0.00    -0.119 OA 
HETATM   48  H   UNL     1     -10.976   5.304  74.497  1.00  0.00     0.000 HD 
HETATM   49  C   UNL     1      -8.540   6.384  71.496  1.00  0.00    -0.130 C  
BRANCH  40  50
HETATM   50  C   UNL     1     -12.720   7.175  71.636  1.00  0.00    -0.379 C  
HETATM   51  O   UNL     1     -12.635   8.020  72.787  1.00  0.00    -0.592 OA 
HETATM   52  H   UNL     1     -13.418   8.543  72.910  1.00  0.00     0.000 HD 
ENDBRANCH  40  50
ENDBRANCH  37  38
ENDBRANCH  33  37
ENDBRANCH  23  24
ENDBRANCH  18  23
TORSDOF 6
ENDMDL
MODEL       17
REMARK 921   NORMALIZED FREE ENERGY PREDICTED BY IDOCK:   -7.30 KCAL/MOL
REMARK 922        TOTAL FREE ENERGY PREDICTED BY IDOCK:  -11.84 KCAL/MOL
REMARK 923 INTER-LIGAND FREE ENERGY PREDICTED BY IDOCK:  -10.21 KCAL/MOL
REMARK 924 INTRA-LIGAND FREE ENERGY PREDICTED BY IDOCK:   -1.63 KCAL/MOL
REMARK 927      BINDING AFFINITY PREDICTED BY RF-SCORE:    0.00 PKD
ROOT
HETATM    1  C   UNL     1      -6.373   9.176  64.525  1.00  0.00    -0.075 C  
HETATM    2  C   UNL     1      -6.822   9.118  66.039  1.00  0.00    -0.084 C  
HETATM    3  C   UNL     1      -5.611   9.498  66.889  1.00  0.00    -0.047 C  
HETATM    4  C   UNL     1      -5.901   9.279  68.360  1.00  0.00    -0.041 C  
HETATM    5  C   UNL     1      -6.053   7.818  68.715  1.00  0.00    -0.039 C  
HETATM    6  C   UNL     1      -6.783   6.876  67.702  1.00  0.00    -0.067 C  
HETATM    7  C   UNL     1      -7.153   7.583  66.290  1.00  0.00    -0.070 C  
HETATM    8  C   UNL     1      -8.037   6.212  68.340  1.00  0.00    -0.108 C  
HETATM    9  C   UNL     1      -5.813   5.633  67.719  1.00  0.00    -0.013 C  
HETATM   10  O   UNL     1      -5.558   5.022  68.764  1.00  0.00    -0.013 OA 
HETATM   11  O   UNL     1      -5.233   5.222  66.590  1.00  0.00    -0.008 OA 
HETATM   12  C   UNL     1      -8.493   7.238  65.610  1.00  0.00    -0.138 C  
HETATM   13  C   UNL     1      -9.618   8.219  65.866  1.00  0.00    -0.063 C  
HETATM   14  C   UNL     1      -9.394   9.725  65.672  1.00  0.00    -0.285 C  
HETATM   15  C   UNL     1      -9.709  10.364  64.304  1.00  0.00    -0.389 C  
HETATM   16  C   UNL     1     -10.172  11.772  64.694  1.00  0.00    -0.326 C  
HETATM   17  C   UNL     1     -10.455  12.710  63.780  1.00  0.00    -0.411 C  
HETATM   18  C   UNL     1     -10.406  11.870  66.221  1.00  0.00    -0.224 C  
HETATM   19  C   UNL     1      -9.155  12.366  66.984  1.00  0.00    -0.207 C  
HETATM   20  C   UNL     1      -7.990  10.222  66.132  1.00  0.00    -0.131 C  
HETATM   21  C   UNL     1     -10.545  10.385  66.463  1.00  0.00    -0.220 C  
HETATM   22  C   UNL     1      -8.144  11.221  67.314  1.00  0.00    -0.140 C  
ENDROOT
BRANCH  18  23
HETATM   23  O   UNL     1     -11.594  12.630  66.434  1.00  0.00    -0.341 OA 
BRANCH  23  24
HETATM   24  C   UNL     1     -11.627  13.904  67.103  1.00  0.00    -0.364 C  
HETATM   25  O   UNL     1     -10.934  14.893  66.326  1.00  0.00    -0.329 OA 
HETATM   26  C   UNL     1     -11.118  16.224  66.843  1.00  0.00     0.055 C  
HETATM   27  C   UNL     1     -10.430  16.317  68.196  1.00  0.00    -0.289 C  
HETATM   28  H   UNL     1     -10.447  14.614  70.889  1.00  0.00     0.000 HD 
HETATM   29  C   UNL     1     -11.029  15.320  69.182  1.00  0.00    -0.251 C  
HETATM   30  H   UNL     1     -10.081  17.686  69.616  1.00  0.00     0.000 HD 
HETATM   31  O   UNL     1     -10.511  17.627  68.772  1.00  0.00    -0.351 OA 
HETATM   32  O   UNL     1     -10.074  15.236  70.274  1.00  0.00    -0.203 OA 
HETATM   33  C   UNL     1     -11.244  13.909  68.617  1.00  0.00    -0.270 C  
BRANCH  26  34
HETATM   34  C   UNL     1     -10.500  17.226  65.860  1.00  0.00    -0.262 C  
HETATM   35  H   UNL     1     -10.578  17.573  63.929  1.00  0.00     0.000 HD 
HETATM   36  O   UNL     1     -10.961  16.953  64.538  1.00  0.00    -0.989 OA 
ENDBRANCH  26  34
BRANCH  33  37
HETATM   37  O   UNL     1     -12.252  13.144  69.324  1.00  0.00    -0.249 OA 
BRANCH  37  38
HETATM   38  C   UNL     1     -11.857  12.153  70.289  1.00  0.00    -0.254 C  
HETATM   39  O   UNL     1     -11.061  11.172  69.653  1.00  0.00    -0.251 OA 
HETATM   40  C   UNL     1     -10.691  10.020  70.405  1.00  0.00    -0.307 C  
HETATM   41  C   UNL     1     -11.848   9.369  71.172  1.00  0.00    -0.338 C  
HETATM   42  H   UNL     1     -14.254  12.241  72.540  1.00  0.00     0.000 HD 
HETATM   43  O   UNL     1     -13.530  12.585  72.031  1.00  0.00    -0.493 OA 
HETATM   44  O   UNL     1     -11.339   8.377  72.070  1.00  0.00    -0.294 OA 
HETATM   45  C   UNL     1     -12.613  10.408  71.970  1.00  0.00    -0.169 C  
HETATM   46  H   UNL     1     -14.264  10.462  73.067  1.00  0.00     0.000 HD 
HETATM   47  O   UNL     1     -13.785   9.812  72.568  1.00  0.00    -0.340 OA 
HETATM   48  H   UNL     1     -12.056   7.973  72.545  1.00  0.00     0.000 HD 
HETATM   49  C   UNL     1     -13.034  11.594  71.116  1.00  0.00    -0.212 C  
BRANCH  40  50
HETATM   50  C   UNL     1     -10.128   9.005  69.391  1.00  0.00    -0.198 C  
HETATM   51  O   UNL     1     -10.997   7.885  69.204  1.00  0.00    -0.417 OA 
HETATM   52  H   UNL     1     -10.650   7.259  68.579  1.00  0.00     0.000 HD 
ENDBRANCH  40  50
ENDBRANCH  37  38
ENDBRANCH  33  37
ENDBRANCH  23  24
ENDBRANCH  18  23
TORSDOF 6
ENDMDL
MODEL       18
REMARK 921   NORMALIZED FREE ENERGY PREDICTED BY IDOCK:   -7.26 KCAL/MOL
REMARK 922        TOTAL FREE ENERGY PREDICTED BY IDOCK:  -11.79 KCAL/MOL
REMARK 923 INTER-LIGAND FREE ENERGY PREDICTED BY IDOCK:  -10.10 KCAL/MOL
REMARK 924 INTRA-LIGAND FREE ENERGY PREDICTED BY IDOCK:   -1.69 KCAL/MOL
REMARK 927      BINDING AFFINITY PREDICTED BY RF-SCORE:    0.00 PKD
ROOT
HETATM    1  C   UNL     1      -8.311   8.072  73.781  1.00  0.00    -0.311 C  
HETATM    2  C   UNL     1      -9.258   7.514  72.646  1.00  0.00    -0.201 C  
HETATM    3  C   UNL     1     -10.697   7.682  73.128  1.00  0.00    -0.445 C  
HETATM    4  C   UNL     1     -11.661   6.995  72.182  1.00  0.00    -0.321 C  
HETATM    5  C   UNL     1     -11.528   5.491  72.201  1.00  0.00    -0.172 C  
HETATM    6  C   UNL     1     -10.097   4.870  72.327  1.00  0.00    -0.247 C  
HETATM    7  C   UNL     1      -8.924   5.960  72.587  1.00  0.00    -0.131 C  
HETATM    8  C   UNL     1      -9.758   3.964  71.110  1.00  0.00    -0.248 C  
HETATM    9  C   UNL     1     -10.366   3.748  73.402  1.00  0.00    -0.163 C  
HETATM   10  O   UNL     1     -11.203   2.857  73.213  1.00  0.00    -0.164 OA 
HETATM   11  O   UNL     1      -9.693   3.749  74.553  1.00  0.00    -0.111 OA 
HETATM   12  C   UNL     1      -7.556   5.764  71.902  1.00  0.00    -0.097 C  
HETATM   13  C   UNL     1      -7.360   6.543  70.619  1.00  0.00    -0.079 C  
HETATM   14  C   UNL     1      -7.672   8.045  70.567  1.00  0.00    -0.085 C  
HETATM   15  C   UNL     1      -6.550   9.060  70.864  1.00  0.00    -0.068 C  
HETATM   16  C   UNL     1      -6.925  10.243  69.964  1.00  0.00    -0.152 C  
HETATM   17  C   UNL     1      -6.252  11.401  69.989  1.00  0.00    -0.148 C  
HETATM   18  C   UNL     1      -8.038   9.843  68.966  1.00  0.00    -0.111 C  
HETATM   19  C   UNL     1      -9.456  10.150  69.500  1.00  0.00    -0.235 C  
HETATM   20  C   UNL     1      -8.934   8.458  71.383  1.00  0.00    -0.237 C  
HETATM   21  C   UNL     1      -7.815   8.351  69.059  1.00  0.00    -0.102 C  
HETATM   22  C   UNL     1     -10.021   9.025  70.425  1.00  0.00    -0.244 C  
ENDROOT
BRANCH  18  23
HETATM   23  O   UNL     1      -7.721  10.422  67.702  1.00  0.00    -0.093 OA 
BRANCH  23  24
HETATM   24  C   UNL     1      -8.358  10.055  66.464  1.00  0.00    -0.126 C  
HETATM   25  O   UNL     1      -7.474   9.251  65.668  1.00  0.00    -0.092 OA 
HETATM   26  C   UNL     1      -8.133   8.683  64.521  1.00  0.00    -0.162 C  
HETATM   27  C   UNL     1      -8.509   9.810  63.572  1.00  0.00    -0.184 C  
HETATM   28  H   UNL     1     -10.030  12.598  63.825  1.00  0.00     0.000 HD 
HETATM   29  C   UNL     1      -9.457  10.797  64.245  1.00  0.00    -0.264 C  
HETATM   30  H   UNL     1      -9.360  10.043  61.774  1.00  0.00     0.000 HD 
HETATM   31  O   UNL     1      -9.126   9.339  62.367  1.00  0.00    -0.251 OA 
HETATM   32  O   UNL     1      -9.439  11.984  63.406  1.00  0.00    -0.225 OA 
HETATM   33  C   UNL     1      -9.054  11.205  65.669  1.00  0.00    -0.205 C  
BRANCH  26  34
HETATM   34  C   UNL     1      -7.173   7.704  63.834  1.00  0.00    -0.081 C  
HETATM   35  H   UNL     1      -5.259   7.278  63.918  1.00  0.00     0.000 HD 
HETATM   36  O   UNL     1      -5.853   7.885  64.343  1.00  0.00    -0.050 OA 
ENDBRANCH  26  34
BRANCH  33  37
HETATM   37  O   UNL     1     -10.159  11.684  66.474  1.00  0.00    -0.201 OA 
BRANCH  37  38
HETATM   38  C   UNL     1     -10.318  13.095  66.712  1.00  0.00    -0.252 C  
HETATM   39  O   UNL     1     -11.172  13.642  65.727  1.00  0.00    -0.295 OA 
HETATM   40  C   UNL     1     -11.340  15.056  65.698  1.00  0.00    -0.297 C  
HETATM   41  C   UNL     1     -10.030  15.848  65.783  1.00  0.00    -0.360 C  
HETATM   42  H   UNL     1      -7.546  13.952  68.262  1.00  0.00     0.000 HD 
HETATM   43  O   UNL     1      -8.369  13.491  68.149  1.00  0.00    -0.151 OA 
HETATM   44  O   UNL     1     -10.313  17.237  65.982  1.00  0.00    -0.370 OA 
HETATM   45  C   UNL     1      -9.178  15.351  66.936  1.00  0.00    -0.233 C  
HETATM   46  H   UNL     1      -7.354  15.688  67.637  1.00  0.00     0.000 HD 
HETATM   47  O   UNL     1      -7.887  16.000  66.916  1.00  0.00    -0.203 OA 
HETATM   48  H   UNL     1      -9.502  17.728  66.035  1.00  0.00     0.000 HD 
HETATM   49  C   UNL     1      -8.981  13.843  66.897  1.00  0.00    -0.222 C  
BRANCH  40  50
HETATM   50  C   UNL     1     -12.036  15.382  64.362  1.00  0.00    -0.228 C  
HETATM   51  O   UNL     1     -11.670  16.669  63.858  1.00  0.00    -1.487 OA 
HETATM   52  H   UNL     1     -12.099  16.869  63.034  1.00  0.00     0.000 HD 
ENDBRANCH  40  50
ENDBRANCH  37  38
ENDBRANCH  33  37
ENDBRANCH  23  24
ENDBRANCH  18  23
TORSDOF 6
ENDMDL
MODEL       19
REMARK 921   NORMALIZED FREE ENERGY PREDICTED BY IDOCK:   -7.21 KCAL/MOL
REMARK 922        TOTAL FREE ENERGY PREDICTED BY IDOCK:  -11.72 KCAL/MOL
REMARK 923 INTER-LIGAND FREE ENERGY PREDICTED BY IDOCK:  -10.75 KCAL/MOL
REMARK 924 INTRA-LIGAND FREE ENERGY PREDICTED BY IDOCK:   -0.98 KCAL/MOL
REMARK 927      BINDING AFFINITY PREDICTED BY RF-SCORE:    0.00 PKD
ROOT
HETATM    1  C   UNL     1     -11.053   5.838  72.566  1.00  0.00    -0.327 C  
HETATM    2  C   UNL     1      -9.790   5.866  71.617  1.00  0.00    -0.197 C  
HETATM    3  C   UNL     1      -9.817   4.585  70.785  1.00  0.00    -0.280 C  
HETATM    4  C   UNL     1      -8.537   4.439  69.987  1.00  0.00    -0.099 C  
HETATM    5  C   UNL     1      -7.329   4.188  70.859  1.00  0.00    -0.041 C  
HETATM    6  C   UNL     1      -7.228   4.939  72.228  1.00  0.00    -0.081 C  
HETATM    7  C   UNL     1      -8.552   5.794  72.612  1.00  0.00    -0.120 C  
HETATM    8  C   UNL     1      -5.950   5.823  72.302  1.00  0.00    -0.039 C  
HETATM    9  C   UNL     1      -6.766   3.760  73.167  1.00  0.00    -0.038 C  
HETATM   10  O   UNL     1      -5.726   3.126  72.949  1.00  0.00    -0.006 OA 
HETATM   11  O   UNL     1      -7.506   3.414  74.220  1.00  0.00    -0.051 OA 
HETATM   12  C   UNL     1      -8.383   7.162  73.306  1.00  0.00    -0.139 C  
HETATM   13  C   UNL     1      -8.438   8.363  72.385  1.00  0.00    -0.238 C  
HETATM   14  C   UNL     1      -9.583   8.514  71.374  1.00  0.00    -0.282 C  
HETATM   15  C   UNL     1     -10.850   9.293  71.781  1.00  0.00    -0.358 C  
HETATM   16  C   UNL     1     -11.292   9.925  70.456  1.00  0.00    -0.399 C  
HETATM   17  C   UNL     1     -12.432  10.619  70.340  1.00  0.00    -0.421 C  
HETATM   18  C   UNL     1     -10.187   9.777  69.382  1.00  0.00    -0.210 C  
HETATM   19  C   UNL     1     -10.361   8.505  68.520  1.00  0.00    -0.230 C  
HETATM   20  C   UNL     1     -10.024   7.175  70.710  1.00  0.00    -0.194 C  
HETATM   21  C   UNL     1      -9.049   9.538  70.347  1.00  0.00    -0.296 C  
HETATM   22  C   UNL     1      -9.748   7.228  69.180  1.00  0.00    -0.160 C  
ENDROOT
BRANCH  18  23
HETATM   23  O   UNL     1     -10.115  11.003  68.657  1.00  0.00    -0.183 OA 
BRANCH  23  24
HETATM   24  C   UNL     1     -10.448  11.136  67.262  1.00  0.00    -0.226 C  
HETATM   25  O   UNL     1      -9.530  10.383  66.456  1.00  0.00    -0.160 OA 
HETATM   26  C   UNL     1      -9.942  10.310  65.079  1.00  0.00    -0.323 C  
HETATM   27  C   UNL     1      -9.855  11.702  64.474  1.00  0.00    -0.224 C  
HETATM   28  H   UNL     1     -10.903  14.605  65.265  1.00  0.00     0.000 HD 
HETATM   29  C   UNL     1     -10.771  12.674  65.209  1.00  0.00    -0.289 C  
HETATM   30  H   UNL     1     -10.141  12.594  62.703  1.00  0.00     0.000 HD 
HETATM   31  O   UNL     1     -10.195  11.724  63.081  1.00  0.00    -0.403 OA 
HETATM   32  O   UNL     1     -10.332  13.999  64.806  1.00  0.00    -0.423 OA 
HETATM   33  C   UNL     1     -10.704  12.586  66.740  1.00  0.00    -0.236 C  
BRANCH  26  34
HETATM   34  C   UNL     1      -9.009   9.345  64.335  1.00  0.00    -0.169 C  
HETATM   35  H   UNL     1      -7.075   9.030  64.215  1.00  0.00     0.000 HD 
HETATM   36  O   UNL     1      -7.653   9.627  64.675  1.00  0.00    -0.115 OA 
ENDBRANCH  26  34
BRANCH  33  37
HETATM   37  O   UNL     1     -11.889  13.086  67.407  1.00  0.00    -0.358 OA 
BRANCH  37  38
HETATM   38  C   UNL     1     -11.872  14.385  68.028  1.00  0.00    -0.325 C  
HETATM   39  O   UNL     1     -11.009  15.239  67.301  1.00  0.00    -0.316 OA 
HETATM   40  C   UNL     1     -10.737  16.530  67.839  1.00  0.00    -0.337 C  
HETATM   41  C   UNL     1     -10.375  16.528  69.328  1.00  0.00    -0.318 C  
HETATM   42  H   UNL     1     -12.577  13.766  71.180  1.00  0.00     0.000 HD 
HETATM   43  O   UNL     1     -12.739  13.794  70.244  1.00  0.00    -0.265 OA 
HETATM   44  O   UNL     1     -10.351  17.871  69.824  1.00  0.00    -0.161 OA 
HETATM   45  C   UNL     1     -11.389  15.729  70.125  1.00  0.00    -0.355 C  
HETATM   46  H   UNL     1     -11.593  15.109  71.998  1.00  0.00     0.000 HD 
HETATM   47  O   UNL     1     -10.959  15.610  71.499  1.00  0.00    -0.262 OA 
HETATM   48  H   UNL     1     -10.126  17.871  70.747  1.00  0.00     0.000 HD 
HETATM   49  C   UNL     1     -11.607  14.339  69.547  1.00  0.00    -0.301 C  
BRANCH  40  50
HETATM   50  C   UNL     1      -9.547  17.090  67.035  1.00  0.00    -0.254 C  
HETATM   51  O   UNL     1      -9.678  16.850  65.632  1.00  0.00    -0.538 OA 
HETATM   52  H   UNL     1      -8.944  17.195  65.137  1.00  0.00     0.000 HD 
ENDBRANCH  40  50
ENDBRANCH  37  38
ENDBRANCH  33  37
ENDBRANCH  23  24
ENDBRANCH  18  23
TORSDOF 6
ENDMDL
MODEL       20
REMARK 921   NORMALIZED FREE ENERGY PREDICTED BY IDOCK:   -7.17 KCAL/MOL
REMARK 922        TOTAL FREE ENERGY PREDICTED BY IDOCK:  -11.67 KCAL/MOL
REMARK 923 INTER-LIGAND FREE ENERGY PREDICTED BY IDOCK:  -10.70 KCAL/MOL
REMARK 924 INTRA-LIGAND FREE ENERGY PREDICTED BY IDOCK:   -0.97 KCAL/MOL
REMARK 927      BINDING AFFINITY PREDICTED BY RF-SCORE:    0.00 PKD
ROOT
HETATM    1  C   UNL     1      -7.223   6.697  69.030  1.00  0.00    -0.091 C  
HETATM    2  C   UNL     1      -8.136   7.680  69.864  1.00  0.00    -0.124 C  
HETATM    3  C   UNL     1      -7.559   7.752  71.276  1.00  0.00    -0.080 C  
HETATM    4  C   UNL     1      -8.486   8.522  72.194  1.00  0.00    -0.221 C  
HETATM    5  C   UNL     1      -9.787   7.799  72.453  1.00  0.00    -0.264 C  
HETATM    6  C   UNL     1     -10.450   7.012  71.274  1.00  0.00    -0.224 C  
HETATM    7  C   UNL     1      -9.544   6.945  69.931  1.00  0.00    -0.156 C  
HETATM    8  C   UNL     1     -11.876   7.548  70.961  1.00  0.00    -0.319 C  
HETATM    9  C   UNL     1     -10.847   5.676  72.012  1.00  0.00    -0.242 C  
HETATM   10  O   UNL     1     -11.592   5.676  72.999  1.00  0.00    -0.245 OA 
HETATM   11  O   UNL     1     -10.368   4.508  71.582  1.00  0.00    -0.175 OA 
HETATM   12  C   UNL     1     -10.236   7.054  68.556  1.00  0.00    -0.183 C  
HETATM   13  C   UNL     1     -10.227   8.436  67.938  1.00  0.00    -0.273 C  
HETATM   14  C   UNL     1      -8.921   9.236  67.844  1.00  0.00    -0.130 C  
HETATM   15  C   UNL     1      -8.054   9.118  66.573  1.00  0.00    -0.107 C  
HETATM   16  C   UNL     1      -7.432  10.515  66.465  1.00  0.00    -0.128 C  
HETATM   17  C   UNL     1      -6.516  10.820  65.536  1.00  0.00    -0.005 C  
HETATM   18  C   UNL     1      -8.119  11.500  67.442  1.00  0.00    -0.146 C  
HETATM   19  C   UNL     1      -7.400  11.583  68.808  1.00  0.00    -0.115 C  
HETATM   20  C   UNL     1      -7.993   9.083  69.086  1.00  0.00    -0.101 C  
HETATM   21  C   UNL     1      -9.385  10.694  67.626  1.00  0.00    -0.156 C  
HETATM   22  C   UNL     1      -7.834  10.456  69.799  1.00  0.00    -0.108 C  
ENDROOT
BRANCH  18  23
HETATM   23  O   UNL     1      -8.290  12.742  66.763  1.00  0.00    -0.113 OA 
BRANCH  23  24
HETATM   24  C   UNL     1      -9.565  13.269  66.353  1.00  0.00    -0.254 C  
HETATM   25  O   UNL     1      -9.948  12.720  65.084  1.00  0.00    -0.252 OA 
HETATM   26  C   UNL     1     -11.304  13.048  64.730  1.00  0.00    -0.317 C  
HETATM   27  C   UNL     1     -11.391  14.547  64.487  1.00  0.00    -0.316 C  
HETATM   28  H   UNL     1     -10.526  17.172  66.072  1.00  0.00     0.000 HD 
HETATM   29  C   UNL     1     -11.008  15.326  65.741  1.00  0.00    -0.338 C  
HETATM   30  H   UNL     1     -12.752  15.903  63.922  1.00  0.00     0.000 HD 
HETATM   31  O   UNL     1     -12.698  14.967  64.074  1.00  0.00    -0.772 OA 
HETATM   32  O   UNL     1     -10.765  16.686  65.291  1.00  0.00    -0.550 OA 
HETATM   33  C   UNL     1      -9.745  14.818  66.450  1.00  0.00    -0.291 C  
BRANCH  26  34
HETATM   34  C   UNL     1     -11.684  12.278  63.459  1.00  0.00    -0.499 C  
HETATM   35  H   UNL     1     -13.276  11.372  62.754  1.00  0.00     0.000 HD 
HETATM   36  O   UNL     1     -13.041  11.849  63.541  1.00  0.00    -0.715 OA 
ENDBRANCH  26  34
BRANCH  33  37
HETATM   37  O   UNL     1      -9.680  15.177  67.853  1.00  0.00    -0.207 OA 
BRANCH  37  38
HETATM   38  C   UNL     1      -8.916  16.325  68.267  1.00  0.00    -0.192 C  
HETATM   39  O   UNL     1      -8.963  17.309  67.252  1.00  0.00    -0.222 OA 
HETATM   40  C   UNL     1      -8.146  18.466  67.403  1.00  0.00    -0.240 C  
HETATM   41  C   UNL     1      -6.698  18.167  67.805  1.00  0.00    -0.204 C  
HETATM   42  H   UNL     1      -6.680  15.084  70.337  1.00  0.00     0.000 HD 
HETATM   43  O   UNL     1      -7.554  15.299  70.030  1.00  0.00    -0.106 OA 
HETATM   44  O   UNL     1      -6.029  19.383  68.158  1.00  0.00    -0.208 OA 
HETATM   45  C   UNL     1      -6.655  17.221  68.991  1.00  0.00    -0.230 C  
HETATM   46  H   UNL     1      -5.265  16.238  70.009  1.00  0.00     0.000 HD 
HETATM   47  O   UNL     1      -5.292  16.830  69.267  1.00  0.00    -0.132 OA 
HETATM   48  H   UNL     1      -5.131  19.198  68.407  1.00  0.00     0.000 HD 
HETATM   49  C   UNL     1      -7.498  15.976  68.764  1.00  0.00    -0.176 C  
BRANCH  40  50
HETATM   50  C   UNL     1      -8.150  19.179  66.037  1.00  0.00    -0.189 C  
HETATM   51  O   UNL     1      -8.865  20.417  66.071  1.00  0.00    -0.581 OA 
HETATM   52  H   UNL     1      -8.867  20.856  65.228  1.00  0.00     0.000 HD 
ENDBRANCH  40  50
ENDBRANCH  37  38
ENDBRANCH  33  37
ENDBRANCH  23  24
ENDBRANCH  18  23
TORSDOF 6
ENDMDL
MODEL       21
REMARK 921   NORMALIZED FREE ENERGY PREDICTED BY IDOCK:   -7.12 KCAL/MOL
REMARK 922        TOTAL FREE ENERGY PREDICTED BY IDOCK:  -11.60 KCAL/MOL
REMARK 923 INTER-LIGAND FREE ENERGY PREDICTED BY IDOCK:   -9.79 KCAL/MOL
REMARK 924 INTRA-LIGAND FREE ENERGY PREDICTED BY IDOCK:   -1.81 KCAL/MOL
REMARK 927      BINDING AFFINITY PREDICTED BY RF-SCORE:    0.00 PKD
ROOT
HETATM    1  C   UNL     1      -5.336   6.598  69.233  1.00  0.00    -0.014 C  
HETATM    2  C   UNL     1      -6.829   6.890  69.660  1.00  0.00    -0.051 C  
HETATM    3  C   UNL     1      -6.881   6.861  71.186  1.00  0.00    -0.058 C  
HETATM    4  C   UNL     1      -8.314   6.939  71.673  1.00  0.00    -0.109 C  
HETATM    5  C   UNL     1      -9.115   5.704  71.336  1.00  0.00    -0.152 C  
HETATM    6  C   UNL     1      -8.875   5.013  69.953  1.00  0.00    -0.130 C  
HETATM    7  C   UNL     1      -7.646   5.644  69.103  1.00  0.00    -0.088 C  
HETATM    8  C   UNL     1     -10.177   4.967  69.103  1.00  0.00    -0.227 C  
HETATM    9  C   UNL     1      -8.818   3.501  70.396  1.00  0.00    -0.082 C  
HETATM   10  O   UNL     1      -9.762   2.961  70.985  1.00  0.00    -0.157 OA 
HETATM   11  O   UNL     1      -7.729   2.772  70.148  1.00  0.00    -0.043 OA 
HETATM   12  C   UNL     1      -7.785   5.775  67.573  1.00  0.00    -0.097 C  
HETATM   13  C   UNL     1      -8.219   7.140  67.079  1.00  0.00    -0.117 C  
HETATM   14  C   UNL     1      -7.507   8.406  67.572  1.00  0.00    -0.094 C  
HETATM   15  C   UNL     1      -6.311   8.960  66.771  1.00  0.00    -0.059 C  
HETATM   16  C   UNL     1      -6.431  10.471  66.996  1.00  0.00    -0.076 C  
HETATM   17  C   UNL     1      -5.512  11.336  66.544  1.00  0.00    -0.135 C  
HETATM   18  C   UNL     1      -7.790  10.824  67.646  1.00  0.00    -0.109 C  
HETATM   19  C   UNL     1      -7.717  10.875  69.190  1.00  0.00    -0.127 C  
HETATM   20  C   UNL     1      -7.109   8.365  69.079  1.00  0.00    -0.069 C  
HETATM   21  C   UNL     1      -8.498   9.548  67.251  1.00  0.00    -0.128 C  
HETATM   22  C   UNL     1      -7.876   9.471  69.858  1.00  0.00    -0.140 C  
ENDROOT
BRANCH  18  23
HETATM   23  O   UNL     1      -8.283  12.005  67.017  1.00  0.00    -0.167 OA 
BRANCH  23  24
HETATM   24  C   UNL     1      -9.669  12.234  66.704  1.00  0.00    -0.222 C  
HETATM   25  O   UNL     1      -9.896  12.071  65.296  1.00  0.00    -0.246 OA 
HETATM   26  C   UNL     1     -11.296  12.080  64.961  1.00  0.00    -0.310 C  
HETATM   27  C   UNL     1     -11.849  13.470  65.230  1.00  0.00    -0.352 C  
HETATM   28  H   UNL     1     -11.799  15.512  67.676  1.00  0.00     0.000 HD 
HETATM   29  C   UNL     1     -11.693  13.843  66.701  1.00  0.00    -0.395 C  
HETATM   30  H   UNL     1     -13.577  14.464  65.044  1.00  0.00     0.000 HD 
HETATM   31  O   UNL     1     -13.232  13.596  64.876  1.00  0.00    -0.640 OA 
HETATM   32  O   UNL     1     -11.896  15.280  66.759  1.00  0.00    -0.089 OA 
HETATM   33  C   UNL     1     -10.318  13.523  67.302  1.00  0.00    -0.241 C  
BRANCH  26  34
HETATM   34  C   UNL     1     -11.451  11.722  63.477  1.00  0.00    -0.394 C  
HETATM   35  H   UNL     1     -10.274  11.173  62.005  1.00  0.00     0.000 HD 
HETATM   36  O   UNL     1     -10.178  11.394  62.923  1.00  0.00    -0.272 OA 
ENDBRANCH  26  34
BRANCH  33  37
HETATM   37  O   UNL     1     -10.330  13.375  68.743  1.00  0.00    -0.227 OA 
BRANCH  37  38
HETATM   38  C   UNL     1     -11.577  13.416  69.461  1.00  0.00    -0.290 C  
HETATM   39  O   UNL     1     -11.577  14.528  70.335  1.00  0.00    -0.270 OA 
HETATM   40  C   UNL     1     -12.664  14.664  71.245  1.00  0.00    -0.332 C  
HETATM   41  C   UNL     1     -13.017  13.378  72.001  1.00  0.00    -0.310 C  
HETATM   42  H   UNL     1     -12.552  10.276  69.536  1.00  0.00     0.000 HD 
HETATM   43  O   UNL     1     -12.320  11.102  69.129  1.00  0.00    -0.438 OA 
HETATM   44  O   UNL     1     -14.252  13.550  72.704  1.00  0.00    -0.751 OA 
HETATM   45  C   UNL     1     -13.160  12.213  71.038  1.00  0.00     0.069 C  
HETATM   46  H   UNL     1     -13.433  10.253  71.169  1.00  0.00     0.000 HD 
HETATM   47  O   UNL     1     -13.345  10.982  71.771  1.00  0.00    -0.390 OA 
HETATM   48  H   UNL     1     -14.471  12.753  73.173  1.00  0.00     0.000 HD 
HETATM   49  C   UNL     1     -11.953  12.075  70.122  1.00  0.00    -0.321 C  
BRANCH  40  50
HETATM   50  C   UNL     1     -12.244  15.742  72.263  1.00  0.00    -0.462 C  
HETATM   51  O   UNL     1     -12.107  15.218  73.586  1.00  0.00    -0.479 OA 
HETATM   52  H   UNL     1     -11.848  15.883  74.213  1.00  0.00     0.000 HD 
ENDBRANCH  40  50
ENDBRANCH  37  38
ENDBRANCH  33  37
ENDBRANCH  23  24
ENDBRANCH  18  23
TORSDOF 6
ENDMDL
MODEL       22
REMARK 921   NORMALIZED FREE ENERGY PREDICTED BY IDOCK:   -7.04 KCAL/MOL
REMARK 922        TOTAL FREE ENERGY PREDICTED BY IDOCK:  -11.49 KCAL/MOL
REMARK 923 INTER-LIGAND FREE ENERGY PREDICTED BY IDOCK:  -10.18 KCAL/MOL
REMARK 924 INTRA-LIGAND FREE ENERGY PREDICTED BY IDOCK:   -1.32 KCAL/MOL
REMARK 927      BINDING AFFINITY PREDICTED BY RF-SCORE:    0.00 PKD
ROOT
HETATM    1  C   UNL     1      -5.634   7.718  65.906  1.00  0.00    -0.033 C  
HETATM    2  C   UNL     1      -6.536   7.812  67.200  1.00  0.00    -0.063 C  
HETATM    3  C   UNL     1      -5.660   8.350  68.329  1.00  0.00    -0.034 C  
HETATM    4  C   UNL     1      -6.396   8.288  69.652  1.00  0.00    -0.036 C  
HETATM    5  C   UNL     1      -6.633   6.873  70.124  1.00  0.00    -0.044 C  
HETATM    6  C   UNL     1      -6.995   5.783  69.061  1.00  0.00    -0.067 C  
HETATM    7  C   UNL     1      -6.910   6.301  67.527  1.00  0.00    -0.063 C  
HETATM    8  C   UNL     1      -8.377   5.134  69.356  1.00  0.00    -0.090 C  
HETATM    9  C   UNL     1      -6.063   4.602  69.535  1.00  0.00    -0.022 C  
HETATM   10  O   UNL     1      -6.143   4.130  70.676  1.00  0.00    -0.017 OA 
HETATM   11  O   UNL     1      -5.153   4.094  68.704  1.00  0.00    -0.006 OA 
HETATM   12  C   UNL     1      -7.964   5.811  66.513  1.00  0.00    -0.102 C  
HETATM   13  C   UNL     1      -9.124   6.757  66.282  1.00  0.00    -0.165 C  
HETATM   14  C   UNL     1      -8.869   8.239  65.978  1.00  0.00    -0.203 C  
HETATM   15  C   UNL     1      -8.746   8.699  64.511  1.00  0.00    -0.034 C  
HETATM   16  C   UNL     1      -9.327  10.116  64.556  1.00  0.00    -0.345 C  
HETATM   17  C   UNL     1      -9.318  10.927  63.490  1.00  0.00    -0.293 C  
HETATM   18  C   UNL     1     -10.030  10.379  65.910  1.00  0.00    -0.255 C  
HETATM   19  C   UNL     1      -9.090  11.023  66.955  1.00  0.00    -0.154 C  
HETATM   20  C   UNL     1      -7.688   8.858  66.785  1.00  0.00    -0.097 C  
HETATM   21  C   UNL     1     -10.220   8.926  66.282  1.00  0.00    -0.203 C  
HETATM   22  C   UNL     1      -8.220   9.978  67.725  1.00  0.00    -0.113 C  
ENDROOT
BRANCH  18  23
HETATM   23  O   UNL     1     -11.234  11.096  65.646  1.00  0.00    -0.093 OA 
BRANCH  23  24
HETATM   24  C   UNL     1     -11.561  12.368  66.235  1.00  0.00    -0.393 C  
HETATM   25  O   UNL     1     -10.997  13.436  65.461  1.00  0.00    -0.280 OA 
HETATM   26  C   UNL     1     -11.469  14.729  65.884  1.00  0.00    -0.319 C  
HETATM   27  C   UNL     1     -10.932  15.007  67.279  1.00  0.00    -0.326 C  
HETATM   28  H   UNL     1     -10.874  13.445  70.056  1.00  0.00     0.000 HD 
HETATM   29  C   UNL     1     -11.422  13.956  68.271  1.00  0.00    -0.311 C  
HETATM   30  H   UNL     1     -10.969  16.474  68.641  1.00  0.00     0.000 HD 
HETATM   31  O   UNL     1     -11.305  16.301  67.770  1.00  0.00    -0.227 OA 
HETATM   32  O   UNL     1     -10.569  14.100  69.438  1.00  0.00    -0.165 OA 
HETATM   33  C   UNL     1     -11.322  12.508  67.772  1.00  0.00    -0.296 C  
BRANCH  26  34
HETATM   34  C   UNL     1     -10.961  15.787  64.896  1.00  0.00    -0.427 C  
HETATM   35  H   UNL     1     -11.721  16.888  63.460  1.00  0.00     0.000 HD 
HETATM   36  O   UNL     1     -12.036  16.233  64.071  1.00  0.00    -0.955 OA 
ENDBRANCH  26  34
BRANCH  33  37
HETATM   37  O   UNL     1     -12.229  11.597  68.440  1.00  0.00    -0.498 OA 
BRANCH  37  38
HETATM   38  C   UNL     1     -11.785  10.849  69.587  1.00  0.00    -0.331 C  
HETATM   39  O   UNL     1     -11.275   9.600  69.161  1.00  0.00    -0.149 OA 
HETATM   40  C   UNL     1     -10.919   8.648  70.159  1.00  0.00    -0.226 C  
HETATM   41  C   UNL     1     -11.973   8.460  71.256  1.00  0.00    -0.288 C  
HETATM   42  H   UNL     1     -13.641  11.997  72.049  1.00  0.00     0.000 HD 
HETATM   43  O   UNL     1     -12.995  12.046  71.354  1.00  0.00    -0.370 OA 
HETATM   44  O   UNL     1     -11.432   7.672  72.321  1.00  0.00    -0.281 OA 
HETATM   45  C   UNL     1     -12.413   9.803  71.812  1.00  0.00    -0.398 C  
HETATM   46  H   UNL     1     -13.784  10.463  73.083  1.00  0.00     0.000 HD 
HETATM   47  O   UNL     1     -13.509   9.623  72.735  1.00  0.00    -0.210 OA 
HETATM   48  H   UNL     1     -12.086   7.556  73.001  1.00  0.00     0.000 HD 
HETATM   49  C   UNL     1     -12.834  10.768  70.715  1.00  0.00    -0.320 C  
BRANCH  40  50
HETATM   50  C   UNL     1     -10.717   7.308  69.425  1.00  0.00    -0.225 C  
HETATM   51  O   UNL     1     -11.874   6.471  69.493  1.00  0.00    -0.649 OA 
HETATM   52  H   UNL     1     -11.749   5.645  69.041  1.00  0.00     0.000 HD 
ENDBRANCH  40  50
ENDBRANCH  37  38
ENDBRANCH  33  37
ENDBRANCH  23  24
ENDBRANCH  18  23
TORSDOF 6
ENDMDL
MODEL       23
REMARK 921   NORMALIZED FREE ENERGY PREDICTED BY IDOCK:   -7.03 KCAL/MOL
REMARK 922        TOTAL FREE ENERGY PREDICTED BY IDOCK:  -11.48 KCAL/MOL
REMARK 923 INTER-LIGAND FREE ENERGY PREDICTED BY IDOCK:  -10.91 KCAL/MOL
REMARK 924 INTRA-LIGAND FREE ENERGY PREDICTED BY IDOCK:   -0.57 KCAL/MOL
REMARK 927      BINDING AFFINITY PREDICTED BY RF-SCORE:    0.00 PKD
ROOT
HETATM    1  C   UNL     1      -6.512   5.778  67.647  1.00  0.00    -0.047 C  
HETATM    2  C   UNL     1      -7.878   5.524  66.897  1.00  0.00    -0.101 C  
HETATM    3  C   UNL     1      -8.463   4.223  67.441  1.00  0.00    -0.099 C  
HETATM    4  C   UNL     1      -9.678   3.805  66.638  1.00  0.00    -0.149 C  
HETATM    5  C   UNL     1      -9.332   3.394  65.226  1.00  0.00    -0.155 C  
HETATM    6  C   UNL     1      -8.222   4.193  64.467  1.00  0.00    -0.095 C  
HETATM    7  C   UNL     1      -7.455   5.291  65.381  1.00  0.00    -0.077 C  
HETATM    8  C   UNL     1      -8.772   4.837  63.162  1.00  0.00    -0.126 C  
HETATM    9  C   UNL     1      -7.403   3.006  63.828  1.00  0.00    -0.058 C  
HETATM   10  O   UNL     1      -7.934   2.186  63.069  1.00  0.00    -0.061 OA 
HETATM   11  O   UNL     1      -6.108   2.860  64.109  1.00  0.00    -0.017 OA 
HETATM   12  C   UNL     1      -7.064   6.645  64.753  1.00  0.00    -0.057 C  
HETATM   13  C   UNL     1      -8.030   7.780  65.015  1.00  0.00    -0.134 C  
HETATM   14  C   UNL     1      -8.515   8.075  66.441  1.00  0.00    -0.138 C  
HETATM   15  C   UNL     1      -7.740   9.089  67.307  1.00  0.00    -0.096 C  
HETATM   16  C   UNL     1      -8.850   9.712  68.162  1.00  0.00    -0.119 C  
HETATM   17  C   UNL     1      -8.590  10.590  69.140  1.00  0.00    -0.157 C  
HETATM   18  C   UNL     1     -10.246   9.307  67.630  1.00  0.00    -0.230 C  
HETATM   19  C   UNL     1     -10.801   8.039  68.318  1.00  0.00     0.026 C  
HETATM   20  C   UNL     1      -8.775   6.799  67.298  1.00  0.00    -0.119 C  
HETATM   21  C   UNL     1      -9.789   8.925  66.240  1.00  0.00    -0.355 C  
HETATM   22  C   UNL     1     -10.283   6.714  67.673  1.00  0.00    -0.220 C  
ENDROOT
BRANCH  18  23
HETATM   23  O   UNL     1     -11.088  10.456  67.693  1.00  0.00    -0.310 OA 
BRANCH  23  24
HETATM   24  C   UNL     1     -11.247  11.276  68.866  1.00  0.00    -0.253 C  
HETATM   25  O   UNL     1     -12.276  10.741  69.712  1.00  0.00    -0.323 OA 
HETATM   26  C   UNL     1     -12.330  11.398  70.992  1.00  0.00    -0.343 C  
HETATM   27  C   UNL     1     -12.783  12.834  70.780  1.00  0.00    -0.136 C  
HETATM   28  H   UNL     1     -11.907  15.250  68.897  1.00  0.00     0.000 HD 
HETATM   29  C   UNL     1     -11.806  13.587  69.882  1.00  0.00    -0.316 C  
HETATM   30  H   UNL     1     -13.204  14.457  71.876  1.00  0.00     0.000 HD 
HETATM   31  O   UNL     1     -12.921  13.560  72.008  1.00  0.00    -0.345 OA 
HETATM   32  O   UNL     1     -12.516  14.781  69.456  1.00  0.00    -0.220 OA 
HETATM   33  C   UNL     1     -11.360  12.816  68.632  1.00  0.00    -0.294 C  
BRANCH  26  34
HETATM   34  C   UNL     1     -13.326  10.651  71.889  1.00  0.00    -0.349 C  
HETATM   35  H   UNL     1     -13.792   8.782  72.265  1.00  0.00     0.000 HD 
HETATM   36  O   UNL     1     -13.176   9.244  71.710  1.00  0.00    -0.352 OA 
ENDBRANCH  26  34
BRANCH  33  37
HETATM   37  O   UNL     1     -10.094  13.268  68.089  1.00  0.00    -0.228 OA 
BRANCH  37  38
HETATM   38  C   UNL     1     -10.058  13.958  66.827  1.00  0.00    -0.265 C  
HETATM   39  O   UNL     1     -10.044  15.354  67.057  1.00  0.00    -0.243 OA 
HETATM   40  C   UNL     1     -10.157  16.219  65.931  1.00  0.00    -0.357 C  
HETATM   41  C   UNL     1     -11.277  15.839  64.956  1.00  0.00    -0.308 C  
HETATM   42  H   UNL     1     -11.493  11.862  64.736  1.00  0.00     0.000 HD 
HETATM   43  O   UNL     1     -10.831  12.158  65.350  1.00  0.00    -0.276 OA 
HETATM   44  O   UNL     1     -11.161  16.614  63.757  1.00  0.00    -1.329 OA 
HETATM   45  C   UNL     1     -11.199  14.367  64.597  1.00  0.00    -0.360 C  
HETATM   46  H   UNL     1     -12.293  13.067  63.574  1.00  0.00     0.000 HD 
HETATM   47  O   UNL     1     -12.342  13.988  63.798  1.00  0.00    -0.684 OA 
HETATM   48  H   UNL     1     -11.855  16.380  63.152  1.00  0.00     0.000 HD 
HETATM   49  C   UNL     1     -11.133  13.479  65.830  1.00  0.00    -0.284 C  
BRANCH  40  50
HETATM   50  C   UNL     1     -10.440  17.626  66.494  1.00  0.00    -0.283 C  
HETATM   51  O   UNL     1     -10.277  18.648  65.508  1.00  0.00    -0.474 OA 
HETATM   52  H   UNL     1     -10.451  19.515  65.856  1.00  0.00     0.000 HD 
ENDBRANCH  40  50
ENDBRANCH  37  38
ENDBRANCH  33  37
ENDBRANCH  23  24
ENDBRANCH  18  23
TORSDOF 6
ENDMDL
MODEL       24
REMARK 921   NORMALIZED FREE ENERGY PREDICTED BY IDOCK:   -7.01 KCAL/MOL
REMARK 922        TOTAL FREE ENERGY PREDICTED BY IDOCK:  -11.46 KCAL/MOL
REMARK 923 INTER-LIGAND FREE ENERGY PREDICTED BY IDOCK:  -10.22 KCAL/MOL
REMARK 924 INTRA-LIGAND FREE ENERGY PREDICTED BY IDOCK:   -1.24 KCAL/MOL
REMARK 927      BINDING AFFINITY PREDICTED BY RF-SCORE:    0.00 PKD
ROOT
HETATM    1  C   UNL     1      -7.859   6.775  69.381  1.00  0.00    -0.113 C  
HETATM    2  C   UNL     1      -8.786   6.860  68.105  1.00  0.00    -0.125 C  
HETATM    3  C   UNL     1     -10.139   6.261  68.484  1.00  0.00    -0.182 C  
HETATM    4  C   UNL     1     -11.025   6.126  67.262  1.00  0.00    -0.418 C  
HETATM    5  C   UNL     1     -10.519   5.092  66.284  1.00  0.00    -0.341 C  
HETATM    6  C   UNL     1      -8.976   4.973  66.056  1.00  0.00    -0.136 C  
HETATM    7  C   UNL     1      -8.087   5.898  67.049  1.00  0.00    -0.102 C  
HETATM    8  C   UNL     1      -8.597   5.225  64.569  1.00  0.00    -0.109 C  
HETATM    9  C   UNL     1      -8.802   3.406  66.091  1.00  0.00    -0.137 C  
HETATM   10  O   UNL     1      -9.409   2.668  65.306  1.00  0.00    -0.146 OA 
HETATM   11  O   UNL     1      -7.996   2.843  66.991  1.00  0.00    -0.074 OA 
HETATM   12  C   UNL     1      -6.824   6.589  66.496  1.00  0.00    -0.065 C  
HETATM   13  C   UNL     1      -7.012   8.031  66.072  1.00  0.00    -0.058 C  
HETATM   14  C   UNL     1      -7.693   9.034  67.012  1.00  0.00    -0.098 C  
HETATM   15  C   UNL     1      -6.829   9.868  67.980  1.00  0.00    -0.072 C  
HETATM   16  C   UNL     1      -7.610  11.184  68.074  1.00  0.00    -0.100 C  
HETATM   17  C   UNL     1      -7.251  12.171  68.905  1.00  0.00    -0.079 C  
HETATM   18  C   UNL     1      -8.718  11.243  66.994  1.00  0.00    -0.152 C  
HETATM   19  C   UNL     1     -10.078  10.715  67.506  1.00  0.00    -0.217 C  
HETATM   20  C   UNL     1      -8.890   8.440  67.814  1.00  0.00    -0.137 C  
HETATM   21  C   UNL     1      -8.119  10.195  66.085  1.00  0.00    -0.123 C  
HETATM   22  C   UNL     1     -10.208   9.161  67.409  1.00  0.00    -0.310 C  
ENDROOT
BRANCH  18  23
HETATM   23  O   UNL     1      -8.737  12.565  66.459  1.00  0.00    -0.150 OA 
BRANCH  23  24
HETATM   24  C   UNL     1      -9.934  13.253  66.052  1.00  0.00    -0.292 C  
HETATM   25  O   UNL     1     -10.507  12.617  64.899  1.00  0.00    -0.290 OA 
HETATM   26  C   UNL     1     -11.812  13.133  64.580  1.00  0.00    -0.370 C  
HETATM   27  C   UNL     1     -11.664  14.577  64.127  1.00  0.00    -0.201 C  
HETATM   28  H   UNL     1     -10.240  17.192  65.262  1.00  0.00     0.000 HD 
HETATM   29  C   UNL     1     -11.052  15.435  65.230  1.00  0.00    -0.360 C  
HETATM   30  H   UNL     1     -12.817  16.068  63.450  1.00  0.00     0.000 HD 
HETATM   31  O   UNL     1     -12.909  15.166  63.733  1.00  0.00    -0.636 OA 
HETATM   32  O   UNL     1     -10.621  16.657  64.574  1.00  0.00    -0.546 OA 
HETATM   33  C   UNL     1      -9.840  14.808  65.933  1.00  0.00    -0.334 C  
BRANCH  26  34
HETATM   34  C   UNL     1     -12.419  12.281  63.458  1.00  0.00    -0.534 C  
HETATM   35  H   UNL     1     -14.035  11.197  63.196  1.00  0.00     0.000 HD 
HETATM   36  O   UNL     1     -13.659  11.725  63.890  1.00  0.00    -0.382 OA 
ENDBRANCH  26  34
BRANCH  33  37
HETATM   37  O   UNL     1      -9.600  15.333  67.262  1.00  0.00    -0.209 OA 
BRANCH  37  38
HETATM   38  C   UNL     1      -9.004  16.632  67.426  1.00  0.00    -0.196 C  
HETATM   39  O   UNL     1      -7.669  16.481  67.868  1.00  0.00    -0.148 OA 
HETATM   40  C   UNL     1      -6.949  17.655  68.233  1.00  0.00    -0.220 C  
HETATM   41  C   UNL     1      -7.722  18.609  69.151  1.00  0.00    -0.080 C  
HETATM   42  H   UNL     1     -11.560  18.602  68.065  1.00  0.00     0.000 HD 
HETATM   43  O   UNL     1     -11.034  18.005  67.546  1.00  0.00    -0.314 OA 
HETATM   44  O   UNL     1      -7.016  19.849  69.269  1.00  0.00    -0.326 OA 
HETATM   45  C   UNL     1      -9.107  18.883  68.594  1.00  0.00    -0.346 C  
HETATM   46  H   UNL     1     -10.744  19.831  69.189  1.00  0.00     0.000 HD 
HETATM   47  O   UNL     1      -9.877  19.660  69.537  1.00  0.00    -0.326 OA 
HETATM   48  H   UNL     1      -7.495  20.441  69.838  1.00  0.00     0.000 HD 
HETATM   49  C   UNL     1      -9.859  17.601  68.269  1.00  0.00    -0.324 C  
BRANCH  40  50
HETATM   50  C   UNL     1      -5.681  17.173  68.966  1.00  0.00    -0.156 C  
HETATM   51  O   UNL     1      -5.971  16.642  70.261  1.00  0.00    -0.186 OA 
HETATM   52  H   UNL     1      -5.190  16.345  70.713  1.00  0.00     0.000 HD 
ENDBRANCH  40  50
ENDBRANCH  37  38
ENDBRANCH  33  37
ENDBRANCH  23  24
ENDBRANCH  18  23
TORSDOF 6
ENDMDL
MODEL       25
REMARK 921   NORMALIZED FREE ENERGY PREDICTED BY IDOCK:   -7.00 KCAL/MOL
REMARK 922        TOTAL FREE ENERGY PREDICTED BY IDOCK:  -11.44 KCAL/MOL
REMARK 923 INTER-LIGAND FREE ENERGY PREDICTED BY IDOCK:  -10.15 KCAL/MOL
REMARK 924 INTRA-LIGAND FREE ENERGY PREDICTED BY IDOCK:   -1.29 KCAL/MOL
REMARK 927      BINDING AFFINITY PREDICTED BY RF-SCORE:    0.00 PKD
ROOT
HETATM    1  C   UNL     1     -11.093   5.789  68.690  1.00  0.00    -0.061 C  
HETATM    2  C   UNL     1      -9.964   6.372  69.628  1.00  0.00    -0.193 C  
HETATM    3  C   UNL     1      -8.932   5.267  69.842  1.00  0.00    -0.146 C  
HETATM    4  C   UNL     1      -7.915   5.680  70.887  1.00  0.00    -0.110 C  
HETATM    5  C   UNL     1      -8.509   5.788  72.272  1.00  0.00    -0.122 C  
HETATM    6  C   UNL     1      -9.953   6.371  72.420  1.00  0.00    -0.183 C  
HETATM    7  C   UNL     1     -10.705   6.645  71.009  1.00  0.00    -0.278 C  
HETATM    8  C   UNL     1      -9.967   7.642  73.316  1.00  0.00    -0.379 C  
HETATM    9  C   UNL     1     -10.572   5.343  73.444  1.00  0.00    -0.258 C  
HETATM   10  O   UNL     1     -10.070   5.155  74.558  1.00  0.00    -0.210 OA 
HETATM   11  O   UNL     1     -11.657   4.641  73.113  1.00  0.00    -0.276 OA 
HETATM   12  C   UNL     1     -11.594   7.897  70.866  1.00  0.00    -0.286 C  
HETATM   13  C   UNL     1     -10.927   9.090  70.213  1.00  0.00    -0.274 C  
HETATM   14  C   UNL     1     -10.170   8.927  68.888  1.00  0.00    -0.220 C  
HETATM   15  C   UNL     1     -10.919   9.148  67.559  1.00  0.00    -0.010 C  
HETATM   16  C   UNL     1      -9.824   9.718  66.650  1.00  0.00    -0.275 C  
HETATM   17  C   UNL     1     -10.031   9.963  65.349  1.00  0.00    -0.349 C  
HETATM   18  C   UNL     1      -8.569  10.096  67.473  1.00  0.00    -0.118 C  
HETATM   19  C   UNL     1      -7.535   8.949  67.543  1.00  0.00    -0.085 C  
HETATM   20  C   UNL     1      -9.360   7.600  68.779  1.00  0.00    -0.148 C  
HETATM   21  C   UNL     1      -9.268  10.180  68.811  1.00  0.00    -0.164 C  
HETATM   22  C   UNL     1      -7.841   7.915  68.674  1.00  0.00    -0.119 C  
ENDROOT
BRANCH  18  23
HETATM   23  O   UNL     1      -8.075  11.336  66.972  1.00  0.00    -0.136 OA 
BRANCH  23  24
HETATM   24  C   UNL     1      -7.349  12.294  67.765  1.00  0.00    -0.118 C  
HETATM   25  O   UNL     1      -6.767  11.655  68.911  1.00  0.00    -0.074 OA 
HETATM   26  C   UNL     1      -5.859  12.519  69.619  1.00  0.00    -0.115 C  
HETATM   27  C   UNL     1      -6.657  13.655  70.239  1.00  0.00     0.191 C  
HETATM   28  H   UNL     1      -8.814  15.760  69.205  1.00  0.00     0.000 HD 
HETATM   29  C   UNL     1      -7.372  14.468  69.165  1.00  0.00    -0.133 C  
HETATM   30  H   UNL     1      -6.343  15.254  71.402  1.00  0.00     0.000 HD 
HETATM   31  O   UNL     1      -5.845  14.545  71.015  1.00  0.00    -0.171 OA 
HETATM   32  O   UNL     1      -8.368  15.253  69.875  1.00  0.00    -0.119 OA 
HETATM   33  C   UNL     1      -8.088  13.630  68.096  1.00  0.00    -0.156 C  
BRANCH  26  34
HETATM   34  C   UNL     1      -5.153  11.704  70.710  1.00  0.00    -0.123 C  
HETATM   35  H   UNL     1      -5.543  10.112  71.789  1.00  0.00     0.000 HD 
HETATM   36  O   UNL     1      -5.981  10.616  71.113  1.00  0.00    -0.320 OA 
ENDBRANCH  26  34
BRANCH  33  37
HETATM   37  O   UNL     1      -8.296  14.334  66.846  1.00  0.00    -0.172 OA 
BRANCH  37  38
HETATM   38  C   UNL     1      -9.631  14.664  66.420  1.00  0.00    -0.301 C  
HETATM   39  O   UNL     1     -10.105  13.657  65.547  1.00  0.00    -0.298 OA 
HETATM   40  C   UNL     1     -11.354  13.871  64.895  1.00  0.00    -0.347 C  
HETATM   41  C   UNL     1     -11.504  15.258  64.261  1.00  0.00    -0.153 C  
HETATM   42  H   UNL     1      -9.738  17.945  66.620  1.00  0.00     0.000 HD 
HETATM   43  O   UNL     1      -9.653  17.059  66.951  1.00  0.00    -0.241 OA 
HETATM   44  O   UNL     1     -12.859  15.457  63.843  1.00  0.00    -0.614 OA 
HETATM   45  C   UNL     1     -11.132  16.344  65.253  1.00  0.00    -0.113 C  
HETATM   46  H   UNL     1     -10.901  18.314  65.223  1.00  0.00     0.000 HD 
HETATM   47  O   UNL     1     -11.134  17.634  64.602  1.00  0.00    -0.906 OA 
HETATM   48  H   UNL     1     -12.953  16.317  63.449  1.00  0.00     0.000 HD 
HETATM   49  C   UNL     1      -9.769  16.103  65.883  1.00  0.00    -0.340 C  
BRANCH  40  50
HETATM   50  C   UNL     1     -11.453  12.801  63.790  1.00  0.00    -0.470 C  
HETATM   51  O   UNL     1     -12.747  12.198  63.731  1.00  0.00    -0.661 OA 
HETATM   52  H   UNL     1     -12.808  11.539  63.050  1.00  0.00     0.000 HD 
ENDBRANCH  40  50
ENDBRANCH  37  38
ENDBRANCH  33  37
ENDBRANCH  23  24
ENDBRANCH  18  23
TORSDOF 6
ENDMDL
MODEL       26
REMARK 921   NORMALIZED FREE ENERGY PREDICTED BY IDOCK:   -6.94 KCAL/MOL
REMARK 922        TOTAL FREE ENERGY PREDICTED BY IDOCK:  -11.36 KCAL/MOL
REMARK 923 INTER-LIGAND FREE ENERGY PREDICTED BY IDOCK:   -9.94 KCAL/MOL
REMARK 924 INTRA-LIGAND FREE ENERGY PREDICTED BY IDOCK:   -1.42 KCAL/MOL
REMARK 927      BINDING AFFINITY PREDICTED BY RF-SCORE:    0.00 PKD
ROOT
HETATM    1  C   UNL     1      -6.979   6.049  69.480  1.00  0.00    -0.067 C  
HETATM    2  C   UNL     1      -8.058   7.077  70.005  1.00  0.00    -0.128 C  
HETATM    3  C   UNL     1      -7.685   7.435  71.442  1.00  0.00    -0.086 C  
HETATM    4  C   UNL     1      -8.776   8.267  72.086  1.00  0.00    -0.259 C  
HETATM    5  C   UNL     1     -10.051   7.488  72.308  1.00  0.00    -0.244 C  
HETATM    6  C   UNL     1     -10.496   6.459  71.217  1.00  0.00    -0.258 C  
HETATM    7  C   UNL     1      -9.413   6.244  70.029  1.00  0.00    -0.167 C  
HETATM    8  C   UNL     1     -11.897   6.808  70.640  1.00  0.00    -0.442 C  
HETATM    9  C   UNL     1     -10.904   5.237  72.127  1.00  0.00    -0.188 C  
HETATM   10  O   UNL     1     -11.775   5.339  72.999  1.00  0.00    -0.294 OA 
HETATM   11  O   UNL     1     -10.297   4.059  71.975  1.00  0.00    -0.150 OA 
HETATM   12  C   UNL     1      -9.916   6.059  68.583  1.00  0.00    -0.183 C  
HETATM   13  C   UNL     1      -9.911   7.312  67.733  1.00  0.00    -0.205 C  
HETATM   14  C   UNL     1      -8.658   8.195  67.659  1.00  0.00    -0.130 C  
HETATM   15  C   UNL     1      -7.620   7.940  66.547  1.00  0.00    -0.092 C  
HETATM   16  C   UNL     1      -7.080   9.347  66.268  1.00  0.00    -0.088 C  
HETATM   17  C   UNL     1      -6.067   9.568  65.419  1.00  0.00    -0.066 C  
HETATM   18  C   UNL     1      -7.955  10.419  66.960  1.00  0.00    -0.116 C  
HETATM   19  C   UNL     1      -7.436  10.794  68.368  1.00  0.00    -0.095 C  
HETATM   20  C   UNL     1      -7.900   8.334  69.013  1.00  0.00    -0.103 C  
HETATM   21  C   UNL     1      -9.180   9.550  67.128  1.00  0.00    -0.158 C  
HETATM   22  C   UNL     1      -7.927   9.817  69.484  1.00  0.00    -0.137 C  
ENDROOT
BRANCH  18  23
HETATM   23  O   UNL     1      -8.110  11.509  66.054  1.00  0.00    -0.032 OA 
BRANCH  23  24
HETATM   24  C   UNL     1      -9.280  12.345  65.991  1.00  0.00    -0.050 C  
HETATM   25  O   UNL     1     -10.051  12.036  64.820  1.00  0.00    -0.261 OA 
HETATM   26  C   UNL     1     -11.333  12.690  64.819  1.00  0.00    -0.312 C  
HETATM   27  C   UNL     1     -11.111  14.189  64.687  1.00  0.00    -0.371 C  
HETATM   28  H   UNL     1      -9.320  16.370  66.166  1.00  0.00     0.000 HD 
HETATM   29  C   UNL     1     -10.288  14.722  65.855  1.00  0.00    -0.320 C  
HETATM   30  H   UNL     1     -12.198  15.864  64.539  1.00  0.00     0.000 HD 
HETATM   31  O   UNL     1     -12.337  14.928  64.622  1.00  0.00    -0.399 OA 
HETATM   32  O   UNL     1      -9.832  16.037  65.438  1.00  0.00    -0.440 OA 
HETATM   33  C   UNL     1      -9.060  13.875  66.215  1.00  0.00     0.004 C  
BRANCH  26  34
HETATM   34  C   UNL     1     -12.153  12.166  63.633  1.00  0.00    -0.551 C  
HETATM   35  H   UNL     1     -14.017  11.650  63.297  1.00  0.00     0.000 HD 
HETATM   36  O   UNL     1     -13.509  11.974  64.031  1.00  0.00    -0.655 OA 
ENDBRANCH  26  34
BRANCH  33  37
HETATM   37  O   UNL     1      -8.606  14.055  67.579  1.00  0.00    -0.169 OA 
BRANCH  37  38
HETATM   38  C   UNL     1      -9.510  13.824  68.675  1.00  0.00    -0.099 C  
HETATM   39  O   UNL     1     -10.240  12.637  68.437  1.00  0.00    -0.230 OA 
HETATM   40  C   UNL     1     -11.296  12.309  69.335  1.00  0.00    -0.228 C  
HETATM   41  C   UNL     1     -12.240  13.475  69.649  1.00  0.00    -0.247 C  
HETATM   42  H   UNL     1     -10.100  16.835  69.862  1.00  0.00     0.000 HD 
HETATM   43  O   UNL     1      -9.570  16.078  69.642  1.00  0.00    -0.236 OA 
HETATM   44  O   UNL     1     -13.114  13.117  70.726  1.00  0.00    -0.066 OA 
HETATM   45  C   UNL     1     -11.452  14.710  70.047  1.00  0.00    -0.265 C  
HETATM   46  H   UNL     1     -11.848  16.612  70.444  1.00  0.00     0.000 HD 
HETATM   47  O   UNL     1     -12.340  15.839  70.196  1.00  0.00    -0.384 OA 
HETATM   48  H   UNL     1     -13.699  13.839  70.921  1.00  0.00     0.000 HD 
HETATM   49  C   UNL     1     -10.372  15.052  69.033  1.00  0.00    -0.243 C  
BRANCH  40  50
HETATM   50  C   UNL     1     -12.101  11.181  68.661  1.00  0.00    -0.110 C  
HETATM   51  O   UNL     1     -12.769  10.347  69.612  1.00  0.00    -0.619 OA 
HETATM   52  H   UNL     1     -13.265   9.651  69.196  1.00  0.00     0.000 HD 
ENDBRANCH  40  50
ENDBRANCH  37  38
ENDBRANCH  33  37
ENDBRANCH  23  24
ENDBRANCH  18  23
TORSDOF 6
ENDMDL
MODEL       27
REMARK 921   NORMALIZED FREE ENERGY PREDICTED BY IDOCK:   -6.92 KCAL/MOL
REMARK 922        TOTAL FREE ENERGY PREDICTED BY IDOCK:  -11.34 KCAL/MOL
REMARK 923 INTER-LIGAND FREE ENERGY PREDICTED BY IDOCK:  -10.05 KCAL/MOL
REMARK 924 INTRA-LIGAND FREE ENERGY PREDICTED BY IDOCK:   -1.29 KCAL/MOL
REMARK 927      BINDING AFFINITY PREDICTED BY RF-SCORE:    0.00 PKD
ROOT
HETATM    1  C   UNL     1      -6.300   7.445  67.843  1.00  0.00    -0.048 C  
HETATM    2  C   UNL     1      -7.787   7.133  68.274  1.00  0.00    -0.122 C  
HETATM    3  C   UNL     1      -7.733   6.458  69.643  1.00  0.00    -0.103 C  
HETATM    4  C   UNL     1      -9.103   5.950  70.043  1.00  0.00    -0.154 C  
HETATM    5  C   UNL     1      -9.578   4.806  69.179  1.00  0.00    -0.237 C  
HETATM    6  C   UNL     1      -9.257   4.843  67.649  1.00  0.00    -0.138 C  
HETATM    7  C   UNL     1      -8.289   6.067  67.206  1.00  0.00    -0.105 C  
HETATM    8  C   UNL     1     -10.554   4.818  66.791  1.00  0.00    -0.064 C  
HETATM    9  C   UNL     1      -8.783   3.356  67.421  1.00  0.00    -0.117 C  
HETATM   10  O   UNL     1      -9.517   2.395  67.680  1.00  0.00    -0.176 OA 
HETATM   11  O   UNL     1      -7.561   3.108  66.948  1.00  0.00    -0.074 OA 
HETATM   12  C   UNL     1      -8.554   6.782  65.865  1.00  0.00    -0.153 C  
HETATM   13  C   UNL     1      -9.356   8.063  65.966  1.00  0.00    -0.158 C  
HETATM   14  C   UNL     1      -8.965   9.146  66.980  1.00  0.00    -0.139 C  
HETATM   15  C   UNL     1      -8.005  10.274  66.547  1.00  0.00    -0.118 C  
HETATM   16  C   UNL     1      -8.496  11.465  67.376  1.00  0.00    -0.143 C  
HETATM   17  C   UNL     1      -7.862  12.646  67.376  1.00  0.00    -0.175 C  
HETATM   18  C   UNL     1      -9.856  11.147  68.043  1.00  0.00    -0.174 C  
HETATM   19  C   UNL     1      -9.701  10.568  69.468  1.00  0.00    -0.147 C  
HETATM   20  C   UNL     1      -8.474   8.586  68.349  1.00  0.00    -0.138 C  
HETATM   21  C   UNL     1     -10.235  10.016  67.115  1.00  0.00    -0.284 C  
HETATM   22  C   UNL     1      -9.449   9.026  69.479  1.00  0.00    -0.164 C  
ENDROOT
BRANCH  18  23
HETATM   23  O   UNL     1     -10.676  12.310  67.941  1.00  0.00    -0.205 OA 
BRANCH  23  24
HETATM   24  C   UNL     1     -10.996  13.171  69.050  1.00  0.00    -0.197 C  
HETATM   25  O   UNL     1     -12.153  12.680  69.744  1.00  0.00    -0.294 OA 
HETATM   26  C   UNL     1     -12.389  13.379  70.980  1.00  0.00    -0.315 C  
HETATM   27  C   UNL     1     -12.775  14.814  70.657  1.00  0.00    -0.358 C  
HETATM   28  H   UNL     1     -11.574  17.153  68.857  1.00  0.00     0.000 HD 
HETATM   29  C   UNL     1     -11.658  15.522  69.897  1.00  0.00    -0.335 C  
HETATM   30  H   UNL     1     -13.326  16.479  71.625  1.00  0.00     0.000 HD 
HETATM   31  O   UNL     1     -13.084  15.583  71.827  1.00  0.00    -0.407 OA 
HETATM   32  O   UNL     1     -12.270  16.712  69.331  1.00  0.00     0.396 OA 
HETATM   33  C   UNL     1     -11.041  14.704  68.755  1.00  0.00    -0.260 C  
BRANCH  26  34
HETATM   34  C   UNL     1     -13.525  12.678  71.735  1.00  0.00    -0.221 C  
HETATM   35  H   UNL     1     -13.866  10.891  72.472  1.00  0.00     0.000 HD 
HETATM   36  O   UNL     1     -13.163  11.325  72.004  1.00  0.00    -0.506 OA 
ENDBRANCH  26  34
BRANCH  33  37
HETATM   37  O   UNL     1      -9.699  15.118  68.398  1.00  0.00    -0.203 OA 
BRANCH  37  38
HETATM   38  C   UNL     1      -9.502  16.193  67.462  1.00  0.00    -0.223 C  
HETATM   39  O   UNL     1      -9.596  17.429  68.143  1.00  0.00    -0.268 OA 
HETATM   40  C   UNL     1      -9.577  18.624  67.367  1.00  0.00    -0.296 C  
HETATM   41  C   UNL     1     -10.510  18.600  66.151  1.00  0.00    -0.430 C  
HETATM   42  H   UNL     1     -10.483  14.930  64.588  1.00  0.00     0.000 HD 
HETATM   43  O   UNL     1      -9.941  14.999  65.365  1.00  0.00    -0.344 OA 
HETATM   44  O   UNL     1     -10.249  19.732  65.315  1.00  0.00    -0.242 OA 
HETATM   45  C   UNL     1     -10.301  17.333  65.340  1.00  0.00     0.024 C  
HETATM   46  H   UNL     1     -11.154  16.458  63.778  1.00  0.00     0.000 HD 
HETATM   47  O   UNL     1     -11.284  17.251  64.285  1.00  0.00    -1.013 OA 
HETATM   48  H   UNL     1     -10.827  19.718  64.561  1.00  0.00     0.000 HD 
HETATM   49  C   UNL     1     -10.383  16.082  66.200  1.00  0.00    -0.328 C  
BRANCH  40  50
HETATM   50  C   UNL     1     -10.016  19.760  68.311  1.00  0.00    -0.444 C  
HETATM   51  O   UNL     1     -10.245  19.299  69.646  1.00  0.00    -0.448 OA 
HETATM   52  H   UNL     1     -10.515  20.000  70.228  1.00  0.00     0.000 HD 
ENDBRANCH  40  50
ENDBRANCH  37  38
ENDBRANCH  33  37
ENDBRANCH  23  24
ENDBRANCH  18  23
TORSDOF 6
ENDMDL
MODEL       28
REMARK 921   NORMALIZED FREE ENERGY PREDICTED BY IDOCK:   -6.90 KCAL/MOL
REMARK 922        TOTAL FREE ENERGY PREDICTED BY IDOCK:  -11.30 KCAL/MOL
REMARK 923 INTER-LIGAND FREE ENERGY PREDICTED BY IDOCK:  -10.48 KCAL/MOL
REMARK 924 INTRA-LIGAND FREE ENERGY PREDICTED BY IDOCK:   -0.82 KCAL/MOL
REMARK 927      BINDING AFFINITY PREDICTED BY RF-SCORE:    0.00 PKD
ROOT
HETATM    1  C   UNL     1      -7.251   6.557  69.171  1.00  0.00    -0.091 C  
HETATM    2  C   UNL     1      -8.329   7.421  69.937  1.00  0.00    -0.134 C  
HETATM    3  C   UNL     1      -7.812   7.640  71.357  1.00  0.00    -0.089 C  
HETATM    4  C   UNL     1      -8.875   8.294  72.218  1.00  0.00    -0.274 C  
HETATM    5  C   UNL     1     -10.055   7.389  72.479  1.00  0.00    -0.237 C  
HETATM    6  C   UNL     1     -10.554   6.460  71.323  1.00  0.00    -0.275 C  
HETATM    7  C   UNL     1      -9.609   6.479  70.005  1.00  0.00    -0.169 C  
HETATM    8  C   UNL     1     -12.035   6.754  70.953  1.00  0.00    -0.437 C  
HETATM    9  C   UNL     1     -10.761   5.110  72.112  1.00  0.00    -0.187 C  
HETATM   10  O   UNL     1     -11.527   5.035  73.080  1.00  0.00    -0.327 OA 
HETATM   11  O   UNL     1     -10.095   4.014  71.747  1.00  0.00    -0.180 OA 
HETATM   12  C   UNL     1     -10.268   6.421  68.612  1.00  0.00    -0.201 C  
HETATM   13  C   UNL     1     -10.454   7.761  67.931  1.00  0.00    -0.263 C  
HETATM   14  C   UNL     1      -9.285   8.750  67.830  1.00  0.00    -0.149 C  
HETATM   15  C   UNL     1      -8.372   8.716  66.587  1.00  0.00    -0.108 C  
HETATM   16  C   UNL     1      -7.971  10.187  66.429  1.00  0.00    -0.120 C  
HETATM   17  C   UNL     1      -7.085  10.591  65.509  1.00  0.00    -0.099 C  
HETATM   18  C   UNL     1      -8.830  11.092  67.344  1.00  0.00    -0.139 C  
HETATM   19  C   UNL     1      -8.174  11.343  68.721  1.00  0.00    -0.107 C  
HETATM   20  C   UNL     1      -8.381   8.795  69.100  1.00  0.00    -0.125 C  
HETATM   21  C   UNL     1      -9.961  10.108  67.536  1.00  0.00    -0.231 C  
HETATM   22  C   UNL     1      -8.457  10.204  69.753  1.00  0.00    -0.147 C  
ENDROOT
BRANCH  18  23
HETATM   23  O   UNL     1      -9.170  12.264  66.605  1.00  0.00    -0.202 OA 
BRANCH  23  24
HETATM   24  C   UNL     1      -9.012  13.605  67.103  1.00  0.00    -0.231 C  
HETATM   25  O   UNL     1      -7.620  13.943  67.195  1.00  0.00    -0.116 OA 
HETATM   26  C   UNL     1      -7.412  15.338  67.484  1.00  0.00    -0.190 C  
HETATM   27  C   UNL     1      -7.918  15.621  68.889  1.00  0.00    -0.193 C  
HETATM   28  H   UNL     1     -10.609  15.064  70.502  1.00  0.00     0.000 HD 
HETATM   29  C   UNL     1      -9.408  15.313  69.004  1.00  0.00    -0.231 C  
HETATM   30  H   UNL     1      -8.022  17.157  70.171  1.00  0.00     0.000 HD 
HETATM   31  O   UNL     1      -7.706  16.980  69.293  1.00  0.00    -0.174 OA 
HETATM   32  O   UNL     1      -9.682  15.257  70.430  1.00  0.00     0.048 OA 
HETATM   33  C   UNL     1      -9.837  13.980  68.376  1.00  0.00    -0.232 C  
BRANCH  26  34
HETATM   34  C   UNL     1      -5.912  15.644  67.385  1.00  0.00    -0.018 C  
HETATM   35  H   UNL     1      -4.758  16.834  66.334  1.00  0.00     0.000 HD 
HETATM   36  O   UNL     1      -5.687  16.645  66.395  1.00  0.00    -0.302 OA 
ENDBRANCH  26  34
BRANCH  33  37
HETATM   37  O   UNL     1     -11.240  13.929  68.016  1.00  0.00    -0.252 OA 
BRANCH  37  38
HETATM   38  C   UNL     1     -12.224  13.569  69.003  1.00  0.00    -0.186 C  
HETATM   39  O   UNL     1     -12.383  14.637  69.916  1.00  0.00    -0.321 OA 
HETATM   40  C   UNL     1     -13.206  14.424  71.059  1.00  0.00    -0.333 C  
HETATM   41  C   UNL     1     -12.926  13.111  71.800  1.00  0.00    -0.338 C  
HETATM   42  H   UNL     1     -12.064  10.286  69.120  1.00  0.00     0.000 HD 
HETATM   43  O   UNL     1     -12.220  11.132  68.719  1.00  0.00    -0.555 OA 
HETATM   44  O   UNL     1     -13.946  12.879  72.778  1.00  0.00    -0.730 OA 
HETATM   45  C   UNL     1     -12.901  11.944  70.830  1.00  0.00    -0.130 C  
HETATM   46  H   UNL     1     -12.476  10.008  70.907  1.00  0.00     0.000 HD 
HETATM   47  O   UNL     1     -12.492  10.739  71.514  1.00  0.00    -0.369 OA 
HETATM   48  H   UNL     1     -13.773  12.065  73.238  1.00  0.00     0.000 HD 
HETATM   49  C   UNL     1     -11.970  12.194  69.655  1.00  0.00    -0.284 C  
BRANCH  40  50
HETATM   50  C   UNL     1     -12.935  15.604  72.013  1.00  0.00    -0.452 C  
HETATM   51  O   UNL     1     -14.046  15.876  72.870  1.00  0.00    -0.601 OA 
HETATM   52  H   UNL     1     -13.879  16.604  73.458  1.00  0.00     0.000 HD 
ENDBRANCH  40  50
ENDBRANCH  37  38
ENDBRANCH  33  37
ENDBRANCH  23  24
ENDBRANCH  18  23
TORSDOF 6
ENDMDL
MODEL       29
REMARK 921   NORMALIZED FREE ENERGY PREDICTED BY IDOCK:   -6.81 KCAL/MOL
REMARK 922        TOTAL FREE ENERGY PREDICTED BY IDOCK:  -11.18 KCAL/MOL
REMARK 923 INTER-LIGAND FREE ENERGY PREDICTED BY IDOCK:   -9.64 KCAL/MOL
REMARK 924 INTRA-LIGAND FREE ENERGY PREDICTED BY IDOCK:   -1.54 KCAL/MOL
REMARK 927      BINDING AFFINITY PREDICTED BY RF-SCORE:    0.00 PKD
ROOT
HETATM    1  C   UNL     1     -11.083   5.179  72.995  1.00  0.00    -0.379 C  
HETATM    2  C   UNL     1     -10.006   5.732  71.980  1.00  0.00    -0.208 C  
HETATM    3  C   UNL     1      -9.644   4.590  71.032  1.00  0.00    -0.248 C  
HETATM    4  C   UNL     1      -8.475   4.979  70.150  1.00  0.00    -0.097 C  
HETATM    5  C   UNL     1      -7.185   5.130  70.921  1.00  0.00    -0.064 C  
HETATM    6  C   UNL     1      -7.238   5.771  72.347  1.00  0.00    -0.090 C  
HETATM    7  C   UNL     1      -8.741   6.053  72.889  1.00  0.00    -0.123 C  
HETATM    8  C   UNL     1      -6.364   7.055  72.430  1.00  0.00    -0.052 C  
HETATM    9  C   UNL     1      -6.299   4.783  73.140  1.00  0.00    -0.046 C  
HETATM   10  O   UNL     1      -5.125   4.592  72.801  1.00  0.00    -0.004 OA 
HETATM   11  O   UNL     1      -6.767   4.119  74.197  1.00  0.00    -0.053 OA 
HETATM   12  C   UNL     1      -9.015   7.337  73.699  1.00  0.00    -0.235 C  
HETATM   13  C   UNL     1      -9.582   8.493  72.902  1.00  0.00    -0.187 C  
HETATM   14  C   UNL     1     -10.790   8.282  71.980  1.00  0.00    -0.370 C  
HETATM   15  C   UNL     1     -12.212   8.511  72.534  1.00  0.00    -0.383 C  
HETATM   16  C   UNL     1     -12.969   9.025  71.304  1.00  0.00    -0.280 C  
HETATM   17  C   UNL     1     -14.288   9.259  71.323  1.00  0.00     0.078 C  
HETATM   18  C   UNL     1     -11.987   9.366  70.157  1.00  0.00     0.150 C  
HETATM   19  C   UNL     1     -11.766   8.181  69.189  1.00  0.00     1.217 C  
HETATM   20  C   UNL     1     -10.776   6.922  71.218  1.00  0.00    -0.249 C  
HETATM   21  C   UNL     1     -10.757   9.497  71.026  1.00  0.00    -0.411 C  
HETATM   22  C   UNL     1     -10.678   7.176  69.687  1.00  0.00    -0.256 C  
ENDROOT
BRANCH  18  23
HETATM   23  O   UNL     1     -12.427  10.579  69.550  1.00  0.00    -0.201 OA 
BRANCH  23  24
HETATM   24  C   UNL     1     -11.910  11.881  69.882  1.00  0.00    -0.343 C  
HETATM   25  O   UNL     1     -12.765  12.529  70.835  1.00  0.00    -0.285 OA 
HETATM   26  C   UNL     1     -12.185  13.739  71.358  1.00  0.00    -0.152 C  
HETATM   27  C   UNL     1     -12.102  14.760  70.235  1.00  0.00    -0.322 C  
HETATM   28  H   UNL     1     -10.975  14.788  67.254  1.00  0.00     0.000 HD 
HETATM   29  C   UNL     1     -11.225  14.247  69.096  1.00  0.00    -0.270 C  
HETATM   30  H   UNL     1     -11.532  16.661  69.968  1.00  0.00     0.000 HD 
HETATM   31  O   UNL     1     -11.584  16.024  70.670  1.00  0.00    -0.365 OA 
HETATM   32  O   UNL     1     -11.521  15.108  67.963  1.00  0.00    -0.325 OA 
HETATM   33  C   UNL     1     -11.495  12.793  68.684  1.00  0.00    -0.303 C  
BRANCH  26  34
HETATM   34  C   UNL     1     -13.077  14.264  72.491  1.00  0.00    -0.461 C  
HETATM   35  H   UNL     1     -14.785  13.764  73.319  1.00  0.00     0.000 HD 
HETATM   36  O   UNL     1     -14.233  13.439  72.617  1.00  0.00    -0.747 OA 
ENDBRANCH  26  34
BRANCH  33  37
HETATM   37  O   UNL     1     -10.374  12.158  68.020  1.00  0.00    -0.193 OA 
BRANCH  37  38
HETATM   38  C   UNL     1     -10.579  11.442  66.788  1.00  0.00    -0.255 C  
HETATM   39  O   UNL     1      -9.459  10.616  66.536  1.00  0.00    -0.164 OA 
HETATM   40  C   UNL     1      -9.399   9.933  65.288  1.00  0.00    -0.251 C  
HETATM   41  C   UNL     1      -9.710  10.814  64.072  1.00  0.00    -0.313 C  
HETATM   42  H   UNL     1     -12.589  13.392  65.062  1.00  0.00     0.000 HD 
HETATM   43  O   UNL     1     -12.334  12.834  65.788  1.00  0.00    -0.547 OA 
HETATM   44  O   UNL     1      -9.854   9.999  62.904  1.00  0.00    -0.516 OA 
HETATM   45  C   UNL     1     -10.995  11.591  64.290  1.00  0.00    -0.341 C  
HETATM   46  H   UNL     1     -12.004  13.012  63.343  1.00  0.00     0.000 HD 
HETATM   47  O   UNL     1     -11.200  12.526  63.207  1.00  0.00    -0.452 OA 
HETATM   48  H   UNL     1     -10.047  10.544  62.151  1.00  0.00     0.000 HD 
HETATM   49  C   UNL     1     -10.993  12.347  65.610  1.00  0.00    -0.286 C  
BRANCH  40  50
HETATM   50  C   UNL     1      -7.960   9.394  65.159  1.00  0.00    -0.116 C  
HETATM   51  O   UNL     1      -7.919   8.085  64.584  1.00  0.00    -0.138 OA 
HETATM   52  H   UNL     1      -7.033   7.753  64.505  1.00  0.00     0.000 HD 
ENDBRANCH  40  50
ENDBRANCH  37  38
ENDBRANCH  33  37
ENDBRANCH  23  24
ENDBRANCH  18  23
TORSDOF 6
ENDMDL
MODEL       30
REMARK 921   NORMALIZED FREE ENERGY PREDICTED BY IDOCK:   -6.80 KCAL/MOL
REMARK 922        TOTAL FREE ENERGY PREDICTED BY IDOCK:  -11.18 KCAL/MOL
REMARK 923 INTER-LIGAND FREE ENERGY PREDICTED BY IDOCK:   -9.63 KCAL/MOL
REMARK 924 INTRA-LIGAND FREE ENERGY PREDICTED BY IDOCK:   -1.54 KCAL/MOL
REMARK 927      BINDING AFFINITY PREDICTED BY RF-SCORE:    0.00 PKD
ROOT
HETATM    1  C   UNL     1      -8.060   9.262  64.089  1.00  0.00    -0.145 C  
HETATM    2  C   UNL     1      -7.714   9.354  65.627  1.00  0.00    -0.099 C  
HETATM    3  C   UNL     1      -6.199   9.506  65.745  1.00  0.00    -0.064 C  
HETATM    4  C   UNL     1      -5.762   9.407  67.193  1.00  0.00    -0.044 C  
HETATM    5  C   UNL     1      -5.956   8.025  67.769  1.00  0.00    -0.046 C  
HETATM    6  C   UNL     1      -7.231   7.217  67.357  1.00  0.00    -0.090 C  
HETATM    7  C   UNL     1      -8.124   7.932  66.207  1.00  0.00    -0.110 C  
HETATM    8  C   UNL     1      -8.101   6.852  68.594  1.00  0.00    -0.121 C  
HETATM    9  C   UNL     1      -6.594   5.801  67.079  1.00  0.00    -0.056 C  
HETATM   10  O   UNL     1      -5.964   5.191  67.950  1.00  0.00    -0.020 OA 
HETATM   11  O   UNL     1      -6.718   5.237  65.877  1.00  0.00    -0.050 OA 
HETATM   12  C   UNL     1      -9.662   7.847  66.294  1.00  0.00    -0.170 C  
HETATM   13  C   UNL     1     -10.339   9.049  66.918  1.00  0.00    -0.324 C  
HETATM   14  C   UNL     1      -9.997  10.467  66.442  1.00  0.00    -0.271 C  
HETATM   15  C   UNL     1     -10.833  11.106  65.314  1.00  0.00    -0.222 C  
HETATM   16  C   UNL     1     -10.810  12.593  65.685  1.00  0.00    -0.305 C  
HETATM   17  C   UNL     1     -11.346  13.535  64.897  1.00  0.00    -0.347 C  
HETATM   18  C   UNL     1     -10.245  12.795  67.112  1.00  0.00    -0.233 C  
HETATM   19  C   UNL     1      -8.720  13.048  67.120  1.00  0.00    -0.204 C  
HETATM   20  C   UNL     1      -8.488  10.679  66.113  1.00  0.00    -0.159 C  
HETATM   21  C   UNL     1     -10.489  11.381  67.588  1.00  0.00    -0.225 C  
HETATM   22  C   UNL     1      -7.879  11.732  67.082  1.00  0.00    -0.166 C  
ENDROOT
BRANCH  18  23
HETATM   23  O   UNL     1     -11.035  13.792  67.758  1.00  0.00    -0.249 OA 
BRANCH  23  24
HETATM   24  C   UNL     1     -11.062  14.002  69.182  1.00  0.00    -0.259 C  
HETATM   25  O   UNL     1     -12.246  13.422  69.749  1.00  0.00    -0.302 OA 
HETATM   26  C   UNL     1     -12.219  13.417  71.188  1.00  0.00    -0.152 C  
HETATM   27  C   UNL     1     -12.283  14.856  71.678  1.00  0.00    -0.345 C  
HETATM   28  H   UNL     1     -10.706  17.552  71.051  1.00  0.00     0.000 HD 
HETATM   29  C   UNL     1     -11.091  15.659  71.167  1.00  0.00    -0.290 C  
HETATM   30  H   UNL     1     -12.356  15.853  73.413  1.00  0.00     0.000 HD 
HETATM   31  O   UNL     1     -12.316  14.955  73.107  1.00  0.00    -0.370 OA 
HETATM   32  O   UNL     1     -11.448  17.052  71.370  1.00  0.00     0.186 OA 
HETATM   33  C   UNL     1     -10.769  15.453  69.680  1.00  0.00    -0.276 C  
BRANCH  26  34
HETATM   34  C   UNL     1     -13.428  12.625  71.702  1.00  0.00    -0.101 C  
HETATM   35  H   UNL     1     -13.853  10.747  72.084  1.00  0.00     0.000 HD 
HETATM   36  O   UNL     1     -13.105  11.238  71.766  1.00  0.00    -0.472 OA 
ENDBRANCH  26  34
BRANCH  33  37
HETATM   37  O   UNL     1      -9.398  15.765  69.331  1.00  0.00    -0.254 OA 
BRANCH  37  38
HETATM   38  C   UNL     1      -9.013  17.127  69.070  1.00  0.00    -0.110 C  
HETATM   39  O   UNL     1     -10.063  17.786  68.388  1.00  0.00    -0.333 OA 
HETATM   40  C   UNL     1      -9.823  19.104  67.905  1.00  0.00    -0.341 C  
HETATM   41  C   UNL     1      -8.497  19.268  67.152  1.00  0.00    -0.285 C  
HETATM   42  H   UNL     1      -5.729  17.010  68.927  1.00  0.00     0.000 HD 
HETATM   43  O   UNL     1      -6.583  16.928  69.336  1.00  0.00    -0.223 OA 
HETATM   44  O   UNL     1      -8.241  20.657  66.916  1.00  0.00    -0.524 OA 
HETATM   45  C   UNL     1      -7.349  18.687  67.957  1.00  0.00    -0.249 C  
HETATM   46  H   UNL     1      -5.415  18.348  67.681  1.00  0.00     0.000 HD 
HETATM   47  O   UNL     1      -6.133  18.712  67.178  1.00  0.00    -0.168 OA 
HETATM   48  H   UNL     1      -7.419  20.759  66.449  1.00  0.00     0.000 HD 
HETATM   49  C   UNL     1      -7.627  17.261  68.406  1.00  0.00    -0.241 C  
BRANCH  40  50
HETATM   50  C   UNL     1     -10.985  19.432  66.947  1.00  0.00    -0.301 C  
HETATM   51  O   UNL     1     -10.718  19.018  65.605  1.00  0.00    -0.504 OA 
HETATM   52  H   UNL     1     -11.434  19.220  65.015  1.00  0.00     0.000 HD 
ENDBRANCH  40  50
ENDBRANCH  37  38
ENDBRANCH  33  37
ENDBRANCH  23  24
ENDBRANCH  18  23
TORSDOF 6
ENDMDL
MODEL       31
REMARK 921   NORMALIZED FREE ENERGY PREDICTED BY IDOCK:   -6.79 KCAL/MOL
REMARK 922        TOTAL FREE ENERGY PREDICTED BY IDOCK:  -11.16 KCAL/MOL
REMARK 923 INTER-LIGAND FREE ENERGY PREDICTED BY IDOCK:   -8.97 KCAL/MOL
REMARK 924 INTRA-LIGAND FREE ENERGY PREDICTED BY IDOCK:   -2.19 KCAL/MOL
REMARK 927      BINDING AFFINITY PREDICTED BY RF-SCORE:    0.00 PKD
ROOT
HETATM    1  C   UNL     1      -5.463   6.007  66.079  1.00  0.00    -0.013 C  
HETATM    2  C   UNL     1      -6.848   5.720  66.781  1.00  0.00    -0.063 C  
HETATM    3  C   UNL     1      -6.636   4.560  67.752  1.00  0.00    -0.046 C  
HETATM    4  C   UNL     1      -7.959   4.093  68.324  1.00  0.00    -0.077 C  
HETATM    5  C   UNL     1      -8.847   3.441  67.290  1.00  0.00    -0.152 C  
HETATM    6  C   UNL     1      -8.873   4.040  65.845  1.00  0.00    -0.123 C  
HETATM    7  C   UNL     1      -7.790   5.223  65.600  1.00  0.00    -0.100 C  
HETATM    8  C   UNL     1     -10.303   4.500  65.443  1.00  0.00    -0.224 C  
HETATM    9  C   UNL     1      -8.789   2.720  64.987  1.00  0.00    -0.122 C  
HETATM   10  O   UNL     1      -9.634   1.823  65.094  1.00  0.00    -0.012 OA 
HETATM   11  O   UNL     1      -7.784   2.542  64.129  1.00  0.00    -0.072 OA 
HETATM   12  C   UNL     1      -8.188   6.432  64.729  1.00  0.00    -0.092 C  
HETATM   13  C   UNL     1      -8.656   7.651  65.495  1.00  0.00    -0.112 C  
HETATM   14  C   UNL     1      -7.828   8.199  66.666  1.00  0.00    -0.094 C  
HETATM   15  C   UNL     1      -6.772   9.290  66.398  1.00  0.00    -0.071 C  
HETATM   16  C   UNL     1      -6.801  10.107  67.694  1.00  0.00    -0.076 C  
HETATM   17  C   UNL     1      -5.947  11.113  67.925  1.00  0.00    -0.046 C  
HETATM   18  C   UNL     1      -8.015   9.707  68.568  1.00  0.00    -0.089 C  
HETATM   19  C   UNL     1      -7.674   8.601  69.592  1.00  0.00    -0.089 C  
HETATM   20  C   UNL     1      -7.177   7.094  67.552  1.00  0.00    -0.090 C  
HETATM   21  C   UNL     1      -8.822   9.082  67.453  1.00  0.00    -0.125 C  
HETATM   22  C   UNL     1      -7.760   7.161  68.992  1.00  0.00    -0.109 C  
ENDROOT
BRANCH  18  23
HETATM   23  O   UNL     1      -8.570  10.901  69.117  1.00  0.00    -0.138 OA 
BRANCH  23  24
HETATM   24  C   UNL     1      -9.439  11.793  68.394  1.00  0.00    -0.188 C  
HETATM   25  O   UNL     1      -8.741  13.000  68.053  1.00  0.00    -0.171 OA 
HETATM   26  C   UNL     1      -9.493  13.832  67.151  1.00  0.00    -0.244 C  
HETATM   27  C   UNL     1     -10.721  14.351  67.882  1.00  0.00    -0.244 C  
HETATM   28  H   UNL     1     -13.065  13.058  69.611  1.00  0.00     0.000 HD 
HETATM   29  C   UNL     1     -11.608  13.199  68.343  1.00  0.00    -0.337 C  
HETATM   30  H   UNL     1     -12.278  15.562  67.538  1.00  0.00     0.000 HD 
HETATM   31  O   UNL     1     -11.512  15.238  67.081  1.00  0.00    -0.307 OA 
HETATM   32  O   UNL     1     -12.512  13.776  69.324  1.00  0.00    -0.241 OA 
HETATM   33  C   UNL     1     -10.856  12.035  69.004  1.00  0.00    -0.177 C  
BRANCH  26  34
HETATM   34  C   UNL     1      -8.606  15.001  66.701  1.00  0.00    -0.211 C  
HETATM   35  H   UNL     1      -6.754  15.585  66.983  1.00  0.00     0.000 HD 
HETATM   36  O   UNL     1      -7.303  14.861  67.262  1.00  0.00    -0.199 OA 
ENDBRANCH  26  34
BRANCH  33  37
HETATM   37  O   UNL     1     -11.572  10.776  68.957  1.00  0.00    -0.280 OA 
BRANCH  37  38
HETATM   38  C   UNL     1     -11.605   9.923  70.115  1.00  0.00    -0.218 C  
HETATM   39  O   UNL     1     -11.240   8.609  69.738  1.00  0.00    -0.139 OA 
HETATM   40  C   UNL     1     -11.354   7.577  70.714  1.00  0.00    -0.280 C  
HETATM   41  C   UNL     1     -12.684   7.576  71.476  1.00  0.00    -0.359 C  
HETATM   42  H   UNL     1     -13.815  11.352  72.089  1.00  0.00     0.000 HD 
HETATM   43  O   UNL     1     -13.006  11.289  71.594  1.00  0.00    -0.448 OA 
HETATM   44  O   UNL     1     -12.611   6.666  72.579  1.00  0.00    -0.505 OA 
HETATM   45  C   UNL     1     -13.000   8.963  72.005  1.00  0.00    -0.399 C  
HETATM   46  H   UNL     1     -14.519   9.850  72.921  1.00  0.00     0.000 HD 
HETATM   47  O   UNL     1     -14.320   8.982  72.591  1.00  0.00    -0.603 OA 
HETATM   48  H   UNL     1     -13.435   6.664  73.052  1.00  0.00     0.000 HD 
HETATM   49  C   UNL     1     -12.918  10.024  70.918  1.00  0.00    -0.318 C  
BRANCH  40  50
HETATM   50  C   UNL     1     -11.212   6.245  69.952  1.00  0.00    -0.429 C  
HETATM   51  O   UNL     1     -11.317   6.414  68.536  1.00  0.00    -0.540 OA 
HETATM   52  H   UNL     1     -11.230   5.593  68.067  1.00  0.00     0.000 HD 
ENDBRANCH  40  50
ENDBRANCH  37  38
ENDBRANCH  33  37
ENDBRANCH  23  24
ENDBRANCH  18  23
TORSDOF 6
ENDMDL
MODEL       32
REMARK 921   NORMALIZED FREE ENERGY PREDICTED BY IDOCK:   -6.78 KCAL/MOL
REMARK 922        TOTAL FREE ENERGY PREDICTED BY IDOCK:  -11.14 KCAL/MOL
REMARK 923 INTER-LIGAND FREE ENERGY PREDICTED BY IDOCK:   -9.70 KCAL/MOL
REMARK 924 INTRA-LIGAND FREE ENERGY PREDICTED BY IDOCK:   -1.44 KCAL/MOL
REMARK 927      BINDING AFFINITY PREDICTED BY RF-SCORE:    0.00 PKD
ROOT
HETATM    1  C   UNL     1      -6.591   6.501  66.051  1.00  0.00    -0.048 C  
HETATM    2  C   UNL     1      -6.786   6.947  67.554  1.00  0.00    -0.077 C  
HETATM    3  C   UNL     1      -5.399   7.212  68.135  1.00  0.00    -0.020 C  
HETATM    4  C   UNL     1      -5.482   7.457  69.628  1.00  0.00    -0.023 C  
HETATM    5  C   UNL     1      -5.884   6.223  70.401  1.00  0.00    -0.018 C  
HETATM    6  C   UNL     1      -6.957   5.269  69.780  1.00  0.00    -0.058 C  
HETATM    7  C   UNL     1      -7.394   5.661  68.268  1.00  0.00    -0.076 C  
HETATM    8  C   UNL     1      -8.201   5.129  70.702  1.00  0.00    -0.107 C  
HETATM    9  C   UNL     1      -6.288   3.868  70.056  1.00  0.00    -0.028 C  
HETATM   10  O   UNL     1      -6.001   3.500  71.202  1.00  0.00    -0.013 OA 
HETATM   11  O   UNL     1      -6.005   3.050  69.041  1.00  0.00    -0.023 OA 
HETATM   12  C   UNL     1      -8.871   5.505  67.852  1.00  0.00    -0.105 C  
HETATM   13  C   UNL     1      -9.699   6.770  67.926  1.00  0.00    -0.138 C  
HETATM   14  C   UNL     1      -9.192   8.069  67.286  1.00  0.00    -0.164 C  
HETATM   15  C   UNL     1      -9.583   8.396  65.830  1.00  0.00    -0.119 C  
HETATM   16  C   UNL     1      -9.662   9.927  65.844  1.00  0.00    -0.326 C  
HETATM   17  C   UNL     1      -9.883  10.641  64.732  1.00  0.00    -0.372 C  
HETATM   18  C   UNL     1      -9.613  10.467  67.293  1.00  0.00    -0.163 C  
HETATM   19  C   UNL     1      -8.177  10.808  67.754  1.00  0.00    -0.112 C  
HETATM   20  C   UNL     1      -7.657   8.296  67.442  1.00  0.00    -0.098 C  
HETATM   21  C   UNL     1     -10.027   9.178  67.965  1.00  0.00    -0.213 C  
HETATM   22  C   UNL     1      -7.396   9.569  68.296  1.00  0.00    -0.077 C  
ENDROOT
BRANCH  18  23
HETATM   23  O   UNL     1     -10.557  11.531  67.396  1.00  0.00    -0.198 OA 
BRANCH  23  24
HETATM   24  C   UNL     1     -10.766  12.312  68.587  1.00  0.00    -0.233 C  
HETATM   25  O   UNL     1     -11.834  11.757  69.368  1.00  0.00    -0.300 OA 
HETATM   26  C   UNL     1     -11.943  12.371  70.665  1.00  0.00    -0.109 C  
HETATM   27  C   UNL     1     -12.379  13.816  70.481  1.00  0.00    -0.359 C  
HETATM   28  H   UNL     1     -11.407  16.287  68.720  1.00  0.00     0.000 HD 
HETATM   29  C   UNL     1     -11.359  14.592  69.654  1.00  0.00    -0.273 C  
HETATM   30  H   UNL     1     -12.841  15.404  71.610  1.00  0.00     0.000 HD 
HETATM   31  O   UNL     1     -12.568  14.502  71.725  1.00  0.00    -0.321 OA 
HETATM   32  O   UNL     1     -12.042  15.804  69.236  1.00  0.00    -0.350 OA 
HETATM   33  C   UNL     1     -10.860  13.860  68.400  1.00  0.00    -0.254 C  
BRANCH  26  34
HETATM   34  C   UNL     1     -12.982  11.601  71.490  1.00  0.00    -0.358 C  
HETATM   35  H   UNL     1     -13.782   9.809  71.475  1.00  0.00     0.000 HD 
HETATM   36  O   UNL     1     -13.139  10.285  70.964  1.00  0.00    -0.377 OA 
ENDBRANCH  26  34
BRANCH  33  37
HETATM   37  O   UNL     1      -9.569  14.322  67.930  1.00  0.00    -0.210 OA 
BRANCH  37  38
HETATM   38  C   UNL     1      -9.486  15.471  67.067  1.00  0.00    -0.225 C  
HETATM   39  O   UNL     1      -9.468  16.646  67.855  1.00  0.00    -0.222 OA 
HETATM   40  C   UNL     1      -9.538  17.901  67.186  1.00  0.00    -0.280 C  
HETATM   41  C   UNL     1     -10.628  17.983  66.111  1.00  0.00    -0.261 C  
HETATM   42  H   UNL     1     -10.867  14.457  64.259  1.00  0.00     0.000 HD 
HETATM   43  O   UNL     1     -10.223  14.459  64.958  1.00  0.00    -0.409 OA 
HETATM   44  O   UNL     1     -10.467  19.181  65.344  1.00  0.00    -0.462 OA 
HETATM   45  C   UNL     1     -10.549  16.789  65.177  1.00  0.00    -0.114 C  
HETATM   46  H   UNL     1     -11.619  16.051  63.679  1.00  0.00     0.000 HD 
HETATM   47  O   UNL     1     -11.668  16.798  64.263  1.00  0.00    -0.882 OA 
HETATM   48  H   UNL     1     -11.142  19.232  64.678  1.00  0.00     0.000 HD 
HETATM   49  C   UNL     1     -10.531  15.469  65.933  1.00  0.00    -0.342 C  
BRANCH  40  50
HETATM   50  C   UNL     1      -9.828  18.955  68.273  1.00  0.00    -0.374 C  
HETATM   51  O   UNL     1     -10.006  20.264  67.727  1.00  0.00    -0.405 OA 
HETATM   52  H   UNL     1     -10.184  20.914  68.397  1.00  0.00     0.000 HD 
ENDBRANCH  40  50
ENDBRANCH  37  38
ENDBRANCH  33  37
ENDBRANCH  23  24
ENDBRANCH  18  23
TORSDOF 6
ENDMDL
MODEL       33
REMARK 921   NORMALIZED FREE ENERGY PREDICTED BY IDOCK:   -6.76 KCAL/MOL
REMARK 922        TOTAL FREE ENERGY PREDICTED BY IDOCK:  -11.11 KCAL/MOL
REMARK 923 INTER-LIGAND FREE ENERGY PREDICTED BY IDOCK:  -10.43 KCAL/MOL
REMARK 924 INTRA-LIGAND FREE ENERGY PREDICTED BY IDOCK:   -0.68 KCAL/MOL
REMARK 927      BINDING AFFINITY PREDICTED BY RF-SCORE:    0.00 PKD
ROOT
HETATM    1  C   UNL     1     -10.669  18.877  65.647  1.00  0.00    -0.214 C  
HETATM    2  C   UNL     1     -10.021  18.411  67.010  1.00  0.00    -0.355 C  
HETATM    3  C   UNL     1     -10.496  19.374  68.095  1.00  0.00    -0.476 C  
HETATM    4  C   UNL     1      -9.766  19.115  69.398  1.00  0.00    -0.127 C  
HETATM    5  C   UNL     1      -8.299  19.466  69.327  1.00  0.00    -0.053 C  
HETATM    6  C   UNL     1      -7.521  19.156  68.005  1.00  0.00    -0.296 C  
HETATM    7  C   UNL     1      -8.459  18.625  66.794  1.00  0.00    -0.292 C  
HETATM    8  C   UNL     1      -6.332  18.185  68.257  1.00  0.00    -0.193 C  
HETATM    9  C   UNL     1      -6.710  20.497  67.830  1.00  0.00    -0.308 C  
HETATM   10  O   UNL     1      -5.930  20.902  68.701  1.00  0.00    -0.340 OA 
HETATM   11  O   UNL     1      -6.864  21.232  66.729  1.00  0.00    -0.374 OA 
HETATM   12  C   UNL     1      -7.923  17.520  65.861  1.00  0.00    -0.071 C  
HETATM   13  C   UNL     1      -8.368  16.114  66.205  1.00  0.00    -0.322 C  
HETATM   14  C   UNL     1      -9.851  15.807  66.452  1.00  0.00    -0.296 C  
HETATM   15  C   UNL     1     -10.733  15.349  65.273  1.00  0.00    -0.439 C  
HETATM   16  C   UNL     1     -11.733  14.407  65.952  1.00  0.00    -0.371 C  
HETATM   17  C   UNL     1     -12.759  13.856  65.290  1.00  0.00    -0.485 C  
HETATM   18  C   UNL     1     -11.291  14.088  67.400  1.00  0.00    -0.329 C  
HETATM   19  C   UNL     1     -11.909  15.052  68.439  1.00  0.00    -0.298 C  
HETATM   20  C   UNL     1     -10.610  16.928  67.224  1.00  0.00    -0.270 C  
HETATM   21  C   UNL     1      -9.838  14.464  67.216  1.00  0.00    -0.247 C  
HETATM   22  C   UNL     1     -11.105  16.383  68.594  1.00  0.00    -0.352 C  
ENDROOT
BRANCH  18  23
HETATM   23  O   UNL     1     -11.529  12.702  67.635  1.00  0.00    -0.291 OA 
BRANCH  23  24
HETATM   24  C   UNL     1     -10.618  11.652  67.258  1.00  0.00    -0.228 C  
HETATM   25  O   UNL     1     -10.598  11.498  65.831  1.00  0.00    -0.254 OA 
HETATM   26  C   UNL     1      -9.552  10.613  65.389  1.00  0.00    -0.230 C  
HETATM   27  C   UNL     1      -9.873   9.207  65.873  1.00  0.00    -0.235 C  
HETATM   28  H   UNL     1     -10.660   7.875  68.659  1.00  0.00     0.000 HD 
HETATM   29  C   UNL     1      -9.948   9.158  67.396  1.00  0.00    -0.206 C  
HETATM   30  H   UNL     1      -9.114   7.359  65.738  1.00  0.00     0.000 HD 
HETATM   31  O   UNL     1      -8.913   8.236  65.436  1.00  0.00    -0.127 OA 
HETATM   32  O   UNL     1     -10.613   7.905  67.710  1.00  0.00    -0.223 OA 
HETATM   33  C   UNL     1     -10.745  10.304  68.036  1.00  0.00    -0.255 C  
BRANCH  26  34
HETATM   34  C   UNL     1      -9.489  10.648  63.857  1.00  0.00    -0.282 C  
HETATM   35  H   UNL     1     -10.584  11.365  62.394  1.00  0.00     0.000 HD 
HETATM   36  O   UNL     1     -10.623  11.343  63.343  1.00  0.00    -0.379 OA 
ENDBRANCH  26  34
BRANCH  33  37
HETATM   37  O   UNL     1     -10.390  10.562  69.416  1.00  0.00    -0.221 OA 
BRANCH  37  38
HETATM   38  C   UNL     1      -9.052  10.297  69.877  1.00  0.00     0.034 C  
HETATM   39  O   UNL     1      -8.154  10.401  68.790  1.00  0.00    -0.109 OA 
HETATM   40  C   UNL     1      -6.796  10.029  69.006  1.00  0.00    -0.055 C  
HETATM   41  C   UNL     1      -6.617   8.693  69.734  1.00  0.00    -0.042 C  
HETATM   42  H   UNL     1      -9.485   8.337  72.483  1.00  0.00     0.000 HD 
HETATM   43  O   UNL     1      -9.562   9.139  71.979  1.00  0.00    -0.300 OA 
HETATM   44  O   UNL     1      -5.246   8.523  70.109  1.00  0.00    -0.022 OA 
HETATM   45  C   UNL     1      -7.477   8.644  70.984  1.00  0.00    -0.090 C  
HETATM   46  H   UNL     1      -7.952   7.300  72.362  1.00  0.00     0.000 HD 
HETATM   47  O   UNL     1      -7.414   7.330  71.580  1.00  0.00    -0.080 OA 
HETATM   48  H   UNL     1      -5.134   7.694  70.560  1.00  0.00     0.000 HD 
HETATM   49  C   UNL     1      -8.928   8.996  70.697  1.00  0.00    -0.220 C  
BRANCH  40  50
HETATM   50  C   UNL     1      -6.148   9.929  67.611  1.00  0.00    -0.054 C  
HETATM   51  O   UNL     1      -6.169   8.595  67.096  1.00  0.00    -0.054 OA 
HETATM   52  H   UNL     1      -5.769   8.534  66.236  1.00  0.00     0.000 HD 
ENDBRANCH  40  50
ENDBRANCH  37  38
ENDBRANCH  33  37
ENDBRANCH  23  24
ENDBRANCH  18  23
TORSDOF 6
ENDMDL
MODEL       34
REMARK 921   NORMALIZED FREE ENERGY PREDICTED BY IDOCK:   -6.73 KCAL/MOL
REMARK 922        TOTAL FREE ENERGY PREDICTED BY IDOCK:  -11.07 KCAL/MOL
REMARK 923 INTER-LIGAND FREE ENERGY PREDICTED BY IDOCK:  -11.73 KCAL/MOL
REMARK 924 INTRA-LIGAND FREE ENERGY PREDICTED BY IDOCK:    0.66 KCAL/MOL
REMARK 927      BINDING AFFINITY PREDICTED BY RF-SCORE:    0.00 PKD
ROOT
HETATM    1  C   UNL     1     -11.340   4.971  73.090  1.00  0.00    -0.397 C  
HETATM    2  C   UNL     1     -10.115   5.304  72.150  1.00  0.00    -0.241 C  
HETATM    3  C   UNL     1      -9.944   4.129  71.190  1.00  0.00    -0.211 C  
HETATM    4  C   UNL     1      -8.671   4.280  70.382  1.00  0.00    -0.118 C  
HETATM    5  C   UNL     1      -7.424   4.145  71.224  1.00  0.00    -0.055 C  
HETATM    6  C   UNL     1      -7.426   4.758  72.663  1.00  0.00    -0.086 C  
HETATM    7  C   UNL     1      -8.866   5.338  73.134  1.00  0.00    -0.119 C  
HETATM    8  C   UNL     1      -6.310   5.829  72.829  1.00  0.00    -0.061 C  
HETATM    9  C   UNL     1      -6.759   3.582  73.475  1.00  0.00    -0.035 C  
HETATM   10  O   UNL     1      -5.633   3.156  73.193  1.00  0.00     0.000 OA 
HETATM   11  O   UNL     1      -7.415   3.012  74.486  1.00  0.00    -0.049 OA 
HETATM   12  C   UNL     1      -8.913   6.636  73.965  1.00  0.00    -0.181 C  
HETATM   13  C   UNL     1      -9.181   7.899  73.174  1.00  0.00    -0.331 C  
HETATM   14  C   UNL     1     -10.352   7.961  72.184  1.00  0.00    -0.297 C  
HETATM   15  C   UNL     1     -11.724   8.473  72.668  1.00  0.00    -0.301 C  
HETATM   16  C   UNL     1     -12.286   9.155  71.416  1.00  0.00    -0.407 C  
HETATM   17  C   UNL     1     -13.526   9.658  71.372  1.00  0.00    -0.403 C  
HETATM   18  C   UNL     1     -11.190   9.303  70.333  1.00  0.00    -0.247 C  
HETATM   19  C   UNL     1     -11.165   8.115  69.343  1.00  0.00     0.213 C  
HETATM   20  C   UNL     1     -10.577   6.642  71.384  1.00  0.00    -0.255 C  
HETATM   21  C   UNL     1     -10.012   9.159  71.268  1.00  0.00    -0.373 C  
HETATM   22  C   UNL     1     -10.340   6.897  69.868  1.00  0.00    -0.223 C  
ENDROOT
BRANCH  18  23
HETATM   23  O   UNL     1     -11.334  10.592  69.739  1.00  0.00    -0.257 OA 
BRANCH  23  24
HETATM   24  C   UNL     1     -10.931  10.909  68.394  1.00  0.00    -0.237 C  
HETATM   25  O   UNL     1     -10.311   9.771  67.777  1.00  0.00    -0.195 OA 
HETATM   26  C   UNL     1     -10.083   9.966  66.369  1.00  0.00    -0.240 C  
HETATM   27  C   UNL     1      -9.033  11.053  66.196  1.00  0.00    -0.191 C  
HETATM   28  H   UNL     1      -8.610  14.014  67.295  1.00  0.00     0.000 HD 
HETATM   29  C   UNL     1      -9.507  12.370  66.805  1.00  0.00    -0.228 C  
HETATM   30  H   UNL     1      -8.040  11.964  64.715  1.00  0.00     0.000 HD 
HETATM   31  O   UNL     1      -8.695  11.286  64.823  1.00  0.00     0.026 OA 
HETATM   32  O   UNL     1      -8.315  13.194  66.916  1.00  0.00    -0.129 OA 
HETATM   33  C   UNL     1     -10.140  12.242  68.197  1.00  0.00    -0.211 C  
BRANCH  26  34
HETATM   34  C   UNL     1      -9.589   8.647  65.761  1.00  0.00    -0.064 C  
HETATM   35  H   UNL     1      -7.891   7.671  65.642  1.00  0.00     0.000 HD 
HETATM   36  O   UNL     1      -8.196   8.488  66.018  1.00  0.00    -0.107 OA 
ENDBRANCH  26  34
BRANCH  33  37
HETATM   37  O   UNL     1     -11.032  13.332  68.535  1.00  0.00    -0.246 OA 
BRANCH  37  38
HETATM   38  C   UNL     1     -11.485  14.236  67.511  1.00  0.00    -0.345 C  
HETATM   39  O   UNL     1     -11.741  13.507  66.325  1.00  0.00    -0.335 OA 
HETATM   40  C   UNL     1     -12.059  14.239  65.146  1.00  0.00    -0.410 C  
HETATM   41  C   UNL     1     -11.124  15.422  64.867  1.00  0.00    -0.423 C  
HETATM   42  H   UNL     1     -10.133  17.117  68.339  1.00  0.00     0.000 HD 
HETATM   43  O   UNL     1     -10.693  16.358  68.451  1.00  0.00    -0.293 OA 
HETATM   44  O   UNL     1     -11.657  16.225  63.808  1.00  0.00    -1.539 OA 
HETATM   45  C   UNL     1     -10.968  16.285  66.106  1.00  0.00     0.006 C  
HETATM   46  H   UNL     1      -9.875  17.846  66.653  1.00  0.00     0.000 HD 
HETATM   47  O   UNL     1      -9.973  17.307  65.878  1.00  0.00    -0.490 OA 
HETATM   48  H   UNL     1     -11.078  16.958  63.635  1.00  0.00     0.000 HD 
HETATM   49  C   UNL     1     -10.576  15.468  67.328  1.00  0.00    -0.299 C  
BRANCH  40  50
HETATM   50  C   UNL     1     -11.962  13.239  63.977  1.00  0.00    -0.465 C  
HETATM   51  O   UNL     1     -12.434  13.793  62.746  1.00  0.00    -0.879 OA 
HETATM   52  H   UNL     1     -12.374  13.176  62.026  1.00  0.00     0.000 HD 
ENDBRANCH  40  50
ENDBRANCH  37  38
ENDBRANCH  33  37
ENDBRANCH  23  24
ENDBRANCH  18  23
TORSDOF 6
ENDMDL
MODEL       35
REMARK 921   NORMALIZED FREE ENERGY PREDICTED BY IDOCK:   -6.70 KCAL/MOL
REMARK 922        TOTAL FREE ENERGY PREDICTED BY IDOCK:  -11.03 KCAL/MOL
REMARK 923 INTER-LIGAND FREE ENERGY PREDICTED BY IDOCK:  -10.14 KCAL/MOL
REMARK 924 INTRA-LIGAND FREE ENERGY PREDICTED BY IDOCK:   -0.89 KCAL/MOL
REMARK 927      BINDING AFFINITY PREDICTED BY RF-SCORE:    0.00 PKD
ROOT
HETATM    1  C   UNL     1     -10.598  17.213  65.368  1.00  0.00    -0.116 C  
HETATM    2  C   UNL     1     -10.009  17.344  66.828  1.00  0.00    -0.307 C  
HETATM    3  C   UNL     1     -10.781  18.455  67.534  1.00  0.00    -0.399 C  
HETATM    4  C   UNL     1     -10.150  18.778  68.873  1.00  0.00    -0.360 C  
HETATM    5  C   UNL     1      -8.788  19.417  68.740  1.00  0.00    -0.385 C  
HETATM    6  C   UNL     1      -7.832  18.907  67.611  1.00  0.00    -0.265 C  
HETATM    7  C   UNL     1      -8.512  17.834  66.603  1.00  0.00    -0.283 C  
HETATM    8  C   UNL     1      -6.499  18.358  68.195  1.00  0.00    -0.200 C  
HETATM    9  C   UNL     1      -7.304  20.280  67.043  1.00  0.00    -0.284 C  
HETATM   10  O   UNL     1      -6.718  21.097  67.762  1.00  0.00    -0.335 OA 
HETATM   11  O   UNL     1      -7.494  20.590  65.760  1.00  0.00    -0.146 OA 
HETATM   12  C   UNL     1      -7.666  16.651  66.088  1.00  0.00    -0.148 C  
HETATM   13  C   UNL     1      -7.842  15.354  66.848  1.00  0.00    -0.196 C  
HETATM   14  C   UNL     1      -9.247  14.805  67.133  1.00  0.00    -0.233 C  
HETATM   15  C   UNL     1      -9.890  13.822  66.135  1.00  0.00    -0.310 C  
HETATM   16  C   UNL     1     -10.737  12.928  67.047  1.00  0.00    -0.273 C  
HETATM   17  C   UNL     1     -11.554  11.982  66.564  1.00  0.00    -0.384 C  
HETATM   18  C   UNL     1     -10.387  13.173  68.535  1.00  0.00    -0.238 C  
HETATM   19  C   UNL     1     -11.294  14.239  69.193  1.00  0.00    -0.312 C  
HETATM   20  C   UNL     1     -10.297  15.903  67.484  1.00  0.00    -0.283 C  
HETATM   21  C   UNL     1      -9.034  13.798  68.286  1.00  0.00    -0.186 C  
HETATM   22  C   UNL     1     -10.804  15.701  68.941  1.00  0.00    -0.252 C  
ENDROOT
BRANCH  18  23
HETATM   23  O   UNL     1     -10.355  11.907  69.191  1.00  0.00    -0.094 OA 
BRANCH  23  24
HETATM   24  C   UNL     1     -11.488  11.312  69.851  1.00  0.00    -0.293 C  
HETATM   25  O   UNL     1     -11.926  12.142  70.937  1.00  0.00    -0.213 OA 
HETATM   26  C   UNL     1     -13.179  11.702  71.493  1.00  0.00    -0.201 C  
HETATM   27  C   UNL     1     -12.962  10.356  72.166  1.00  0.00    -0.292 C  
HETATM   28  H   UNL     1     -11.656   7.570  71.336  1.00  0.00     0.000 HD 
HETATM   29  C   UNL     1     -12.478   9.315  71.162  1.00  0.00    -0.272 C  
HETATM   30  H   UNL     1     -14.011   9.015  73.222  1.00  0.00     0.000 HD 
HETATM   31  O   UNL     1     -14.146   9.855  72.801  1.00  0.00    -0.012 OA 
HETATM   32  O   UNL     1     -11.958   8.219  71.962  1.00  0.00    -0.305 OA 
HETATM   33  C   UNL     1     -11.365   9.800  70.222  1.00  0.00    -0.272 C  
BRANCH  26  34
HETATM   34  C   UNL     1     -13.657  12.740  72.516  1.00  0.00    -0.275 C  
HETATM   35  H   UNL     1     -13.237  14.602  72.971  1.00  0.00     0.000 HD 
HETATM   36  O   UNL     1     -12.941  13.960  72.337  1.00  0.00    -0.379 OA 
ENDBRANCH  26  34
BRANCH  33  37
HETATM   37  O   UNL     1     -11.279   9.052  68.984  1.00  0.00     0.051 OA 
BRANCH  37  38
HETATM   38  C   UNL     1     -10.181   8.147  68.764  1.00  0.00    -0.207 C  
HETATM   39  O   UNL     1      -8.985   8.741  69.231  1.00  0.00    -0.141 OA 
HETATM   40  C   UNL     1      -7.758   8.067  68.970  1.00  0.00    -0.100 C  
HETATM   41  C   UNL     1      -7.598   7.586  67.523  1.00  0.00    -0.113 C  
HETATM   42  H   UNL     1     -11.146   6.344  66.188  1.00  0.00     0.000 HD 
HETATM   43  O   UNL     1     -11.188   6.681  67.075  1.00  0.00    -0.404 OA 
HETATM   44  O   UNL     1      -6.457   6.728  67.419  1.00  0.00    -0.045 OA 
HETATM   45  C   UNL     1      -8.830   6.821  67.074  1.00  0.00    -0.115 C  
HETATM   46  H   UNL     1      -9.503   6.024  65.388  1.00  0.00     0.000 HD 
HETATM   47  O   UNL     1      -8.732   6.502  65.669  1.00  0.00    -0.150 OA 
HETATM   48  H   UNL     1      -6.357   6.430  66.523  1.00  0.00     0.000 HD 
HETATM   49  C   UNL     1     -10.112   7.601  67.323  1.00  0.00    -0.237 C  
BRANCH  40  50
HETATM   50  C   UNL     1      -6.636   9.075  69.288  1.00  0.00    -0.049 C  
HETATM   51  O   UNL     1      -7.006   9.993  70.321  1.00  0.00    -0.128 OA 
HETATM   52  H   UNL     1      -6.314  10.614  70.517  1.00  0.00     0.000 HD 
ENDBRANCH  40  50
ENDBRANCH  37  38
ENDBRANCH  33  37
ENDBRANCH  23  24
ENDBRANCH  18  23
TORSDOF 6
ENDMDL
MODEL       36
REMARK 921   NORMALIZED FREE ENERGY PREDICTED BY IDOCK:   -6.67 KCAL/MOL
REMARK 922        TOTAL FREE ENERGY PREDICTED BY IDOCK:  -11.00 KCAL/MOL
REMARK 923 INTER-LIGAND FREE ENERGY PREDICTED BY IDOCK:   -9.43 KCAL/MOL
REMARK 924 INTRA-LIGAND FREE ENERGY PREDICTED BY IDOCK:   -1.57 KCAL/MOL
REMARK 927      BINDING AFFINITY PREDICTED BY RF-SCORE:    0.00 PKD
ROOT
HETATM    1  C   UNL     1     -10.344  15.494  70.421  1.00  0.00    -0.131 C  
HETATM    2  C   UNL     1      -9.763  15.285  68.967  1.00  0.00    -0.234 C  
HETATM    3  C   UNL     1      -8.312  15.762  68.982  1.00  0.00    -0.236 C  
HETATM    4  C   UNL     1      -7.740  15.777  67.579  1.00  0.00    -0.186 C  
HETATM    5  C   UNL     1      -8.376  16.826  66.698  1.00  0.00    -0.296 C  
HETATM    6  C   UNL     1      -9.913  17.086  66.839  1.00  0.00    -0.289 C  
HETATM    7  C   UNL     1     -10.611  16.279  68.060  1.00  0.00    -0.308 C  
HETATM    8  C   UNL     1     -10.660  16.830  65.499  1.00  0.00    -0.243 C  
HETATM    9  C   UNL     1      -9.937  18.663  66.835  1.00  0.00    -0.345 C  
HETATM   10  O   UNL     1      -9.477  19.317  65.891  1.00  0.00    -0.429 OA 
HETATM   11  O   UNL     1     -10.450  19.326  67.872  1.00  0.00    -0.403 OA 
HETATM   12  C   UNL     1     -12.025  15.697  67.859  1.00  0.00     0.187 C  
HETATM   13  C   UNL     1     -12.071  14.233  67.476  1.00  0.00    -0.347 C  
HETATM   14  C   UNL     1     -11.272  13.196  68.277  1.00  0.00    -0.307 C  
HETATM   15  C   UNL     1     -11.945  12.476  69.464  1.00  0.00    -0.329 C  
HETATM   16  C   UNL     1     -11.280  11.095  69.435  1.00  0.00    -0.334 C  
HETATM   17  C   UNL     1     -11.512  10.171  70.377  1.00  0.00    -0.400 C  
HETATM   18  C   UNL     1     -10.476  10.899  68.127  1.00  0.00    -0.182 C  
HETATM   19  C   UNL     1      -8.993  11.309  68.272  1.00  0.00    -0.172 C  
HETATM   20  C   UNL     1      -9.869  13.695  68.740  1.00  0.00    -0.069 C  
HETATM   21  C   UNL     1     -11.185  11.974  67.334  1.00  0.00    -0.368 C  
HETATM   22  C   UNL     1      -8.756  12.840  68.069  1.00  0.00    -0.194 C  
ENDROOT
BRANCH  18  23
HETATM   23  O   UNL     1     -10.702   9.567  67.670  1.00  0.00    -0.274 OA 
BRANCH  23  24
HETATM   24  C   UNL     1      -9.710   8.523  67.707  1.00  0.00    -0.162 C  
HETATM   25  O   UNL     1      -9.060   8.408  66.433  1.00  0.00    -0.163 OA 
HETATM   26  C   UNL     1      -7.920   7.529  66.476  1.00  0.00    -0.107 C  
HETATM   27  C   UNL     1      -8.411   6.113  66.731  1.00  0.00    -0.111 C  
HETATM   28  H   UNL     1     -10.339   4.710  68.844  1.00  0.00     0.000 HD 
HETATM   29  C   UNL     1      -9.152   6.023  68.061  1.00  0.00    -0.117 C  
HETATM   30  H   UNL     1      -7.657   4.265  66.896  1.00  0.00     0.000 HD 
HETATM   31  O   UNL     1      -7.350   5.150  66.738  1.00  0.00    -0.083 OA 
HETATM   32  O   UNL     1      -9.878   4.765  68.015  1.00  0.00    -0.154 OA 
HETATM   33  C   UNL     1     -10.159   7.155  68.312  1.00  0.00    -0.167 C  
BRANCH  26  34
HETATM   34  C   UNL     1      -7.186   7.606  65.132  1.00  0.00    -0.069 C  
HETATM   35  H   UNL     1      -7.674   7.819  63.242  1.00  0.00     0.000 HD 
HETATM   36  O   UNL     1      -8.129   7.771  64.075  1.00  0.00    -0.131 OA 
ENDBRANCH  26  34
BRANCH  33  37
HETATM   37  O   UNL     1     -10.453   7.374  69.714  1.00  0.00    -0.217 OA 
BRANCH  37  38
HETATM   38  C   UNL     1      -9.520   6.941  70.722  1.00  0.00    -0.165 C  
HETATM   39  O   UNL     1     -10.082   5.865  71.447  1.00  0.00    -0.187 OA 
HETATM   40  C   UNL     1      -9.377   5.387  72.589  1.00  0.00    -0.140 C  
HETATM   41  C   UNL     1      -8.895   6.489  73.538  1.00  0.00    -0.124 C  
HETATM   42  H   UNL     1      -7.747   9.634  71.369  1.00  0.00     0.000 HD 
HETATM   43  O   UNL     1      -8.083   8.926  70.833  1.00  0.00    -0.135 OA 
HETATM   44  O   UNL     1      -8.007   5.936  74.516  1.00  0.00    -0.102 OA 
HETATM   45  C   UNL     1      -8.163   7.575  72.770  1.00  0.00    -0.117 C  
HETATM   46  H   UNL     1      -7.386   9.355  73.167  1.00  0.00     0.000 HD 
HETATM   47  O   UNL     1      -7.843   8.676  73.648  1.00  0.00    -0.406 OA 
HETATM   48  H   UNL     1      -7.708   6.619  75.104  1.00  0.00     0.000 HD 
HETATM   49  C   UNL     1      -8.974   8.092  71.592  1.00  0.00    -0.150 C  
BRANCH  40  50
HETATM   50  C   UNL     1     -10.355   4.467  73.347  1.00  0.00    -0.183 C  
HETATM   51  O   UNL     1     -11.039   5.151  74.400  1.00  0.00    -0.355 OA 
HETATM   52  H   UNL     1     -11.641   4.584  74.867  1.00  0.00     0.000 HD 
ENDBRANCH  40  50
ENDBRANCH  37  38
ENDBRANCH  33  37
ENDBRANCH  23  24
ENDBRANCH  18  23
TORSDOF 6
ENDMDL
MODEL       37
REMARK 921   NORMALIZED FREE ENERGY PREDICTED BY IDOCK:   -6.62 KCAL/MOL
REMARK 922        TOTAL FREE ENERGY PREDICTED BY IDOCK:  -10.93 KCAL/MOL
REMARK 923 INTER-LIGAND FREE ENERGY PREDICTED BY IDOCK:   -9.73 KCAL/MOL
REMARK 924 INTRA-LIGAND FREE ENERGY PREDICTED BY IDOCK:   -1.20 KCAL/MOL
REMARK 927      BINDING AFFINITY PREDICTED BY RF-SCORE:    0.00 PKD
ROOT
HETATM    1  C   UNL     1      -6.760   5.815  70.258  1.00  0.00    -0.048 C  
HETATM    2  C   UNL     1      -7.873   6.783  70.822  1.00  0.00    -0.101 C  
HETATM    3  C   UNL     1      -7.520   7.086  72.277  1.00  0.00    -0.086 C  
HETATM    4  C   UNL     1      -8.640   7.852  72.951  1.00  0.00    -0.236 C  
HETATM    5  C   UNL     1      -9.891   7.024  73.127  1.00  0.00    -0.229 C  
HETATM    6  C   UNL     1     -10.297   6.033  71.986  1.00  0.00    -0.241 C  
HETATM    7  C   UNL     1      -9.201   5.908  70.798  1.00  0.00    -0.167 C  
HETATM    8  C   UNL     1     -11.705   6.365  71.416  1.00  0.00    -0.364 C  
HETATM    9  C   UNL     1     -10.671   4.758  72.836  1.00  0.00    -0.232 C  
HETATM   10  O   UNL     1     -11.550   4.792  73.705  1.00  0.00    -0.157 OA 
HETATM   11  O   UNL     1     -10.027   3.608  72.634  1.00  0.00    -0.144 OA 
HETATM   12  C   UNL     1      -9.690   5.774  69.341  1.00  0.00    -0.200 C  
HETATM   13  C   UNL     1      -9.720   7.065  68.550  1.00  0.00    -0.141 C  
HETATM   14  C   UNL     1      -8.495   7.989  68.525  1.00  0.00    -0.128 C  
HETATM   15  C   UNL     1      -7.443   7.819  67.410  1.00  0.00    -0.093 C  
HETATM   16  C   UNL     1      -6.946   9.253  67.200  1.00  0.00    -0.085 C  
HETATM   17  C   UNL     1      -5.936   9.545  66.370  1.00  0.00    -0.059 C  
HETATM   18  C   UNL     1      -7.858  10.264  67.936  1.00  0.00    -0.101 C  
HETATM   19  C   UNL     1      -7.359  10.589  69.363  1.00  0.00    -0.133 C  
HETATM   20  C   UNL     1      -7.749   8.089  69.890  1.00  0.00    -0.099 C  
HETATM   21  C   UNL     1      -9.056   9.350  68.055  1.00  0.00    -0.131 C  
HETATM   22  C   UNL     1      -7.826   9.547  70.428  1.00  0.00    -0.190 C  
ENDROOT
BRANCH  18  23
HETATM   23  O   UNL     1      -8.042  11.390  67.080  1.00  0.00    -0.140 OA 
BRANCH  23  24
HETATM   24  C   UNL     1      -9.166  11.555  66.195  1.00  0.00    -0.219 C  
HETATM   25  O   UNL     1      -8.855  11.039  64.892  1.00  0.00    -0.159 OA 
HETATM   26  C   UNL     1     -10.009  10.986  64.034  1.00  0.00    -0.335 C  
HETATM   27  C   UNL     1     -10.453  12.409  63.733  1.00  0.00    -0.443 C  
HETATM   28  H   UNL     1     -11.099  15.012  65.454  1.00  0.00     0.000 HD 
HETATM   29  C   UNL     1     -10.829  13.146  65.015  1.00  0.00    -0.315 C  
HETATM   30  H   UNL     1     -11.848  13.353  62.648  1.00  0.00     0.000 HD 
HETATM   31  O   UNL     1     -11.570  12.464  62.836  1.00  0.00    -0.123 OA 
HETATM   32  O   UNL     1     -10.865  14.553  64.655  1.00  0.00    -0.391 OA 
HETATM   33  C   UNL     1      -9.835  12.966  66.171  1.00  0.00    -0.270 C  
BRANCH  26  34
HETATM   34  C   UNL     1      -9.627  10.261  62.737  1.00  0.00    -0.239 C  
HETATM   35  H   UNL     1      -8.387   8.835  62.204  1.00  0.00     0.000 HD 
HETATM   36  O   UNL     1      -8.624   9.284  63.007  1.00  0.00    -0.203 OA 
ENDBRANCH  26  34
BRANCH  33  37
HETATM   37  O   UNL     1     -10.415  13.196  67.479  1.00  0.00    -0.226 OA 
BRANCH  37  38
HETATM   38  C   UNL     1     -10.811  14.524  67.869  1.00  0.00    -0.256 C  
HETATM   39  O   UNL     1      -9.882  15.458  67.353  1.00  0.00    -0.216 OA 
HETATM   40  C   UNL     1     -10.012  16.820  67.751  1.00  0.00    -0.268 C  
HETATM   41  C   UNL     1     -10.207  17.020  69.258  1.00  0.00    -0.246 C  
HETATM   42  H   UNL     1     -12.490  14.065  70.659  1.00  0.00     0.000 HD 
HETATM   43  O   UNL     1     -12.312  13.978  69.730  1.00  0.00    -0.336 OA 
HETATM   44  O   UNL     1     -10.559  18.382  69.527  1.00  0.00    -0.243 OA 
HETATM   45  C   UNL     1     -11.308  16.116  69.781  1.00  0.00    -0.323 C  
HETATM   46  H   UNL     1     -12.070  15.638  71.548  1.00  0.00     0.000 HD 
HETATM   47  O   UNL     1     -11.381  16.204  71.221  1.00  0.00    -0.384 OA 
HETATM   48  H   UNL     1     -10.679  18.506  70.461  1.00  0.00     0.000 HD 
HETATM   49  C   UNL     1     -11.099  14.665  69.377  1.00  0.00    -0.268 C  
BRANCH  40  50
HETATM   50  C   UNL     1      -8.711  17.523  67.316  1.00  0.00    -0.230 C  
HETATM   51  O   UNL     1      -8.474  17.407  65.911  1.00  0.00    -0.530 OA 
HETATM   52  H   UNL     1      -7.671  17.840  65.644  1.00  0.00     0.000 HD 
ENDBRANCH  40  50
ENDBRANCH  37  38
ENDBRANCH  33  37
ENDBRANCH  23  24
ENDBRANCH  18  23
TORSDOF 6
ENDMDL
MODEL       38
REMARK 921   NORMALIZED FREE ENERGY PREDICTED BY IDOCK:   -6.60 KCAL/MOL
REMARK 922        TOTAL FREE ENERGY PREDICTED BY IDOCK:  -10.90 KCAL/MOL
REMARK 923 INTER-LIGAND FREE ENERGY PREDICTED BY IDOCK:   -9.01 KCAL/MOL
REMARK 924 INTRA-LIGAND FREE ENERGY PREDICTED BY IDOCK:   -1.89 KCAL/MOL
REMARK 927      BINDING AFFINITY PREDICTED BY RF-SCORE:    0.00 PKD
ROOT
HETATM    1  C   UNL     1      -6.522  18.289  69.900  1.00  0.00     0.020 C  
HETATM    2  C   UNL     1      -6.894  17.689  68.486  1.00  0.00    -0.223 C  
HETATM    3  C   UNL     1      -6.069  18.437  67.442  1.00  0.00    -0.174 C  
HETATM    4  C   UNL     1      -6.507  18.057  66.042  1.00  0.00    -0.299 C  
HETATM    5  C   UNL     1      -7.897  18.547  65.711  1.00  0.00     0.054 C  
HETATM    6  C   UNL     1      -8.989  18.505  66.831  1.00  0.00    -0.280 C  
HETATM    7  C   UNL     1      -8.425  18.074  68.289  1.00  0.00    -0.293 C  
HETATM    8  C   UNL     1     -10.199  17.621  66.416  1.00  0.00    -0.364 C  
HETATM    9  C   UNL     1      -9.647  19.926  66.641  1.00  0.00    -0.411 C  
HETATM   10  O   UNL     1     -10.151  20.269  65.565  1.00  0.00    -0.298 OA 
HETATM   11  O   UNL     1      -9.660  20.797  67.650  1.00  0.00    -0.362 OA 
HETATM   12  C   UNL     1      -9.292  17.170  69.189  1.00  0.00    -0.063 C  
HETATM   13  C   UNL     1      -8.957  15.695  69.135  1.00  0.00    -0.257 C  
HETATM   14  C   UNL     1      -7.506  15.222  69.295  1.00  0.00    -0.200 C  
HETATM   15  C   UNL     1      -6.980  14.862  70.700  1.00  0.00     0.474 C  
HETATM   16  C   UNL     1      -5.975  13.744  70.403  1.00  0.00    -0.156 C  
HETATM   17  C   UNL     1      -5.203  13.205  71.356  1.00  0.00    -0.180 C  
HETATM   18  C   UNL     1      -6.110  13.258  68.939  1.00  0.00    -0.083 C  
HETATM   19  C   UNL     1      -5.158  14.001  67.974  1.00  0.00    -0.098 C  
HETATM   20  C   UNL     1      -6.458  16.144  68.602  1.00  0.00    -0.120 C  
HETATM   21  C   UNL     1      -7.509  13.788  68.718  1.00  0.00    -0.098 C  
HETATM   22  C   UNL     1      -5.734  15.362  67.469  1.00  0.00    -0.025 C  
ENDROOT
BRANCH  18  23
HETATM   23  O   UNL     1      -5.998  11.837  68.938  1.00  0.00    -0.048 OA 
BRANCH  23  24
HETATM   24  C   UNL     1      -7.114  10.939  69.085  1.00  0.00    -0.109 C  
HETATM   25  O   UNL     1      -6.892  10.042  70.183  1.00  0.00    -0.103 OA 
HETATM   26  C   UNL     1      -8.062   9.268  70.504  1.00  0.00    -0.174 C  
HETATM   27  C   UNL     1      -8.348   8.321  69.350  1.00  0.00    -0.122 C  
HETATM   28  H   UNL     1      -8.655   8.598  66.191  1.00  0.00     0.000 HD 
HETATM   29  C   UNL     1      -8.609   9.094  68.061  1.00  0.00    -0.125 C  
HETATM   30  H   UNL     1      -9.648   6.872  68.878  1.00  0.00     0.000 HD 
HETATM   31  O   UNL     1      -9.470   7.464  69.599  1.00  0.00    -0.157 OA 
HETATM   32  O   UNL     1      -8.493   8.116  66.993  1.00  0.00    -0.117 OA 
HETATM   33  C   UNL     1      -7.618  10.234  67.786  1.00  0.00    -0.089 C  
BRANCH  26  34
HETATM   34  C   UNL     1      -7.793   8.476  71.790  1.00  0.00    -0.120 C  
HETATM   35  H   UNL     1      -6.637   8.654  73.367  1.00  0.00     0.000 HD 
HETATM   36  O   UNL     1      -6.803   9.144  72.571  1.00  0.00    -0.315 OA 
ENDBRANCH  26  34
BRANCH  33  37
HETATM   37  O   UNL     1      -8.140  11.260  66.906  1.00  0.00    -0.142 OA 
BRANCH  37  38
HETATM   38  C   UNL     1      -9.546  11.300  66.600  1.00  0.00    -0.195 C  
HETATM   39  O   UNL     1      -9.717  11.332  65.196  1.00  0.00    -0.226 OA 
HETATM   40  C   UNL     1     -11.034  11.522  64.687  1.00  0.00    -0.288 C  
HETATM   41  C   UNL     1     -11.809  12.663  65.356  1.00  0.00    -0.427 C  
HETATM   42  H   UNL     1     -10.892  12.731  69.238  1.00  0.00     0.000 HD 
HETATM   43  O   UNL     1     -10.419  12.058  68.763  1.00  0.00    -0.222 OA 
HETATM   44  O   UNL     1     -13.181  12.625  64.948  1.00  0.00    -0.819 OA 
HETATM   45  C   UNL     1     -11.743  12.542  66.868  1.00  0.00    -0.377 C  
HETATM   46  H   UNL     1     -12.305  13.623  68.432  1.00  0.00     0.000 HD 
HETATM   47  O   UNL     1     -12.347  13.698  67.486  1.00  0.00    -0.279 OA 
HETATM   48  H   UNL     1     -13.661  13.332  65.363  1.00  0.00     0.000 HD 
HETATM   49  C   UNL     1     -10.315  12.393  67.370  1.00  0.00    -0.207 C  
BRANCH  40  50
HETATM   50  C   UNL     1     -10.876  11.838  63.187  1.00  0.00    -0.223 C  
HETATM   51  O   UNL     1     -11.778  12.856  62.747  1.00  0.00    -0.687 OA 
HETATM   52  H   UNL     1     -11.680  13.050  61.822  1.00  0.00     0.000 HD 
ENDBRANCH  40  50
ENDBRANCH  37  38
ENDBRANCH  33  37
ENDBRANCH  23  24
ENDBRANCH  18  23
TORSDOF 6
ENDMDL
MODEL       39
REMARK 921   NORMALIZED FREE ENERGY PREDICTED BY IDOCK:   -6.56 KCAL/MOL
REMARK 922        TOTAL FREE ENERGY PREDICTED BY IDOCK:  -10.85 KCAL/MOL
REMARK 923 INTER-LIGAND FREE ENERGY PREDICTED BY IDOCK:   -9.05 KCAL/MOL
REMARK 924 INTRA-LIGAND FREE ENERGY PREDICTED BY IDOCK:   -1.80 KCAL/MOL
REMARK 927      BINDING AFFINITY PREDICTED BY RF-SCORE:    0.00 PKD
ROOT
HETATM    1  C   UNL     1     -10.418  13.889  64.778  1.00  0.00    -0.451 C  
HETATM    2  C   UNL     1     -10.631  13.935  66.342  1.00  0.00    -0.280 C  
HETATM    3  C   UNL     1     -12.054  14.431  66.594  1.00  0.00    -0.392 C  
HETATM    4  C   UNL     1     -12.276  14.689  68.070  1.00  0.00    -0.089 C  
HETATM    5  C   UNL     1     -11.471  15.859  68.587  1.00  0.00    -0.391 C  
HETATM    6  C   UNL     1     -10.018  16.062  68.044  1.00  0.00    -0.229 C  
HETATM    7  C   UNL     1      -9.613  15.050  66.843  1.00  0.00    -0.251 C  
HETATM    8  C   UNL     1      -8.968  16.018  69.190  1.00  0.00    -0.252 C  
HETATM    9  C   UNL     1     -10.028  17.617  67.780  1.00  0.00    -0.315 C  
HETATM   10  O   UNL     1     -10.263  18.427  68.684  1.00  0.00    -0.379 OA 
HETATM   11  O   UNL     1      -9.790  18.089  66.556  1.00  0.00    -0.320 OA 
HETATM   12  C   UNL     1      -8.180  14.483  66.795  1.00  0.00     0.045 C  
HETATM   13  C   UNL     1      -8.013  13.102  67.393  1.00  0.00    -0.174 C  
HETATM   14  C   UNL     1      -8.958  11.961  66.990  1.00  0.00    -0.190 C  
HETATM   15  C   UNL     1      -8.571  11.042  65.813  1.00  0.00    -0.151 C  
HETATM   16  C   UNL     1      -9.180   9.697  66.228  1.00  0.00    -0.213 C  
HETATM   17  C   UNL     1      -9.159   8.625  65.425  1.00  0.00    -0.150 C  
HETATM   18  C   UNL     1      -9.645   9.737  67.704  1.00  0.00    -0.145 C  
HETATM   19  C   UNL     1     -11.129  10.146  67.850  1.00  0.00    -0.303 C  
HETATM   20  C   UNL     1     -10.440  12.404  66.798  1.00  0.00    -0.242 C  
HETATM   21  C   UNL     1      -8.791  10.915  68.115  1.00  0.00    -0.137 C  
HETATM   22  C   UNL     1     -11.343  11.693  67.847  1.00  0.00    -0.369 C  
ENDROOT
BRANCH  18  23
HETATM   23  O   UNL     1      -9.289   8.496  68.308  1.00  0.00    -0.138 OA 
BRANCH  23  24
HETATM   24  C   UNL     1     -10.169   7.727  69.150  1.00  0.00    -0.208 C  
HETATM   25  O   UNL     1     -10.359   8.389  70.409  1.00  0.00    -0.198 OA 
HETATM   26  C   UNL     1     -11.391   7.774  71.202  1.00  0.00    -0.269 C  
HETATM   27  C   UNL     1     -10.920   6.389  71.619  1.00  0.00    -0.257 C  
HETATM   28  H   UNL     1      -9.703   3.848  70.132  1.00  0.00     0.000 HD 
HETATM   29  C   UNL     1     -10.651   5.514  70.398  1.00  0.00    -0.280 C  
HETATM   30  H   UNL     1     -11.567   4.848  72.722  1.00  0.00     0.000 HD 
HETATM   31  O   UNL     1     -11.861   5.713  72.462  1.00  0.00    -0.282 OA 
HETATM   32  O   UNL     1      -9.871   4.392  70.892  1.00  0.00    -0.183 OA 
HETATM   33  C   UNL     1      -9.856   6.202  69.279  1.00  0.00    -0.149 C  
BRANCH  26  34
HETATM   34  C   UNL     1     -11.649   8.644  72.439  1.00  0.00    -0.315 C  
HETATM   35  H   UNL     1     -12.702  10.244  72.871  1.00  0.00     0.000 HD 
HETATM   36  O   UNL     1     -12.542   9.705  72.105  1.00  0.00    -0.362 OA 
ENDBRANCH  26  34
BRANCH  33  37
HETATM   37  O   UNL     1     -10.051   5.605  67.974  1.00  0.00    -0.147 OA 
BRANCH  37  38
HETATM   38  C   UNL     1      -8.916   5.162  67.208  1.00  0.00    -0.112 C  
HETATM   39  O   UNL     1      -7.821   6.023  67.455  1.00  0.00    -0.100 OA 
HETATM   40  C   UNL     1      -6.641   5.844  66.678  1.00  0.00    -0.056 C  
HETATM   41  C   UNL     1      -6.893   5.702  65.173  1.00  0.00    -0.052 C  
HETATM   42  H   UNL     1     -10.253   3.623  64.626  1.00  0.00     0.000 HD 
HETATM   43  O   UNL     1     -10.059   3.766  65.545  1.00  0.00    -0.117 OA 
HETATM   44  O   UNL     1      -5.688   5.297  64.513  1.00  0.00    -0.016 OA 
HETATM   45  C   UNL     1      -7.971   4.668  64.905  1.00  0.00    -0.099 C  
HETATM   46  H   UNL     1      -8.979   4.003  63.332  1.00  0.00     0.000 HD 
HETATM   47  O   UNL     1      -8.304   4.650  63.500  1.00  0.00    -0.100 OA 
HETATM   48  H   UNL     1      -5.844   5.209  63.580  1.00  0.00     0.000 HD 
HETATM   49  C   UNL     1      -9.231   4.929  65.716  1.00  0.00    -0.154 C  
BRANCH  40  50
HETATM   50  C   UNL     1      -5.768   7.090  66.924  1.00  0.00    -0.022 C  
HETATM   51  O   UNL     1      -6.500   8.153  67.541  1.00  0.00    -0.055 OA 
HETATM   52  H   UNL     1      -5.962   8.921  67.692  1.00  0.00     0.000 HD 
ENDBRANCH  40  50
ENDBRANCH  37  38
ENDBRANCH  33  37
ENDBRANCH  23  24
ENDBRANCH  18  23
TORSDOF 6
ENDMDL
MODEL       40
REMARK 921   NORMALIZED FREE ENERGY PREDICTED BY IDOCK:   -6.56 KCAL/MOL
REMARK 922        TOTAL FREE ENERGY PREDICTED BY IDOCK:  -10.85 KCAL/MOL
REMARK 923 INTER-LIGAND FREE ENERGY PREDICTED BY IDOCK:  -10.76 KCAL/MOL
REMARK 924 INTRA-LIGAND FREE ENERGY PREDICTED BY IDOCK:   -0.09 KCAL/MOL
REMARK 927      BINDING AFFINITY PREDICTED BY RF-SCORE:    0.00 PKD
ROOT
HETATM    1  C   UNL     1     -12.059  14.088  66.218  1.00  0.00    -0.482 C  
HETATM    2  C   UNL     1     -11.437  14.330  67.650  1.00  0.00    -0.370 C  
HETATM    3  C   UNL     1     -12.523  14.961  68.518  1.00  0.00     0.231 C  
HETATM    4  C   UNL     1     -11.953  15.404  69.850  1.00  0.00    -0.384 C  
HETATM    5  C   UNL     1     -10.986  16.557  69.719  1.00  0.00    -0.292 C  
HETATM    6  C   UNL     1     -10.018  16.582  68.490  1.00  0.00    -0.251 C  
HETATM    7  C   UNL     1     -10.297  15.411  67.404  1.00  0.00    -0.262 C  
HETATM    8  C   UNL     1      -8.528  16.587  68.937  1.00  0.00    -0.235 C  
HETATM    9  C   UNL     1     -10.148  18.092  68.055  1.00  0.00    -0.367 C  
HETATM   10  O   UNL     1      -9.878  19.017  68.831  1.00  0.00    -0.401 OA 
HETATM   11  O   UNL     1     -10.569  18.401  66.828  1.00  0.00    -0.381 OA 
HETATM   12  C   UNL     1      -9.097  14.730  66.713  1.00  0.00    -0.291 C  
HETATM   13  C   UNL     1      -8.659  13.418  67.329  1.00  0.00    -0.216 C  
HETATM   14  C   UNL     1      -9.686  12.317  67.624  1.00  0.00    -0.194 C  
HETATM   15  C   UNL     1      -9.967  11.241  66.555  1.00  0.00    -0.247 C  
HETATM   16  C   UNL     1     -10.288  10.005  67.403  1.00  0.00    -0.292 C  
HETATM   17  C   UNL     1     -10.693   8.850  66.859  1.00  0.00    -0.153 C  
HETATM   18  C   UNL     1      -9.928  10.250  68.889  1.00  0.00    -0.201 C  
HETATM   19  C   UNL     1     -11.122  10.788  69.710  1.00  0.00    -0.346 C  
HETATM   20  C   UNL     1     -11.052  12.850  68.153  1.00  0.00    -0.282 C  
HETATM   21  C   UNL     1      -8.974  11.397  68.641  1.00  0.00    -0.133 C  
HETATM   22  C   UNL     1     -11.294  12.337  69.601  1.00  0.00    -0.207 C  
ENDROOT
BRANCH  18  23
HETATM   23  O   UNL     1      -9.323   9.062  69.394  1.00  0.00    -0.153 OA 
BRANCH  23  24
HETATM   24  C   UNL     1     -10.060   7.941  69.916  1.00  0.00    -0.197 C  
HETATM   25  O   UNL     1     -11.195   8.397  70.668  1.00  0.00    -0.256 OA 
HETATM   26  C   UNL     1     -12.080   7.321  71.031  1.00  0.00    -0.324 C  
HETATM   27  C   UNL     1     -11.363   6.419  72.022  1.00  0.00    -0.294 C  
HETATM   28  H   UNL     1      -8.540   4.946  72.140  1.00  0.00     0.000 HD 
HETATM   29  C   UNL     1     -10.099   5.828  71.406  1.00  0.00    -0.198 C  
HETATM   30  H   UNL     1     -11.737   4.778  73.108  1.00  0.00     0.000 HD 
HETATM   31  O   UNL     1     -12.185   5.341  72.489  1.00  0.00    -0.002 OA 
HETATM   32  O   UNL     1      -9.327   5.313  72.525  1.00  0.00    -0.139 OA 
HETATM   33  C   UNL     1      -9.229   6.833  70.638  1.00  0.00    -0.155 C  
BRANCH  26  34
HETATM   34  C   UNL     1     -13.343   7.915  71.667  1.00  0.00    -0.337 C  
HETATM   35  H   UNL     1     -13.768   9.335  72.954  1.00  0.00     0.000 HD 
HETATM   36  O   UNL     1     -12.986   8.968  72.560  1.00  0.00    -0.418 OA 
ENDBRANCH  26  34
BRANCH  33  37
HETATM   37  O   UNL     1      -8.365   6.221  69.649  1.00  0.00    -0.122 OA 
BRANCH  37  38
HETATM   38  C   UNL     1      -8.511   6.560  68.258  1.00  0.00    -0.116 C  
HETATM   39  O   UNL     1      -9.370   5.623  67.636  1.00  0.00    -0.110 OA 
HETATM   40  C   UNL     1      -9.527   5.696  66.222  1.00  0.00    -0.155 C  
HETATM   41  C   UNL     1      -8.211   5.825  65.448  1.00  0.00    -0.138 C  
HETATM   42  H   UNL     1      -5.721   8.143  67.530  1.00  0.00     0.000 HD 
HETATM   43  O   UNL     1      -6.548   8.004  67.976  1.00  0.00    -0.054 OA 
HETATM   44  O   UNL     1      -8.482   6.123  64.074  1.00  0.00    -0.322 OA 
HETATM   45  C   UNL     1      -7.353   6.932  66.031  1.00  0.00    -0.075 C  
HETATM   46  H   UNL     1      -5.521   7.640  65.756  1.00  0.00     0.000 HD 
HETATM   47  O   UNL     1      -6.058   6.947  65.391  1.00  0.00    -0.034 OA 
HETATM   48  H   UNL     1      -7.667   6.203  63.593  1.00  0.00     0.000 HD 
HETATM   49  C   UNL     1      -7.168   6.785  67.533  1.00  0.00    -0.090 C  
BRANCH  40  50
HETATM   50  C   UNL     1     -10.231   4.391  65.799  1.00  0.00    -0.234 C  
HETATM   51  O   UNL     1     -11.495   4.632  65.176  1.00  0.00    -1.082 OA 
HETATM   52  H   UNL     1     -11.929   3.828  64.916  1.00  0.00     0.000 HD 
ENDBRANCH  40  50
ENDBRANCH  37  38
ENDBRANCH  33  37
ENDBRANCH  23  24
ENDBRANCH  18  23
TORSDOF 6
ENDMDL
MODEL       41
REMARK 921   NORMALIZED FREE ENERGY PREDICTED BY IDOCK:   -6.55 KCAL/MOL
REMARK 922        TOTAL FREE ENERGY PREDICTED BY IDOCK:  -10.84 KCAL/MOL
REMARK 923 INTER-LIGAND FREE ENERGY PREDICTED BY IDOCK:  -10.34 KCAL/MOL
REMARK 924 INTRA-LIGAND FREE ENERGY PREDICTED BY IDOCK:   -0.50 KCAL/MOL
REMARK 927      BINDING AFFINITY PREDICTED BY RF-SCORE:    0.00 PKD
ROOT
HETATM    1  C   UNL     1      -7.462   9.077  64.688  1.00  0.00    -0.103 C  
HETATM    2  C   UNL     1      -7.528   9.314  66.249  1.00  0.00    -0.096 C  
HETATM    3  C   UNL     1      -6.093   9.472  66.748  1.00  0.00    -0.064 C  
HETATM    4  C   UNL     1      -6.055   9.509  68.262  1.00  0.00    -0.048 C  
HETATM    5  C   UNL     1      -6.432   8.188  68.890  1.00  0.00    -0.048 C  
HETATM    6  C   UNL     1      -7.577   7.349  68.231  1.00  0.00    -0.114 C  
HETATM    7  C   UNL     1      -8.116   7.954  66.826  1.00  0.00    -0.108 C  
HETATM    8  C   UNL     1      -8.750   7.106  69.223  1.00  0.00    -0.136 C  
HETATM    9  C   UNL     1      -6.930   5.911  68.260  1.00  0.00    -0.072 C  
HETATM   10  O   UNL     1      -6.568   5.384  69.319  1.00  0.00    -0.043 OA 
HETATM   11  O   UNL     1      -6.749   5.236  67.125  1.00  0.00    -0.055 OA 
HETATM   12  C   UNL     1      -9.625   7.883  66.512  1.00  0.00    -0.281 C  
HETATM   13  C   UNL     1     -10.408   9.141  66.824  1.00  0.00    -0.308 C  
HETATM   14  C   UNL     1      -9.913  10.507  66.328  1.00  0.00    -0.276 C  
HETATM   15  C   UNL     1     -10.405  11.039  64.966  1.00  0.00    -0.360 C  
HETATM   16  C   UNL     1     -10.438  12.554  65.194  1.00  0.00    -0.320 C  
HETATM   17  C   UNL     1     -10.722  13.419  64.210  1.00  0.00    -0.374 C  
HETATM   18  C   UNL     1     -10.263  12.889  66.695  1.00  0.00    -0.247 C  
HETATM   19  C   UNL     1      -8.786  13.136  67.081  1.00  0.00    -0.222 C  
HETATM   20  C   UNL     1      -8.365  10.682  66.391  1.00  0.00    -0.151 C  
HETATM   21  C   UNL     1     -10.662  11.527  67.215  1.00  0.00    -0.286 C  
HETATM   22  C   UNL     1      -8.003  11.820  67.387  1.00  0.00    -0.155 C  
ENDROOT
BRANCH  18  23
HETATM   23  O   UNL     1     -11.165  13.945  67.016  1.00  0.00    -0.298 OA 
BRANCH  23  24
HETATM   24  C   UNL     1     -10.765  15.198  67.602  1.00  0.00    -0.285 C  
HETATM   25  O   UNL     1     -10.599  16.194  66.582  1.00  0.00    -0.311 OA 
HETATM   26  C   UNL     1     -10.407  17.512  67.129  1.00  0.00    -0.330 C  
HETATM   27  C   UNL     1      -9.070  17.546  67.851  1.00  0.00    -0.261 C  
HETATM   28  H   UNL     1      -7.619  15.758  70.054  1.00  0.00     0.000 HD 
HETATM   29  C   UNL     1      -9.039  16.531  68.991  1.00  0.00    -0.229 C  
HETATM   30  H   UNL     1      -7.925  18.859  68.839  1.00  0.00     0.000 HD 
HETATM   31  O   UNL     1      -8.760  18.838  68.388  1.00  0.00    -0.317 OA 
HETATM   32  O   UNL     1      -7.637  16.390  69.345  1.00  0.00    -0.229 OA 
HETATM   33  C   UNL     1      -9.590  15.145  68.630  1.00  0.00    -0.213 C  
BRANCH  26  34
HETATM   34  C   UNL     1     -10.420  18.530  65.982  1.00  0.00    -0.400 C  
HETATM   35  H   UNL     1     -10.972  20.396  65.728  1.00  0.00     0.000 HD 
HETATM   36  O   UNL     1     -10.964  19.766  66.438  1.00  0.00    -0.377 OA 
ENDBRANCH  26  34
BRANCH  33  37
HETATM   37  O   UNL     1     -10.046  14.382  69.774  1.00  0.00     0.143 OA 
BRANCH  37  38
HETATM   38  C   UNL     1     -11.351  14.628  70.330  1.00  0.00    -0.202 C  
HETATM   39  O   UNL     1     -11.251  15.617  71.335  1.00  0.00    -0.370 OA 
HETATM   40  C   UNL     1     -12.411  15.899  72.113  1.00  0.00    -0.466 C  
HETATM   41  C   UNL     1     -13.132  14.655  72.643  1.00  0.00    -0.458 C  
HETATM   42  H   UNL     1     -12.955  11.793  69.870  1.00  0.00     0.000 HD 
HETATM   43  O   UNL     1     -12.499  12.584  69.607  1.00  0.00    -0.032 OA 
HETATM   44  O   UNL     1     -14.396  15.026  73.205  1.00  0.00    -0.122 OA 
HETATM   45  C   UNL     1     -13.366  13.655  71.526  1.00  0.00    -0.297 C  
HETATM   46  H   UNL     1     -14.057  11.803  71.363  1.00  0.00     0.000 HD 
HETATM   47  O   UNL     1     -13.910  12.429  72.062  1.00  0.00    -0.214 OA 
HETATM   48  H   UNL     1     -14.843  14.255  73.533  1.00  0.00     0.000 HD 
HETATM   49  C   UNL     1     -12.092  13.344  70.757  1.00  0.00    -0.250 C  
BRANCH  40  50
HETATM   50  C   UNL     1     -11.934  16.748  73.308  1.00  0.00    -0.144 C  
HETATM   51  O   UNL     1     -12.574  16.374  74.531  1.00  0.00    -0.809 OA 
HETATM   52  H   UNL     1     -12.280  16.897  75.267  1.00  0.00     0.000 HD 
ENDBRANCH  40  50
ENDBRANCH  37  38
ENDBRANCH  33  37
ENDBRANCH  23  24
ENDBRANCH  18  23
TORSDOF 6
ENDMDL
MODEL       42
REMARK 921   NORMALIZED FREE ENERGY PREDICTED BY IDOCK:   -6.54 KCAL/MOL
REMARK 922        TOTAL FREE ENERGY PREDICTED BY IDOCK:  -10.82 KCAL/MOL
REMARK 923 INTER-LIGAND FREE ENERGY PREDICTED BY IDOCK:   -9.69 KCAL/MOL
REMARK 924 INTRA-LIGAND FREE ENERGY PREDICTED BY IDOCK:   -1.13 KCAL/MOL
REMARK 927      BINDING AFFINITY PREDICTED BY RF-SCORE:    0.00 PKD
ROOT
HETATM    1  C   UNL     1      -7.313   5.102  67.867  1.00  0.00    -0.075 C  
HETATM    2  C   UNL     1      -7.700   5.622  69.308  1.00  0.00    -0.088 C  
HETATM    3  C   UNL     1      -6.402   5.809  70.089  1.00  0.00    -0.027 C  
HETATM    4  C   UNL     1      -6.693   6.121  71.543  1.00  0.00    -0.056 C  
HETATM    5  C   UNL     1      -7.304   4.952  72.281  1.00  0.00    -0.083 C  
HETATM    6  C   UNL     1      -8.341   4.054  71.527  1.00  0.00    -0.089 C  
HETATM    7  C   UNL     1      -8.509   4.415  69.955  1.00  0.00    -0.083 C  
HETATM    8  C   UNL     1      -9.718   4.043  72.249  1.00  0.00    -0.217 C  
HETATM    9  C   UNL     1      -7.833   2.621  71.946  1.00  0.00    -0.053 C  
HETATM   10  O   UNL     1      -7.756   2.281  73.133  1.00  0.00    -0.041 OA 
HETATM   11  O   UNL     1      -7.463   1.744  71.013  1.00  0.00    -0.033 OA 
HETATM   12  C   UNL     1      -9.912   4.349  69.319  1.00  0.00    -0.144 C  
HETATM   13  C   UNL     1     -10.641   5.673  69.226  1.00  0.00    -0.359 C  
HETATM   14  C   UNL     1      -9.941   6.904  68.634  1.00  0.00    -0.149 C  
HETATM   15  C   UNL     1     -10.078   7.199  67.127  1.00  0.00    -0.293 C  
HETATM   16  C   UNL     1     -10.038   8.731  67.082  1.00  0.00    -0.320 C  
HETATM   17  C   UNL     1     -10.029   9.412  65.929  1.00  0.00    -0.327 C  
HETATM   18  C   UNL     1     -10.169   9.325  68.505  1.00  0.00    -0.201 C  
HETATM   19  C   UNL     1      -8.798   9.579  69.173  1.00  0.00    -0.147 C  
HETATM   20  C   UNL     1      -8.436   7.025  69.021  1.00  0.00    -0.129 C  
HETATM   21  C   UNL     1     -10.781   8.098  69.141  1.00  0.00    -0.117 C  
HETATM   22  C   UNL     1      -8.209   8.310  69.868  1.00  0.00    -0.123 C  
ENDROOT
BRANCH  18  23
HETATM   23  O   UNL     1     -11.032  10.458  68.428  1.00  0.00    -0.230 OA 
BRANCH  23  24
HETATM   24  C   UNL     1     -11.345  11.311  69.545  1.00  0.00    -0.294 C  
HETATM   25  O   UNL     1     -12.418  10.749  70.316  1.00  0.00    -0.321 OA 
HETATM   26  C   UNL     1     -12.627  11.449  71.556  1.00  0.00    -0.288 C  
HETATM   27  C   UNL     1     -13.137  12.847  71.242  1.00  0.00    -0.167 C  
HETATM   28  H   UNL     1     -12.224  15.237  69.343  1.00  0.00     0.000 HD 
HETATM   29  C   UNL     1     -12.124  13.621  70.405  1.00  0.00    -0.351 C  
HETATM   30  H   UNL     1     -13.747  14.482  72.223  1.00  0.00     0.000 HD 
HETATM   31  O   UNL     1     -13.429  13.610  72.419  1.00  0.00    -0.496 OA 
HETATM   32  O   UNL     1     -12.855  14.755  69.864  1.00  0.00    -0.174 OA 
HETATM   33  C   UNL     1     -11.520  12.831  69.235  1.00  0.00    -0.289 C  
BRANCH  26  34
HETATM   34  C   UNL     1     -13.660  10.679  72.389  1.00  0.00     0.281 C  
HETATM   35  H   UNL     1     -14.019   8.806  72.852  1.00  0.00     0.000 HD 
HETATM   36  O   UNL     1     -13.380   9.282  72.336  1.00  0.00    -0.445 OA 
ENDBRANCH  26  34
BRANCH  33  37
HETATM   37  O   UNL     1     -10.237  13.336  68.791  1.00  0.00    -0.207 OA 
BRANCH  37  38
HETATM   38  C   UNL     1     -10.130  14.675  68.271  1.00  0.00    -0.228 C  
HETATM   39  O   UNL     1     -10.625  14.702  66.947  1.00  0.00    -0.274 OA 
HETATM   40  C   UNL     1     -10.472  15.906  66.200  1.00  0.00    -0.326 C  
HETATM   41  C   UNL     1      -9.067  16.515  66.269  1.00  0.00    -0.313 C  
HETATM   42  H   UNL     1      -7.616  15.976  69.946  1.00  0.00     0.000 HD 
HETATM   43  O   UNL     1      -8.478  15.593  69.835  1.00  0.00    -0.071 OA 
HETATM   44  O   UNL     1      -9.076  17.825  65.691  1.00  0.00    -0.370 OA 
HETATM   45  C   UNL     1      -8.598  16.617  67.709  1.00  0.00    -0.192 C  
HETATM   46  H   UNL     1      -6.927  17.116  68.654  1.00  0.00     0.000 HD 
HETATM   47  O   UNL     1      -7.221  17.052  67.753  1.00  0.00    -0.147 OA 
HETATM   48  H   UNL     1      -8.205  18.203  65.734  1.00  0.00     0.000 HD 
HETATM   49  C   UNL     1      -8.730  15.296  68.451  1.00  0.00    -0.170 C  
BRANCH  40  50
HETATM   50  C   UNL     1     -10.791  15.550  64.735  1.00  0.00    -0.363 C  
HETATM   51  O   UNL     1     -11.792  16.402  64.174  1.00  0.00    -1.101 OA 
HETATM   52  H   UNL     1     -11.988  16.182  63.270  1.00  0.00     0.000 HD 
ENDBRANCH  40  50
ENDBRANCH  37  38
ENDBRANCH  33  37
ENDBRANCH  23  24
ENDBRANCH  18  23
TORSDOF 6
ENDMDL
MODEL       43
REMARK 921   NORMALIZED FREE ENERGY PREDICTED BY IDOCK:   -6.53 KCAL/MOL
REMARK 922        TOTAL FREE ENERGY PREDICTED BY IDOCK:  -10.80 KCAL/MOL
REMARK 923 INTER-LIGAND FREE ENERGY PREDICTED BY IDOCK:   -9.60 KCAL/MOL
REMARK 924 INTRA-LIGAND FREE ENERGY PREDICTED BY IDOCK:   -1.20 KCAL/MOL
REMARK 927      BINDING AFFINITY PREDICTED BY RF-SCORE:    0.00 PKD
ROOT
HETATM    1  C   UNL     1      -7.931   7.495  66.399  1.00  0.00    -0.107 C  
HETATM    2  C   UNL     1      -8.072   8.402  67.684  1.00  0.00    -0.118 C  
HETATM    3  C   UNL     1      -6.711   8.425  68.378  1.00  0.00    -0.064 C  
HETATM    4  C   UNL     1      -6.809   9.114  69.724  1.00  0.00    -0.051 C  
HETATM    5  C   UNL     1      -7.626   8.331  70.724  1.00  0.00    -0.073 C  
HETATM    6  C   UNL     1      -8.902   7.579  70.220  1.00  0.00    -0.146 C  
HETATM    7  C   UNL     1      -9.096   7.612  68.610  1.00  0.00    -0.135 C  
HETATM    8  C   UNL     1     -10.183   8.076  70.948  1.00  0.00    -0.213 C  
HETATM    9  C   UNL     1      -8.725   6.194  70.953  1.00  0.00    -0.136 C  
HETATM   10  O   UNL     1      -8.642   6.117  72.185  1.00  0.00    -0.127 OA 
HETATM   11  O   UNL     1      -8.648   5.067  70.244  1.00  0.00    -0.099 OA 
HETATM   12  C   UNL     1     -10.518   7.762  68.032  1.00  0.00    -0.244 C  
HETATM   13  C   UNL     1     -10.911   9.172  67.645  1.00  0.00    -0.160 C  
HETATM   14  C   UNL     1      -9.982  10.025  66.770  1.00  0.00    -0.267 C  
HETATM   15  C   UNL     1     -10.158  10.002  65.237  1.00  0.00    -0.299 C  
HETATM   16  C   UNL     1      -9.753  11.425  64.836  1.00  0.00    -0.283 C  
HETATM   17  C   UNL     1      -9.667  11.809  63.555  1.00  0.00    -0.325 C  
HETATM   18  C   UNL     1      -9.629  12.334  66.082  1.00  0.00    -0.240 C  
HETATM   19  C   UNL     1      -8.191  12.377  66.649  1.00  0.00     0.054 C  
HETATM   20  C   UNL     1      -8.467   9.845  67.091  1.00  0.00    -0.121 C  
HETATM   21  C   UNL     1     -10.469  11.473  66.998  1.00  0.00    -0.263 C  
HETATM   22  C   UNL     1      -7.875  11.186  67.610  1.00  0.00    -0.115 C  
ENDROOT
BRANCH  18  23
HETATM   23  O   UNL     1     -10.198  13.601  65.758  1.00  0.00    -0.293 OA 
BRANCH  23  24
HETATM   24  C   UNL     1      -9.938  14.813  66.491  1.00  0.00    -0.271 C  
HETATM   25  O   UNL     1      -8.770  15.468  65.974  1.00  0.00    -0.258 OA 
HETATM   26  C   UNL     1      -8.589  16.784  66.528  1.00  0.00    -0.277 C  
HETATM   27  C   UNL     1      -8.268  16.646  68.007  1.00  0.00    -0.185 C  
HETATM   28  H   UNL     1      -9.553  15.116  70.489  1.00  0.00     0.000 HD 
HETATM   29  C   UNL     1      -9.406  15.953  68.750  1.00  0.00    -0.220 C  
HETATM   30  H   UNL     1      -7.816  17.820  69.565  1.00  0.00     0.000 HD 
HETATM   31  O   UNL     1      -8.016  17.907  68.641  1.00  0.00    -0.290 OA 
HETATM   32  O   UNL     1      -8.844  15.548  70.027  1.00  0.00    -0.033 OA 
HETATM   33  C   UNL     1      -9.964  14.706  68.049  1.00  0.00    -0.220 C  
BRANCH  26  34
HETATM   34  C   UNL     1      -7.433  17.474  65.793  1.00  0.00     0.043 C  
HETATM   35  H   UNL     1      -5.478  17.558  65.956  1.00  0.00     0.000 HD 
HETATM   36  O   UNL     1      -6.194  17.130  66.410  1.00  0.00    -0.205 OA 
ENDBRANCH  26  34
BRANCH  33  37
HETATM   37  O   UNL     1     -11.318  14.373  68.440  1.00  0.00    -0.261 OA 
BRANCH  37  38
HETATM   38  C   UNL     1     -11.614  14.055  69.813  1.00  0.00    -0.281 C  
HETATM   39  O   UNL     1     -11.980  12.692  69.908  1.00  0.00    -0.321 OA 
HETATM   40  C   UNL     1     -12.454  12.212  71.162  1.00  0.00    -0.234 C  
HETATM   41  C   UNL     1     -13.511  13.107  71.820  1.00  0.00    -0.335 C  
HETATM   42  H   UNL     1     -12.588  16.921  71.100  1.00  0.00     0.000 HD 
HETATM   43  O   UNL     1     -11.980  16.315  70.692  1.00  0.00    -0.235 OA 
HETATM   44  O   UNL     1     -13.748  12.673  73.164  1.00  0.00    -0.262 OA 
HETATM   45  C   UNL     1     -13.047  14.552  71.846  1.00  0.00    -0.350 C  
HETATM   46  H   UNL     1     -13.818  16.310  72.347  1.00  0.00     0.000 HD 
HETATM   47  O   UNL     1     -14.107  15.406  72.331  1.00  0.00    -0.528 OA 
HETATM   48  H   UNL     1     -14.403  13.227  73.572  1.00  0.00     0.000 HD 
HETATM   49  C   UNL     1     -12.601  15.037  70.476  1.00  0.00    -0.369 C  
BRANCH  40  50
HETATM   50  C   UNL     1     -13.072  10.827  70.890  1.00  0.00    -0.205 C  
HETATM   51  O   UNL     1     -13.566  10.208  72.081  1.00  0.00    -0.482 OA 
HETATM   52  H   UNL     1     -13.946   9.354  71.912  1.00  0.00     0.000 HD 
ENDBRANCH  40  50
ENDBRANCH  37  38
ENDBRANCH  33  37
ENDBRANCH  23  24
ENDBRANCH  18  23
TORSDOF 6
ENDMDL
MODEL       44
REMARK 921   NORMALIZED FREE ENERGY PREDICTED BY IDOCK:   -6.50 KCAL/MOL
REMARK 922        TOTAL FREE ENERGY PREDICTED BY IDOCK:  -10.77 KCAL/MOL
REMARK 923 INTER-LIGAND FREE ENERGY PREDICTED BY IDOCK:  -10.49 KCAL/MOL
REMARK 924 INTRA-LIGAND FREE ENERGY PREDICTED BY IDOCK:   -0.27 KCAL/MOL
REMARK 927      BINDING AFFINITY PREDICTED BY RF-SCORE:    0.00 PKD
ROOT
HETATM    1  C   UNL     1     -10.413  19.037  65.718  1.00  0.00    -0.375 C  
HETATM    2  C   UNL     1      -9.836  18.487  67.081  1.00  0.00    -0.335 C  
HETATM    3  C   UNL     1     -10.397  19.362  68.200  1.00  0.00    -0.525 C  
HETATM    4  C   UNL     1      -9.741  19.024  69.523  1.00  0.00     0.073 C  
HETATM    5  C   UNL     1      -8.281  19.407  69.567  1.00  0.00     0.210 C  
HETATM    6  C   UNL     1      -7.418  19.206  68.277  1.00  0.00    -0.334 C  
HETATM    7  C   UNL     1      -8.270  18.745  66.976  1.00  0.00    -0.271 C  
HETATM    8  C   UNL     1      -6.224  18.242  68.533  1.00  0.00    -0.202 C  
HETATM    9  C   UNL     1      -6.629  20.571  68.246  1.00  0.00    -0.280 C  
HETATM   10  O   UNL     1      -5.912  20.927  69.189  1.00  0.00    -0.338 OA 
HETATM   11  O   UNL     1      -6.734  21.379  67.191  1.00  0.00    -0.537 OA 
HETATM   12  C   UNL     1      -7.654  17.719  66.003  1.00  0.00    -0.255 C  
HETATM   13  C   UNL     1      -8.086  16.285  66.221  1.00  0.00    -0.267 C  
HETATM   14  C   UNL     1      -9.574  15.934  66.354  1.00  0.00    -0.313 C  
HETATM   15  C   UNL     1     -10.374  15.544  65.094  1.00  0.00    -0.388 C  
HETATM   16  C   UNL     1     -11.391  14.538  65.643  1.00  0.00    -0.336 C  
HETATM   17  C   UNL     1     -12.363  14.016  64.883  1.00  0.00    -0.447 C  
HETATM   18  C   UNL     1     -11.028  14.124  67.090  1.00  0.00    -0.299 C  
HETATM   19  C   UNL     1     -11.729  15.001  68.154  1.00  0.00    -0.335 C  
HETATM   20  C   UNL     1     -10.404  16.982  67.155  1.00  0.00    -0.305 C  
HETATM   21  C   UNL     1      -9.576  14.540  67.022  1.00  0.00    -0.250 C  
HETATM   22  C   UNL     1     -10.967  16.332  68.451  1.00  0.00    -0.351 C  
ENDROOT
BRANCH  18  23
HETATM   23  O   UNL     1     -11.248  12.721  67.212  1.00  0.00    -0.268 OA 
BRANCH  23  24
HETATM   24  C   UNL     1     -11.912  12.102  68.330  1.00  0.00    -0.187 C  
HETATM   25  O   UNL     1     -12.059  13.042  69.405  1.00  0.00    -0.282 OA 
HETATM   26  C   UNL     1     -12.901  12.542  70.460  1.00  0.00     0.156 C  
HETATM   27  C   UNL     1     -12.194  11.374  71.130  1.00  0.00    -0.224 C  
HETATM   28  H   UNL     1     -10.790   8.687  70.149  1.00  0.00     0.000 HD 
HETATM   29  C   UNL     1     -11.934  10.249  70.133  1.00  0.00    -0.234 C  
HETATM   30  H   UNL     1     -12.490  10.109  72.654  1.00  0.00     0.000 HD 
HETATM   31  O   UNL     1     -12.932  10.838  72.235  1.00  0.00    -0.340 OA 
HETATM   32  O   UNL     1     -10.952   9.388  70.770  1.00  0.00    -0.253 OA 
HETATM   33  C   UNL     1     -11.372  10.708  68.781  1.00  0.00    -0.277 C  
BRANCH  26  34
HETATM   34  C   UNL     1     -13.147  13.668  71.472  1.00  0.00    -0.350 C  
HETATM   35  H   UNL     1     -14.510  15.048  71.776  1.00  0.00     0.000 HD 
HETATM   36  O   UNL     1     -14.357  14.351  71.149  1.00  0.00    -0.230 OA 
ENDBRANCH  26  34
BRANCH  33  37
HETATM   37  O   UNL     1     -11.617   9.775  67.699  1.00  0.00     0.150 OA 
BRANCH  37  38
HETATM   38  C   UNL     1     -10.615   8.806  67.343  1.00  0.00    -0.233 C  
HETATM   39  O   UNL     1     -10.777   7.651  68.143  1.00  0.00    -0.165 OA 
HETATM   40  C   UNL     1      -9.790   6.628  68.048  1.00  0.00    -0.131 C  
HETATM   41  C   UNL     1      -8.346   7.138  68.115  1.00  0.00    -0.124 C  
HETATM   42  H   UNL     1      -8.129  10.624  66.188  1.00  0.00     0.000 HD 
HETATM   43  O   UNL     1      -9.011  10.271  66.204  1.00  0.00    -0.149 OA 
HETATM   44  O   UNL     1      -7.440   6.081  67.779  1.00  0.00    -0.082 OA 
HETATM   45  C   UNL     1      -8.139   8.287  67.145  1.00  0.00    -0.108 C  
HETATM   46  H   UNL     1      -6.693   9.575  66.715  1.00  0.00     0.000 HD 
HETATM   47  O   UNL     1      -6.822   8.855  67.321  1.00  0.00    -0.075 OA 
HETATM   48  H   UNL     1      -6.545   6.397  67.820  1.00  0.00     0.000 HD 
HETATM   49  C   UNL     1      -9.183   9.379  67.318  1.00  0.00    -0.130 C  
BRANCH  40  50
HETATM   50  C   UNL     1     -10.039   5.676  69.235  1.00  0.00    -0.214 C  
HETATM   51  O   UNL     1     -11.392   5.722  69.694  1.00  0.00    -0.281 OA 
HETATM   52  H   UNL     1     -11.545   5.136  70.426  1.00  0.00     0.000 HD 
ENDBRANCH  40  50
ENDBRANCH  37  38
ENDBRANCH  33  37
ENDBRANCH  23  24
ENDBRANCH  18  23
TORSDOF 6
ENDMDL
MODEL       45
REMARK 921   NORMALIZED FREE ENERGY PREDICTED BY IDOCK:   -6.47 KCAL/MOL
REMARK 922        TOTAL FREE ENERGY PREDICTED BY IDOCK:  -10.72 KCAL/MOL
REMARK 923 INTER-LIGAND FREE ENERGY PREDICTED BY IDOCK:   -9.63 KCAL/MOL
REMARK 924 INTRA-LIGAND FREE ENERGY PREDICTED BY IDOCK:   -1.10 KCAL/MOL
REMARK 927      BINDING AFFINITY PREDICTED BY RF-SCORE:    0.00 PKD
ROOT
HETATM    1  C   UNL     1      -7.971   6.005  68.069  1.00  0.00    -0.109 C  
HETATM    2  C   UNL     1      -8.359   6.671  69.448  1.00  0.00    -0.128 C  
HETATM    3  C   UNL     1      -7.088   6.751  70.290  1.00  0.00    -0.071 C  
HETATM    4  C   UNL     1      -7.409   7.199  71.702  1.00  0.00    -0.085 C  
HETATM    5  C   UNL     1      -8.201   6.172  72.476  1.00  0.00    -0.108 C  
HETATM    6  C   UNL     1      -9.305   5.358  71.723  1.00  0.00    -0.170 C  
HETATM    7  C   UNL     1      -9.347   5.624  70.124  1.00  0.00    -0.188 C  
HETATM    8  C   UNL     1     -10.707   5.571  72.362  1.00  0.00    -0.286 C  
HETATM    9  C   UNL     1      -9.008   3.906  72.262  1.00  0.00    -0.109 C  
HETATM   10  O   UNL     1      -9.034   3.645  73.471  1.00  0.00    -0.094 OA 
HETATM   11  O   UNL     1      -8.707   2.925  71.411  1.00  0.00    -0.066 OA 
HETATM   12  C   UNL     1     -10.714   5.688  69.412  1.00  0.00    -0.365 C  
HETATM   13  C   UNL     1     -11.261   7.083  69.191  1.00  0.00    -0.079 C  
HETATM   14  C   UNL     1     -10.381   8.171  68.563  1.00  0.00    -0.230 C  
HETATM   15  C   UNL     1     -10.404   8.372  67.034  1.00  0.00    -0.385 C  
HETATM   16  C   UNL     1     -10.165   9.880  66.893  1.00  0.00    -0.302 C  
HETATM   17  C   UNL     1     -10.011  10.470  65.701  1.00  0.00    -0.332 C  
HETATM   18  C   UNL     1     -10.289  10.586  68.265  1.00  0.00    -0.168 C  
HETATM   19  C   UNL     1      -8.932  10.715  68.994  1.00  0.00    -0.165 C  
HETATM   20  C   UNL     1      -8.893   8.131  69.029  1.00  0.00    -0.144 C  
HETATM   21  C   UNL     1     -11.085   9.494  68.942  1.00  0.00    -0.050 C  
HETATM   22  C   UNL     1      -8.546   9.435  69.802  1.00  0.00    -0.182 C  
ENDROOT
BRANCH  18  23
HETATM   23  O   UNL     1     -10.995  11.809  68.064  1.00  0.00    -0.202 OA 
BRANCH  23  24
HETATM   24  C   UNL     1     -11.165  12.817  69.078  1.00  0.00    -0.264 C  
HETATM   25  O   UNL     1     -12.225  12.450  69.974  1.00  0.00    -0.272 OA 
HETATM   26  C   UNL     1     -12.295  13.314  71.123  1.00  0.00    -0.232 C  
HETATM   27  C   UNL     1     -12.714  14.700  70.661  1.00  0.00    -0.357 C  
HETATM   28  H   UNL     1     -11.746  16.750  68.421  1.00  0.00     0.000 HD 
HETATM   29  C   UNL     1     -11.702  15.275  69.675  1.00  0.00    -0.334 C  
HETATM   30  H   UNL     1     -13.128  16.491  71.456  1.00  0.00     0.000 HD 
HETATM   31  O   UNL     1     -12.866  15.625  71.745  1.00  0.00    -0.407 OA 
HETATM   32  O   UNL     1     -12.377  16.392  69.035  1.00  0.00     0.172 OA 
HETATM   33  C   UNL     1     -11.241  14.298  68.585  1.00  0.00    -0.264 C  
BRANCH  26  34
HETATM   34  C   UNL     1     -13.327  12.745  72.106  1.00  0.00    -0.492 C  
HETATM   35  H   UNL     1     -13.854  10.972  72.762  1.00  0.00     0.000 HD 
HETATM   36  O   UNL     1     -13.216  11.324  72.154  1.00  0.00    -0.481 OA 
ENDBRANCH  26  34
BRANCH  33  37
HETATM   37  O   UNL     1      -9.955  14.631  68.007  1.00  0.00    -0.215 OA 
BRANCH  37  38
HETATM   38  C   UNL     1      -9.131  15.641  68.619  1.00  0.00    -0.205 C  
HETATM   39  O   UNL     1      -9.514  16.913  68.134  1.00  0.00    -0.239 OA 
HETATM   40  C   UNL     1      -8.721  18.037  68.505  1.00  0.00    -0.295 C  
HETATM   41  C   UNL     1      -7.211  17.824  68.343  1.00  0.00    -0.250 C  
HETATM   42  H   UNL     1      -6.336  14.059  69.330  1.00  0.00     0.000 HD 
HETATM   43  O   UNL     1      -7.266  14.243  69.385  1.00  0.00    -0.121 OA 
HETATM   44  O   UNL     1      -6.499  18.905  68.954  1.00  0.00    -0.244 OA 
HETATM   45  C   UNL     1      -6.781  16.522  68.995  1.00  0.00    -0.200 C  
HETATM   46  H   UNL     1      -5.121  15.445  69.116  1.00  0.00     0.000 HD 
HETATM   47  O   UNL     1      -5.390  16.259  68.709  1.00  0.00    -0.103 OA 
HETATM   48  H   UNL     1      -5.563  18.773  68.854  1.00  0.00     0.000 HD 
HETATM   49  C   UNL     1      -7.620  15.342  68.529  1.00  0.00    -0.122 C  
BRANCH  40  50
HETATM   50  C   UNL     1      -9.163  19.198  67.592  1.00  0.00    -0.300 C  
HETATM   51  O   UNL     1     -10.441  18.964  66.995  1.00  0.00    -0.384 OA 
HETATM   52  H   UNL     1     -10.713  19.680  66.433  1.00  0.00     0.000 HD 
ENDBRANCH  40  50
ENDBRANCH  37  38
ENDBRANCH  33  37
ENDBRANCH  23  24
ENDBRANCH  18  23
TORSDOF 6
ENDMDL
MODEL       46
REMARK 921   NORMALIZED FREE ENERGY PREDICTED BY IDOCK:   -6.46 KCAL/MOL
REMARK 922        TOTAL FREE ENERGY PREDICTED BY IDOCK:  -10.71 KCAL/MOL
REMARK 923 INTER-LIGAND FREE ENERGY PREDICTED BY IDOCK:   -9.19 KCAL/MOL
REMARK 924 INTRA-LIGAND FREE ENERGY PREDICTED BY IDOCK:   -1.51 KCAL/MOL
REMARK 927      BINDING AFFINITY PREDICTED BY RF-SCORE:    0.00 PKD
ROOT
HETATM    1  C   UNL     1      -9.677  13.141  64.329  1.00  0.00     0.410 C  
HETATM    2  C   UNL     1     -10.201  12.874  65.795  1.00  0.00    -0.298 C  
HETATM    3  C   UNL     1     -11.716  13.069  65.780  1.00  0.00    -0.427 C  
HETATM    4  C   UNL     1     -12.275  13.021  67.188  1.00  0.00    -0.200 C  
HETATM    5  C   UNL     1     -11.844  14.200  68.029  1.00  0.00    -0.400 C  
HETATM    6  C   UNL     1     -10.384  14.739  67.865  1.00  0.00    -0.240 C  
HETATM    7  C   UNL     1      -9.552  14.038  66.662  1.00  0.00    -0.299 C  
HETATM    8  C   UNL     1      -9.596  14.671  69.204  1.00  0.00    -0.091 C  
HETATM    9  C   UNL     1     -10.657  16.291  67.819  1.00  0.00    -0.314 C  
HETATM   10  O   UNL     1     -11.228  16.877  68.747  1.00  0.00    -0.228 OA 
HETATM   11  O   UNL     1     -10.281  17.005  66.758  1.00  0.00    -0.284 OA 
HETATM   12  C   UNL     1      -8.052  13.739  66.866  1.00  0.00     0.119 C  
HETATM   13  C   UNL     1      -7.731  12.322  67.294  1.00  0.00    -0.161 C  
HETATM   14  C   UNL     1      -8.324  11.128  66.534  1.00  0.00    -0.166 C  
HETATM   15  C   UNL     1      -7.533  10.509  65.363  1.00  0.00    -0.089 C  
HETATM   16  C   UNL     1      -7.925   9.030  65.441  1.00  0.00    -0.111 C  
HETATM   17  C   UNL     1      -7.528   8.136  64.526  1.00  0.00    -0.102 C  
HETATM   18  C   UNL     1      -8.673   8.729  66.763  1.00  0.00    -0.124 C  
HETATM   19  C   UNL     1     -10.208   8.848  66.620  1.00  0.00    -0.338 C  
HETATM   20  C   UNL     1      -9.797  11.340  66.070  1.00  0.00    -0.267 C  
HETATM   21  C   UNL     1      -8.176   9.943  67.514  1.00  0.00    -0.114 C  
HETATM   22  C   UNL     1     -10.727  10.313  66.778  1.00  0.00    -0.216 C  
ENDROOT
BRANCH  18  23
HETATM   23  O   UNL     1      -8.199   7.478  67.258  1.00  0.00    -0.113 OA 
BRANCH  23  24
HETATM   24  C   UNL     1      -8.177   7.119  68.652  1.00  0.00    -0.125 C  
HETATM   25  O   UNL     1      -6.918   6.521  68.993  1.00  0.00    -0.069 OA 
HETATM   26  C   UNL     1      -6.764   6.339  70.413  1.00  0.00    -0.053 C  
HETATM   27  C   UNL     1      -7.767   5.294  70.877  1.00  0.00    -0.093 C  
HETATM   28  H   UNL     1     -10.901   4.831  70.542  1.00  0.00     0.000 HD 
HETATM   29  C   UNL     1      -9.196   5.745  70.592  1.00  0.00    -0.152 C  
HETATM   30  H   UNL     1      -8.282   4.348  72.565  1.00  0.00     0.000 HD 
HETATM   31  O   UNL     1      -7.656   5.000  72.276  1.00  0.00    -0.090 OA 
HETATM   32  O   UNL     1     -10.011   4.550  70.721  1.00  0.00    -0.207 OA 
HETATM   33  C   UNL     1      -9.415   6.333  69.190  1.00  0.00    -0.133 C  
BRANCH  26  34
HETATM   34  C   UNL     1      -5.332   5.868  70.698  1.00  0.00    -0.013 C  
HETATM   35  H   UNL     1      -4.283   4.230  70.432  1.00  0.00     0.000 HD 
HETATM   36  O   UNL     1      -5.169   4.522  70.256  1.00  0.00     0.000 OA 
ENDBRANCH  26  34
BRANCH  33  37
HETATM   37  O   UNL     1     -10.563   7.212  69.099  1.00  0.00    -0.210 OA 
BRANCH  37  38
HETATM   38  C   UNL     1     -11.053   7.881  70.276  1.00  0.00    -0.229 C  
HETATM   39  O   UNL     1     -12.266   7.280  70.684  1.00  0.00    -0.250 OA 
HETATM   40  C   UNL     1     -12.991   7.892  71.747  1.00  0.00    -0.325 C  
HETATM   41  C   UNL     1     -13.156   9.409  71.604  1.00  0.00    -0.394 C  
HETATM   42  H   UNL     1      -9.817  10.920  70.030  1.00  0.00     0.000 HD 
HETATM   43  O   UNL     1      -9.783   9.974  70.117  1.00  0.00    -0.233 OA 
HETATM   44  O   UNL     1     -13.684   9.957  72.817  1.00  0.00    -0.622 OA 
HETATM   45  C   UNL     1     -11.822  10.068  71.308  1.00  0.00    -0.385 C  
HETATM   46  H   UNL     1     -11.176  11.885  70.844  1.00  0.00     0.000 HD 
HETATM   47  O   UNL     1     -12.012  11.472  71.030  1.00  0.00    -0.245 OA 
HETATM   48  H   UNL     1     -13.787  10.897  72.730  1.00  0.00     0.000 HD 
HETATM   49  C   UNL     1     -11.108   9.416  70.134  1.00  0.00    -0.242 C  
BRANCH  40  50
HETATM   50  C   UNL     1     -14.386   7.235  71.752  1.00  0.00    -0.402 C  
HETATM   51  O   UNL     1     -14.400   5.996  72.465  1.00  0.00    -0.671 OA 
HETATM   52  H   UNL     1     -15.260   5.591  72.468  1.00  0.00     0.000 HD 
ENDBRANCH  40  50
ENDBRANCH  37  38
ENDBRANCH  33  37
ENDBRANCH  23  24
ENDBRANCH  18  23
TORSDOF 6
ENDMDL
MODEL       47
REMARK 921   NORMALIZED FREE ENERGY PREDICTED BY IDOCK:   -6.46 KCAL/MOL
REMARK 922        TOTAL FREE ENERGY PREDICTED BY IDOCK:  -10.71 KCAL/MOL
REMARK 923 INTER-LIGAND FREE ENERGY PREDICTED BY IDOCK:   -9.47 KCAL/MOL
REMARK 924 INTRA-LIGAND FREE ENERGY PREDICTED BY IDOCK:   -1.24 KCAL/MOL
REMARK 927      BINDING AFFINITY PREDICTED BY RF-SCORE:    0.00 PKD
ROOT
HETATM    1  C   UNL     1     -10.410  13.726  64.863  1.00  0.00    -0.420 C  
HETATM    2  C   UNL     1     -10.650  13.722  66.424  1.00  0.00    -0.284 C  
HETATM    3  C   UNL     1     -12.090  14.167  66.666  1.00  0.00    -0.480 C  
HETATM    4  C   UNL     1     -12.344  14.378  68.145  1.00  0.00    -0.001 C  
HETATM    5  C   UNL     1     -11.583  15.556  68.707  1.00  0.00    -0.390 C  
HETATM    6  C   UNL     1     -10.128  15.818  68.193  1.00  0.00    -0.220 C  
HETATM    7  C   UNL     1      -9.674  14.853  66.972  1.00  0.00    -0.240 C  
HETATM    8  C   UNL     1      -9.096  15.774  69.355  1.00  0.00    -0.254 C  
HETATM    9  C   UNL     1     -10.181  17.379  67.972  1.00  0.00    -0.345 C  
HETATM   10  O   UNL     1     -10.456  18.156  68.894  1.00  0.00    -0.282 OA 
HETATM   11  O   UNL     1      -9.938  17.891  66.765  1.00  0.00    -0.306 OA 
HETATM   12  C   UNL     1      -8.224  14.330  66.932  1.00  0.00    -0.020 C  
HETATM   13  C   UNL     1      -8.024  12.938  67.495  1.00  0.00    -0.178 C  
HETATM   14  C   UNL     1      -8.927  11.782  67.045  1.00  0.00    -0.186 C  
HETATM   15  C   UNL     1      -8.494  10.907  65.851  1.00  0.00    -0.158 C  
HETATM   16  C   UNL     1      -9.068   9.534  66.219  1.00  0.00    -0.202 C  
HETATM   17  C   UNL     1      -9.003   8.486  65.387  1.00  0.00    -0.150 C  
HETATM   18  C   UNL     1      -9.558   9.519  67.687  1.00  0.00    -0.136 C  
HETATM   19  C   UNL     1     -11.055   9.878  67.820  1.00  0.00    -0.196 C  
HETATM   20  C   UNL     1     -10.419  12.185  66.841  1.00  0.00    -0.250 C  
HETATM   21  C   UNL     1      -8.747  10.710  68.144  1.00  0.00    -0.130 C  
HETATM   22  C   UNL     1     -11.316  11.419  67.855  1.00  0.00    -0.371 C  
ENDROOT
BRANCH  18  23
HETATM   23  O   UNL     1      -9.174   8.272  68.263  1.00  0.00    -0.135 OA 
BRANCH  23  24
HETATM   24  C   UNL     1      -9.997   7.515  69.170  1.00  0.00    -0.179 C  
HETATM   25  O   UNL     1      -9.854   8.014  70.508  1.00  0.00    -0.181 OA 
HETATM   26  C   UNL     1     -10.811   7.435  71.414  1.00  0.00    -0.229 C  
HETATM   27  C   UNL     1     -10.492   5.956  71.573  1.00  0.00    -0.233 C  
HETATM   28  H   UNL     1      -9.968   3.510  69.600  1.00  0.00     0.000 HD 
HETATM   29  C   UNL     1     -10.584   5.232  70.233  1.00  0.00    -0.218 C  
HETATM   30  H   UNL     1     -11.162   4.374  72.602  1.00  0.00     0.000 HD 
HETATM   31  O   UNL     1     -11.361   5.297  72.503  1.00  0.00    -0.243 OA 
HETATM   32  O   UNL     1      -9.911   3.960  70.434  1.00  0.00    -0.162 OA 
HETATM   33  C   UNL     1      -9.906   5.960  69.064  1.00  0.00    -0.152 C  
BRANCH  26  34
HETATM   34  C   UNL     1     -10.706   8.151  72.767  1.00  0.00    -0.321 C  
HETATM   35  H   UNL     1      -9.334   8.416  74.145  1.00  0.00     0.000 HD 
HETATM   36  O   UNL     1      -9.398   7.973  73.308  1.00  0.00    -0.268 OA 
ENDBRANCH  26  34
BRANCH  33  37
HETATM   37  O   UNL     1     -10.420   5.581  67.763  1.00  0.00    -0.205 OA 
BRANCH  37  38
HETATM   38  C   UNL     1      -9.531   5.051  66.763  1.00  0.00    -0.144 C  
HETATM   39  O   UNL     1     -10.272   4.729  65.602  1.00  0.00    -0.215 OA 
HETATM   40  C   UNL     1      -9.599   4.051  64.545  1.00  0.00    -0.173 C  
HETATM   41  C   UNL     1      -8.754   2.857  65.001  1.00  0.00    -0.114 C  
HETATM   42  H   UNL     1      -7.068   3.741  68.506  1.00  0.00     0.000 HD 
HETATM   43  O   UNL     1      -7.629   4.438  68.185  1.00  0.00    -0.068 OA 
HETATM   44  O   UNL     1      -7.942   2.393  63.916  1.00  0.00    -0.074 OA 
HETATM   45  C   UNL     1      -7.851   3.248  66.156  1.00  0.00    -0.081 C  
HETATM   46  H   UNL     1      -6.606   2.328  67.396  1.00  0.00     0.000 HD 
HETATM   47  O   UNL     1      -7.171   2.083  66.672  1.00  0.00    -0.054 OA 
HETATM   48  H   UNL     1      -7.418   1.653  64.198  1.00  0.00     0.000 HD 
HETATM   49  C   UNL     1      -8.621   3.920  67.283  1.00  0.00    -0.102 C  
BRANCH  40  50
HETATM   50  C   UNL     1     -10.696   3.551  63.585  1.00  0.00    -0.260 C  
HETATM   51  O   UNL     1     -11.068   2.195  63.844  1.00  0.00    -0.457 OA 
HETATM   52  H   UNL     1     -11.744   1.887  63.252  1.00  0.00     0.000 HD 
ENDBRANCH  40  50
ENDBRANCH  37  38
ENDBRANCH  33  37
ENDBRANCH  23  24
ENDBRANCH  18  23
TORSDOF 6
ENDMDL
MODEL       48
REMARK 921   NORMALIZED FREE ENERGY PREDICTED BY IDOCK:   -6.46 KCAL/MOL
REMARK 922        TOTAL FREE ENERGY PREDICTED BY IDOCK:  -10.71 KCAL/MOL
REMARK 923 INTER-LIGAND FREE ENERGY PREDICTED BY IDOCK:   -9.67 KCAL/MOL
REMARK 924 INTRA-LIGAND FREE ENERGY PREDICTED BY IDOCK:   -1.04 KCAL/MOL
REMARK 927      BINDING AFFINITY PREDICTED BY RF-SCORE:    0.00 PKD
ROOT
HETATM    1  C   UNL     1     -10.684  15.221  70.148  1.00  0.00    -0.293 C  
HETATM    2  C   UNL     1      -9.963  14.979  68.764  1.00  0.00    -0.228 C  
HETATM    3  C   UNL     1      -8.586  15.633  68.847  1.00  0.00    -0.211 C  
HETATM    4  C   UNL     1      -7.903  15.616  67.494  1.00  0.00    -0.184 C  
HETATM    5  C   UNL     1      -8.584  16.510  66.484  1.00  0.00    -0.321 C  
HETATM    6  C   UNL     1     -10.146  16.586  66.488  1.00  0.00    -0.307 C  
HETATM    7  C   UNL     1     -10.844  15.790  67.717  1.00  0.00    -0.316 C  
HETATM    8  C   UNL     1     -10.743  16.140  65.123  1.00  0.00    -0.391 C  
HETATM    9  C   UNL     1     -10.357  18.143  66.351  1.00  0.00    -0.394 C  
HETATM   10  O   UNL     1      -9.900  18.777  65.392  1.00  0.00    -0.103 OA 
HETATM   11  O   UNL     1     -11.030  18.811  67.287  1.00  0.00    -0.412 OA 
HETATM   12  C   UNL     1     -12.157  15.023  67.461  1.00  0.00     0.065 C  
HETATM   13  C   UNL     1     -11.997  13.540  67.200  1.00  0.00    -0.426 C  
HETATM   14  C   UNL     1     -11.150  12.673  68.141  1.00  0.00    -0.285 C  
HETATM   15  C   UNL     1     -11.830  11.964  69.330  1.00  0.00    -0.389 C  
HETATM   16  C   UNL     1     -11.007  10.678  69.466  1.00  0.00    -0.321 C  
HETATM   17  C   UNL     1     -11.205   9.805  70.462  1.00  0.00    -0.381 C  
HETATM   18  C   UNL     1     -10.078  10.488  68.242  1.00  0.00    -0.160 C  
HETATM   19  C   UNL     1      -8.671  11.090  68.463  1.00  0.00    -0.159 C  
HETATM   20  C   UNL     1      -9.861  13.376  68.663  1.00  0.00    -0.116 C  
HETATM   21  C   UNL     1     -10.840  11.405  67.313  1.00  0.00    -0.311 C  
HETATM   22  C   UNL     1      -8.602  12.619  68.151  1.00  0.00    -0.188 C  
ENDROOT
BRANCH  18  23
HETATM   23  O   UNL     1     -10.105   9.109  67.883  1.00  0.00    -0.177 OA 
BRANCH  23  24
HETATM   24  C   UNL     1      -9.204   8.504  66.937  1.00  0.00    -0.158 C  
HETATM   25  O   UNL     1      -9.299   9.164  65.666  1.00  0.00    -0.224 OA 
HETATM   26  C   UNL     1      -8.273   8.740  64.750  1.00  0.00    -0.162 C  
HETATM   27  C   UNL     1      -8.517   7.283  64.390  1.00  0.00     0.221 C  
HETATM   28  H   UNL     1      -9.035   4.588  66.008  1.00  0.00     0.000 HD 
HETATM   29  C   UNL     1      -8.463   6.398  65.632  1.00  0.00    -0.146 C  
HETATM   30  H   UNL     1      -7.727   5.871  63.211  1.00  0.00     0.000 HD 
HETATM   31  O   UNL     1      -7.574   6.780  63.435  1.00  0.00    -0.078 OA 
HETATM   32  O   UNL     1      -9.068   5.138  65.235  1.00  0.00    -0.160 OA 
HETATM   33  C   UNL     1      -9.232   6.945  66.842  1.00  0.00    -0.145 C  
BRANCH  26  34
HETATM   34  C   UNL     1      -8.339   9.618  63.493  1.00  0.00    -0.172 C  
HETATM   35  H   UNL     1      -9.583  10.926  62.723  1.00  0.00     0.000 HD 
HETATM   36  O   UNL     1      -9.542  10.383  63.501  1.00  0.00    -0.289 OA 
ENDBRANCH  26  34
BRANCH  33  37
HETATM   37  O   UNL     1      -8.769   6.423  68.112  1.00  0.00    -0.117 OA 
BRANCH  37  38
HETATM   38  C   UNL     1      -9.261   6.983  69.344  1.00  0.00    -0.147 C  
HETATM   39  O   UNL     1      -8.166   7.360  70.156  1.00  0.00    -0.128 OA 
HETATM   40  C   UNL     1      -8.438   7.801  71.483  1.00  0.00    -0.117 C  
HETATM   41  C   UNL     1      -9.407   6.902  72.259  1.00  0.00    -0.137 C  
HETATM   42  H   UNL     1     -12.198   5.557  69.745  1.00  0.00     0.000 HD 
HETATM   43  O   UNL     1     -11.549   6.100  69.313  1.00  0.00    -0.329 OA 
HETATM   44  O   UNL     1      -9.796   7.544  73.478  1.00  0.00    -0.283 OA 
HETATM   45  C   UNL     1     -10.651   6.619  71.435  1.00  0.00    -0.224 C  
HETATM   46  H   UNL     1     -12.264   5.477  71.598  1.00  0.00     0.000 HD 
HETATM   47  O   UNL     1     -11.487   5.655  72.113  1.00  0.00    -0.258 OA 
HETATM   48  H   UNL     1     -10.397   6.987  73.959  1.00  0.00     0.000 HD 
HETATM   49  C   UNL     1     -10.313   6.100  70.046  1.00  0.00    -0.209 C  
BRANCH  40  50
HETATM   50  C   UNL     1      -7.082   7.824  72.216  1.00  0.00    -0.075 C  
HETATM   51  O   UNL     1      -6.907   9.010  72.996  1.00  0.00    -0.325 OA 
HETATM   52  H   UNL     1      -6.071   9.024  73.448  1.00  0.00     0.000 HD 
ENDBRANCH  40  50
ENDBRANCH  37  38
ENDBRANCH  33  37
ENDBRANCH  23  24
ENDBRANCH  18  23
TORSDOF 6
ENDMDL
MODEL       49
REMARK 921   NORMALIZED FREE ENERGY PREDICTED BY IDOCK:   -6.41 KCAL/MOL
REMARK 922        TOTAL FREE ENERGY PREDICTED BY IDOCK:  -10.64 KCAL/MOL
REMARK 923 INTER-LIGAND FREE ENERGY PREDICTED BY IDOCK:   -9.27 KCAL/MOL
REMARK 924 INTRA-LIGAND FREE ENERGY PREDICTED BY IDOCK:   -1.37 KCAL/MOL
REMARK 927      BINDING AFFINITY PREDICTED BY RF-SCORE:    0.00 PKD
ROOT
HETATM    1  C   UNL     1      -7.853   7.787  73.607  1.00  0.00    -0.198 C  
HETATM    2  C   UNL     1      -9.009   7.419  72.596  1.00  0.00    -0.173 C  
HETATM    3  C   UNL     1     -10.333   7.569  73.342  1.00  0.00    -0.405 C  
HETATM    4  C   UNL     1     -11.482   7.048  72.503  1.00  0.00    -0.275 C  
HETATM    5  C   UNL     1     -11.432   5.551  72.307  1.00  0.00    -0.221 C  
HETATM    6  C   UNL     1     -10.039   4.872  72.097  1.00  0.00    -0.250 C  
HETATM    7  C   UNL     1      -8.779   5.877  72.282  1.00  0.00    -0.128 C  
HETATM    8  C   UNL     1      -9.965   4.127  70.734  1.00  0.00    -0.192 C  
HETATM    9  C   UNL     1     -10.183   3.624  73.051  1.00  0.00    -0.159 C  
HETATM   10  O   UNL     1     -11.089   2.796  72.902  1.00  0.00    -0.052 OA 
HETATM   11  O   UNL     1      -9.324   3.447  74.055  1.00  0.00    -0.092 OA 
HETATM   12  C   UNL     1      -7.562   5.729  71.346  1.00  0.00    -0.105 C  
HETATM   13  C   UNL     1      -7.544   6.668  70.158  1.00  0.00    -0.096 C  
HETATM   14  C   UNL     1      -7.775   8.172  70.353  1.00  0.00    -0.085 C  
HETATM   15  C   UNL     1      -6.563   9.100  70.573  1.00  0.00    -0.061 C  
HETATM   16  C   UNL     1      -7.019  10.405  69.911  1.00  0.00    -0.149 C  
HETATM   17  C   UNL     1      -6.287  11.526  69.963  1.00  0.00    -0.116 C  
HETATM   18  C   UNL     1      -8.307  10.181  69.084  1.00  0.00    -0.154 C  
HETATM   19  C   UNL     1      -9.594  10.461  69.895  1.00  0.00     0.021 C  
HETATM   20  C   UNL     1      -8.854   8.514  71.426  1.00  0.00    -0.253 C  
HETATM   21  C   UNL     1      -8.156   8.683  68.945  1.00  0.00    -0.118 C  
HETATM   22  C   UNL     1     -10.054   9.240  70.754  1.00  0.00    -0.358 C  
ENDROOT
BRANCH  18  23
HETATM   23  O   UNL     1      -8.179  10.914  67.867  1.00  0.00    -0.111 OA 
BRANCH  23  24
HETATM   24  C   UNL     1      -8.850  10.567  66.642  1.00  0.00    -0.136 C  
HETATM   25  O   UNL     1      -7.962   9.847  65.773  1.00  0.00    -0.113 OA 
HETATM   26  C   UNL     1      -8.641   9.294  64.631  1.00  0.00    -0.187 C  
HETATM   27  C   UNL     1      -9.115  10.439  63.750  1.00  0.00    -0.247 C  
HETATM   28  H   UNL     1     -10.766  13.129  64.192  1.00  0.00     0.000 HD 
HETATM   29  C   UNL     1     -10.083  11.345  64.506  1.00  0.00    -0.287 C  
HETATM   30  H   UNL     1     -10.055  10.704  62.001  1.00  0.00     0.000 HD 
HETATM   31  O   UNL     1      -9.759   9.989  62.552  1.00  0.00    -0.205 OA 
HETATM   32  O   UNL     1     -10.163  12.565  63.721  1.00  0.00    -0.416 OA 
HETATM   33  C   UNL     1      -9.639  11.711  65.929  1.00  0.00    -0.229 C  
BRANCH  26  34
HETATM   34  C   UNL     1      -7.662   8.399  63.861  1.00  0.00    -0.143 C  
HETATM   35  H   UNL     1      -7.412   6.475  63.562  1.00  0.00     0.000 HD 
HETATM   36  O   UNL     1      -8.018   7.029  64.038  1.00  0.00    -0.125 OA 
ENDBRANCH  26  34
BRANCH  33  37
HETATM   37  O   UNL     1     -10.731  12.096  66.800  1.00  0.00    -0.222 OA 
BRANCH  37  38
HETATM   38  C   UNL     1     -10.561  13.178  67.734  1.00  0.00    -0.234 C  
HETATM   39  O   UNL     1     -11.402  12.967  68.851  1.00  0.00    -0.253 OA 
HETATM   40  C   UNL     1     -11.492  14.003  69.825  1.00  0.00    -0.230 C  
HETATM   41  C   UNL     1     -11.707  15.402  69.238  1.00  0.00    -0.349 C  
HETATM   42  H   UNL     1      -9.618  15.707  65.853  1.00  0.00     0.000 HD 
HETATM   43  O   UNL     1      -9.545  14.847  66.251  1.00  0.00    -0.272 OA 
HETATM   44  O   UNL     1     -11.551  16.389  70.263  1.00  0.00    -0.432 OA 
HETATM   45  C   UNL     1     -10.704  15.680  68.133  1.00  0.00    -0.287 C  
HETATM   46  H   UNL     1     -10.381  17.110  66.797  1.00  0.00     0.000 HD 
HETATM   47  O   UNL     1     -11.009  16.936  67.489  1.00  0.00    -0.254 OA 
HETATM   48  H   UNL     1     -11.684  17.257  69.900  1.00  0.00     0.000 HD 
HETATM   49  C   UNL     1     -10.680  14.574  67.089  1.00  0.00    -0.286 C  
BRANCH  40  50
HETATM   50  C   UNL     1     -12.694  13.647  70.723  1.00  0.00    -0.268 C  
HETATM   51  O   UNL     1     -12.651  12.292  71.176  1.00  0.00    -0.364 OA 
HETATM   52  H   UNL     1     -13.392  12.073  71.729  1.00  0.00     0.000 HD 
ENDBRANCH  40  50
ENDBRANCH  37  38
ENDBRANCH  33  37
ENDBRANCH  23  24
ENDBRANCH  18  23
TORSDOF 6
ENDMDL
MODEL       50
REMARK 921   NORMALIZED FREE ENERGY PREDICTED BY IDOCK:   -6.40 KCAL/MOL
REMARK 922        TOTAL FREE ENERGY PREDICTED BY IDOCK:  -10.62 KCAL/MOL
REMARK 923 INTER-LIGAND FREE ENERGY PREDICTED BY IDOCK:   -8.97 KCAL/MOL
REMARK 924 INTRA-LIGAND FREE ENERGY PREDICTED BY IDOCK:   -1.66 KCAL/MOL
REMARK 927      BINDING AFFINITY PREDICTED BY RF-SCORE:    0.00 PKD
ROOT
HETATM    1  C   UNL     1      -5.523   7.882  66.690  1.00  0.00    -0.028 C  
HETATM    2  C   UNL     1      -6.898   7.889  67.468  1.00  0.00    -0.070 C  
HETATM    3  C   UNL     1      -6.763   6.923  68.643  1.00  0.00    -0.060 C  
HETATM    4  C   UNL     1      -8.100   6.724  69.327  1.00  0.00    -0.120 C  
HETATM    5  C   UNL     1      -9.095   5.985  68.464  1.00  0.00    -0.112 C  
HETATM    6  C   UNL     1      -9.124   6.293  66.930  1.00  0.00    -0.132 C  
HETATM    7  C   UNL     1      -7.938   7.279  66.430  1.00  0.00    -0.112 C  
HETATM    8  C   UNL     1     -10.516   6.819  66.479  1.00  0.00    -0.101 C  
HETATM    9  C   UNL     1      -9.215   4.830  66.347  1.00  0.00    -0.135 C  
HETATM   10  O   UNL     1     -10.142   4.068  66.649  1.00  0.00    -0.151 OA 
HETATM   11  O   UNL     1      -8.273   4.381  65.518  1.00  0.00    -0.108 OA 
HETATM   12  C   UNL     1      -8.248   8.333  65.348  1.00  0.00    -0.146 C  
HETATM   13  C   UNL     1      -8.554   9.722  65.869  1.00  0.00    -0.149 C  
HETATM   14  C   UNL     1      -7.622  10.391  66.889  1.00  0.00    -0.107 C  
HETATM   15  C   UNL     1      -6.472  11.287  66.386  1.00  0.00    -0.080 C  
HETATM   16  C   UNL     1      -6.360  12.338  67.496  1.00  0.00    -0.139 C  
HETATM   17  C   UNL     1      -5.397  13.270  67.504  1.00  0.00     0.033 C  
HETATM   18  C   UNL     1      -7.568  12.251  68.460  1.00  0.00    -0.118 C  
HETATM   19  C   UNL     1      -7.296  11.333  69.674  1.00  0.00     0.096 C  
HETATM   20  C   UNL     1      -7.049   9.415  67.960  1.00  0.00    -0.081 C  
HETATM   21  C   UNL     1      -8.484  11.513  67.510  1.00  0.00    -0.143 C  
HETATM   22  C   UNL     1      -7.557   9.822  69.372  1.00  0.00    -0.104 C  
ENDROOT
BRANCH  18  23
HETATM   23  O   UNL     1      -7.972  13.581  68.776  1.00  0.00    -0.106 OA 
BRANCH  23  24
HETATM   24  C   UNL     1      -8.482  14.520  67.811  1.00  0.00    -0.174 C  
HETATM   25  O   UNL     1      -7.563  15.610  67.642  1.00  0.00    -0.133 OA 
HETATM   26  C   UNL     1      -7.921  16.463  66.539  1.00  0.00    -0.307 C  
HETATM   27  C   UNL     1      -9.223  17.172  66.879  1.00  0.00    -0.241 C  
HETATM   28  H   UNL     1     -12.102  16.285  67.918  1.00  0.00     0.000 HD 
HETATM   29  C   UNL     1     -10.347  16.167  67.108  1.00  0.00    -0.291 C  
HETATM   30  H   UNL     1     -10.451  18.533  66.073  1.00  0.00     0.000 HD 
HETATM   31  O   UNL     1      -9.638  18.091  65.860  1.00  0.00    -0.520 OA 
HETATM   32  O   UNL     1     -11.401  16.911  67.776  1.00  0.00    -0.111 OA 
HETATM   33  C   UNL     1      -9.967  14.969  67.989  1.00  0.00    -0.219 C  
BRANCH  26  34
HETATM   34  C   UNL     1      -6.798  17.485  66.321  1.00  0.00    -0.287 C  
HETATM   35  H   UNL     1      -4.840  17.456  66.188  1.00  0.00     0.000 HD 
HETATM   36  O   UNL     1      -5.535  16.823  66.323  1.00  0.00    -0.314 OA 
ENDBRANCH  26  34
BRANCH  33  37
HETATM   37  O   UNL     1     -10.803  13.803  67.782  1.00  0.00    -0.245 OA 
BRANCH  37  38
HETATM   38  C   UNL     1     -11.798  13.447  68.759  1.00  0.00    -0.351 C  
HETATM   39  O   UNL     1     -11.924  14.495  69.700  1.00  0.00    -0.293 OA 
HETATM   40  C   UNL     1     -12.754  14.277  70.837  1.00  0.00    -0.357 C  
HETATM   41  C   UNL     1     -12.517  12.937  71.542  1.00  0.00    -0.056 C  
HETATM   42  H   UNL     1     -11.741  10.159  68.787  1.00  0.00     0.000 HD 
HETATM   43  O   UNL     1     -11.870  11.020  68.409  1.00  0.00    -0.503 OA 
HETATM   44  O   UNL     1     -13.543  12.710  72.514  1.00  0.00    -0.614 OA 
HETATM   45  C   UNL     1     -12.527  11.796  70.542  1.00  0.00    -0.230 C  
HETATM   46  H   UNL     1     -12.162   9.847  70.567  1.00  0.00     0.000 HD 
HETATM   47  O   UNL     1     -12.156  10.561  71.193  1.00  0.00    -0.354 OA 
HETATM   48  H   UNL     1     -13.396  11.880  72.952  1.00  0.00     0.000 HD 
HETATM   49  C   UNL     1     -11.587  12.048  69.373  1.00  0.00    -0.330 C  
BRANCH  40  50
HETATM   50  C   UNL     1     -12.448  15.422  71.822  1.00  0.00    -0.378 C  
HETATM   51  O   UNL     1     -13.490  15.606  72.784  1.00  0.00    -0.485 OA 
HETATM   52  H   UNL     1     -13.300  16.312  73.390  1.00  0.00     0.000 HD 
ENDBRANCH  40  50
ENDBRANCH  37  38
ENDBRANCH  33  37
ENDBRANCH  23  24
ENDBRANCH  18  23
TORSDOF 6
ENDMDL
MODEL       51
REMARK 921   NORMALIZED FREE ENERGY PREDICTED BY IDOCK:   -6.35 KCAL/MOL
REMARK 922        TOTAL FREE ENERGY PREDICTED BY IDOCK:  -10.56 KCAL/MOL
REMARK 923 INTER-LIGAND FREE ENERGY PREDICTED BY IDOCK:   -8.72 KCAL/MOL
REMARK 924 INTRA-LIGAND FREE ENERGY PREDICTED BY IDOCK:   -1.83 KCAL/MOL
REMARK 927      BINDING AFFINITY PREDICTED BY RF-SCORE:    0.00 PKD
ROOT
HETATM    1  C   UNL     1      -5.208   7.755  67.669  1.00  0.00    -0.031 C  
HETATM    2  C   UNL     1      -6.516   8.129  66.867  1.00  0.00    -0.057 C  
HETATM    3  C   UNL     1      -7.517   6.994  67.071  1.00  0.00    -0.094 C  
HETATM    4  C   UNL     1      -8.727   7.182  66.178  1.00  0.00    -0.164 C  
HETATM    5  C   UNL     1      -8.404   7.016  64.712  1.00  0.00     0.018 C  
HETATM    6  C   UNL     1      -7.040   7.571  64.182  1.00  0.00    -0.064 C  
HETATM    7  C   UNL     1      -6.055   8.127  65.344  1.00  0.00    -0.045 C  
HETATM    8  C   UNL     1      -7.250   8.638  63.070  1.00  0.00    -0.095 C  
HETATM    9  C   UNL     1      -6.573   6.365  63.279  1.00  0.00    -0.036 C  
HETATM   10  O   UNL     1      -7.262   5.954  62.338  1.00  0.00    -0.045 OA 
HETATM   11  O   UNL     1      -5.415   5.752  63.529  1.00  0.00    -0.016 OA 
HETATM   12  C   UNL     1      -5.214   9.391  65.070  1.00  0.00    -0.044 C  
HETATM   13  C   UNL     1      -5.804  10.684  65.593  1.00  0.00    -0.133 C  
HETATM   14  C   UNL     1      -6.296  10.782  67.043  1.00  0.00    -0.078 C  
HETATM   15  C   UNL     1      -5.325  11.270  68.138  1.00  0.00    -0.042 C  
HETATM   16  C   UNL     1      -6.260  12.000  69.109  1.00  0.00    -0.087 C  
HETATM   17  C   UNL     1      -5.829  12.502  70.275  1.00  0.00    -0.159 C  
HETATM   18  C   UNL     1      -7.661  12.195  68.482  1.00  0.00    -0.119 C  
HETATM   19  C   UNL     1      -8.637  11.048  68.833  1.00  0.00    -0.122 C  
HETATM   20  C   UNL     1      -7.009   9.496  67.560  1.00  0.00    -0.084 C  
HETATM   21  C   UNL     1      -7.225  12.017  67.045  1.00  0.00    -0.096 C  
HETATM   22  C   UNL     1      -8.496   9.812  67.888  1.00  0.00    -0.125 C  
ENDROOT
BRANCH  18  23
HETATM   23  O   UNL     1      -8.111  13.506  68.816  1.00  0.00    -0.093 OA 
BRANCH  23  24
HETATM   24  C   UNL     1      -8.532  14.486  67.849  1.00  0.00    -0.161 C  
HETATM   25  O   UNL     1      -7.526  15.498  67.693  1.00  0.00    -0.136 OA 
HETATM   26  C   UNL     1      -7.801  16.380  66.590  1.00  0.00    -0.281 C  
HETATM   27  C   UNL     1      -9.044  17.192  66.918  1.00  0.00    -0.238 C  
HETATM   28  H   UNL     1     -11.997  16.540  67.923  1.00  0.00     0.000 HD 
HETATM   29  C   UNL     1     -10.250  16.281  67.131  1.00  0.00    -0.276 C  
HETATM   30  H   UNL     1     -10.148  18.651  66.103  1.00  0.00     0.000 HD 
HETATM   31  O   UNL     1      -9.372  18.144  65.897  1.00  0.00    -0.517 OA 
HETATM   32  O   UNL     1     -11.247  17.108  67.790  1.00  0.00    -0.170 OA 
HETATM   33  C   UNL     1      -9.978  15.054  68.012  1.00  0.00    -0.219 C  
BRANCH  26  34
HETATM   34  C   UNL     1      -6.596  17.308  66.387  1.00  0.00    -0.246 C  
HETATM   35  H   UNL     1      -4.651  17.204  66.627  1.00  0.00     0.000 HD 
HETATM   36  O   UNL     1      -5.397  16.629  66.752  1.00  0.00    -0.313 OA 
ENDBRANCH  26  34
BRANCH  33  37
HETATM   37  O   UNL     1     -10.903  13.961  67.792  1.00  0.00    -0.246 OA 
BRANCH  37  38
HETATM   38  C   UNL     1     -11.923  13.673  68.766  1.00  0.00    -0.359 C  
HETATM   39  O   UNL     1     -11.987  14.732  69.702  1.00  0.00    -0.290 OA 
HETATM   40  C   UNL     1     -12.834  14.572  70.836  1.00  0.00    -0.360 C  
HETATM   41  C   UNL     1     -12.684  13.223  71.549  1.00  0.00    -0.281 C  
HETATM   42  H   UNL     1     -12.071  10.387  68.811  1.00  0.00     0.000 HD 
HETATM   43  O   UNL     1     -12.145  11.253  68.428  1.00  0.00    -0.598 OA 
HETATM   44  O   UNL     1     -13.727  13.066  72.517  1.00  0.00    -0.594 OA 
HETATM   45  C   UNL     1     -12.761  12.080  70.554  1.00  0.00    -0.001 C  
HETATM   46  H   UNL     1     -12.519  10.112  70.591  1.00  0.00     0.000 HD 
HETATM   47  O   UNL     1     -12.471  10.827  71.213  1.00  0.00    -0.364 OA 
HETATM   48  H   UNL     1     -13.634  12.230  72.960  1.00  0.00     0.000 HD 
HETATM   49  C   UNL     1     -11.803  12.267  69.389  1.00  0.00    -0.310 C  
BRANCH  40  50
HETATM   50  C   UNL     1     -12.461  15.701  71.817  1.00  0.00    -0.438 C  
HETATM   51  O   UNL     1     -13.529  16.017  72.714  1.00  0.00    -0.509 OA 
HETATM   52  H   UNL     1     -13.298  16.713  73.318  1.00  0.00     0.000 HD 
ENDBRANCH  40  50
ENDBRANCH  37  38
ENDBRANCH  33  37
ENDBRANCH  23  24
ENDBRANCH  18  23
TORSDOF 6
ENDMDL
MODEL       52
REMARK 921   NORMALIZED FREE ENERGY PREDICTED BY IDOCK:   -6.33 KCAL/MOL
REMARK 922        TOTAL FREE ENERGY PREDICTED BY IDOCK:  -10.54 KCAL/MOL
REMARK 923 INTER-LIGAND FREE ENERGY PREDICTED BY IDOCK:   -9.95 KCAL/MOL
REMARK 924 INTRA-LIGAND FREE ENERGY PREDICTED BY IDOCK:   -0.59 KCAL/MOL
REMARK 927      BINDING AFFINITY PREDICTED BY RF-SCORE:    0.00 PKD
ROOT
HETATM    1  C   UNL     1      -5.457   5.786  66.622  1.00  0.00    -0.012 C  
HETATM    2  C   UNL     1      -6.970   5.386  66.409  1.00  0.00    -0.064 C  
HETATM    3  C   UNL     1      -7.247   4.168  67.288  1.00  0.00    -0.068 C  
HETATM    4  C   UNL     1      -8.622   3.601  66.997  1.00  0.00    -0.113 C  
HETATM    5  C   UNL     1      -8.723   2.988  65.620  1.00  0.00    -0.128 C  
HETATM    6  C   UNL     1      -7.982   3.691  64.435  1.00  0.00    -0.086 C  
HETATM    7  C   UNL     1      -7.045   4.936  64.886  1.00  0.00    -0.062 C  
HETATM    8  C   UNL     1      -8.971   4.114  63.312  1.00  0.00    -0.119 C  
HETATM    9  C   UNL     1      -7.327   2.443  63.727  1.00  0.00    -0.053 C  
HETATM   10  O   UNL     1      -8.012   1.503  63.306  1.00  0.00    -0.054 OA 
HETATM   11  O   UNL     1      -6.004   2.375  63.580  1.00  0.00    -0.009 OA 
HETATM   12  C   UNL     1      -6.980   6.187  63.986  1.00  0.00    -0.047 C  
HETATM   13  C   UNL     1      -7.892   7.324  64.398  1.00  0.00    -0.126 C  
HETATM   14  C   UNL     1      -7.909   7.820  65.850  1.00  0.00    -0.102 C  
HETATM   15  C   UNL     1      -6.974   8.974  66.265  1.00  0.00    -0.079 C  
HETATM   16  C   UNL     1      -7.790   9.690  67.347  1.00  0.00    -0.095 C  
HETATM   17  C   UNL     1      -7.294  10.714  68.055  1.00  0.00    -0.088 C  
HETATM   18  C   UNL     1      -9.248   9.173  67.368  1.00  0.00    -0.130 C  
HETATM   19  C   UNL     1      -9.454   8.010  68.366  1.00  0.00    -0.148 C  
HETATM   20  C   UNL     1      -7.781   6.683  66.909  1.00  0.00    -0.106 C  
HETATM   21  C   UNL     1      -9.240   8.596  65.971  1.00  0.00    -0.276 C  
HETATM   22  C   UNL     1      -9.075   6.616  67.771  1.00  0.00    -0.113 C  
ENDROOT
BRANCH  18  23
HETATM   23  O   UNL     1     -10.108  10.296  67.551  1.00  0.00    -0.181 OA 
BRANCH  23  24
HETATM   24  C   UNL     1     -10.542  10.779  68.836  1.00  0.00    -0.216 C  
HETATM   25  O   UNL     1     -11.158   9.721  69.584  1.00  0.00    -0.237 OA 
HETATM   26  C   UNL     1     -11.417  10.094  70.950  1.00  0.00    -0.360 C  
HETATM   27  C   UNL     1     -12.484  11.177  70.962  1.00  0.00    -0.403 C  
HETATM   28  H   UNL     1     -12.924  13.963  69.480  1.00  0.00     0.000 HD 
HETATM   29  C   UNL     1     -12.016  12.411  70.196  1.00  0.00    -0.298 C  
HETATM   30  H   UNL     1     -13.518  12.257  72.294  1.00  0.00     0.000 HD 
HETATM   31  O   UNL     1     -12.852  11.580  72.287  1.00  0.00    -0.167 OA 
HETATM   32  O   UNL     1     -13.216  13.195  69.957  1.00  0.00     0.607 OA 
HETATM   33  C   UNL     1     -11.354  12.113  68.843  1.00  0.00    -0.283 C  
BRANCH  26  34
HETATM   34  C   UNL     1     -11.905   8.857  71.716  1.00  0.00    -0.358 C  
HETATM   35  H   UNL     1     -13.610   7.924  71.994  1.00  0.00     0.000 HD 
HETATM   36  O   UNL     1     -13.308   8.690  71.520  1.00  0.00    -0.336 OA 
ENDBRANCH  26  34
BRANCH  33  37
HETATM   37  O   UNL     1     -10.470  13.164  68.382  1.00  0.00    -0.243 OA 
BRANCH  37  38
HETATM   38  C   UNL     1     -10.952  14.158  67.460  1.00  0.00    -0.283 C  
HETATM   39  O   UNL     1     -11.508  13.515  66.329  1.00  0.00    -0.309 OA 
HETATM   40  C   UNL     1     -11.910  14.326  65.229  1.00  0.00    -0.374 C  
HETATM   41  C   UNL     1     -10.872  15.371  64.805  1.00  0.00    -0.364 C  
HETATM   42  H   UNL     1      -9.070  16.786  68.070  1.00  0.00     0.000 HD 
HETATM   43  O   UNL     1      -9.709  16.111  68.270  1.00  0.00    -0.214 OA 
HETATM   44  O   UNL     1     -11.452  16.278  63.861  1.00  0.00    -1.484 OA 
HETATM   45  C   UNL     1     -10.384  16.159  66.006  1.00  0.00    -0.358 C  
HETATM   46  H   UNL     1      -8.996  17.528  66.371  1.00  0.00     0.000 HD 
HETATM   47  O   UNL     1      -9.302  17.035  65.620  1.00  0.00    -0.523 OA 
HETATM   48  H   UNL     1     -10.809  16.926  63.597  1.00  0.00     0.000 HD 
HETATM   49  C   UNL     1      -9.916  15.254  67.135  1.00  0.00    -0.233 C  
BRANCH  40  50
HETATM   50  C   UNL     1     -12.160  13.363  64.052  1.00  0.00    -0.449 C  
HETATM   51  O   UNL     1     -12.750  14.020  62.927  1.00  0.00    -0.802 OA 
HETATM   52  H   UNL     1     -12.904  13.426  62.202  1.00  0.00     0.000 HD 
ENDBRANCH  40  50
ENDBRANCH  37  38
ENDBRANCH  33  37
ENDBRANCH  23  24
ENDBRANCH  18  23
TORSDOF 6
ENDMDL
MODEL       53
REMARK 921   NORMALIZED FREE ENERGY PREDICTED BY IDOCK:   -6.29 KCAL/MOL
REMARK 922        TOTAL FREE ENERGY PREDICTED BY IDOCK:  -10.48 KCAL/MOL
REMARK 923 INTER-LIGAND FREE ENERGY PREDICTED BY IDOCK:   -8.76 KCAL/MOL
REMARK 924 INTRA-LIGAND FREE ENERGY PREDICTED BY IDOCK:   -1.72 KCAL/MOL
REMARK 927      BINDING AFFINITY PREDICTED BY RF-SCORE:    0.00 PKD
ROOT
HETATM    1  C   UNL     1      -7.350   8.990  71.931  1.00  0.00     0.107 C  
HETATM    2  C   UNL     1      -8.665   8.511  71.199  1.00  0.00    -0.215 C  
HETATM    3  C   UNL     1      -9.811   8.616  72.204  1.00  0.00    -0.387 C  
HETATM    4  C   UNL     1     -11.073   7.993  71.643  1.00  0.00    -0.300 C  
HETATM    5  C   UNL     1     -10.966   6.494  71.488  1.00  0.00    -0.298 C  
HETATM    6  C   UNL     1      -9.604   5.889  71.009  1.00  0.00    -0.197 C  
HETATM    7  C   UNL     1      -8.404   6.973  70.892  1.00  0.00    -0.129 C  
HETATM    8  C   UNL     1      -9.768   5.090  69.685  1.00  0.00    -0.266 C  
HETATM    9  C   UNL     1      -9.463   4.678  72.010  1.00  0.00    -0.142 C  
HETATM   10  O   UNL     1     -10.323   3.792  72.082  1.00  0.00    -0.149 OA 
HETATM   11  O   UNL     1      -8.403   4.597  72.815  1.00  0.00    -0.108 OA 
HETATM   12  C   UNL     1      -7.402   6.855  69.725  1.00  0.00    -0.085 C  
HETATM   13  C   UNL     1      -7.696   7.739  68.531  1.00  0.00    -0.118 C  
HETATM   14  C   UNL     1      -7.981   9.235  68.724  1.00  0.00    -0.099 C  
HETATM   15  C   UNL     1      -6.814  10.241  68.654  1.00  0.00    -0.057 C  
HETATM   16  C   UNL     1      -7.484  11.487  68.064  1.00  0.00    -0.098 C  
HETATM   17  C   UNL     1      -6.833  12.650  67.925  1.00  0.00    -0.112 C  
HETATM   18  C   UNL     1      -8.899  11.151  67.534  1.00  0.00    -0.139 C  
HETATM   19  C   UNL     1     -10.002  11.390  68.590  1.00  0.00    -0.209 C  
HETATM   20  C   UNL     1      -8.831   9.560  69.990  1.00  0.00    -0.246 C  
HETATM   21  C   UNL     1      -8.681   9.660  67.414  1.00  0.00    -0.130 C  
HETATM   22  C   UNL     1     -10.191  10.184  69.565  1.00  0.00    -0.258 C  
ENDROOT
BRANCH  18  23
HETATM   23  O   UNL     1      -9.076  11.836  66.296  1.00  0.00    -0.214 OA 
BRANCH  23  24
HETATM   24  C   UNL     1     -10.201  12.683  65.998  1.00  0.00    -0.272 C  
HETATM   25  O   UNL     1     -11.019  12.087  64.980  1.00  0.00    -0.291 OA 
HETATM   26  C   UNL     1     -12.264  12.787  64.797  1.00  0.00    -0.459 C  
HETATM   27  C   UNL     1     -11.964  14.162  64.222  1.00  0.00    -0.435 C  
HETATM   28  H   UNL     1     -10.018  16.573  64.964  1.00  0.00     0.000 HD 
HETATM   29  C   UNL     1     -11.082  14.969  65.169  1.00  0.00    -0.401 C  
HETATM   30  H   UNL     1     -12.963  15.780  63.591  1.00  0.00     0.000 HD 
HETATM   31  O   UNL     1     -13.150  14.921  63.951  1.00  0.00    -0.266 OA 
HETATM   32  O   UNL     1     -10.567  16.070  64.374  1.00  0.00    -0.350 OA 
HETATM   33  C   UNL     1      -9.892  14.195  65.753  1.00  0.00    -0.271 C  
BRANCH  26  34
HETATM   34  C   UNL     1     -13.143  11.984  63.830  1.00  0.00    -0.059 C  
HETATM   35  H   UNL     1     -12.875  10.876  62.232  1.00  0.00     0.000 HD 
HETATM   36  O   UNL     1     -12.330  11.372  62.831  1.00  0.00     0.024 OA 
ENDBRANCH  26  34
BRANCH  33  37
HETATM   37  O   UNL     1      -9.392  14.744  66.997  1.00  0.00    -0.214 OA 
BRANCH  37  38
HETATM   38  C   UNL     1     -10.008  15.914  67.566  1.00  0.00    -0.238 C  
HETATM   39  O   UNL     1      -9.171  17.034  67.352  1.00  0.00    -0.230 OA 
HETATM   40  C   UNL     1      -9.531  18.266  67.970  1.00  0.00    -0.290 C  
HETATM   41  C   UNL     1      -9.905  18.142  69.451  1.00  0.00     0.097 C  
HETATM   42  H   UNL     1     -11.883  14.720  69.991  1.00  0.00     0.000 HD 
HETATM   43  O   UNL     1     -11.601  14.840  69.092  1.00  0.00    -0.272 OA 
HETATM   44  O   UNL     1     -10.471  19.373  69.915  1.00  0.00    -0.225 OA 
HETATM   45  C   UNL     1     -10.917  17.029  69.657  1.00  0.00     0.132 C  
HETATM   46  H   UNL     1     -11.782  16.127  71.196  1.00  0.00     0.000 HD 
HETATM   47  O   UNL     1     -11.149  16.823  71.067  1.00  0.00    -0.015 OA 
HETATM   48  H   UNL     1     -10.702  19.296  70.833  1.00  0.00     0.000 HD 
HETATM   49  C   UNL     1     -10.467  15.720  69.026  1.00  0.00    -0.225 C  
BRANCH  40  50
HETATM   50  C   UNL     1      -8.304  19.190  67.839  1.00  0.00    -0.298 C  
HETATM   51  O   UNL     1      -7.785  19.587  69.111  1.00  0.00    -0.355 OA 
HETATM   52  H   UNL     1      -7.029  20.156  69.030  1.00  0.00     0.000 HD 
ENDBRANCH  40  50
ENDBRANCH  37  38
ENDBRANCH  33  37
ENDBRANCH  23  24
ENDBRANCH  18  23
TORSDOF 6
ENDMDL
MODEL       54
REMARK 921   NORMALIZED FREE ENERGY PREDICTED BY IDOCK:   -6.26 KCAL/MOL
REMARK 922        TOTAL FREE ENERGY PREDICTED BY IDOCK:  -10.44 KCAL/MOL
REMARK 923 INTER-LIGAND FREE ENERGY PREDICTED BY IDOCK:   -9.73 KCAL/MOL
REMARK 924 INTRA-LIGAND FREE ENERGY PREDICTED BY IDOCK:   -0.70 KCAL/MOL
REMARK 927      BINDING AFFINITY PREDICTED BY RF-SCORE:    0.00 PKD
ROOT
HETATM    1  C   UNL     1      -6.714   8.583  64.274  1.00  0.00    -0.071 C  
HETATM    2  C   UNL     1      -6.760   8.889  65.823  1.00  0.00    -0.068 C  
HETATM    3  C   UNL     1      -5.342   9.247  66.260  1.00  0.00    -0.040 C  
HETATM    4  C   UNL     1      -5.261   9.366  67.768  1.00  0.00    -0.037 C  
HETATM    5  C   UNL     1      -5.449   8.041  68.470  1.00  0.00    -0.032 C  
HETATM    6  C   UNL     1      -6.500   7.035  67.894  1.00  0.00    -0.051 C  
HETATM    7  C   UNL     1      -7.155   7.498  66.484  1.00  0.00    -0.075 C  
HETATM    8  C   UNL     1      -7.602   6.699  68.939  1.00  0.00    -0.101 C  
HETATM    9  C   UNL     1      -5.677   5.692  67.965  1.00  0.00    -0.012 C  
HETATM   10  O   UNL     1      -5.219   5.267  69.033  1.00  0.00     0.000 OA 
HETATM   11  O   UNL     1      -5.449   4.988  66.856  1.00  0.00    -0.012 OA 
HETATM   12  C   UNL     1      -8.652   7.225  66.231  1.00  0.00    -0.147 C  
HETATM   13  C   UNL     1      -9.576   8.391  66.513  1.00  0.00    -0.304 C  
HETATM   14  C   UNL     1      -9.272   9.780  65.936  1.00  0.00    -0.236 C  
HETATM   15  C   UNL     1      -9.870  10.178  64.571  1.00  0.00    -0.334 C  
HETATM   16  C   UNL     1     -10.085  11.687  64.729  1.00  0.00    -0.304 C  
HETATM   17  C   UNL     1     -10.506  12.459  63.719  1.00  0.00    -0.475 C  
HETATM   18  C   UNL     1      -9.906  12.116  66.206  1.00  0.00    -0.234 C  
HETATM   19  C   UNL     1      -8.461  12.563  66.525  1.00  0.00     0.081 C  
HETATM   20  C   UNL     1      -7.758  10.148  65.933  1.00  0.00    -0.127 C  
HETATM   21  C   UNL     1     -10.115  10.743  66.803  1.00  0.00    -0.267 C  
HETATM   22  C   UNL     1      -7.509  11.371  66.861  1.00  0.00    -0.147 C  
ENDROOT
BRANCH  18  23
HETATM   23  O   UNL     1     -10.923  13.067  66.512  1.00  0.00    -0.279 OA 
BRANCH  23  24
HETATM   24  C   UNL     1     -10.671  14.357  67.100  1.00  0.00    -0.283 C  
HETATM   25  O   UNL     1     -10.573  15.361  66.079  1.00  0.00    -0.299 OA 
HETATM   26  C   UNL     1     -10.533  16.693  66.622  1.00  0.00    -0.258 C  
HETATM   27  C   UNL     1      -9.230  16.865  67.386  1.00  0.00    -0.222 C  
HETATM   28  H   UNL     1      -7.679  15.243  69.649  1.00  0.00     0.000 HD 
HETATM   29  C   UNL     1      -9.135  15.864  68.534  1.00  0.00    -0.200 C  
HETATM   30  H   UNL     1      -8.257  18.292  68.400  1.00  0.00     0.000 HD 
HETATM   31  O   UNL     1      -9.071  18.185  67.923  1.00  0.00    -0.257 OA 
HETATM   32  O   UNL     1      -7.738  15.867  68.934  1.00  0.00    -0.166 OA 
HETATM   33  C   UNL     1      -9.531  14.428  68.166  1.00  0.00    -0.204 C  
BRANCH  26  34
HETATM   34  C   UNL     1     -10.611  17.699  65.466  1.00  0.00    -0.068 C  
HETATM   35  H   UNL     1     -11.177  17.683  63.587  1.00  0.00     0.000 HD 
HETATM   36  O   UNL     1     -11.129  17.060  64.302  1.00  0.00    -1.092 OA 
ENDBRANCH  26  34
BRANCH  33  37
HETATM   37  O   UNL     1      -9.945  13.628  69.301  1.00  0.00     0.130 OA 
BRANCH  37  38
HETATM   38  C   UNL     1     -11.249  13.819  69.880  1.00  0.00     0.007 C  
HETATM   39  O   UNL     1     -11.230  14.971  70.701  1.00  0.00    -0.272 OA 
HETATM   40  C   UNL     1     -12.386  15.252  71.485  1.00  0.00    -0.352 C  
HETATM   41  C   UNL     1     -12.935  14.045  72.253  1.00  0.00    -0.373 C  
HETATM   42  H   UNL     1     -12.523  10.789  69.985  1.00  0.00     0.000 HD 
HETATM   43  O   UNL     1     -12.173  11.569  69.570  1.00  0.00    -0.289 OA 
HETATM   44  O   UNL     1     -14.213  14.366  72.814  1.00  0.00    -0.491 OA 
HETATM   45  C   UNL     1     -13.091  12.849  71.331  1.00  0.00    -0.242 C  
HETATM   46  H   UNL     1     -13.563  10.932  71.515  1.00  0.00     0.000 HD 
HETATM   47  O   UNL     1     -13.466  11.680  72.092  1.00  0.00    -0.423 OA 
HETATM   48  H   UNL     1     -14.554  13.618  73.290  1.00  0.00     0.000 HD 
HETATM   49  C   UNL     1     -11.817  12.554  70.554  1.00  0.00    -0.055 C  
BRANCH  40  50
HETATM   50  C   UNL     1     -11.969  16.340  72.495  1.00  0.00    -0.554 C  
HETATM   51  O   UNL     1     -12.512  16.109  73.797  1.00  0.00    -0.501 OA 
HETATM   52  H   UNL     1     -12.254  16.780  74.419  1.00  0.00     0.000 HD 
ENDBRANCH  40  50
ENDBRANCH  37  38
ENDBRANCH  33  37
ENDBRANCH  23  24
ENDBRANCH  18  23
TORSDOF 6
ENDMDL
MODEL       55
REMARK 921   NORMALIZED FREE ENERGY PREDICTED BY IDOCK:   -6.22 KCAL/MOL
REMARK 922        TOTAL FREE ENERGY PREDICTED BY IDOCK:  -10.39 KCAL/MOL
REMARK 923 INTER-LIGAND FREE ENERGY PREDICTED BY IDOCK:   -9.15 KCAL/MOL
REMARK 924 INTRA-LIGAND FREE ENERGY PREDICTED BY IDOCK:   -1.23 KCAL/MOL
REMARK 927      BINDING AFFINITY PREDICTED BY RF-SCORE:    0.00 PKD
ROOT
HETATM    1  C   UNL     1     -11.786  14.348  65.839  1.00  0.00    -0.371 C  
HETATM    2  C   UNL     1     -11.219  14.536  67.301  1.00  0.00    -0.341 C  
HETATM    3  C   UNL     1     -12.387  14.945  68.195  1.00  0.00     0.173 C  
HETATM    4  C   UNL     1     -11.895  15.334  69.575  1.00  0.00    -0.368 C  
HETATM    5  C   UNL     1     -11.081  16.607  69.568  1.00  0.00    -0.158 C  
HETATM    6  C   UNL     1     -10.108  16.865  68.370  1.00  0.00    -0.304 C  
HETATM    7  C   UNL     1     -10.222  15.770  67.179  1.00  0.00    -0.279 C  
HETATM    8  C   UNL     1      -8.637  17.016  68.851  1.00  0.00    -0.196 C  
HETATM    9  C   UNL     1     -10.424  18.380  68.066  1.00  0.00    -0.363 C  
HETATM   10  O   UNL     1     -10.284  19.257  68.927  1.00  0.00    -0.392 OA 
HETATM   11  O   UNL     1     -10.865  18.742  66.861  1.00  0.00    -0.379 OA 
HETATM   12  C   UNL     1      -8.937  15.310  66.460  1.00  0.00    -0.340 C  
HETATM   13  C   UNL     1      -8.343  14.014  66.969  1.00  0.00    -0.127 C  
HETATM   14  C   UNL     1      -9.226  12.770  67.141  1.00  0.00    -0.219 C  
HETATM   15  C   UNL     1      -9.354  11.768  65.975  1.00  0.00    -0.231 C  
HETATM   16  C   UNL     1      -9.526  10.431  66.704  1.00  0.00    -0.199 C  
HETATM   17  C   UNL     1      -9.773   9.288  66.051  1.00  0.00    -0.359 C  
HETATM   18  C   UNL     1      -9.219  10.584  68.213  1.00  0.00    -0.152 C  
HETATM   19  C   UNL     1     -10.482  10.892  69.050  1.00  0.00    -0.244 C  
HETATM   20  C   UNL     1     -10.655  13.077  67.682  1.00  0.00    -0.232 C  
HETATM   21  C   UNL     1      -8.416  11.859  68.090  1.00  0.00    -0.163 C  
HETATM   22  C   UNL     1     -10.848  12.410  69.073  1.00  0.00    -0.194 C  
ENDROOT
BRANCH  18  23
HETATM   23  O   UNL     1      -8.474   9.440  68.627  1.00  0.00    -0.116 OA 
BRANCH  23  24
HETATM   24  C   UNL     1      -9.053   8.291  69.271  1.00  0.00    -0.151 C  
HETATM   25  O   UNL     1      -9.445   8.616  70.613  1.00  0.00    -0.164 OA 
HETATM   26  C   UNL     1     -10.219   7.569  71.228  1.00  0.00    -0.188 C  
HETATM   27  C   UNL     1      -9.321   6.358  71.426  1.00  0.00    -0.152 C  
HETATM   28  H   UNL     1      -7.347   4.655  69.594  1.00  0.00     0.000 HD 
HETATM   29  C   UNL     1      -8.785   5.852  70.090  1.00  0.00    -0.141 C  
HETATM   30  H   UNL     1      -9.428   4.517  72.208  1.00  0.00     0.000 HD 
HETATM   31  O   UNL     1      -9.989   5.273  72.084  1.00  0.00    -0.173 OA 
HETATM   32  O   UNL     1      -7.681   4.970  70.426  1.00  0.00    -0.067 OA 
HETATM   33  C   UNL     1      -8.261   6.950  69.153  1.00  0.00    -0.121 C  
BRANCH  26  34
HETATM   34  C   UNL     1     -10.743   8.071  72.580  1.00  0.00    -0.341 C  
HETATM   35  H   UNL     1     -12.493   8.413  73.400  1.00  0.00     0.000 HD 
HETATM   36  O   UNL     1     -12.168   8.103  72.564  1.00  0.00    -0.344 OA 
ENDBRANCH  26  34
BRANCH  33  37
HETATM   37  O   UNL     1      -8.254   6.569  67.755  1.00  0.00    -0.114 OA 
BRANCH  37  38
HETATM   38  C   UNL     1      -8.899   5.353  67.337  1.00  0.00    -0.105 C  
HETATM   39  O   UNL     1      -7.916   4.403  66.975  1.00  0.00    -0.100 OA 
HETATM   40  C   UNL     1      -8.351   3.179  66.390  1.00  0.00    -0.100 C  
HETATM   41  C   UNL     1      -9.384   3.348  65.270  1.00  0.00    -0.155 C  
HETATM   42  H   UNL     1     -11.829   6.352  66.223  1.00  0.00     0.000 HD 
HETATM   43  O   UNL     1     -11.147   6.217  66.871  1.00  0.00    -0.361 OA 
HETATM   44  O   UNL     1      -9.927   2.073  64.912  1.00  0.00    -0.338 OA 
HETATM   45  C   UNL     1     -10.515   4.256  65.716  1.00  0.00    -0.085 C  
HETATM   46  H   UNL     1     -12.109   5.095  64.888  1.00  0.00     0.000 HD 
HETATM   47  O   UNL     1     -11.401   4.527  64.609  1.00  0.00    -0.147 OA 
HETATM   48  H   UNL     1     -10.567   2.177  64.217  1.00  0.00     0.000 HD 
HETATM   49  C   UNL     1     -10.005   5.571  66.284  1.00  0.00    -0.140 C  
BRANCH  40  50
HETATM   50  C   UNL     1      -7.092   2.504  65.812  1.00  0.00    -0.064 C  
HETATM   51  O   UNL     1      -7.089   2.491  64.382  1.00  0.00    -0.047 OA 
HETATM   52  H   UNL     1      -6.313   2.075  64.027  1.00  0.00     0.000 HD 
ENDBRANCH  40  50
ENDBRANCH  37  38
ENDBRANCH  33  37
ENDBRANCH  23  24
ENDBRANCH  18  23
TORSDOF 6
ENDMDL
MODEL       56
REMARK 921   NORMALIZED FREE ENERGY PREDICTED BY IDOCK:   -6.22 KCAL/MOL
REMARK 922        TOTAL FREE ENERGY PREDICTED BY IDOCK:  -10.38 KCAL/MOL
REMARK 923 INTER-LIGAND FREE ENERGY PREDICTED BY IDOCK:   -9.64 KCAL/MOL
REMARK 924 INTRA-LIGAND FREE ENERGY PREDICTED BY IDOCK:   -0.75 KCAL/MOL
REMARK 927      BINDING AFFINITY PREDICTED BY RF-SCORE:    0.00 PKD
ROOT
HETATM    1  C   UNL     1     -11.201   6.837  68.395  1.00  0.00    -0.146 C  
HETATM    2  C   UNL     1      -9.971   7.363  69.235  1.00  0.00    -0.173 C  
HETATM    3  C   UNL     1      -8.844   6.343  69.081  1.00  0.00    -0.126 C  
HETATM    4  C   UNL     1      -7.694   6.673  70.011  1.00  0.00    -0.102 C  
HETATM    5  C   UNL     1      -8.048   6.489  71.468  1.00  0.00    -0.112 C  
HETATM    6  C   UNL     1      -9.482   6.894  71.944  1.00  0.00    -0.146 C  
HETATM    7  C   UNL     1     -10.481   7.326  70.741  1.00  0.00    -0.224 C  
HETATM    8  C   UNL     1      -9.429   7.990  73.047  1.00  0.00    -0.345 C  
HETATM    9  C   UNL     1      -9.844   5.654  72.848  1.00  0.00    -0.166 C  
HETATM   10  O   UNL     1      -9.147   5.332  73.817  1.00  0.00    -0.123 OA 
HETATM   11  O   UNL     1     -10.918   4.914  72.569  1.00  0.00    -0.202 OA 
HETATM   12  C   UNL     1     -11.466   8.491  70.969  1.00  0.00    -0.313 C  
HETATM   13  C   UNL     1     -11.004   9.836  70.448  1.00  0.00    -0.371 C  
HETATM   14  C   UNL     1     -10.476   9.973  69.013  1.00  0.00    -0.233 C  
HETATM   15  C   UNL     1     -11.456  10.338  67.880  1.00  0.00    -0.030 C  
HETATM   16  C   UNL     1     -10.574  11.157  66.930  1.00  0.00    -0.304 C  
HETATM   17  C   UNL     1     -11.017  11.595  65.743  1.00  0.00    -0.329 C  
HETATM   18  C   UNL     1      -9.226  11.513  67.601  1.00  0.00    -0.171 C  
HETATM   19  C   UNL     1      -8.118  10.477  67.299  1.00  0.00    -0.115 C  
HETATM   20  C   UNL     1      -9.608   8.768  68.540  1.00  0.00    -0.158 C  
HETATM   21  C   UNL     1      -9.689  11.303  69.024  1.00  0.00    -0.072 C  
HETATM   22  C   UNL     1      -8.154   9.244  68.256  1.00  0.00    -0.107 C  
ENDROOT
BRANCH  18  23
HETATM   23  O   UNL     1      -8.911  12.862  67.263  1.00  0.00    -0.190 OA 
BRANCH  23  24
HETATM   24  C   UNL     1      -7.783  13.584  67.790  1.00  0.00    -0.163 C  
HETATM   25  O   UNL     1      -7.379  13.027  69.050  1.00  0.00    -0.056 OA 
HETATM   26  C   UNL     1      -6.131  13.572  69.516  1.00  0.00    -0.112 C  
HETATM   27  C   UNL     1      -6.340  15.040  69.851  1.00  0.00    -0.162 C  
HETATM   28  H   UNL     1      -7.586  17.567  68.362  1.00  0.00     0.000 HD 
HETATM   29  C   UNL     1      -6.788  15.822  68.620  1.00  0.00    -0.122 C  
HETATM   30  H   UNL     1      -5.292  16.580  70.587  1.00  0.00     0.000 HD 
HETATM   31  O   UNL     1      -5.162  15.663  70.378  1.00  0.00    -0.133 OA 
HETATM   32  O   UNL     1      -7.307  17.080  69.129  1.00  0.00    -0.242 OA 
HETATM   33  C   UNL     1      -7.890  15.142  67.795  1.00  0.00    -0.147 C  
BRANCH  26  34
HETATM   34  C   UNL     1      -5.690  12.798  70.765  1.00  0.00    -0.131 C  
HETATM   35  H   UNL     1      -5.969  11.004  71.512  1.00  0.00     0.000 HD 
HETATM   36  O   UNL     1      -6.242  11.483  70.738  1.00  0.00    -0.325 OA 
ENDBRANCH  26  34
BRANCH  33  37
HETATM   37  O   UNL     1      -7.939  15.580  66.414  1.00  0.00    -0.109 OA 
BRANCH  37  38
HETATM   38  C   UNL     1      -8.511  16.859  66.084  1.00  0.00    -0.246 C  
HETATM   39  O   UNL     1      -7.514  17.857  66.189  1.00  0.00    -0.284 OA 
HETATM   40  C   UNL     1      -7.912  19.217  66.046  1.00  0.00    -0.243 C  
HETATM   41  C   UNL     1      -9.154  19.599  66.860  1.00  0.00    -0.342 C  
HETATM   42  H   UNL     1     -11.694  16.524  66.843  1.00  0.00     0.000 HD 
HETATM   43  O   UNL     1     -10.890  16.335  66.374  1.00  0.00    -0.236 OA 
HETATM   44  O   UNL     1      -9.607  20.901  66.474  1.00  0.00    -0.600 OA 
HETATM   45  C   UNL     1     -10.273  18.601  66.630  1.00  0.00    -0.404 C  
HETATM   46  H   UNL     1     -12.082  18.260  67.368  1.00  0.00     0.000 HD 
HETATM   47  O   UNL     1     -11.382  18.885  67.512  1.00  0.00    -0.054 OA 
HETATM   48  H   UNL     1     -10.377  21.138  66.979  1.00  0.00     0.000 HD 
HETATM   49  C   UNL     1      -9.816  17.166  66.846  1.00  0.00    -0.285 C  
BRANCH  40  50
HETATM   50  C   UNL     1      -6.720  20.069  66.524  1.00  0.00    -0.212 C  
HETATM   51  O   UNL     1      -7.125  21.355  67.000  1.00  0.00    -0.774 OA 
HETATM   52  H   UNL     1      -6.390  21.879  67.294  1.00  0.00     0.000 HD 
ENDBRANCH  40  50
ENDBRANCH  37  38
ENDBRANCH  33  37
ENDBRANCH  23  24
ENDBRANCH  18  23
TORSDOF 6
ENDMDL
MODEL       57
REMARK 921   NORMALIZED FREE ENERGY PREDICTED BY IDOCK:   -6.10 KCAL/MOL
REMARK 922        TOTAL FREE ENERGY PREDICTED BY IDOCK:  -10.22 KCAL/MOL
REMARK 923 INTER-LIGAND FREE ENERGY PREDICTED BY IDOCK:   -8.32 KCAL/MOL
REMARK 924 INTRA-LIGAND FREE ENERGY PREDICTED BY IDOCK:   -1.90 KCAL/MOL
REMARK 927      BINDING AFFINITY PREDICTED BY RF-SCORE:    0.00 PKD
ROOT
HETATM    1  C   UNL     1     -10.726  15.285  70.123  1.00  0.00    -0.293 C  
HETATM    2  C   UNL     1      -9.898  15.191  68.781  1.00  0.00    -0.223 C  
HETATM    3  C   UNL     1      -8.603  15.973  68.987  1.00  0.00    -0.244 C  
HETATM    4  C   UNL     1      -7.840  16.097  67.684  1.00  0.00    -0.165 C  
HETATM    5  C   UNL     1      -8.544  16.973  66.675  1.00  0.00    -0.285 C  
HETATM    6  C   UNL     1     -10.103  16.893  66.576  1.00  0.00    -0.320 C  
HETATM    7  C   UNL     1     -10.791  15.966  67.716  1.00  0.00    -0.324 C  
HETATM    8  C   UNL     1     -10.565  16.464  65.154  1.00  0.00    -0.287 C  
HETATM    9  C   UNL     1     -10.463  18.426  66.500  1.00  0.00    -0.381 C  
HETATM   10  O   UNL     1     -10.015  19.154  65.606  1.00  0.00    -0.418 OA 
HETATM   11  O   UNL     1     -11.259  18.972  67.419  1.00  0.00    -0.267 OA 
HETATM   12  C   UNL     1     -12.000  15.087  67.336  1.00  0.00    -0.064 C  
HETATM   13  C   UNL     1     -11.672  13.644  67.016  1.00  0.00    -0.419 C  
HETATM   14  C   UNL     1     -10.801  12.815  67.970  1.00  0.00    -0.254 C  
HETATM   15  C   UNL     1     -11.477  11.979  69.075  1.00  0.00    -0.357 C  
HETATM   16  C   UNL     1     -10.536  10.776  69.205  1.00  0.00    -0.261 C  
HETATM   17  C   UNL     1     -10.706   9.834  70.143  1.00  0.00    -0.339 C  
HETATM   18  C   UNL     1      -9.519  10.746  68.040  1.00  0.00    -0.160 C  
HETATM   19  C   UNL     1      -8.198  11.472  68.383  1.00  0.00    -0.152 C  
HETATM   20  C   UNL     1      -9.626  13.614  68.611  1.00  0.00    -0.100 C  
HETATM   21  C   UNL     1     -10.311  11.631  67.105  1.00  0.00    -0.247 C  
HETATM   22  C   UNL     1      -8.266  13.015  68.149  1.00  0.00    -0.157 C  
ENDROOT
BRANCH  18  23
HETATM   23  O   UNL     1      -9.381   9.392  67.614  1.00  0.00    -0.128 OA 
BRANCH  23  24
HETATM   24  C   UNL     1      -8.340   8.924  66.736  1.00  0.00    -0.111 C  
HETATM   25  O   UNL     1      -8.874   8.648  65.433  1.00  0.00    -0.183 OA 
HETATM   26  C   UNL     1      -7.844   8.382  64.463  1.00  0.00    -0.136 C  
HETATM   27  C   UNL     1      -7.161   7.074  64.829  1.00  0.00    -0.072 C  
HETATM   28  H   UNL     1      -5.850   5.841  67.459  1.00  0.00     0.000 HD 
HETATM   29  C   UNL     1      -6.524   7.161  66.212  1.00  0.00    -0.051 C  
HETATM   30  H   UNL     1      -5.724   5.875  64.117  1.00  0.00     0.000 HD 
HETATM   31  O   UNL     1      -6.150   6.692  63.888  1.00  0.00    -0.033 OA 
HETATM   32  O   UNL     1      -6.247   5.787  66.597  1.00  0.00    -0.028 OA 
HETATM   33  C   UNL     1      -7.413   7.796  67.290  1.00  0.00    -0.093 C  
BRANCH  26  34
HETATM   34  C   UNL     1      -8.488   8.277  63.074  1.00  0.00     0.006 C  
HETATM   35  H   UNL     1      -9.387   9.487  61.817  1.00  0.00     0.000 HD 
HETATM   36  O   UNL     1      -8.989   9.552  62.676  1.00  0.00    -0.241 OA 
ENDBRANCH  26  34
BRANCH  33  37
HETATM   37  O   UNL     1      -6.673   8.349  68.406  1.00  0.00    -0.061 OA 
BRANCH  37  38
HETATM   38  C   UNL     1      -6.788   7.755  69.712  1.00  0.00    -0.046 C  
HETATM   39  O   UNL     1      -7.266   6.430  69.582  1.00  0.00    -0.073 OA 
HETATM   40  C   UNL     1      -7.590   5.716  70.771  1.00  0.00    -0.091 C  
HETATM   41  C   UNL     1      -8.445   6.508  71.767  1.00  0.00    -0.123 C  
HETATM   42  H   UNL     1      -7.278  10.322  71.710  1.00  0.00     0.000 HD 
HETATM   43  O   UNL     1      -6.799   9.785  71.089  1.00  0.00    -0.314 OA 
HETATM   44  O   UNL     1      -8.519   5.804  73.012  1.00  0.00    -0.118 OA 
HETATM   45  C   UNL     1      -7.846   7.880  72.015  1.00  0.00    -0.104 C  
HETATM   46  H   UNL     1      -8.360   9.529  72.991  1.00  0.00     0.000 HD 
HETATM   47  O   UNL     1      -8.734   8.670  72.836  1.00  0.00    -0.384 OA 
HETATM   48  H   UNL     1      -9.049   6.294  73.630  1.00  0.00     0.000 HD 
HETATM   49  C   UNL     1      -7.565   8.627  70.720  1.00  0.00    -0.083 C  
BRANCH  40  50
HETATM   50  C   UNL     1      -8.372   4.466  70.324  1.00  0.00    -0.073 C  
HETATM   51  O   UNL     1      -8.209   3.370  71.229  1.00  0.00    -0.062 OA 
HETATM   52  H   UNL     1      -8.691   2.600  70.953  1.00  0.00     0.000 HD 
ENDBRANCH  40  50
ENDBRANCH  37  38
ENDBRANCH  33  37
ENDBRANCH  23  24
ENDBRANCH  18  23
TORSDOF 6
ENDMDL
MODEL       58
REMARK 921   NORMALIZED FREE ENERGY PREDICTED BY IDOCK:   -5.99 KCAL/MOL
REMARK 922        TOTAL FREE ENERGY PREDICTED BY IDOCK:  -10.08 KCAL/MOL
REMARK 923 INTER-LIGAND FREE ENERGY PREDICTED BY IDOCK:   -8.73 KCAL/MOL
REMARK 924 INTRA-LIGAND FREE ENERGY PREDICTED BY IDOCK:   -1.35 KCAL/MOL
REMARK 927      BINDING AFFINITY PREDICTED BY RF-SCORE:    0.00 PKD
ROOT
HETATM    1  C   UNL     1     -10.666  15.130  69.992  1.00  0.00    -0.259 C  
HETATM    2  C   UNL     1      -9.875  15.034  68.628  1.00  0.00    -0.222 C  
HETATM    3  C   UNL     1      -8.553  15.776  68.814  1.00  0.00    -0.203 C  
HETATM    4  C   UNL     1      -7.819  15.898  67.494  1.00  0.00    -0.176 C  
HETATM    5  C   UNL     1      -8.522  16.809  66.515  1.00  0.00    -0.318 C  
HETATM    6  C   UNL     1     -10.085  16.774  66.455  1.00  0.00    -0.327 C  
HETATM    7  C   UNL     1     -10.771  15.850  67.598  1.00  0.00    -0.312 C  
HETATM    8  C   UNL     1     -10.593  16.381  65.038  1.00  0.00    -0.217 C  
HETATM    9  C   UNL     1     -10.403  18.318  66.409  1.00  0.00    -0.400 C  
HETATM   10  O   UNL     1      -9.957  19.046  65.515  1.00  0.00    -0.325 OA 
HETATM   11  O   UNL     1     -11.161  18.872  67.356  1.00  0.00    -0.359 OA 
HETATM   12  C   UNL     1     -12.013  15.011  67.235  1.00  0.00    -0.046 C  
HETATM   13  C   UNL     1     -11.734  13.564  66.885  1.00  0.00    -0.424 C  
HETATM   14  C   UNL     1     -10.864  12.697  67.805  1.00  0.00    -0.248 C  
HETATM   15  C   UNL     1     -11.537  11.863  68.915  1.00  0.00    -0.370 C  
HETATM   16  C   UNL     1     -10.628  10.633  69.004  1.00  0.00    -0.249 C  
HETATM   17  C   UNL     1     -10.801   9.682  69.932  1.00  0.00    -0.287 C  
HETATM   18  C   UNL     1      -9.641  10.592  67.813  1.00  0.00    -0.156 C  
HETATM   19  C   UNL     1      -8.291  11.275  68.134  1.00  0.00    -0.143 C  
HETATM   20  C   UNL     1      -9.652  13.452  68.429  1.00  0.00    -0.188 C  
HETATM   21  C   UNL     1     -10.430  11.513  66.912  1.00  0.00    -0.270 C  
HETATM   22  C   UNL     1      -8.322  12.823  67.925  1.00  0.00    -0.172 C  
ENDROOT
BRANCH  18  23
HETATM   23  O   UNL     1      -9.552   9.241  67.365  1.00  0.00    -0.142 OA 
BRANCH  23  24
HETATM   24  C   UNL     1      -8.736   8.810  66.260  1.00  0.00    -0.147 C  
HETATM   25  O   UNL     1      -9.291   9.272  65.019  1.00  0.00    -0.229 OA 
HETATM   26  C   UNL     1      -8.405   9.051  63.906  1.00  0.00    -0.176 C  
HETATM   27  C   UNL     1      -8.278   7.553  63.679  1.00  0.00     0.062 C  
HETATM   28  H   UNL     1      -7.616   5.017  65.490  1.00  0.00     0.000 HD 
HETATM   29  C   UNL     1      -7.701   6.862  64.910  1.00  0.00    -0.113 C  
HETATM   30  H   UNL     1      -7.376   6.295  62.409  1.00  0.00     0.000 HD 
HETATM   31  O   UNL     1      -7.455   7.230  62.551  1.00  0.00    -0.087 OA 
HETATM   32  O   UNL     1      -7.976   5.447  64.723  1.00  0.00    -0.097 OA 
HETATM   33  C   UNL     1      -8.321   7.304  66.243  1.00  0.00    -0.129 C  
BRANCH  26  34
HETATM   34  C   UNL     1      -8.995   9.732  62.664  1.00  0.00    -0.273 C  
HETATM   35  H   UNL     1      -9.907  11.420  62.252  1.00  0.00     0.000 HD 
HETATM   36  O   UNL     1      -9.542  10.999  63.021  1.00  0.00    -0.304 OA 
ENDBRANCH  26  34
BRANCH  33  37
HETATM   37  O   UNL     1      -7.464   7.076  67.389  1.00  0.00    -0.092 OA 
BRANCH  37  38
HETATM   38  C   UNL     1      -7.728   5.975  68.278  1.00  0.00    -0.102 C  
HETATM   39  O   UNL     1      -7.717   4.767  67.541  1.00  0.00    -0.088 OA 
HETATM   40  C   UNL     1      -8.105   3.571  68.212  1.00  0.00    -0.074 C  
HETATM   41  C   UNL     1      -9.394   3.698  69.031  1.00  0.00    -0.169 C  
HETATM   42  H   UNL     1      -9.501   7.320  70.700  1.00  0.00     0.000 HD 
HETATM   43  O   UNL     1      -8.734   7.192  70.155  1.00  0.00    -0.139 OA 
HETATM   44  O   UNL     1      -9.571   2.533  69.844  1.00  0.00    -0.100 OA 
HETATM   45  C   UNL     1      -9.340   4.920  69.930  1.00  0.00    -0.141 C  
HETATM   46  H   UNL     1     -10.580   5.878  71.146  1.00  0.00     0.000 HD 
HETATM   47  O   UNL     1     -10.614   5.113  70.584  1.00  0.00    -0.233 OA 
HETATM   48  H   UNL     1     -10.370   2.611  70.352  1.00  0.00     0.000 HD 
HETATM   49  C   UNL     1      -8.975   6.181  69.162  1.00  0.00    -0.126 C  
BRANCH  40  50
HETATM   50  C   UNL     1      -8.312   2.508  67.115  1.00  0.00    -0.086 C  
HETATM   51  O   UNL     1      -7.500   2.751  65.963  1.00  0.00    -0.070 OA 
HETATM   52  H   UNL     1      -7.628   2.095  65.287  1.00  0.00     0.000 HD 
ENDBRANCH  40  50
ENDBRANCH  37  38
ENDBRANCH  33  37
ENDBRANCH  23  24
ENDBRANCH  18  23
TORSDOF 6
ENDMDL
MODEL       59
REMARK 921   NORMALIZED FREE ENERGY PREDICTED BY IDOCK:   -5.95 KCAL/MOL
REMARK 922        TOTAL FREE ENERGY PREDICTED BY IDOCK:  -10.02 KCAL/MOL
REMARK 923 INTER-LIGAND FREE ENERGY PREDICTED BY IDOCK:   -8.28 KCAL/MOL
REMARK 924 INTRA-LIGAND FREE ENERGY PREDICTED BY IDOCK:   -1.74 KCAL/MOL
REMARK 927      BINDING AFFINITY PREDICTED BY RF-SCORE:    0.00 PKD
ROOT
HETATM    1  C   UNL     1     -11.886  13.893  66.052  1.00  0.00    -0.412 C  
HETATM    2  C   UNL     1     -11.254  14.077  67.488  1.00  0.00    -0.328 C  
HETATM    3  C   UNL     1     -12.376  14.516  68.427  1.00  0.00    -0.011 C  
HETATM    4  C   UNL     1     -11.818  14.903  69.782  1.00  0.00    -0.356 C  
HETATM    5  C   UNL     1     -10.979  16.158  69.733  1.00  0.00    -0.349 C  
HETATM    6  C   UNL     1     -10.051  16.387  68.494  1.00  0.00    -0.248 C  
HETATM    7  C   UNL     1     -10.238  15.288  67.316  1.00  0.00    -0.248 C  
HETATM    8  C   UNL     1      -8.558  16.509  68.913  1.00  0.00    -0.241 C  
HETATM    9  C   UNL     1     -10.347  17.906  68.194  1.00  0.00    -0.389 C  
HETATM   10  O   UNL     1     -10.153  18.785  69.042  1.00  0.00    -0.393 OA 
HETATM   11  O   UNL     1     -10.830  18.271  67.006  1.00  0.00    -0.329 OA 
HETATM   12  C   UNL     1      -8.993  14.797  66.548  1.00  0.00    -0.267 C  
HETATM   13  C   UNL     1      -8.407  13.490  67.040  1.00  0.00    -0.096 C  
HETATM   14  C   UNL     1      -9.308  12.267  67.257  1.00  0.00    -0.185 C  
HETATM   15  C   UNL     1      -9.506  11.262  66.105  1.00  0.00    -0.232 C  
HETATM   16  C   UNL     1      -9.675   9.932  66.849  1.00  0.00    -0.236 C  
HETATM   17  C   UNL     1      -9.974   8.791  66.214  1.00  0.00    -0.315 C  
HETATM   18  C   UNL     1      -9.303  10.088  68.343  1.00  0.00    -0.138 C  
HETATM   19  C   UNL     1     -10.524  10.427  69.229  1.00  0.00    -0.257 C  
HETATM   20  C   UNL     1     -10.707  12.608  67.854  1.00  0.00    -0.237 C  
HETATM   21  C   UNL     1      -8.479  11.344  68.178  1.00  0.00    -0.152 C  
HETATM   22  C   UNL     1     -10.856  11.954  69.258  1.00  0.00    -0.157 C  
ENDROOT
BRANCH  18  23
HETATM   23  O   UNL     1      -8.566   8.930  68.733  1.00  0.00    -0.133 OA 
BRANCH  23  24
HETATM   24  C   UNL     1      -8.021   8.727  70.050  1.00  0.00    -0.108 C  
HETATM   25  O   UNL     1      -6.811   9.483  70.210  1.00  0.00    -0.065 OA 
HETATM   26  C   UNL     1      -6.342   9.483  71.571  1.00  0.00     0.070 C  
HETATM   27  C   UNL     1      -5.906   8.072  71.933  1.00  0.00    -0.036 C  
HETATM   28  H   UNL     1      -7.194   5.164  71.738  1.00  0.00     0.000 HD 
HETATM   29  C   UNL     1      -7.071   7.095  71.816  1.00  0.00    -0.068 C  
HETATM   30  H   UNL     1      -5.097   7.098  73.484  1.00  0.00     0.000 HD 
HETATM   31  O   UNL     1      -5.369   7.979  73.259  1.00  0.00    -0.043 OA 
HETATM   32  O   UNL     1      -6.467   5.773  71.811  1.00  0.00    -0.049 OA 
HETATM   33  C   UNL     1      -7.911   7.248  70.540  1.00  0.00    -0.104 C  
BRANCH  26  34
HETATM   34  C   UNL     1      -5.158  10.453  71.685  1.00  0.00    -0.068 C  
HETATM   35  H   UNL     1      -4.882  12.394  71.591  1.00  0.00     0.000 HD 
HETATM   36  O   UNL     1      -5.615  11.794  71.521  1.00  0.00    -0.369 OA 
ENDBRANCH  26  34
BRANCH  33  37
HETATM   37  O   UNL     1      -9.258   6.728  70.662  1.00  0.00    -0.155 OA 
BRANCH  37  38
HETATM   38  C   UNL     1      -9.656   5.573  69.901  1.00  0.00    -0.164 C  
HETATM   39  O   UNL     1      -8.635   4.596  69.967  1.00  0.00    -0.076 OA 
HETATM   40  C   UNL     1      -8.770   3.433  69.156  1.00  0.00    -0.090 C  
HETATM   41  C   UNL     1      -9.155   3.720  67.700  1.00  0.00    -0.158 C  
HETATM   42  H   UNL     1     -11.705   6.787  67.632  1.00  0.00     0.000 HD 
HETATM   43  O   UNL     1     -11.408   6.579  68.510  1.00  0.00    -0.258 OA 
HETATM   44  O   UNL     1      -9.492   2.498  67.036  1.00  0.00    -0.378 OA 
HETATM   45  C   UNL     1     -10.347   4.658  67.637  1.00  0.00     0.096 C  
HETATM   46  H   UNL     1     -11.353   5.626  66.228  1.00  0.00     0.000 HD 
HETATM   47  O   UNL     1     -10.607   5.039  66.268  1.00  0.00    -0.304 OA 
HETATM   48  H   UNL     1      -9.731   2.675  66.133  1.00  0.00     0.000 HD 
HETATM   49  C   UNL     1     -10.137   5.910  68.474  1.00  0.00    -0.167 C  
BRANCH  40  50
HETATM   50  C   UNL     1      -7.399   2.728  69.181  1.00  0.00    -0.044 C  
HETATM   51  O   UNL     1      -6.483   3.353  70.083  1.00  0.00    -0.031 OA 
HETATM   52  H   UNL     1      -5.638   2.919  70.097  1.00  0.00     0.000 HD 
ENDBRANCH  40  50
ENDBRANCH  37  38
ENDBRANCH  33  37
ENDBRANCH  23  24
ENDBRANCH  18  23
TORSDOF 6
ENDMDL
MODEL       60
REMARK 921   NORMALIZED FREE ENERGY PREDICTED BY IDOCK:   -5.89 KCAL/MOL
REMARK 922        TOTAL FREE ENERGY PREDICTED BY IDOCK:   -9.94 KCAL/MOL
REMARK 923 INTER-LIGAND FREE ENERGY PREDICTED BY IDOCK:   -9.11 KCAL/MOL
REMARK 924 INTRA-LIGAND FREE ENERGY PREDICTED BY IDOCK:   -0.84 KCAL/MOL
REMARK 927      BINDING AFFINITY PREDICTED BY RF-SCORE:    0.00 PKD
ROOT
HETATM    1  C   UNL     1     -10.405  14.089  64.927  1.00  0.00    -0.434 C  
HETATM    2  C   UNL     1     -10.629  14.070  66.490  1.00  0.00    -0.279 C  
HETATM    3  C   UNL     1     -12.035  14.603  66.757  1.00  0.00    -0.297 C  
HETATM    4  C   UNL     1     -12.259  14.801  68.242  1.00  0.00    -0.065 C  
HETATM    5  C   UNL     1     -11.417  15.915  68.818  1.00  0.00    -0.393 C  
HETATM    6  C   UNL     1      -9.954  16.092  68.294  1.00  0.00    -0.220 C  
HETATM    7  C   UNL     1      -9.576  15.123  67.049  1.00  0.00    -0.235 C  
HETATM    8  C   UNL     1      -8.915  15.957  69.443  1.00  0.00    -0.209 C  
HETATM    9  C   UNL     1      -9.906  17.657  68.103  1.00  0.00    -0.318 C  
HETATM   10  O   UNL     1     -10.120  18.431  69.043  1.00  0.00    -0.379 OA 
HETATM   11  O   UNL     1      -9.642  18.176  66.904  1.00  0.00    -0.279 OA 
HETATM   12  C   UNL     1      -8.163  14.508  66.983  1.00  0.00    -0.164 C  
HETATM   13  C   UNL     1      -8.050  13.095  67.517  1.00  0.00    -0.181 C  
HETATM   14  C   UNL     1      -9.031  12.009  67.054  1.00  0.00    -0.198 C  
HETATM   15  C   UNL     1      -8.668  11.132  65.839  1.00  0.00    -0.167 C  
HETATM   16  C   UNL     1      -9.327   9.793  66.186  1.00  0.00    -0.243 C  
HETATM   17  C   UNL     1      -9.339   8.760  65.334  1.00  0.00    -0.095 C  
HETATM   18  C   UNL     1      -9.802   9.780  67.659  1.00  0.00    -0.165 C  
HETATM   19  C   UNL     1     -11.272  10.234  67.816  1.00  0.00    -0.262 C  
HETATM   20  C   UNL     1     -10.496  12.513  66.875  1.00  0.00    -0.244 C  
HETATM   21  C   UNL     1      -8.911  10.906  68.130  1.00  0.00    -0.137 C  
HETATM   22  C   UNL     1     -11.431  11.787  67.884  1.00  0.00    -0.387 C  
ENDROOT
BRANCH  18  23
HETATM   23  O   UNL     1      -9.495   8.500  68.207  1.00  0.00    -0.134 OA 
BRANCH  23  24
HETATM   24  C   UNL     1      -9.930   8.052  69.504  1.00  0.00    -0.186 C  
HETATM   25  O   UNL     1     -11.015   8.865  69.975  1.00  0.00    -0.236 OA 
HETATM   26  C   UNL     1     -11.625   8.332  71.165  1.00  0.00    -0.279 C  
HETATM   27  C   UNL     1     -10.621   8.422  72.303  1.00  0.00    -0.342 C  
HETATM   28  H   UNL     1      -7.584   7.565  72.742  1.00  0.00     0.000 HD 
HETATM   29  C   UNL     1      -9.366   7.613  71.989  1.00  0.00    -0.142 C  
HETATM   30  H   UNL     1     -10.528   8.018  74.263  1.00  0.00     0.000 HD 
HETATM   31  O   UNL     1     -11.155   7.962  73.552  1.00  0.00    -0.214 OA 
HETATM   32  O   UNL     1      -8.365   8.069  72.938  1.00  0.00    -0.141 OA 
HETATM   33  C   UNL     1      -8.815   7.810  70.570  1.00  0.00    -0.145 C  
BRANCH  26  34
HETATM   34  C   UNL     1     -12.876   9.157  71.491  1.00  0.00    -0.347 C  
HETATM   35  H   UNL     1     -14.779   8.805  71.819  1.00  0.00     0.000 HD 
HETATM   36  O   UNL     1     -14.005   8.294  71.617  1.00  0.00    -0.380 OA 
ENDBRANCH  26  34
BRANCH  33  37
HETATM   37  O   UNL     1      -7.997   6.709  70.104  1.00  0.00    -0.108 OA 
BRANCH  37  38
HETATM   38  C   UNL     1      -8.599   5.622  69.376  1.00  0.00    -0.106 C  
HETATM   39  O   UNL     1      -8.944   4.590  70.280  1.00  0.00    -0.084 OA 
HETATM   40  C   UNL     1      -9.419   3.360  69.740  1.00  0.00    -0.159 C  
HETATM   41  C   UNL     1      -8.577   2.813  68.583  1.00  0.00    -0.075 C  
HETATM   42  H   UNL     1      -7.306   5.873  66.362  1.00  0.00     0.000 HD 
HETATM   43  O   UNL     1      -7.814   6.155  67.114  1.00  0.00    -0.100 OA 
HETATM   44  O   UNL     1      -9.256   1.716  67.963  1.00  0.00    -0.138 OA 
HETATM   45  C   UNL     1      -8.332   3.890  67.542  1.00  0.00    -0.094 C  
HETATM   46  H   UNL     1      -7.263   4.082  65.882  1.00  0.00     0.000 HD 
HETATM   47  O   UNL     1      -7.417   3.408  66.534  1.00  0.00    -0.074 OA 
HETATM   48  H   UNL     1      -8.734   1.376  67.245  1.00  0.00     0.000 HD 
HETATM   49  C   UNL     1      -7.775   5.165  68.156  1.00  0.00    -0.084 C  
BRANCH  40  50
HETATM   50  C   UNL     1      -9.399   2.344  70.899  1.00  0.00    -0.143 C  
HETATM   51  O   UNL     1      -8.267   1.473  70.837  1.00  0.00    -0.045 OA 
HETATM   52  H   UNL     1      -8.254   0.846  71.551  1.00  0.00     0.000 HD 
ENDBRANCH  40  50
ENDBRANCH  37  38
ENDBRANCH  33  37
ENDBRANCH  23  24
ENDBRANCH  18  23
TORSDOF 6
ENDMDL
MODEL       61
REMARK 921   NORMALIZED FREE ENERGY PREDICTED BY IDOCK:   -5.87 KCAL/MOL
REMARK 922        TOTAL FREE ENERGY PREDICTED BY IDOCK:   -9.91 KCAL/MOL
REMARK 923 INTER-LIGAND FREE ENERGY PREDICTED BY IDOCK:   -9.56 KCAL/MOL
REMARK 924 INTRA-LIGAND FREE ENERGY PREDICTED BY IDOCK:   -0.35 KCAL/MOL
REMARK 927      BINDING AFFINITY PREDICTED BY RF-SCORE:    0.00 PKD
ROOT
HETATM    1  C   UNL     1     -11.132   5.438  71.851  1.00  0.00    -0.179 C  
HETATM    2  C   UNL     1      -9.983   5.819  70.835  1.00  0.00    -0.243 C  
HETATM    3  C   UNL     1      -9.998   4.778  69.718  1.00  0.00    -0.308 C  
HETATM    4  C   UNL     1      -8.803   4.958  68.804  1.00  0.00    -0.114 C  
HETATM    5  C   UNL     1      -7.493   4.631  69.482  1.00  0.00    -0.052 C  
HETATM    6  C   UNL     1      -7.306   5.041  70.980  1.00  0.00    -0.072 C  
HETATM    7  C   UNL     1      -8.644   5.640  71.674  1.00  0.00    -0.132 C  
HETATM    8  C   UNL     1      -6.101   6.007  71.162  1.00  0.00    -0.034 C  
HETATM    9  C   UNL     1      -6.655   3.725  71.556  1.00  0.00    -0.026 C  
HETATM   10  O   UNL     1      -5.598   3.271  71.101  1.00  0.00    -0.011 OA 
HETATM   11  O   UNL     1      -7.250   3.064  72.550  1.00  0.00    -0.040 OA 
HETATM   12  C   UNL     1      -8.510   6.813  72.667  1.00  0.00    -0.127 C  
HETATM   13  C   UNL     1      -8.757   8.186  72.079  1.00  0.00    -0.221 C  
HETATM   14  C   UNL     1     -10.011   8.457  71.238  1.00  0.00    -0.261 C  
HETATM   15  C   UNL     1     -11.286   8.982  71.929  1.00  0.00    -0.438 C  
HETATM   16  C   UNL     1     -11.914   9.863  70.844  1.00  0.00    -0.434 C  
HETATM   17  C   UNL     1     -13.111  10.445  71.000  1.00  0.00    -0.450 C  
HETATM   18  C   UNL     1     -10.922  10.089  69.677  1.00  0.00    -0.264 C  
HETATM   19  C   UNL     1     -11.086   9.049  68.546  1.00  0.00     0.160 C  
HETATM   20  C   UNL     1     -10.414   7.276  70.303  1.00  0.00    -0.231 C  
HETATM   21  C   UNL     1      -9.672   9.745  70.454  1.00  0.00    -0.244 C  
HETATM   22  C   UNL     1     -10.309   7.721  68.816  1.00  0.00    -0.219 C  
ENDROOT
BRANCH  18  23
HETATM   23  O   UNL     1     -11.024  11.453  69.274  1.00  0.00    -0.233 OA 
BRANCH  23  24
HETATM   24  C   UNL     1     -10.603  11.949  67.990  1.00  0.00    -0.207 C  
HETATM   25  O   UNL     1     -11.677  11.854  67.042  1.00  0.00    -0.538 OA 
HETATM   26  C   UNL     1     -11.378  12.528  65.806  1.00  0.00    -0.336 C  
HETATM   27  C   UNL     1     -10.250  11.782  65.109  1.00  0.00    -0.268 C  
HETATM   28  H   UNL     1      -7.361  10.724  65.936  1.00  0.00     0.000 HD 
HETATM   29  C   UNL     1      -8.994  11.763  65.974  1.00  0.00    -0.107 C  
HETATM   30  H   UNL     1      -9.210  11.882  63.401  1.00  0.00     0.000 HD 
HETATM   31  O   UNL     1      -9.914  12.348  63.836  1.00  0.00    -0.337 OA 
HETATM   32  O   UNL     1      -8.143  10.736  65.397  1.00  0.00    -0.138 OA 
HETATM   33  C   UNL     1      -9.237  11.418  67.450  1.00  0.00    -0.164 C  
BRANCH  26  34
HETATM   34  C   UNL     1     -12.637  12.531  64.928  1.00  0.00    -0.390 C  
HETATM   35  H   UNL     1     -13.804  13.876  64.103  1.00  0.00     0.000 HD 
HETATM   36  O   UNL     1     -13.025  13.874  64.646  1.00  0.00    -0.654 OA 
ENDBRANCH  26  34
BRANCH  33  37
HETATM   37  O   UNL     1      -8.200  11.899  68.340  1.00  0.00    -0.156 OA 
BRANCH  37  38
HETATM   38  C   UNL     1      -7.961  13.313  68.470  1.00  0.00    -0.097 C  
HETATM   39  O   UNL     1      -9.045  14.023  67.905  1.00  0.00    -0.174 OA 
HETATM   40  C   UNL     1      -8.935  15.440  67.799  1.00  0.00    -0.173 C  
HETATM   41  C   UNL     1      -7.603  15.926  67.217  1.00  0.00    -0.203 C  
HETATM   42  H   UNL     1      -4.682  13.558  68.551  1.00  0.00     0.000 HD 
HETATM   43  O   UNL     1      -5.539  13.288  68.858  1.00  0.00    -0.071 OA 
HETATM   44  O   UNL     1      -7.494  17.345  67.368  1.00  0.00    -0.176 OA 
HETATM   45  C   UNL     1      -6.435  15.266  67.928  1.00  0.00    -0.156 C  
HETATM   46  H   UNL     1      -4.464  15.203  67.720  1.00  0.00     0.000 HD 
HETATM   47  O   UNL     1      -5.194  15.616  67.276  1.00  0.00    -0.334 OA 
HETATM   48  H   UNL     1      -6.669  17.647  67.007  1.00  0.00     0.000 HD 
HETATM   49  C   UNL     1      -6.569  13.752  67.970  1.00  0.00    -0.142 C  
BRANCH  40  50
HETATM   50  C   UNL     1     -10.081  15.895  66.874  1.00  0.00    -0.266 C  
HETATM   51  O   UNL     1     -10.264  17.313  66.893  1.00  0.00    -0.305 OA 
HETATM   52  H   UNL     1     -10.970  17.593  66.323  1.00  0.00     0.000 HD 
ENDBRANCH  40  50
ENDBRANCH  37  38
ENDBRANCH  33  37
ENDBRANCH  23  24
ENDBRANCH  18  23
TORSDOF 6
ENDMDL
MODEL       62
REMARK 921   NORMALIZED FREE ENERGY PREDICTED BY IDOCK:   -5.84 KCAL/MOL
REMARK 922        TOTAL FREE ENERGY PREDICTED BY IDOCK:   -9.87 KCAL/MOL
REMARK 923 INTER-LIGAND FREE ENERGY PREDICTED BY IDOCK:   -7.98 KCAL/MOL
REMARK 924 INTRA-LIGAND FREE ENERGY PREDICTED BY IDOCK:   -1.90 KCAL/MOL
REMARK 927      BINDING AFFINITY PREDICTED BY RF-SCORE:    0.00 PKD
ROOT
HETATM    1  C   UNL     1      -8.426  14.658  66.473  1.00  0.00     0.078 C  
HETATM    2  C   UNL     1      -9.780  13.901  66.771  1.00  0.00    -0.282 C  
HETATM    3  C   UNL     1     -10.894  14.659  66.052  1.00  0.00    -0.318 C  
HETATM    4  C   UNL     1     -12.252  14.112  66.444  1.00  0.00    -0.473 C  
HETATM    5  C   UNL     1     -12.601  14.391  67.887  1.00  0.00     0.508 C  
HETATM    6  C   UNL     1     -11.466  14.303  68.960  1.00  0.00    -0.318 C  
HETATM    7  C   UNL     1      -9.986  14.070  68.339  1.00  0.00    -0.236 C  
HETATM    8  C   UNL     1     -11.789  13.241  70.048  1.00  0.00    -0.365 C  
HETATM    9  C   UNL     1     -11.761  15.608  69.795  1.00  0.00    -0.357 C  
HETATM   10  O   UNL     1     -12.854  15.794  70.344  1.00  0.00    -0.401 OA 
HETATM   11  O   UNL     1     -10.826  16.551  69.916  1.00  0.00    -0.344 OA 
HETATM   12  C   UNL     1      -9.002  13.141  69.080  1.00  0.00     0.473 C  
HETATM   13  C   UNL     1      -8.941  11.720  68.558  1.00  0.00    -0.132 C  
HETATM   14  C   UNL     1      -8.764  11.451  67.058  1.00  0.00    -0.160 C  
HETATM   15  C   UNL     1      -7.342  11.279  66.484  1.00  0.00    -0.101 C  
HETATM   16  C   UNL     1      -7.562  10.277  65.345  1.00  0.00    -0.146 C  
HETATM   17  C   UNL     1      -6.580   9.921  64.507  1.00  0.00    -0.124 C  
HETATM   18  C   UNL     1      -8.979   9.659  65.423  1.00  0.00    -0.190 C  
HETATM   19  C   UNL     1     -10.015  10.434  64.577  1.00  0.00    -0.401 C  
HETATM   20  C   UNL     1      -9.546  12.439  66.140  1.00  0.00    -0.238 C  
HETATM   21  C   UNL     1      -9.222   9.986  66.879  1.00  0.00    -0.169 C  
HETATM   22  C   UNL     1     -10.621  11.664  65.326  1.00  0.00    -0.333 C  
ENDROOT
BRANCH  18  23
HETATM   23  O   UNL     1      -8.866   8.268  65.129  1.00  0.00    -0.109 OA 
BRANCH  23  24
HETATM   24  C   UNL     1      -8.384   7.283  66.062  1.00  0.00    -0.140 C  
HETATM   25  O   UNL     1      -7.277   6.562  65.499  1.00  0.00    -0.069 OA 
HETATM   26  C   UNL     1      -6.625   5.717  66.464  1.00  0.00    -0.056 C  
HETATM   27  C   UNL     1      -7.584   4.604  66.858  1.00  0.00    -0.087 C  
HETATM   28  H   UNL     1     -10.607   4.441  67.853  1.00  0.00     0.000 HD 
HETATM   29  C   UNL     1      -8.854   5.174  67.482  1.00  0.00    -0.105 C  
HETATM   30  H   UNL     1      -7.604   2.978  68.026  1.00  0.00     0.000 HD 
HETATM   31  O   UNL     1      -7.006   3.672  67.780  1.00  0.00    -0.050 OA 
HETATM   32  O   UNL     1      -9.816   4.085  67.464  1.00  0.00    -0.163 OA 
HETATM   33  C   UNL     1      -9.459   6.368  66.730  1.00  0.00    -0.150 C  
BRANCH  26  34
HETATM   34  C   UNL     1      -5.358   5.129  65.830  1.00  0.00    -0.013 C  
HETATM   35  H   UNL     1      -4.929   3.885  64.374  1.00  0.00     0.000 HD 
HETATM   36  O   UNL     1      -5.714   4.248  64.766  1.00  0.00    -0.013 OA 
ENDBRANCH  26  34
BRANCH  33  37
HETATM   37  O   UNL     1     -10.299   7.212  67.554  1.00  0.00    -0.191 OA 
BRANCH  37  38
HETATM   38  C   UNL     1     -10.309   7.043  68.984  1.00  0.00    -0.200 C  
HETATM   39  O   UNL     1     -11.643   6.879  69.425  1.00  0.00    -0.122 OA 
HETATM   40  C   UNL     1     -11.883   6.844  70.829  1.00  0.00    -0.377 C  
HETATM   41  C   UNL     1     -11.181   7.957  71.616  1.00  0.00    -0.251 C  
HETATM   42  H   UNL     1      -7.600   8.616  69.987  1.00  0.00     0.000 HD 
HETATM   43  O   UNL     1      -8.095   7.951  69.522  1.00  0.00    -0.116 OA 
HETATM   44  O   UNL     1     -11.289   7.702  73.021  1.00  0.00    -0.521 OA 
HETATM   45  C   UNL     1      -9.712   8.032  71.243  1.00  0.00    -0.163 C  
HETATM   46  H   UNL     1      -8.177   9.223  71.642  1.00  0.00     0.000 HD 
HETATM   47  O   UNL     1      -9.096   9.175  71.876  1.00  0.00    -0.354 OA 
HETATM   48  H   UNL     1     -10.854   8.391  73.509  1.00  0.00     0.000 HD 
HETATM   49  C   UNL     1      -9.506   8.122  69.738  1.00  0.00    -0.159 C  
BRANCH  40  50
HETATM   50  C   UNL     1     -13.406   6.988  71.010  1.00  0.00     0.013 C  
HETATM   51  O   UNL     1     -13.795   8.334  71.297  1.00  0.00    -0.550 OA 
HETATM   52  H   UNL     1     -14.735   8.422  71.409  1.00  0.00     0.000 HD 
ENDBRANCH  40  50
ENDBRANCH  37  38
ENDBRANCH  33  37
ENDBRANCH  23  24
ENDBRANCH  18  23
TORSDOF 6
ENDMDL
MODEL       63
REMARK 921   NORMALIZED FREE ENERGY PREDICTED BY IDOCK:   -5.84 KCAL/MOL
REMARK 922        TOTAL FREE ENERGY PREDICTED BY IDOCK:   -9.87 KCAL/MOL
REMARK 923 INTER-LIGAND FREE ENERGY PREDICTED BY IDOCK:   -9.35 KCAL/MOL
REMARK 924 INTRA-LIGAND FREE ENERGY PREDICTED BY IDOCK:   -0.52 KCAL/MOL
REMARK 927      BINDING AFFINITY PREDICTED BY RF-SCORE:    0.00 PKD
ROOT
HETATM    1  C   UNL     1      -7.418   5.519  68.988  1.00  0.00    -0.082 C  
HETATM    2  C   UNL     1      -8.305   6.637  69.665  1.00  0.00    -0.132 C  
HETATM    3  C   UNL     1      -7.689   6.944  71.029  1.00  0.00    -0.096 C  
HETATM    4  C   UNL     1      -8.589   7.866  71.826  1.00  0.00    -0.151 C  
HETATM    5  C   UNL     1      -9.883   7.207  72.239  1.00  0.00    -0.174 C  
HETATM    6  C   UNL     1     -10.581   6.235  71.231  1.00  0.00    -0.285 C  
HETATM    7  C   UNL     1      -9.713   5.934  69.895  1.00  0.00    -0.208 C  
HETATM    8  C   UNL     1     -12.014   6.720  70.869  1.00  0.00    -0.437 C  
HETATM    9  C   UNL     1     -10.961   5.047  72.196  1.00  0.00    -0.052 C  
HETATM   10  O   UNL     1     -11.678   5.221  73.188  1.00  0.00    -0.268 OA 
HETATM   11  O   UNL     1     -10.496   3.820  71.960  1.00  0.00    -0.072 OA 
HETATM   12  C   UNL     1     -10.442   5.811  68.541  1.00  0.00    -0.290 C  
HETATM   13  C   UNL     1     -10.447   7.067  67.696  1.00  0.00    -0.301 C  
HETATM   14  C   UNL     1      -9.142   7.830  67.431  1.00  0.00    -0.138 C  
HETATM   15  C   UNL     1      -8.311   7.492  66.177  1.00  0.00    -0.138 C  
HETATM   16  C   UNL     1      -7.689   8.845  65.815  1.00  0.00    -0.094 C  
HETATM   17  C   UNL     1      -6.798   8.980  64.823  1.00  0.00    -0.080 C  
HETATM   18  C   UNL     1      -8.346   9.987  66.627  1.00  0.00    -0.125 C  
HETATM   19  C   UNL     1      -7.590  10.297  67.940  1.00  0.00    -0.089 C  
HETATM   20  C   UNL     1      -8.180   7.885  68.656  1.00  0.00    -0.127 C  
HETATM   21  C   UNL     1      -9.608   9.233  66.980  1.00  0.00    -0.223 C  
HETATM   22  C   UNL     1      -7.998   9.358  69.120  1.00  0.00    -0.091 C  
ENDROOT
BRANCH  18  23
HETATM   23  O   UNL     1      -8.532  11.096  65.751  1.00  0.00    -0.158 OA 
BRANCH  23  24
HETATM   24  C   UNL     1      -9.565  12.087  65.912  1.00  0.00    -0.223 C  
HETATM   25  O   UNL     1     -10.686  11.780  65.070  1.00  0.00    -0.274 OA 
HETATM   26  C   UNL     1     -11.825  12.616  65.347  1.00  0.00    -0.427 C  
HETATM   27  C   UNL     1     -11.486  14.043  64.948  1.00  0.00    -0.358 C  
HETATM   28  H   UNL     1      -9.095  16.069  65.524  1.00  0.00     0.000 HD 
HETATM   29  C   UNL     1     -10.291  14.563  65.741  1.00  0.00    -0.331 C  
HETATM   30  H   UNL     1     -12.371  15.839  64.887  1.00  0.00     0.000 HD 
HETATM   31  O   UNL     1     -12.582  14.948  65.137  1.00  0.00    -0.134 OA 
HETATM   32  O   UNL     1      -9.840  15.746  65.029  1.00  0.00    -0.336 OA 
HETATM   33  C   UNL     1      -9.115  13.581  65.845  1.00  0.00     0.363 C  
BRANCH  26  34
HETATM   34  C   UNL     1     -13.022  12.104  64.535  1.00  0.00     0.131 C  
HETATM   35  H   UNL     1     -13.531  12.002  62.642  1.00  0.00     0.000 HD 
HETATM   36  O   UNL     1     -12.790  12.319  63.145  1.00  0.00    -0.646 OA 
ENDBRANCH  26  34
BRANCH  33  37
HETATM   37  O   UNL     1      -8.249  13.827  66.980  1.00  0.00    -0.144 OA 
BRANCH  37  38
HETATM   38  C   UNL     1      -8.760  14.505  68.143  1.00  0.00    -0.171 C  
HETATM   39  O   UNL     1      -9.983  13.909  68.531  1.00  0.00    -0.226 OA 
HETATM   40  C   UNL     1     -10.727  14.529  69.576  1.00  0.00    -0.146 C  
HETATM   41  C   UNL     1     -10.886  16.045  69.421  1.00  0.00    -0.300 C  
HETATM   42  H   UNL     1      -7.512  17.539  67.904  1.00  0.00     0.000 HD 
HETATM   43  O   UNL     1      -7.483  16.594  67.998  1.00  0.00    -0.157 OA 
HETATM   44  O   UNL     1     -11.436  16.602  70.621  1.00  0.00    -0.523 OA 
HETATM   45  C   UNL     1      -9.544  16.699  69.148  1.00  0.00    -0.208 C  
HETATM   46  H   UNL     1      -8.885  18.512  68.686  1.00  0.00     0.000 HD 
HETATM   47  O   UNL     1      -9.725  18.103  68.857  1.00  0.00    -0.324 OA 
HETATM   48  H   UNL     1     -11.534  17.542  70.525  1.00  0.00     0.000 HD 
HETATM   49  C   UNL     1      -8.809  16.039  67.991  1.00  0.00    -0.175 C  
BRANCH  40  50
HETATM   50  C   UNL     1     -12.123  13.875  69.558  1.00  0.00    -0.342 C  
HETATM   51  O   UNL     1     -13.129  14.728  70.110  1.00  0.00    -0.586 OA 
HETATM   52  H   UNL     1     -13.990  14.325  70.099  1.00  0.00     0.000 HD 
ENDBRANCH  40  50
ENDBRANCH  37  38
ENDBRANCH  33  37
ENDBRANCH  23  24
ENDBRANCH  18  23
TORSDOF 6
ENDMDL
MODEL       64
REMARK 921   NORMALIZED FREE ENERGY PREDICTED BY IDOCK:   -5.80 KCAL/MOL
REMARK 922        TOTAL FREE ENERGY PREDICTED BY IDOCK:   -9.81 KCAL/MOL
REMARK 923 INTER-LIGAND FREE ENERGY PREDICTED BY IDOCK:   -9.64 KCAL/MOL
REMARK 924 INTRA-LIGAND FREE ENERGY PREDICTED BY IDOCK:   -0.17 KCAL/MOL
REMARK 927      BINDING AFFINITY PREDICTED BY RF-SCORE:    0.00 PKD
ROOT
HETATM    1  C   UNL     1     -10.397  19.135  65.617  1.00  0.00    -0.193 C  
HETATM    2  C   UNL     1      -9.748  18.616  66.961  1.00  0.00    -0.328 C  
HETATM    3  C   UNL     1     -10.192  19.559  68.077  1.00  0.00    -0.552 C  
HETATM    4  C   UNL     1      -9.458  19.246  69.365  1.00  0.00    -0.079 C  
HETATM    5  C   UNL     1      -7.984  19.566  69.290  1.00  0.00    -0.115 C  
HETATM    6  C   UNL     1      -7.224  19.275  67.954  1.00  0.00    -0.285 C  
HETATM    7  C   UNL     1      -8.185  18.801  66.737  1.00  0.00    -0.286 C  
HETATM    8  C   UNL     1      -6.055  18.271  68.168  1.00  0.00    -0.178 C  
HETATM    9  C   UNL     1      -6.384  20.602  67.809  1.00  0.00    -0.297 C  
HETATM   10  O   UNL     1      -5.588  20.964  68.684  1.00  0.00    -0.310 OA 
HETATM   11  O   UNL     1      -6.530  21.371  66.730  1.00  0.00    -0.433 OA 
HETATM   12  C   UNL     1      -7.681  17.710  65.769  1.00  0.00     0.035 C  
HETATM   13  C   UNL     1      -8.156  16.306  66.077  1.00  0.00     0.082 C  
HETATM   14  C   UNL     1      -9.643  16.026  66.328  1.00  0.00    -0.336 C  
HETATM   15  C   UNL     1     -10.546  15.622  65.145  1.00  0.00    -0.449 C  
HETATM   16  C   UNL     1     -11.562  14.684  65.806  1.00  0.00    -0.328 C  
HETATM   17  C   UNL     1     -12.606  14.175  65.138  1.00  0.00    -0.426 C  
HETATM   18  C   UNL     1     -11.115  14.314  67.241  1.00  0.00    -0.306 C  
HETATM   19  C   UNL     1     -11.701  15.262  68.312  1.00  0.00    -0.320 C  
HETATM   20  C   UNL     1     -10.370  17.142  67.139  1.00  0.00    -0.307 C  
HETATM   21  C   UNL     1      -9.655  14.662  67.055  1.00  0.00    -0.246 C  
HETATM   22  C   UNL     1     -10.866  16.570  68.497  1.00  0.00    -0.349 C  
ENDROOT
BRANCH  18  23
HETATM   23  O   UNL     1     -11.382  12.927  67.439  1.00  0.00    -0.276 OA 
BRANCH  23  24
HETATM   24  C   UNL     1     -12.110  12.398  68.563  1.00  0.00    -0.075 C  
HETATM   25  O   UNL     1     -12.324  13.423  69.545  1.00  0.00    -0.238 OA 
HETATM   26  C   UNL     1     -13.226  13.005  70.587  1.00  0.00     0.404 C  
HETATM   27  C   UNL     1     -12.555  11.903  71.392  1.00  0.00    -0.240 C  
HETATM   28  H   UNL     1     -11.086   9.156  70.724  1.00  0.00     0.000 HD 
HETATM   29  C   UNL     1     -12.233  10.702  70.510  1.00  0.00    -0.358 C  
HETATM   30  H   UNL     1     -12.937  10.767  72.997  1.00  0.00     0.000 HD 
HETATM   31  O   UNL     1     -13.356  11.454  72.493  1.00  0.00    -0.095 OA 
HETATM   32  O   UNL     1     -11.287   9.905  71.274  1.00  0.00    -0.368 OA 
HETATM   33  C   UNL     1     -11.592  11.051  69.160  1.00  0.00    -0.319 C  
BRANCH  26  34
HETATM   34  C   UNL     1     -13.536  14.210  71.484  1.00  0.00    -0.344 C  
HETATM   35  H   UNL     1     -12.521  15.456  72.611  1.00  0.00     0.000 HD 
HETATM   36  O   UNL     1     -12.329  14.710  72.055  1.00  0.00    -0.335 OA 
ENDBRANCH  26  34
BRANCH  33  37
HETATM   37  O   UNL     1     -11.770  10.029  68.148  1.00  0.00    -0.096 OA 
BRANCH  37  38
HETATM   38  C   UNL     1     -10.654   9.214  67.744  1.00  0.00    -0.227 C  
HETATM   39  O   UNL     1     -10.129   9.711  66.528  1.00  0.00    -0.227 OA 
HETATM   40  C   UNL     1      -9.110   8.954  65.881  1.00  0.00    -0.218 C  
HETATM   41  C   UNL     1      -9.411   7.456  65.772  1.00  0.00     0.303 C  
HETATM   42  H   UNL     1     -11.288   6.280  69.090  1.00  0.00     0.000 HD 
HETATM   43  O   UNL     1     -11.098   7.211  69.089  1.00  0.00    -0.154 OA 
HETATM   44  O   UNL     1      -8.244   6.755  65.327  1.00  0.00    -0.130 OA 
HETATM   45  C   UNL     1      -9.837   6.895  67.117  1.00  0.00    -0.165 C  
HETATM   46  H   UNL     1     -10.527   5.171  67.813  1.00  0.00     0.000 HD 
HETATM   47  O   UNL     1     -10.260   5.522  66.971  1.00  0.00    -0.176 OA 
HETATM   48  H   UNL     1      -8.431   5.826  65.259  1.00  0.00     0.000 HD 
HETATM   49  C   UNL     1     -10.962   7.703  67.745  1.00  0.00     0.049 C  
BRANCH  40  50
HETATM   50  C   UNL     1      -8.970   9.541  64.463  1.00  0.00    -0.212 C  
HETATM   51  O   UNL     1      -7.670  10.086  64.225  1.00  0.00    -0.136 OA 
HETATM   52  H   UNL     1      -7.585  10.448  63.351  1.00  0.00     0.000 HD 
ENDBRANCH  40  50
ENDBRANCH  37  38
ENDBRANCH  33  37
ENDBRANCH  23  24
ENDBRANCH  18  23
TORSDOF 6
ENDMDL
MODEL       65
REMARK 921   NORMALIZED FREE ENERGY PREDICTED BY IDOCK:   -5.69 KCAL/MOL
REMARK 922        TOTAL FREE ENERGY PREDICTED BY IDOCK:   -9.67 KCAL/MOL
REMARK 923 INTER-LIGAND FREE ENERGY PREDICTED BY IDOCK:   -8.80 KCAL/MOL
REMARK 924 INTRA-LIGAND FREE ENERGY PREDICTED BY IDOCK:   -0.88 KCAL/MOL
REMARK 927      BINDING AFFINITY PREDICTED BY RF-SCORE:    0.00 PKD
ROOT
HETATM    1  C   UNL     1      -7.637   6.740  67.027  1.00  0.00    -0.095 C  
HETATM    2  C   UNL     1      -7.283   7.825  68.119  1.00  0.00    -0.090 C  
HETATM    3  C   UNL     1      -5.770   7.786  68.327  1.00  0.00    -0.032 C  
HETATM    4  C   UNL     1      -5.369   8.660  69.498  1.00  0.00    -0.030 C  
HETATM    5  C   UNL     1      -5.854   8.121  70.823  1.00  0.00    -0.033 C  
HETATM    6  C   UNL     1      -7.270   7.460  70.887  1.00  0.00    -0.068 C  
HETATM    7  C   UNL     1      -7.988   7.294  69.441  1.00  0.00    -0.125 C  
HETATM    8  C   UNL     1      -8.200   8.197  71.891  1.00  0.00    -0.180 C  
HETATM    9  C   UNL     1      -6.948   6.177  71.746  1.00  0.00    -0.077 C  
HETATM   10  O   UNL     1      -6.464   6.262  72.881  1.00  0.00    -0.061 OA 
HETATM   11  O   UNL     1      -7.184   4.963  71.249  1.00  0.00    -0.056 OA 
HETATM   12  C   UNL     1      -9.509   7.526  69.331  1.00  0.00    -0.155 C  
HETATM   13  C   UNL     1      -9.917   8.906  68.859  1.00  0.00    -0.199 C  
HETATM   14  C   UNL     1      -9.281   9.517  67.603  1.00  0.00    -0.138 C  
HETATM   15  C   UNL     1      -9.958   9.305  66.234  1.00  0.00    -0.357 C  
HETATM   16  C   UNL     1      -9.621  10.602  65.491  1.00  0.00    -0.271 C  
HETATM   17  C   UNL     1      -9.943  10.794  64.205  1.00  0.00    -0.403 C  
HETATM   18  C   UNL     1      -9.031  11.653  66.462  1.00  0.00    -0.191 C  
HETATM   19  C   UNL     1      -7.486  11.607  66.524  1.00  0.00     0.032 C  
HETATM   20  C   UNL     1      -7.760   9.209  67.449  1.00  0.00    -0.092 C  
HETATM   21  C   UNL     1      -9.570  11.030  67.729  1.00  0.00    -0.180 C  
HETATM   22  C   UNL     1      -6.944  10.532  67.519  1.00  0.00    -0.080 C  
ENDROOT
BRANCH  18  23
HETATM   23  O   UNL     1      -9.592  12.921  66.128  1.00  0.00    -0.260 OA 
BRANCH  23  24
HETATM   24  C   UNL     1      -9.281  14.147  66.816  1.00  0.00    -0.266 C  
HETATM   25  O   UNL     1      -7.861  14.360  66.837  1.00  0.00    -0.047 OA 
HETATM   26  C   UNL     1      -7.511  15.669  67.323  1.00  0.00    -0.222 C  
HETATM   27  C   UNL     1      -7.885  15.756  68.794  1.00  0.00    -0.180 C  
HETATM   28  H   UNL     1     -10.487  15.144  70.528  1.00  0.00     0.000 HD 
HETATM   29  C   UNL     1      -9.383  15.545  68.989  1.00  0.00    -0.235 C  
HETATM   30  H   UNL     1      -7.757  17.064  70.305  1.00  0.00     0.000 HD 
HETATM   31  O   UNL     1      -7.524  17.010  69.386  1.00  0.00    -0.157 OA 
HETATM   32  O   UNL     1      -9.554  15.276  70.407  1.00  0.00     0.123 OA 
HETATM   33  C   UNL     1      -9.973  14.369  68.198  1.00  0.00    -0.223 C  
BRANCH  26  34
HETATM   34  C   UNL     1      -6.001  15.874  67.143  1.00  0.00     0.094 C  
HETATM   35  H   UNL     1      -4.827  17.165  66.243  1.00  0.00     0.000 HD 
HETATM   36  O   UNL     1      -5.762  17.038  66.354  1.00  0.00    -0.299 OA 
ENDBRANCH  26  34
BRANCH  33  37
HETATM   37  O   UNL     1     -11.398  14.483  67.959  1.00  0.00    -0.278 OA 
BRANCH  37  38
HETATM   38  C   UNL     1     -12.334  14.013  68.947  1.00  0.00    -0.071 C  
HETATM   39  O   UNL     1     -12.497  15.004  69.943  1.00  0.00    -0.297 OA 
HETATM   40  C   UNL     1     -13.272  14.675  71.092  1.00  0.00    -0.372 C  
HETATM   41  C   UNL     1     -12.922  13.322  71.722  1.00  0.00    -0.335 C  
HETATM   42  H   UNL     1     -12.057  10.739  68.808  1.00  0.00     0.000 HD 
HETATM   43  O   UNL     1     -12.256  11.607  68.478  1.00  0.00    -0.485 OA 
HETATM   44  O   UNL     1     -13.898  12.979  72.712  1.00  0.00    -0.733 OA 
HETATM   45  C   UNL     1     -12.890  12.232  70.666  1.00  0.00     0.066 C  
HETATM   46  H   UNL     1     -12.396  10.313  70.581  1.00  0.00     0.000 HD 
HETATM   47  O   UNL     1     -12.416  10.995  71.242  1.00  0.00    -0.370 OA 
HETATM   48  H   UNL     1     -13.681  12.140  73.103  1.00  0.00     0.000 HD 
HETATM   49  C   UNL     1     -12.010  12.604  69.483  1.00  0.00    -0.270 C  
BRANCH  40  50
HETATM   50  C   UNL     1     -13.009  15.789  72.124  1.00  0.00    -0.440 C  
HETATM   51  O   UNL     1     -11.820  16.529  71.834  1.00  0.00    -0.658 OA 
HETATM   52  H   UNL     1     -11.658  17.216  72.471  1.00  0.00     0.000 HD 
ENDBRANCH  40  50
ENDBRANCH  37  38
ENDBRANCH  33  37
ENDBRANCH  23  24
ENDBRANCH  18  23
TORSDOF 6
ENDMDL
MODEL       66
REMARK 921   NORMALIZED FREE ENERGY PREDICTED BY IDOCK:   -5.67 KCAL/MOL
REMARK 922        TOTAL FREE ENERGY PREDICTED BY IDOCK:   -9.64 KCAL/MOL
REMARK 923 INTER-LIGAND FREE ENERGY PREDICTED BY IDOCK:   -8.79 KCAL/MOL
REMARK 924 INTRA-LIGAND FREE ENERGY PREDICTED BY IDOCK:   -0.86 KCAL/MOL
REMARK 927      BINDING AFFINITY PREDICTED BY RF-SCORE:    0.00 PKD
ROOT
HETATM    1  C   UNL     1      -7.159   7.723  64.647  1.00  0.00    -0.068 C  
HETATM    2  C   UNL     1      -7.276   8.114  66.173  1.00  0.00    -0.066 C  
HETATM    3  C   UNL     1      -5.856   8.236  66.722  1.00  0.00    -0.048 C  
HETATM    4  C   UNL     1      -5.878   8.418  68.227  1.00  0.00    -0.042 C  
HETATM    5  C   UNL     1      -6.363   7.188  68.958  1.00  0.00    -0.035 C  
HETATM    6  C   UNL     1      -7.529   6.356  68.328  1.00  0.00    -0.091 C  
HETATM    7  C   UNL     1      -7.971   6.853  66.848  1.00  0.00    -0.109 C  
HETATM    8  C   UNL     1      -8.755   6.279  69.281  1.00  0.00    -0.124 C  
HETATM    9  C   UNL     1      -6.974   4.893  68.523  1.00  0.00    -0.056 C  
HETATM   10  O   UNL     1      -6.689   4.451  69.643  1.00  0.00    -0.035 OA 
HETATM   11  O   UNL     1      -6.788   4.102  67.466  1.00  0.00    -0.050 OA 
HETATM   12  C   UNL     1      -9.466   6.839  66.471  1.00  0.00    -0.193 C  
HETATM   13  C   UNL     1     -10.182   8.164  66.625  1.00  0.00    -0.329 C  
HETATM   14  C   UNL     1      -9.583   9.444  66.026  1.00  0.00    -0.328 C  
HETATM   15  C   UNL     1      -9.985   9.869  64.599  1.00  0.00    -0.072 C  
HETATM   16  C   UNL     1      -9.933  11.399  64.680  1.00  0.00    -0.315 C  
HETATM   17  C   UNL     1     -10.121  12.178  63.607  1.00  0.00    -0.410 C  
HETATM   18  C   UNL     1      -9.799  11.867  66.149  1.00  0.00    -0.232 C  
HETATM   19  C   UNL     1      -8.328  12.065  66.581  1.00  0.00    -0.085 C  
HETATM   20  C   UNL     1      -8.032   9.534  66.145  1.00  0.00    -0.107 C  
HETATM   21  C   UNL     1     -10.304  10.587  66.777  1.00  0.00    -0.301 C  
HETATM   22  C   UNL     1      -7.641  10.741  67.046  1.00  0.00    -0.114 C  
ENDROOT
BRANCH  18  23
HETATM   23  O   UNL     1     -10.647  12.999  66.327  1.00  0.00    -0.266 OA 
BRANCH  23  24
HETATM   24  C   UNL     1     -10.482  13.975  67.372  1.00  0.00    -0.263 C  
HETATM   25  O   UNL     1     -11.399  13.716  68.446  1.00  0.00    -0.260 OA 
HETATM   26  C   UNL     1     -11.131  14.530  69.603  1.00  0.00    -0.228 C  
HETATM   27  C   UNL     1     -11.426  15.980  69.253  1.00  0.00    -0.350 C  
HETATM   28  H   UNL     1     -10.606  17.975  66.909  1.00  0.00     0.000 HD 
HETATM   29  C   UNL     1     -10.542  16.454  68.105  1.00  0.00    -0.318 C  
HETATM   30  H   UNL     1     -11.426  17.773  70.145  1.00  0.00     0.000 HD 
HETATM   31  O   UNL     1     -11.241  16.868  70.363  1.00  0.00    -0.020 OA 
HETATM   32  O   UNL     1     -11.157  17.680  67.624  1.00  0.00    -0.208 OA 
HETATM   33  C   UNL     1     -10.435  15.472  66.930  1.00  0.00    -0.301 C  
BRANCH  26  34
HETATM   34  C   UNL     1     -12.034  14.064  70.753  1.00  0.00    -0.291 C  
HETATM   35  H   UNL     1     -13.083  12.464  71.193  1.00  0.00     0.000 HD 
HETATM   36  O   UNL     1     -12.524  12.753  70.481  1.00  0.00    -0.289 OA 
ENDBRANCH  26  34
BRANCH  33  37
HETATM   37  O   UNL     1      -9.243  15.652  66.125  1.00  0.00    -0.298 OA 
BRANCH  37  38
HETATM   38  C   UNL     1      -8.001  16.024  66.751  1.00  0.00    -0.267 C  
HETATM   39  O   UNL     1      -7.788  15.208  67.886  1.00  0.00    -0.120 OA 
HETATM   40  C   UNL     1      -6.684  15.515  68.732  1.00  0.00    -0.114 C  
HETATM   41  C   UNL     1      -6.564  16.999  69.098  1.00  0.00    -0.230 C  
HETATM   42  H   UNL     1      -7.618  19.187  65.933  1.00  0.00     0.000 HD 
HETATM   43  O   UNL     1      -7.699  18.254  65.774  1.00  0.00    -0.517 OA 
HETATM   44  O   UNL     1      -5.310  17.241  69.746  1.00  0.00    -0.169 OA 
HETATM   45  C   UNL     1      -6.648  17.865  67.854  1.00  0.00    -0.188 C  
HETATM   46  H   UNL     1      -6.737  19.804  67.445  1.00  0.00     0.000 HD 
HETATM   47  O   UNL     1      -6.684  19.262  68.223  1.00  0.00    -0.239 OA 
HETATM   48  H   UNL     1      -5.235  18.160  69.972  1.00  0.00     0.000 HD 
HETATM   49  C   UNL     1      -7.870  17.539  67.009  1.00  0.00    -0.214 C  
BRANCH  40  50
HETATM   50  C   UNL     1      -6.888  14.697  70.023  1.00  0.00    -0.094 C  
HETATM   51  O   UNL     1      -6.608  13.308  69.836  1.00  0.00    -0.331 OA 
HETATM   52  H   UNL     1      -6.734  12.804  70.632  1.00  0.00     0.000 HD 
ENDBRANCH  40  50
ENDBRANCH  37  38
ENDBRANCH  33  37
ENDBRANCH  23  24
ENDBRANCH  18  23
TORSDOF 6
ENDMDL
MODEL       67
REMARK 921   NORMALIZED FREE ENERGY PREDICTED BY IDOCK:   -5.58 KCAL/MOL
REMARK 922        TOTAL FREE ENERGY PREDICTED BY IDOCK:   -9.52 KCAL/MOL
REMARK 923 INTER-LIGAND FREE ENERGY PREDICTED BY IDOCK:   -9.18 KCAL/MOL
REMARK 924 INTRA-LIGAND FREE ENERGY PREDICTED BY IDOCK:   -0.34 KCAL/MOL
REMARK 927      BINDING AFFINITY PREDICTED BY RF-SCORE:    0.00 PKD
ROOT
HETATM    1  C   UNL     1      -8.105   5.843  68.554  1.00  0.00    -0.106 C  
HETATM    2  C   UNL     1      -8.723   6.742  69.696  1.00  0.00    -0.137 C  
HETATM    3  C   UNL     1      -7.706   6.797  70.834  1.00  0.00    -0.093 C  
HETATM    4  C   UNL     1      -8.300   7.479  72.050  1.00  0.00    -0.121 C  
HETATM    5  C   UNL     1      -9.403   6.671  72.693  1.00  0.00    -0.149 C  
HETATM    6  C   UNL     1     -10.391   5.888  71.767  1.00  0.00    -0.263 C  
HETATM    7  C   UNL     1      -9.992   5.922  70.195  1.00  0.00    -0.247 C  
HETATM    8  C   UNL     1     -11.861   6.350  71.980  1.00  0.00    -0.382 C  
HETATM    9  C   UNL     1     -10.456   4.506  72.522  1.00  0.00    -0.186 C  
HETATM   10  O   UNL     1     -10.821   4.427  73.701  1.00  0.00    -0.231 OA 
HETATM   11  O   UNL     1     -10.100   3.384  71.895  1.00  0.00    -0.160 OA 
HETATM   12  C   UNL     1     -11.113   6.038  69.142  1.00  0.00    -0.405 C  
HETATM   13  C   UNL     1     -11.375   7.439  68.630  1.00  0.00     0.411 C  
HETATM   14  C   UNL     1     -10.215   8.318  68.144  1.00  0.00    -0.255 C  
HETATM   15  C   UNL     1      -9.825   8.296  66.652  1.00  0.00    -0.337 C  
HETATM   16  C   UNL     1      -9.339   9.731  66.415  1.00  0.00    -0.218 C  
HETATM   17  C   UNL     1      -8.806  10.121  65.249  1.00  0.00    -0.201 C  
HETATM   18  C   UNL     1      -9.697  10.638  67.617  1.00  0.00    -0.165 C  
HETATM   19  C   UNL     1      -8.561  10.716  68.663  1.00  0.00    -0.144 C  
HETATM   20  C   UNL     1      -8.914   8.176  68.992  1.00  0.00    -0.144 C  
HETATM   21  C   UNL     1     -10.788   9.753  68.173  1.00  0.00    -0.264 C  
HETATM   22  C   UNL     1      -8.583   9.531  69.681  1.00  0.00    -0.189 C  
ENDROOT
BRANCH  18  23
HETATM   23  O   UNL     1     -10.141  11.891  67.101  1.00  0.00    -0.202 OA 
BRANCH  23  24
HETATM   24  C   UNL     1     -10.204  13.104  67.874  1.00  0.00    -0.233 C  
HETATM   25  O   UNL     1     -11.257  13.022  68.847  1.00  0.00    -0.254 OA 
HETATM   26  C   UNL     1     -11.226  14.116  69.782  1.00  0.00    -0.152 C  
HETATM   27  C   UNL     1     -11.559  15.398  69.036  1.00  0.00    -0.347 C  
HETATM   28  H   UNL     1     -10.521  16.836  66.389  1.00  0.00     0.000 HD 
HETATM   29  C   UNL     1     -10.541  15.667  67.932  1.00  0.00    -0.278 C  
HETATM   30  H   UNL     1     -11.816  17.345  69.430  1.00  0.00     0.000 HD 
HETATM   31  O   UNL     1     -11.607  16.544  69.896  1.00  0.00    -0.089 OA 
HETATM   32  O   UNL     1     -11.155  16.668  67.077  1.00  0.00    -0.060 OA 
HETATM   33  C   UNL     1     -10.190  14.445  67.073  1.00  0.00    -0.263 C  
BRANCH  26  34
HETATM   34  C   UNL     1     -12.262  13.854  70.883  1.00  0.00    -0.361 C  
HETATM   35  H   UNL     1     -13.157  12.292  71.666  1.00  0.00     0.000 HD 
HETATM   36  O   UNL     1     -12.516  12.454  70.984  1.00  0.00    -0.368 OA 
ENDBRANCH  26  34
BRANCH  33  37
HETATM   37  O   UNL     1      -8.903  14.545  66.415  1.00  0.00    -0.183 OA 
BRANCH  37  38
HETATM   38  C   UNL     1      -7.841  15.305  67.021  1.00  0.00    -0.189 C  
HETATM   39  O   UNL     1      -7.488  14.710  68.256  1.00  0.00    -0.104 OA 
HETATM   40  C   UNL     1      -6.555  15.396  69.085  1.00  0.00    -0.133 C  
HETATM   41  C   UNL     1      -6.850  16.889  69.265  1.00  0.00    -0.228 C  
HETATM   42  H   UNL     1      -8.252  18.340  65.824  1.00  0.00     0.000 HD 
HETATM   43  O   UNL     1      -8.076  17.408  65.781  1.00  0.00    -0.543 OA 
HETATM   44  O   UNL     1      -5.744  17.530  69.910  1.00  0.00    -0.229 OA 
HETATM   45  C   UNL     1      -7.085  17.554  67.920  1.00  0.00    -0.182 C  
HETATM   46  H   UNL     1      -7.654  19.338  67.269  1.00  0.00     0.000 HD 
HETATM   47  O   UNL     1      -7.507  18.922  68.110  1.00  0.00    -0.255 OA 
HETATM   48  H   UNL     1      -5.926  18.456  70.021  1.00  0.00     0.000 HD 
HETATM   49  C   UNL     1      -8.127  16.819  67.091  1.00  0.00    -0.183 C  
BRANCH  40  50
HETATM   50  C   UNL     1      -6.613  14.706  70.463  1.00  0.00     0.023 C  
HETATM   51  O   UNL     1      -6.412  13.293  70.372  1.00  0.00    -0.383 OA 
HETATM   52  H   UNL     1      -6.449  12.868  71.221  1.00  0.00     0.000 HD 
ENDBRANCH  40  50
ENDBRANCH  37  38
ENDBRANCH  33  37
ENDBRANCH  23  24
ENDBRANCH  18  23
TORSDOF 6
ENDMDL
MODEL       68
REMARK 921   NORMALIZED FREE ENERGY PREDICTED BY IDOCK:   -5.58 KCAL/MOL
REMARK 922        TOTAL FREE ENERGY PREDICTED BY IDOCK:   -9.52 KCAL/MOL
REMARK 923 INTER-LIGAND FREE ENERGY PREDICTED BY IDOCK:   -8.22 KCAL/MOL
REMARK 924 INTRA-LIGAND FREE ENERGY PREDICTED BY IDOCK:   -1.29 KCAL/MOL
REMARK 927      BINDING AFFINITY PREDICTED BY RF-SCORE:    0.00 PKD
ROOT
HETATM    1  C   UNL     1      -7.918   3.605  66.850  1.00  0.00    -0.088 C  
HETATM    2  C   UNL     1      -7.837   4.605  68.070  1.00  0.00    -0.081 C  
HETATM    3  C   UNL     1      -6.630   4.200  68.913  1.00  0.00    -0.045 C  
HETATM    4  C   UNL     1      -6.594   4.987  70.208  1.00  0.00    -0.035 C  
HETATM    5  C   UNL     1      -7.726   4.630  71.141  1.00  0.00    -0.081 C  
HETATM    6  C   UNL     1      -9.136   4.342  70.527  1.00  0.00    -0.174 C  
HETATM    7  C   UNL     1      -9.158   4.310  68.906  1.00  0.00    -0.183 C  
HETATM    8  C   UNL     1     -10.211   5.320  71.081  1.00  0.00    -0.294 C  
HETATM    9  C   UNL     1      -9.541   3.050  71.336  1.00  0.00    -0.157 C  
HETATM   10  O   UNL     1      -9.604   3.051  72.571  1.00  0.00    -0.110 OA 
HETATM   11  O   UNL     1      -9.814   1.916  70.690  1.00  0.00    -0.068 OA 
HETATM   12  C   UNL     1     -10.370   4.908  68.162  1.00  0.00    -0.035 C  
HETATM   13  C   UNL     1     -10.188   6.329  67.671  1.00  0.00    -0.206 C  
HETATM   14  C   UNL     1      -8.937   6.720  66.872  1.00  0.00    -0.133 C  
HETATM   15  C   UNL     1      -8.969   6.636  65.332  1.00  0.00     0.152 C  
HETATM   16  C   UNL     1      -8.041   7.783  64.918  1.00  0.00    -0.136 C  
HETATM   17  C   UNL     1      -7.706   8.005  63.640  1.00  0.00    -0.136 C  
HETATM   18  C   UNL     1      -7.711   8.688  66.129  1.00  0.00    -0.097 C  
HETATM   19  C   UNL     1      -6.413   8.263  66.854  1.00  0.00    -0.057 C  
HETATM   20  C   UNL     1      -7.627   6.040  67.372  1.00  0.00    -0.093 C  
HETATM   21  C   UNL     1      -8.885   8.261  66.980  1.00  0.00    -0.146 C  
HETATM   22  C   UNL     1      -6.638   7.121  67.897  1.00  0.00    -0.053 C  
ENDROOT
BRANCH  18  23
HETATM   23  O   UNL     1      -7.749  10.043  65.687  1.00  0.00    -0.123 OA 
BRANCH  23  24
HETATM   24  C   UNL     1      -8.836  10.949  65.955  1.00  0.00    -0.186 C  
HETATM   25  O   UNL     1      -9.550  11.243  64.745  1.00  0.00    -0.235 OA 
HETATM   26  C   UNL     1     -10.767  11.971  64.990  1.00  0.00    -0.296 C  
HETATM   27  C   UNL     1     -10.407  13.354  65.511  1.00  0.00    -0.295 C  
HETATM   28  H   UNL     1      -8.536  14.508  67.818  1.00  0.00     0.000 HD 
HETATM   29  C   UNL     1      -9.621  13.257  66.815  1.00  0.00    -0.258 C  
HETATM   30  H   UNL     1     -11.332  15.043  66.061  1.00  0.00     0.000 HD 
HETATM   31  O   UNL     1     -11.557  14.179  65.736  1.00  0.00    -0.328 OA 
HETATM   32  O   UNL     1      -9.026  14.569  67.005  1.00  0.00    -0.217 OA 
HETATM   33  C   UNL     1      -8.498  12.211  66.811  1.00  0.00    -0.138 C  
BRANCH  26  34
HETATM   34  C   UNL     1     -11.549  12.084  63.675  1.00  0.00    -0.486 C  
HETATM   35  H   UNL     1     -13.433  12.131  63.127  1.00  0.00     0.000 HD 
HETATM   36  O   UNL     1     -12.949  12.061  63.941  1.00  0.00    -0.669 OA 
ENDBRANCH  26  34
BRANCH  33  37
HETATM   37  O   UNL     1      -8.123  11.752  68.134  1.00  0.00    -0.134 OA 
BRANCH  37  38
HETATM   38  C   UNL     1      -8.852  10.679  68.758  1.00  0.00    -0.161 C  
HETATM   39  O   UNL     1     -10.209  11.053  68.892  1.00  0.00    -0.195 OA 
HETATM   40  C   UNL     1     -11.073  10.186  69.622  1.00  0.00    -0.263 C  
HETATM   41  C   UNL     1     -10.503   9.713  70.964  1.00  0.00    -0.257 C  
HETATM   42  H   UNL     1      -6.580   9.116  70.551  1.00  0.00     0.000 HD 
HETATM   43  O   UNL     1      -6.986   9.438  69.754  1.00  0.00    -0.056 OA 
HETATM   44  O   UNL     1     -11.328   8.677  71.505  1.00  0.00    -0.253 OA 
HETATM   45  C   UNL     1      -9.094   9.177  70.788  1.00  0.00    -0.255 C  
HETATM   46  H   UNL     1      -7.631   8.539  71.966  1.00  0.00     0.000 HD 
HETATM   47  O   UNL     1      -8.513   8.874  72.076  1.00  0.00    -0.367 OA 
HETATM   48  H   UNL     1     -10.975   8.383  72.337  1.00  0.00     0.000 HD 
HETATM   49  C   UNL     1      -8.194  10.157  70.052  1.00  0.00    -0.035 C  
BRANCH  40  50
HETATM   50  C   UNL     1     -12.366  10.983  69.881  1.00  0.00    -0.288 C  
HETATM   51  O   UNL     1     -13.497  10.132  70.084  1.00  0.00    -0.474 OA 
HETATM   52  H   UNL     1     -14.295  10.623  70.244  1.00  0.00     0.000 HD 
ENDBRANCH  40  50
ENDBRANCH  37  38
ENDBRANCH  33  37
ENDBRANCH  23  24
ENDBRANCH  18  23
TORSDOF 6
ENDMDL
MODEL       69
REMARK 921   NORMALIZED FREE ENERGY PREDICTED BY IDOCK:   -5.57 KCAL/MOL
REMARK 922        TOTAL FREE ENERGY PREDICTED BY IDOCK:   -9.51 KCAL/MOL
REMARK 923 INTER-LIGAND FREE ENERGY PREDICTED BY IDOCK:   -9.06 KCAL/MOL
REMARK 924 INTRA-LIGAND FREE ENERGY PREDICTED BY IDOCK:   -0.45 KCAL/MOL
REMARK 927      BINDING AFFINITY PREDICTED BY RF-SCORE:    0.00 PKD
ROOT
HETATM    1  C   UNL     1      -6.834  16.026  66.773  1.00  0.00     0.043 C  
HETATM    2  C   UNL     1      -8.405  16.042  66.938  1.00  0.00    -0.278 C  
HETATM    3  C   UNL     1      -8.964  17.002  65.890  1.00  0.00    -0.049 C  
HETATM    4  C   UNL     1     -10.447  17.224  66.106  1.00  0.00    -0.279 C  
HETATM    5  C   UNL     1     -10.746  17.983  67.377  1.00  0.00    -0.334 C  
HETATM    6  C   UNL     1      -9.883  17.682  68.647  1.00  0.00    -0.347 C  
HETATM    7  C   UNL     1      -8.641  16.675  68.378  1.00  0.00    -0.221 C  
HETATM    8  C   UNL     1     -10.762  17.182  69.829  1.00  0.00     0.153 C  
HETATM    9  C   UNL     1      -9.600  19.148  69.154  1.00  0.00    -0.262 C  
HETATM   10  O   UNL     1     -10.519  19.926  69.437  1.00  0.00    -0.148 OA 
HETATM   11  O   UNL     1      -8.345  19.582  69.277  1.00  0.00    -0.237 OA 
HETATM   12  C   UNL     1      -8.279  15.630  69.454  1.00  0.00    -0.236 C  
HETATM   13  C   UNL     1      -8.849  14.246  69.225  1.00  0.00     0.277 C  
HETATM   14  C   UNL     1      -8.692  13.556  67.863  1.00  0.00    -0.183 C  
HETATM   15  C   UNL     1      -7.475  12.640  67.617  1.00  0.00    -0.143 C  
HETATM   16  C   UNL     1      -8.042  11.584  66.662  1.00  0.00    -0.139 C  
HETATM   17  C   UNL     1      -7.275  10.634  66.110  1.00  0.00    -0.138 C  
HETATM   18  C   UNL     1      -9.584  11.691  66.577  1.00  0.00    -0.209 C  
HETATM   19  C   UNL     1     -10.056  12.600  65.419  1.00  0.00    -0.277 C  
HETATM   20  C   UNL     1      -8.833  14.518  66.645  1.00  0.00    -0.214 C  
HETATM   21  C   UNL     1      -9.769  12.448  67.873  1.00  0.00    -0.204 C  
HETATM   22  C   UNL     1     -10.073  14.116  65.796  1.00  0.00    -0.352 C  
ENDROOT
BRANCH  18  23
HETATM   23  O   UNL     1     -10.115  10.367  66.572  1.00  0.00    -0.211 OA 
BRANCH  23  24
HETATM   24  C   UNL     1      -9.369   9.198  66.959  1.00  0.00    -0.148 C  
HETATM   25  O   UNL     1      -9.291   8.272  65.865  1.00  0.00    -0.178 OA 
HETATM   26  C   UNL     1      -8.381   7.188  66.127  1.00  0.00    -0.133 C  
HETATM   27  C   UNL     1      -8.956   6.335  67.248  1.00  0.00    -0.113 C  
HETATM   28  H   UNL     1     -10.111   6.878  70.167  1.00  0.00     0.000 HD 
HETATM   29  C   UNL     1      -9.126   7.154  68.524  1.00  0.00    -0.132 C  
HETATM   30  H   UNL     1      -8.504   4.660  68.248  1.00  0.00     0.000 HD 
HETATM   31  O   UNL     1      -8.145   5.192  67.548  1.00  0.00    -0.099 OA 
HETATM   32  O   UNL     1     -10.005   6.367  69.373  1.00  0.00    -0.152 OA 
HETATM   33  C   UNL     1      -9.760   8.537  68.318  1.00  0.00    -0.155 C  
BRANCH  26  34
HETATM   34  C   UNL     1      -8.224   6.354  64.849  1.00  0.00    -0.110 C  
HETATM   35  H   UNL     1      -7.913   6.700  62.942  1.00  0.00     0.000 HD 
HETATM   36  O   UNL     1      -8.011   7.216  63.733  1.00  0.00    -0.128 OA 
ENDBRANCH  26  34
BRANCH  33  37
HETATM   37  O   UNL     1      -9.448   9.484  69.370  1.00  0.00    -0.159 OA 
BRANCH  37  38
HETATM   38  C   UNL     1     -10.349   9.650  70.480  1.00  0.00    -0.295 C  
HETATM   39  O   UNL     1     -10.136   8.609  71.414  1.00  0.00    -0.209 OA 
HETATM   40  C   UNL     1     -11.030   8.507  72.518  1.00  0.00    -0.253 C  
HETATM   41  C   UNL     1     -12.512   8.603  72.139  1.00  0.00    -0.389 C  
HETATM   42  H   UNL     1     -12.910  11.260  69.190  1.00  0.00     0.000 HD 
HETATM   43  O   UNL     1     -12.005  11.137  69.450  1.00  0.00    -0.313 OA 
HETATM   44  O   UNL     1     -13.310   8.726  73.321  1.00  0.00    -0.915 OA 
HETATM   45  C   UNL     1     -12.761   9.809  71.252  1.00  0.00    -0.369 C  
HETATM   46  H   UNL     1     -14.282  10.561  70.225  1.00  0.00     0.000 HD 
HETATM   47  O   UNL     1     -14.126   9.807  70.780  1.00  0.00     0.071 OA 
HETATM   48  H   UNL     1     -14.229   8.785  73.086  1.00  0.00     0.000 HD 
HETATM   49  C   UNL     1     -11.819   9.848  70.058  1.00  0.00    -0.067 C  
BRANCH  40  50
HETATM   50  C   UNL     1     -10.767   7.131  73.162  1.00  0.00    -0.346 C  
HETATM   51  O   UNL     1     -11.760   6.166  72.807  1.00  0.00    -0.479 OA 
HETATM   52  H   UNL     1     -11.597   5.318  73.204  1.00  0.00     0.000 HD 
ENDBRANCH  40  50
ENDBRANCH  37  38
ENDBRANCH  33  37
ENDBRANCH  23  24
ENDBRANCH  18  23
TORSDOF 6
ENDMDL
MODEL       70
REMARK 921   NORMALIZED FREE ENERGY PREDICTED BY IDOCK:   -5.57 KCAL/MOL
REMARK 922        TOTAL FREE ENERGY PREDICTED BY IDOCK:   -9.51 KCAL/MOL
REMARK 923 INTER-LIGAND FREE ENERGY PREDICTED BY IDOCK:   -8.05 KCAL/MOL
REMARK 924 INTRA-LIGAND FREE ENERGY PREDICTED BY IDOCK:   -1.46 KCAL/MOL
REMARK 927      BINDING AFFINITY PREDICTED BY RF-SCORE:    0.00 PKD
ROOT
HETATM    1  C   UNL     1      -6.183   9.422  69.052  1.00  0.00    -0.042 C  
HETATM    2  C   UNL     1      -7.123  10.025  67.936  1.00  0.00    -0.085 C  
HETATM    3  C   UNL     1      -8.450   9.273  68.001  1.00  0.00    -0.120 C  
HETATM    4  C   UNL     1      -9.341   9.657  66.836  1.00  0.00    -0.183 C  
HETATM    5  C   UNL     1      -8.806   9.177  65.508  1.00  0.00    -0.229 C  
HETATM    6  C   UNL     1      -7.261   9.226  65.264  1.00  0.00    -0.090 C  
HETATM    7  C   UNL     1      -6.398   9.651  66.570  1.00  0.00    -0.066 C  
HETATM    8  C   UNL     1      -6.903  10.119  64.042  1.00  0.00    -0.102 C  
HETATM    9  C   UNL     1      -7.031   7.810  64.608  1.00  0.00    -0.063 C  
HETATM   10  O   UNL     1      -7.617   7.472  63.573  1.00  0.00    -0.104 OA 
HETATM   11  O   UNL     1      -6.197   6.938  65.176  1.00  0.00    -0.035 OA 
HETATM   12  C   UNL     1      -5.165  10.560  66.388  1.00  0.00    -0.058 C  
HETATM   13  C   UNL     1      -5.408  12.033  66.639  1.00  0.00     0.104 C  
HETATM   14  C   UNL     1      -6.117  12.496  67.919  1.00  0.00    -0.101 C  
HETATM   15  C   UNL     1      -5.276  12.850  69.163  1.00  0.00    -0.069 C  
HETATM   16  C   UNL     1      -6.103  13.962  69.818  1.00  0.00    -0.129 C  
HETATM   17  C   UNL     1      -5.773  14.495  71.002  1.00  0.00    -0.164 C  
HETATM   18  C   UNL     1      -7.221  14.450  68.865  1.00  0.00    -0.125 C  
HETATM   19  C   UNL     1      -8.557  13.702  69.080  1.00  0.00     0.310 C  
HETATM   20  C   UNL     1      -7.286  11.567  68.368  1.00  0.00    -0.089 C  
HETATM   21  C   UNL     1      -6.591  13.930  67.592  1.00  0.00    -0.178 C  
HETATM   22  C   UNL     1      -8.631  12.345  68.309  1.00  0.00    -0.172 C  
ENDROOT
BRANCH  18  23
HETATM   23  O   UNL     1      -7.291  15.871  68.965  1.00  0.00    -0.158 OA 
BRANCH  23  24
HETATM   24  C   UNL     1      -7.238  16.763  67.836  1.00  0.00    -0.148 C  
HETATM   25  O   UNL     1      -6.493  17.944  68.168  1.00  0.00    -0.182 OA 
HETATM   26  C   UNL     1      -6.230  18.768  67.017  1.00  0.00    -0.178 C  
HETATM   27  C   UNL     1      -7.550  19.334  66.517  1.00  0.00    -0.252 C  
HETATM   28  H   UNL     1     -10.408  18.142  65.767  1.00  0.00     0.000 HD 
HETATM   29  C   UNL     1      -8.505  18.215  66.112  1.00  0.00    -0.111 C  
HETATM   30  H   UNL     1      -8.211  20.570  65.086  1.00  0.00     0.000 HD 
HETATM   31  O   UNL     1      -7.388  20.216  65.399  1.00  0.00    -0.313 OA 
HETATM   32  O   UNL     1      -9.814  18.839  66.019  1.00  0.00    -0.479 OA 
HETATM   33  C   UNL     1      -8.591  17.053  67.111  1.00  0.00    -0.202 C  
BRANCH  26  34
HETATM   34  C   UNL     1      -5.285  19.903  67.429  1.00  0.00    -0.163 C  
HETATM   35  H   UNL     1      -5.049  21.081  68.982  1.00  0.00     0.000 HD 
HETATM   36  O   UNL     1      -5.635  20.378  68.727  1.00  0.00    -0.243 OA 
ENDBRANCH  26  34
BRANCH  33  37
HETATM   37  O   UNL     1      -9.046  15.810  66.522  1.00  0.00    -0.239 OA 
BRANCH  37  38
HETATM   38  C   UNL     1     -10.455  15.539  66.410  1.00  0.00    -0.306 C  
HETATM   39  O   UNL     1     -10.797  14.476  67.277  1.00  0.00    -0.286 OA 
HETATM   40  C   UNL     1     -12.121  13.955  67.207  1.00  0.00    -0.368 C  
HETATM   41  C   UNL     1     -12.613  13.675  65.782  1.00  0.00    -0.461 C  
HETATM   42  H   UNL     1     -11.208  16.517  63.361  1.00  0.00     0.000 HD 
HETATM   43  O   UNL     1     -10.912  16.623  64.257  1.00  0.00    -0.888 OA 
HETATM   44  O   UNL     1     -14.014  13.382  65.800  1.00  0.00     0.712 OA 
HETATM   45  C   UNL     1     -12.374  14.878  64.887  1.00  0.00    -0.172 C  
HETATM   46  H   UNL     1     -12.554  15.305  62.959  1.00  0.00     0.000 HD 
HETATM   47  O   UNL     1     -12.703  14.552  63.519  1.00  0.00    -0.707 OA 
HETATM   48  H   UNL     1     -14.320  13.209  64.917  1.00  0.00     0.000 HD 
HETATM   49  C   UNL     1     -10.936  15.366  64.954  1.00  0.00    -0.437 C  
BRANCH  40  50
HETATM   50  C   UNL     1     -12.108  12.633  68.000  1.00  0.00    -0.096 C  
HETATM   51  O   UNL     1     -11.950  11.492  67.152  1.00  0.00    -0.581 OA 
HETATM   52  H   UNL     1     -11.942  10.678  67.641  1.00  0.00     0.000 HD 
ENDBRANCH  40  50
ENDBRANCH  37  38
ENDBRANCH  33  37
ENDBRANCH  23  24
ENDBRANCH  18  23
TORSDOF 6
ENDMDL
MODEL       71
REMARK 921   NORMALIZED FREE ENERGY PREDICTED BY IDOCK:   -5.50 KCAL/MOL
REMARK 922        TOTAL FREE ENERGY PREDICTED BY IDOCK:   -9.42 KCAL/MOL
REMARK 923 INTER-LIGAND FREE ENERGY PREDICTED BY IDOCK:   -9.10 KCAL/MOL
REMARK 924 INTRA-LIGAND FREE ENERGY PREDICTED BY IDOCK:   -0.32 KCAL/MOL
REMARK 927      BINDING AFFINITY PREDICTED BY RF-SCORE:    0.00 PKD
ROOT
HETATM    1  C   UNL     1      -6.879   5.977  66.903  1.00  0.00    -0.063 C  
HETATM    2  C   UNL     1      -8.281   5.925  66.178  1.00  0.00    -0.116 C  
HETATM    3  C   UNL     1      -9.042   4.726  66.740  1.00  0.00    -0.117 C  
HETATM    4  C   UNL     1     -10.319   4.488  65.960  1.00  0.00    -0.276 C  
HETATM    5  C   UNL     1     -10.062   4.026  64.545  1.00  0.00    -0.209 C  
HETATM    6  C   UNL     1      -8.860   4.650  63.762  1.00  0.00    -0.130 C  
HETATM    7  C   UNL     1      -7.924   5.627  64.657  1.00  0.00    -0.120 C  
HETATM    8  C   UNL     1      -9.332   5.363  62.463  1.00  0.00     0.331 C  
HETATM    9  C   UNL     1      -8.236   3.353  63.116  1.00  0.00    -0.077 C  
HETATM   10  O   UNL     1      -8.895   2.618  62.372  1.00  0.00    -0.074 OA 
HETATM   11  O   UNL     1      -6.972   3.019  63.377  1.00  0.00    -0.041 OA 
HETATM   12  C   UNL     1      -7.349   6.905  64.014  1.00  0.00    -0.087 C  
HETATM   13  C   UNL     1      -8.133   8.172  64.285  1.00  0.00    -0.127 C  
HETATM   14  C   UNL     1      -8.543   8.539  65.717  1.00  0.00    -0.190 C  
HETATM   15  C   UNL     1      -7.613   9.432  66.564  1.00  0.00    -0.093 C  
HETATM   16  C   UNL     1      -8.603  10.214  67.434  1.00  0.00    -0.122 C  
HETATM   17  C   UNL     1      -8.200  11.048  68.402  1.00  0.00    -0.137 C  
HETATM   18  C   UNL     1     -10.053  10.018  66.928  1.00  0.00    -0.229 C  
HETATM   19  C   UNL     1     -10.776   8.847  67.633  1.00  0.00    -0.221 C  
HETATM   20  C   UNL     1      -8.974   7.319  66.586  1.00  0.00    -0.170 C  
HETATM   21  C   UNL     1      -9.682   9.568  65.533  1.00  0.00    -0.344 C  
HETATM   22  C   UNL     1     -10.470   7.458  66.987  1.00  0.00    -0.404 C  
ENDROOT
BRANCH  18  23
HETATM   23  O   UNL     1     -10.715  11.278  66.999  1.00  0.00    -0.233 OA 
BRANCH  23  24
HETATM   24  C   UNL     1     -10.916  12.017  68.218  1.00  0.00    -0.234 C  
HETATM   25  O   UNL     1     -11.862  11.341  69.060  1.00  0.00    -0.310 OA 
HETATM   26  C   UNL     1     -11.939  11.922  70.375  1.00  0.00    -0.311 C  
HETATM   27  C   UNL     1     -12.535  13.316  70.253  1.00  0.00    -0.185 C  
HETATM   28  H   UNL     1     -11.955  15.900  68.482  1.00  0.00     0.000 HD 
HETATM   29  C   UNL     1     -11.664  14.206  69.373  1.00  0.00    -0.313 C  
HETATM   30  H   UNL     1     -13.076  14.831  71.446  1.00  0.00     0.000 HD 
HETATM   31  O   UNL     1     -12.703  13.961  71.522  1.00  0.00    -0.338 OA 
HETATM   32  O   UNL     1     -12.498  15.346  69.031  1.00  0.00    -0.080 OA 
HETATM   33  C   UNL     1     -11.184  13.549  68.072  1.00  0.00    -0.271 C  
BRANCH  26  34
HETATM   34  C   UNL     1     -12.829  11.036  71.255  1.00  0.00    -0.425 C  
HETATM   35  H   UNL     1     -12.797   9.193  71.929  1.00  0.00     0.000 HD 
HETATM   36  O   UNL     1     -12.246   9.741  71.384  1.00  0.00    -0.342 OA 
ENDBRANCH  26  34
BRANCH  33  37
HETATM   37  O   UNL     1      -9.986  14.150  67.521  1.00  0.00    -0.232 OA 
BRANCH  37  38
HETATM   38  C   UNL     1      -9.496  15.395  68.051  1.00  0.00    -0.201 C  
HETATM   39  O   UNL     1     -10.009  16.465  67.281  1.00  0.00    -0.248 OA 
HETATM   40  C   UNL     1      -9.525  17.777  67.552  1.00  0.00    -0.257 C  
HETATM   41  C   UNL     1      -8.000  17.873  67.670  1.00  0.00    -0.219 C  
HETATM   42  H   UNL     1      -6.643  14.584  69.473  1.00  0.00     0.000 HD 
HETATM   43  O   UNL     1      -7.584  14.568  69.347  1.00  0.00    -0.120 OA 
HETATM   44  O   UNL     1      -7.630  19.163  68.169  1.00  0.00    -0.267 OA 
HETATM   45  C   UNL     1      -7.467  16.811  68.614  1.00  0.00    -0.219 C  
HETATM   46  H   UNL     1      -5.689  16.150  69.193  1.00  0.00     0.000 HD 
HETATM   47  O   UNL     1      -6.022  16.815  68.602  1.00  0.00    -0.131 OA 
HETATM   48  H   UNL     1      -6.685  19.224  68.242  1.00  0.00     0.000 HD 
HETATM   49  C   UNL     1      -7.967  15.421  68.255  1.00  0.00    -0.128 C  
BRANCH  40  50
HETATM   50  C   UNL     1      -9.993  18.661  66.380  1.00  0.00    -0.388 C  
HETATM   51  O   UNL     1     -10.712  17.918  65.392  1.00  0.00    -0.634 OA 
HETATM   52  H   UNL     1     -11.000  18.463  64.669  1.00  0.00     0.000 HD 
ENDBRANCH  40  50
ENDBRANCH  37  38
ENDBRANCH  33  37
ENDBRANCH  23  24
ENDBRANCH  18  23
TORSDOF 6
ENDMDL
MODEL       72
REMARK 921   NORMALIZED FREE ENERGY PREDICTED BY IDOCK:   -5.50 KCAL/MOL
REMARK 922        TOTAL FREE ENERGY PREDICTED BY IDOCK:   -9.41 KCAL/MOL
REMARK 923 INTER-LIGAND FREE ENERGY PREDICTED BY IDOCK:   -9.46 KCAL/MOL
REMARK 924 INTRA-LIGAND FREE ENERGY PREDICTED BY IDOCK:    0.05 KCAL/MOL
REMARK 927      BINDING AFFINITY PREDICTED BY RF-SCORE:    0.00 PKD
ROOT
HETATM    1  C   UNL     1     -10.658   6.743  67.430  1.00  0.00    -0.372 C  
HETATM    2  C   UNL     1      -9.409   7.227  68.266  1.00  0.00    -0.135 C  
HETATM    3  C   UNL     1      -8.193   6.456  67.757  1.00  0.00    -0.118 C  
HETATM    4  C   UNL     1      -6.987   6.718  68.636  1.00  0.00    -0.080 C  
HETATM    5  C   UNL     1      -7.135   6.134  70.021  1.00  0.00    -0.072 C  
HETATM    6  C   UNL     1      -8.538   6.193  70.710  1.00  0.00    -0.135 C  
HETATM    7  C   UNL     1      -9.722   6.749  69.751  1.00  0.00    -0.162 C  
HETATM    8  C   UNL     1      -8.486   6.983  72.048  1.00  0.00    -0.115 C  
HETATM    9  C   UNL     1      -8.632   4.730  71.292  1.00  0.00    -0.118 C  
HETATM   10  O   UNL     1      -7.787   4.290  72.080  1.00  0.00    -0.078 OA 
HETATM   11  O   UNL     1      -9.634   3.929  70.927  1.00  0.00    -0.163 OA 
HETATM   12  C   UNL     1     -10.807   7.664  70.356  1.00  0.00    -0.252 C  
HETATM   13  C   UNL     1     -10.581   9.148  70.160  1.00  0.00    -0.258 C  
HETATM   14  C   UNL     1     -10.253   9.707  68.769  1.00  0.00    -0.213 C  
HETATM   15  C   UNL     1     -11.402  10.186  67.858  1.00  0.00    -0.108 C  
HETATM   16  C   UNL     1     -10.751  11.334  67.078  1.00  0.00    -0.305 C  
HETATM   17  C   UNL     1     -11.385  11.975  66.088  1.00  0.00    -0.407 C  
HETATM   18  C   UNL     1      -9.384  11.713  67.697  1.00  0.00    -0.178 C  
HETATM   19  C   UNL     1      -8.203  10.960  67.043  1.00  0.00    -0.134 C  
HETATM   20  C   UNL     1      -9.308   8.797  67.927  1.00  0.00    -0.155 C  
HETATM   21  C   UNL     1      -9.640  11.097  69.053  1.00  0.00    -0.099 C  
HETATM   22  C   UNL     1      -7.970   9.539  67.650  1.00  0.00    -0.106 C  
ENDROOT
BRANCH  18  23
HETATM   23  O   UNL     1      -9.281  13.136  67.692  1.00  0.00    -0.189 OA 
BRANCH  23  24
HETATM   24  C   UNL     1      -9.680  13.977  68.790  1.00  0.00    -0.121 C  
HETATM   25  O   UNL     1     -10.955  13.561  69.300  1.00  0.00    -0.216 OA 
HETATM   26  C   UNL     1     -11.300  14.230  70.527  1.00  0.00    -0.002 C  
HETATM   27  C   UNL     1     -11.524  15.703  70.227  1.00  0.00    -0.349 C  
HETATM   28  H   UNL     1      -9.909  17.999  68.719  1.00  0.00     0.000 HD 
HETATM   29  C   UNL     1     -10.262  16.343  69.657  1.00  0.00    -0.198 C  
HETATM   30  H   UNL     1     -12.068  17.370  71.195  1.00  0.00     0.000 HD 
HETATM   31  O   UNL     1     -11.927  16.450  71.382  1.00  0.00    -0.362 OA 
HETATM   32  O   UNL     1     -10.696  17.601  69.074  1.00  0.00    -0.186 OA 
HETATM   33  C   UNL     1      -9.563  15.519  68.567  1.00  0.00    -0.203 C  
BRANCH  26  34
HETATM   34  C   UNL     1     -12.579  13.599  71.091  1.00  0.00    -0.371 C  
HETATM   35  H   UNL     1     -13.307  11.789  71.313  1.00  0.00     0.000 HD 
HETATM   36  O   UNL     1     -12.515  12.180  70.964  1.00  0.00    -0.370 OA 
ENDBRANCH  26  34
BRANCH  33  37
HETATM   37  O   UNL     1      -8.156  15.831  68.411  1.00  0.00    -0.135 OA 
BRANCH  37  38
HETATM   38  C   UNL     1      -7.748  16.902  67.540  1.00  0.00    -0.169 C  
HETATM   39  O   UNL     1      -6.860  17.756  68.234  1.00  0.00    -0.200 OA 
HETATM   40  C   UNL     1      -6.455  18.962  67.594  1.00  0.00    -0.202 C  
HETATM   41  C   UNL     1      -7.605  19.762  66.971  1.00  0.00    -0.260 C  
HETATM   42  H   UNL     1     -10.256  17.209  65.434  1.00  0.00     0.000 HD 
HETATM   43  O   UNL     1      -9.531  16.768  65.860  1.00  0.00    -0.466 OA 
HETATM   44  O   UNL     1      -7.080  20.819  66.160  1.00  0.00    -0.462 OA 
HETATM   45  C   UNL     1      -8.474  18.867  66.108  1.00  0.00    -0.183 C  
HETATM   46  H   UNL     1     -10.179  19.034  65.108  1.00  0.00     0.000 HD 
HETATM   47  O   UNL     1      -9.635  19.594  65.648  1.00  0.00    -0.341 OA 
HETATM   48  H   UNL     1      -7.792  21.315  65.774  1.00  0.00     0.000 HD 
HETATM   49  C   UNL     1      -8.927  17.618  66.849  1.00  0.00    -0.246 C  
BRANCH  40  50
HETATM   50  C   UNL     1      -5.778  19.822  68.680  1.00  0.00    -0.220 C  
HETATM   51  O   UNL     1      -5.874  19.231  69.978  1.00  0.00    -0.245 OA 
HETATM   52  H   UNL     1      -5.457  19.761  70.647  1.00  0.00     0.000 HD 
ENDBRANCH  40  50
ENDBRANCH  37  38
ENDBRANCH  33  37
ENDBRANCH  23  24
ENDBRANCH  18  23
TORSDOF 6
ENDMDL
MODEL       73
REMARK 921   NORMALIZED FREE ENERGY PREDICTED BY IDOCK:   -5.49 KCAL/MOL
REMARK 922        TOTAL FREE ENERGY PREDICTED BY IDOCK:   -9.40 KCAL/MOL
REMARK 923 INTER-LIGAND FREE ENERGY PREDICTED BY IDOCK:   -8.36 KCAL/MOL
REMARK 924 INTRA-LIGAND FREE ENERGY PREDICTED BY IDOCK:   -1.04 KCAL/MOL
REMARK 927      BINDING AFFINITY PREDICTED BY RF-SCORE:    0.00 PKD
ROOT
HETATM    1  C   UNL     1      -6.728  16.111  66.706  1.00  0.00     0.022 C  
HETATM    2  C   UNL     1      -8.292  16.070  66.921  1.00  0.00    -0.278 C  
HETATM    3  C   UNL     1      -8.925  16.937  65.835  1.00  0.00    -0.075 C  
HETATM    4  C   UNL     1     -10.410  17.109  66.086  1.00  0.00    -0.327 C  
HETATM    5  C   UNL     1     -10.704  17.933  67.318  1.00  0.00    -0.278 C  
HETATM    6  C   UNL     1      -9.791  17.748  68.574  1.00  0.00    -0.355 C  
HETATM    7  C   UNL     1      -8.513  16.780  68.327  1.00  0.00    -0.222 C  
HETATM    8  C   UNL     1     -10.610  17.286  69.813  1.00  0.00     0.208 C  
HETATM    9  C   UNL     1      -9.558  19.254  68.982  1.00  0.00    -0.365 C  
HETATM   10  O   UNL     1     -10.502  20.007  69.246  1.00  0.00    -0.224 OA 
HETATM   11  O   UNL     1      -8.321  19.748  69.036  1.00  0.00    -0.229 OA 
HETATM   12  C   UNL     1      -8.072  15.821  69.451  1.00  0.00    -0.209 C  
HETATM   13  C   UNL     1      -8.586  14.402  69.327  1.00  0.00     0.188 C  
HETATM   14  C   UNL     1      -8.440  13.636  68.005  1.00  0.00    -0.174 C  
HETATM   15  C   UNL     1      -7.191  12.760  67.776  1.00  0.00    -0.132 C  
HETATM   16  C   UNL     1      -7.739  11.623  66.906  1.00  0.00    -0.147 C  
HETATM   17  C   UNL     1      -6.948  10.674  66.388  1.00  0.00    -0.129 C  
HETATM   18  C   UNL     1      -9.286  11.658  66.866  1.00  0.00    -0.188 C  
HETATM   19  C   UNL     1      -9.833  12.471  65.670  1.00  0.00    -0.227 C  
HETATM   20  C   UNL     1      -8.661  14.514  66.736  1.00  0.00    -0.214 C  
HETATM   21  C   UNL     1      -9.465  12.486  68.118  1.00  0.00    -0.214 C  
HETATM   22  C   UNL     1      -9.906  14.006  65.954  1.00  0.00    -0.302 C  
ENDROOT
BRANCH  18  23
HETATM   23  O   UNL     1      -9.757  10.315  66.959  1.00  0.00    -0.166 OA 
BRANCH  23  24
HETATM   24  C   UNL     1     -10.058   9.651  68.200  1.00  0.00    -0.175 C  
HETATM   25  O   UNL     1     -11.030  10.400  68.945  1.00  0.00    -0.219 OA 
HETATM   26  C   UNL     1     -11.521   9.678  70.088  1.00  0.00    -0.189 C  
HETATM   27  C   UNL     1     -10.385   9.520  71.086  1.00  0.00    -0.260 C  
HETATM   28  H   UNL     1      -7.371   8.491  70.969  1.00  0.00     0.000 HD 
HETATM   29  C   UNL     1      -9.226   8.740  70.473  1.00  0.00    -0.188 C  
HETATM   30  H   UNL     1     -10.080   8.758  72.913  1.00  0.00     0.000 HD 
HETATM   31  O   UNL     1     -10.790   8.856  72.290  1.00  0.00    -0.332 OA 
HETATM   32  O   UNL     1      -8.093   8.977  71.352  1.00  0.00    -0.266 OA 
HETATM   33  C   UNL     1      -8.838   9.177  69.053  1.00  0.00    -0.139 C  
BRANCH  26  34
HETATM   34  C   UNL     1     -12.675  10.471  70.715  1.00  0.00    -0.381 C  
HETATM   35  H   UNL     1     -13.054  12.348  71.149  1.00  0.00     0.000 HD 
HETATM   36  O   UNL     1     -12.339  11.857  70.761  1.00  0.00    -0.374 OA 
ENDBRANCH  26  34
BRANCH  33  37
HETATM   37  O   UNL     1      -8.147   8.153  68.296  1.00  0.00    -0.124 OA 
BRANCH  37  38
HETATM   38  C   UNL     1      -8.897   7.111  67.643  1.00  0.00    -0.119 C  
HETATM   39  O   UNL     1      -9.074   6.032  68.540  1.00  0.00    -0.114 OA 
HETATM   40  C   UNL     1      -9.665   4.837  68.039  1.00  0.00    -0.147 C  
HETATM   41  C   UNL     1      -9.073   4.350  66.712  1.00  0.00    -0.128 C  
HETATM   42  H   UNL     1      -8.212   7.522  64.452  1.00  0.00     0.000 HD 
HETATM   43  O   UNL     1      -8.559   7.764  65.303  1.00  0.00    -0.130 OA 
HETATM   44  O   UNL     1      -9.877   3.292  66.179  1.00  0.00    -0.409 OA 
HETATM   45  C   UNL     1      -9.019   5.482  65.702  1.00  0.00    -0.146 C  
HETATM   46  H   UNL     1      -8.291   5.760  63.879  1.00  0.00     0.000 HD 
HETATM   47  O   UNL     1      -8.326   5.052  64.510  1.00  0.00    -0.123 OA 
HETATM   48  H   UNL     1      -9.511   2.990  65.356  1.00  0.00     0.000 HD 
HETATM   49  C   UNL     1      -8.333   6.718  66.262  1.00  0.00    -0.126 C  
BRANCH  40  50
HETATM   50  C   UNL     1      -9.435   3.757  69.116  1.00  0.00    -0.172 C  
HETATM   51  O   UNL     1      -8.161   3.121  68.983  1.00  0.00    -0.059 OA 
HETATM   52  H   UNL     1      -8.020   2.456  69.647  1.00  0.00     0.000 HD 
ENDBRANCH  40  50
ENDBRANCH  37  38
ENDBRANCH  33  37
ENDBRANCH  23  24
ENDBRANCH  18  23
TORSDOF 6
ENDMDL
MODEL       74
REMARK 921   NORMALIZED FREE ENERGY PREDICTED BY IDOCK:   -5.49 KCAL/MOL
REMARK 922        TOTAL FREE ENERGY PREDICTED BY IDOCK:   -9.40 KCAL/MOL
REMARK 923 INTER-LIGAND FREE ENERGY PREDICTED BY IDOCK:   -8.35 KCAL/MOL
REMARK 924 INTRA-LIGAND FREE ENERGY PREDICTED BY IDOCK:   -1.05 KCAL/MOL
REMARK 927      BINDING AFFINITY PREDICTED BY RF-SCORE:    0.00 PKD
ROOT
HETATM    1  C   UNL     1      -9.788  12.959  64.638  1.00  0.00    -0.040 C  
HETATM    2  C   UNL     1     -10.083  12.640  66.156  1.00  0.00    -0.268 C  
HETATM    3  C   UNL     1     -11.596  12.497  66.307  1.00  0.00    -0.449 C  
HETATM    4  C   UNL     1     -11.979  12.383  67.768  1.00  0.00    -0.252 C  
HETATM    5  C   UNL     1     -11.735  13.660  68.538  1.00  0.00    -0.392 C  
HETATM    6  C   UNL     1     -10.458  14.499  68.205  1.00  0.00    -0.242 C  
HETATM    7  C   UNL     1      -9.621  13.952  66.928  1.00  0.00    -0.271 C  
HETATM    8  C   UNL     1      -9.538  14.659  69.449  1.00  0.00     0.054 C  
HETATM    9  C   UNL     1     -11.072  15.951  68.167  1.00  0.00    -0.338 C  
HETATM   10  O   UNL     1     -11.658  16.433  69.144  1.00  0.00    -0.256 OA 
HETATM   11  O   UNL     1     -10.979  16.688  67.060  1.00  0.00    -0.157 OA 
HETATM   12  C   UNL     1      -8.080  13.997  66.969  1.00  0.00    -0.028 C  
HETATM   13  C   UNL     1      -7.408  12.703  67.379  1.00  0.00    -0.140 C  
HETATM   14  C   UNL     1      -7.797  11.380  66.708  1.00  0.00    -0.157 C  
HETATM   15  C   UNL     1      -7.016  10.904  65.466  1.00  0.00     0.113 C  
HETATM   16  C   UNL     1      -7.059   9.379  65.610  1.00  0.00    -0.090 C  
HETATM   17  C   UNL     1      -6.571   8.559  64.669  1.00  0.00    -0.066 C  
HETATM   18  C   UNL     1      -7.577   8.973  67.010  1.00  0.00    -0.091 C  
HETATM   19  C   UNL     1      -9.107   8.747  67.037  1.00  0.00    -0.160 C  
HETATM   20  C   UNL     1      -9.321  11.245  66.408  1.00  0.00    -0.210 C  
HETATM   21  C   UNL     1      -7.287  10.295  67.684  1.00  0.00    -0.088 C  
HETATM   22  C   UNL     1      -9.919  10.068  67.230  1.00  0.00    -0.245 C  
ENDROOT
BRANCH  18  23
HETATM   23  O   UNL     1      -6.788   7.877  67.469  1.00  0.00    -0.066 OA 
BRANCH  23  24
HETATM   24  C   UNL     1      -7.297   6.546  67.669  1.00  0.00    -0.095 C  
HETATM   25  O   UNL     1      -7.597   5.931  66.407  1.00  0.00    -0.088 OA 
HETATM   26  C   UNL     1      -7.905   4.531  66.538  1.00  0.00    -0.099 C  
HETATM   27  C   UNL     1      -9.216   4.394  67.296  1.00  0.00    -0.143 C  
HETATM   28  H   UNL     1     -10.406   5.535  70.023  1.00  0.00     0.000 HD 
HETATM   29  C   UNL     1      -9.106   5.006  68.690  1.00  0.00    -0.110 C  
HETATM   30  H   UNL     1     -10.458   2.947  67.906  1.00  0.00     0.000 HD 
HETATM   31  O   UNL     1      -9.640   3.032  67.433  1.00  0.00    -0.170 OA 
HETATM   32  O   UNL     1     -10.475   5.154  69.155  1.00  0.00    -0.198 OA 
HETATM   33  C   UNL     1      -8.427   6.382  68.734  1.00  0.00    -0.121 C  
BRANCH  26  34
HETATM   34  C   UNL     1      -8.034   3.920  65.136  1.00  0.00    -0.093 C  
HETATM   35  H   UNL     1      -9.232   4.113  63.594  1.00  0.00     0.000 HD 
HETATM   36  O   UNL     1      -9.153   4.491  64.461  1.00  0.00    -0.150 OA 
ENDBRANCH  26  34
BRANCH  33  37
HETATM   37  O   UNL     1      -7.860   6.711  70.026  1.00  0.00    -0.106 OA 
BRANCH  37  38
HETATM   38  C   UNL     1      -8.697   7.254  71.063  1.00  0.00    -0.140 C  
HETATM   39  O   UNL     1      -9.453   6.211  71.647  1.00  0.00    -0.149 OA 
HETATM   40  C   UNL     1     -10.456   6.562  72.596  1.00  0.00    -0.211 C  
HETATM   41  C   UNL     1     -11.366   7.714  72.155  1.00  0.00    -0.293 C  
HETATM   42  H   UNL     1      -9.180  10.374  70.140  1.00  0.00     0.000 HD 
HETATM   43  O   UNL     1      -8.672   9.620  70.417  1.00  0.00    -0.221 OA 
HETATM   44  O   UNL     1     -12.175   8.144  73.255  1.00  0.00    -0.541 OA 
HETATM   45  C   UNL     1     -10.541   8.890  71.664  1.00  0.00    -0.352 C  
HETATM   46  H   UNL     1     -10.890  10.644  70.806  1.00  0.00     0.000 HD 
HETATM   47  O   UNL     1     -11.406   9.908  71.114  1.00  0.00    -0.357 OA 
HETATM   48  H   UNL     1     -12.740   8.857  72.982  1.00  0.00     0.000 HD 
HETATM   49  C   UNL     1      -9.521   8.477  70.614  1.00  0.00    -0.174 C  
BRANCH  40  50
HETATM   50  C   UNL     1     -11.314   5.299  72.806  1.00  0.00    -0.276 C  
HETATM   51  O   UNL     1     -12.714   5.586  72.801  1.00  0.00    -0.421 OA 
HETATM   52  H   UNL     1     -13.243   4.807  72.931  1.00  0.00     0.000 HD 
ENDBRANCH  40  50
ENDBRANCH  37  38
ENDBRANCH  33  37
ENDBRANCH  23  24
ENDBRANCH  18  23
TORSDOF 6
ENDMDL
MODEL       75
REMARK 921   NORMALIZED FREE ENERGY PREDICTED BY IDOCK:   -5.48 KCAL/MOL
REMARK 922        TOTAL FREE ENERGY PREDICTED BY IDOCK:   -9.39 KCAL/MOL
REMARK 923 INTER-LIGAND FREE ENERGY PREDICTED BY IDOCK:   -7.37 KCAL/MOL
REMARK 924 INTRA-LIGAND FREE ENERGY PREDICTED BY IDOCK:   -2.02 KCAL/MOL
REMARK 927      BINDING AFFINITY PREDICTED BY RF-SCORE:    0.00 PKD
ROOT
HETATM    1  C   UNL     1     -10.077  14.270  64.714  1.00  0.00    -0.168 C  
HETATM    2  C   UNL     1     -10.435  14.145  66.247  1.00  0.00    -0.286 C  
HETATM    3  C   UNL     1     -11.876  14.623  66.419  1.00  0.00    -0.304 C  
HETATM    4  C   UNL     1     -12.235  14.719  67.888  1.00  0.00    -0.017 C  
HETATM    5  C   UNL     1     -11.483  15.815  68.604  1.00  0.00    -0.389 C  
HETATM    6  C   UNL     1      -9.986  16.064  68.224  1.00  0.00    -0.220 C  
HETATM    7  C   UNL     1      -9.470  15.188  66.961  1.00  0.00    -0.237 C  
HETATM    8  C   UNL     1      -9.047  15.883  69.451  1.00  0.00    -0.222 C  
HETATM    9  C   UNL     1      -9.972  17.639  68.135  1.00  0.00    -0.330 C  
HETATM   10  O   UNL     1     -10.292  18.346  69.098  1.00  0.00    -0.257 OA 
HETATM   11  O   UNL     1      -9.621  18.241  66.999  1.00  0.00    -0.275 OA 
HETATM   12  C   UNL     1      -8.038  14.615  66.984  1.00  0.00    -0.153 C  
HETATM   13  C   UNL     1      -7.926  13.175  67.438  1.00  0.00    -0.174 C  
HETATM   14  C   UNL     1      -8.828  12.096  66.824  1.00  0.00    -0.198 C  
HETATM   15  C   UNL     1      -8.332  11.308  65.594  1.00  0.00     0.080 C  
HETATM   16  C   UNL     1      -8.976   9.932  65.798  1.00  0.00    -0.189 C  
HETATM   17  C   UNL     1      -8.880   8.956  64.886  1.00  0.00    -0.161 C  
HETATM   18  C   UNL     1      -9.577   9.813  67.219  1.00  0.00    -0.157 C  
HETATM   19  C   UNL     1     -11.069  10.216  67.271  1.00  0.00    -0.166 C  
HETATM   20  C   UNL     1     -10.286  12.570  66.546  1.00  0.00    -0.254 C  
HETATM   21  C   UNL     1      -8.767  10.930  67.836  1.00  0.00    -0.131 C  
HETATM   22  C   UNL     1     -11.283  11.757  67.420  1.00  0.00    -0.357 C  
ENDROOT
BRANCH  18  23
HETATM   23  O   UNL     1      -9.278   8.508  67.712  1.00  0.00    -0.135 OA 
BRANCH  23  24
HETATM   24  C   UNL     1      -8.228   8.224  68.655  1.00  0.00    -0.120 C  
HETATM   25  O   UNL     1      -7.348   7.217  68.133  1.00  0.00    -0.091 OA 
HETATM   26  C   UNL     1      -6.168   7.049  68.940  1.00  0.00    -0.027 C  
HETATM   27  C   UNL     1      -6.580   6.469  70.284  1.00  0.00    -0.048 C  
HETATM   28  H   UNL     1      -8.740   7.185  72.514  1.00  0.00     0.000 HD 
HETATM   29  C   UNL     1      -7.541   7.404  71.010  1.00  0.00    -0.086 C  
HETATM   30  H   UNL     1      -5.719   5.850  71.983  1.00  0.00     0.000 HD 
HETATM   31  O   UNL     1      -5.462   6.213  71.144  1.00  0.00    -0.017 OA 
HETATM   32  O   UNL     1      -8.141   6.602  72.062  1.00  0.00    -0.102 OA 
HETATM   33  C   UNL     1      -8.666   7.973  70.134  1.00  0.00    -0.135 C  
BRANCH  26  34
HETATM   34  C   UNL     1      -5.209   6.093  68.218  1.00  0.00    -0.004 C  
HETATM   35  H   UNL     1      -5.290   4.867  66.687  1.00  0.00     0.000 HD 
HETATM   36  O   UNL     1      -5.884   5.459  67.134  1.00  0.00    -0.016 OA 
ENDBRANCH  26  34
BRANCH  33  37
HETATM   37  O   UNL     1      -9.229   9.210  70.637  1.00  0.00    -0.216 OA 
BRANCH  37  38
HETATM   38  C   UNL     1     -10.656   9.364  70.736  1.00  0.00    -0.303 C  
HETATM   39  O   UNL     1     -10.981  10.741  70.702  1.00  0.00    -0.075 OA 
HETATM   40  C   UNL     1     -12.336  11.115  70.936  1.00  0.00    -0.399 C  
HETATM   41  C   UNL     1     -12.976  10.433  72.150  1.00  0.00    -0.292 C  
HETATM   42  H   UNL     1     -11.632   6.684  72.374  1.00  0.00     0.000 HD 
HETATM   43  O   UNL     1     -11.247   7.167  71.652  1.00  0.00    -0.237 OA 
HETATM   44  O   UNL     1     -14.385  10.687  72.163  1.00  0.00     0.314 OA 
HETATM   45  C   UNL     1     -12.749   8.933  72.105  1.00  0.00    -0.405 C  
HETATM   46  H   UNL     1     -13.082   7.383  73.296  1.00  0.00     0.000 HD 
HETATM   47  O   UNL     1     -13.225   8.321  73.324  1.00  0.00     0.293 OA 
HETATM   48  H   UNL     1     -14.783  10.265  72.916  1.00  0.00     0.000 HD 
HETATM   49  C   UNL     1     -11.282   8.581  71.908  1.00  0.00    -0.327 C  
BRANCH  40  50
HETATM   50  C   UNL     1     -12.330  12.639  71.162  1.00  0.00    -0.145 C  
HETATM   51  O   UNL     1     -13.631  13.148  71.467  1.00  0.00    -0.231 OA 
HETATM   52  H   UNL     1     -13.627  14.088  71.606  1.00  0.00     0.000 HD 
ENDBRANCH  40  50
ENDBRANCH  37  38
ENDBRANCH  33  37
ENDBRANCH  23  24
ENDBRANCH  18  23
TORSDOF 6
ENDMDL
MODEL       76
REMARK 921   NORMALIZED FREE ENERGY PREDICTED BY IDOCK:   -5.47 KCAL/MOL
REMARK 922        TOTAL FREE ENERGY PREDICTED BY IDOCK:   -9.37 KCAL/MOL
REMARK 923 INTER-LIGAND FREE ENERGY PREDICTED BY IDOCK:   -9.44 KCAL/MOL
REMARK 924 INTRA-LIGAND FREE ENERGY PREDICTED BY IDOCK:    0.07 KCAL/MOL
REMARK 927      BINDING AFFINITY PREDICTED BY RF-SCORE:    0.00 PKD
ROOT
HETATM    1  C   UNL     1     -10.380  13.776  64.912  1.00  0.00    -0.420 C  
HETATM    2  C   UNL     1     -10.606  13.769  66.476  1.00  0.00    -0.279 C  
HETATM    3  C   UNL     1     -12.044  14.215  66.731  1.00  0.00    -0.474 C  
HETATM    4  C   UNL     1     -12.285  14.422  68.213  1.00  0.00    -0.160 C  
HETATM    5  C   UNL     1     -11.518  15.598  68.771  1.00  0.00    -0.382 C  
HETATM    6  C   UNL     1     -10.067  15.860  68.245  1.00  0.00    -0.224 C  
HETATM    7  C   UNL     1      -9.625  14.897  67.018  1.00  0.00    -0.245 C  
HETATM    8  C   UNL     1      -9.025  15.811  69.398  1.00  0.00    -0.247 C  
HETATM    9  C   UNL     1     -10.120  17.421  68.028  1.00  0.00    -0.326 C  
HETATM   10  O   UNL     1     -10.386  18.196  68.954  1.00  0.00    -0.356 OA 
HETATM   11  O   UNL     1      -9.887  17.936  66.821  1.00  0.00    -0.302 OA 
HETATM   12  C   UNL     1      -8.175  14.372  66.964  1.00  0.00    -0.138 C  
HETATM   13  C   UNL     1      -7.973  12.979  67.522  1.00  0.00    -0.177 C  
HETATM   14  C   UNL     1      -8.880  11.825  67.077  1.00  0.00    -0.182 C  
HETATM   15  C   UNL     1      -8.459  10.953  65.877  1.00  0.00    -0.158 C  
HETATM   16  C   UNL     1      -9.031   9.580  66.246  1.00  0.00    -0.188 C  
HETATM   17  C   UNL     1      -8.974   8.533  65.411  1.00  0.00    -0.150 C  
HETATM   18  C   UNL     1      -9.508   9.561  67.719  1.00  0.00    -0.131 C  
HETATM   19  C   UNL     1     -11.004   9.922  67.865  1.00  0.00    -0.281 C  
HETATM   20  C   UNL     1     -10.374  12.230  66.887  1.00  0.00    -0.236 C  
HETATM   21  C   UNL     1      -8.692  10.750  68.172  1.00  0.00    -0.130 C  
HETATM   22  C   UNL     1     -11.263  11.462  67.906  1.00  0.00    -0.352 C  
ENDROOT
BRANCH  18  23
HETATM   23  O   UNL     1      -9.121   8.313  68.288  1.00  0.00    -0.136 OA 
BRANCH  23  24
HETATM   24  C   UNL     1      -9.494   7.878  69.609  1.00  0.00    -0.160 C  
HETATM   25  O   UNL     1     -10.788   8.394  69.956  1.00  0.00    -0.240 OA 
HETATM   26  C   UNL     1     -11.299   7.819  71.173  1.00  0.00    -0.269 C  
HETATM   27  C   UNL     1     -10.430   8.287  72.330  1.00  0.00    -0.334 C  
HETATM   28  H   UNL     1      -7.307   8.358  72.958  1.00  0.00     0.000 HD 
HETATM   29  C   UNL     1      -8.985   7.837  72.144  1.00  0.00    -0.137 C  
HETATM   30  H   UNL     1     -10.350   8.102  74.323  1.00  0.00     0.000 HD 
HETATM   31  O   UNL     1     -10.892   7.809  73.600  1.00  0.00    -0.259 OA 
HETATM   32  O   UNL     1      -8.208   8.638  73.075  1.00  0.00    -0.402 OA 
HETATM   33  C   UNL     1      -8.423   8.054  70.732  1.00  0.00    -0.124 C  
BRANCH  26  34
HETATM   34  C   UNL     1     -12.747   8.286  71.370  1.00  0.00    -0.263 C  
HETATM   35  H   UNL     1     -13.678   9.993  71.641  1.00  0.00     0.000 HD 
HETATM   36  O   UNL     1     -12.781   9.704  71.519  1.00  0.00    -0.334 OA 
ENDBRANCH  26  34
BRANCH  33  37
HETATM   37  O   UNL     1      -7.306   7.189  70.409  1.00  0.00    -0.076 OA 
BRANCH  37  38
HETATM   38  C   UNL     1      -7.513   5.773  70.259  1.00  0.00    -0.081 C  
HETATM   39  O   UNL     1      -8.225   5.528  69.062  1.00  0.00    -0.097 OA 
HETATM   40  C   UNL     1      -8.660   4.197  68.802  1.00  0.00    -0.088 C  
HETATM   41  C   UNL     1      -9.345   3.515  69.992  1.00  0.00    -0.175 C  
HETATM   42  H   UNL     1      -7.504   4.640  73.347  1.00  0.00     0.000 HD 
HETATM   43  O   UNL     1      -7.138   5.054  72.574  1.00  0.00    -0.076 OA 
HETATM   44  O   UNL     1      -9.532   2.123  69.713  1.00  0.00    -0.113 OA 
HETATM   45  C   UNL     1      -8.503   3.656  71.247  1.00  0.00    -0.068 C  
HETATM   46  H   UNL     1      -8.697   3.230  73.174  1.00  0.00     0.000 HD 
HETATM   47  O   UNL     1      -9.224   3.142  72.388  1.00  0.00    -0.093 OA 
HETATM   48  H   UNL     1      -9.956   1.700  70.450  1.00  0.00     0.000 HD 
HETATM   49  C   UNL     1      -8.107   5.100  71.513  1.00  0.00    -0.115 C  
BRANCH  40  50
HETATM   50  C   UNL     1      -9.662   4.290  67.634  1.00  0.00    -0.134 C  
HETATM   51  O   UNL     1      -9.553   5.525  66.921  1.00  0.00    -0.127 OA 
HETATM   52  H   UNL     1     -10.171   5.582  66.202  1.00  0.00     0.000 HD 
ENDBRANCH  40  50
ENDBRANCH  37  38
ENDBRANCH  33  37
ENDBRANCH  23  24
ENDBRANCH  18  23
TORSDOF 6
ENDMDL
MODEL       77
REMARK 921   NORMALIZED FREE ENERGY PREDICTED BY IDOCK:   -5.46 KCAL/MOL
REMARK 922        TOTAL FREE ENERGY PREDICTED BY IDOCK:   -9.36 KCAL/MOL
REMARK 923 INTER-LIGAND FREE ENERGY PREDICTED BY IDOCK:   -8.75 KCAL/MOL
REMARK 924 INTRA-LIGAND FREE ENERGY PREDICTED BY IDOCK:   -0.61 KCAL/MOL
REMARK 927      BINDING AFFINITY PREDICTED BY RF-SCORE:    0.00 PKD
ROOT
HETATM    1  C   UNL     1     -11.769  14.736  65.750  1.00  0.00    -0.252 C  
HETATM    2  C   UNL     1     -11.125  14.614  67.187  1.00  0.00    -0.328 C  
HETATM    3  C   UNL     1     -12.236  14.857  68.207  1.00  0.00    -0.015 C  
HETATM    4  C   UNL     1     -11.665  14.950  69.608  1.00  0.00    -0.356 C  
HETATM    5  C   UNL     1     -10.814  16.181  69.812  1.00  0.00    -0.333 C  
HETATM    6  C   UNL     1      -9.894  16.655  68.639  1.00  0.00    -0.252 C  
HETATM    7  C   UNL     1     -10.099  15.826  67.261  1.00  0.00    -0.247 C  
HETATM    8  C   UNL     1      -8.397  16.677  69.061  1.00  0.00    -0.182 C  
HETATM    9  C   UNL     1     -10.177  18.207  68.663  1.00  0.00    -0.366 C  
HETATM   10  O   UNL     1      -9.969  18.889  69.673  1.00  0.00    -0.006 OA 
HETATM   11  O   UNL     1     -10.666  18.813  67.581  1.00  0.00    -0.429 OA 
HETATM   12  C   UNL     1      -8.865  15.496  66.396  1.00  0.00    -0.359 C  
HETATM   13  C   UNL     1      -8.287  14.111  66.601  1.00  0.00     0.205 C  
HETATM   14  C   UNL     1      -9.197  12.877  66.568  1.00  0.00    -0.186 C  
HETATM   15  C   UNL     1      -9.413  12.133  65.234  1.00  0.00     0.011 C  
HETATM   16  C   UNL     1      -9.590  10.680  65.688  1.00  0.00    -0.268 C  
HETATM   17  C   UNL     1      -9.904   9.697  64.833  1.00  0.00    -0.067 C  
HETATM   18  C   UNL     1      -9.205  10.519  67.179  1.00  0.00    -0.143 C  
HETATM   19  C   UNL     1     -10.416  10.677  68.127  1.00  0.00    -0.215 C  
HETATM   20  C   UNL     1     -10.589  13.097  67.236  1.00  0.00    -0.250 C  
HETATM   21  C   UNL     1      -8.370  11.776  67.271  1.00  0.00    -0.162 C  
HETATM   22  C   UNL     1     -10.733  12.167  68.474  1.00  0.00    -0.257 C  
ENDROOT
BRANCH  18  23
HETATM   23  O   UNL     1      -8.476   9.301  67.313  1.00  0.00    -0.123 OA 
BRANCH  23  24
HETATM   24  C   UNL     1      -8.105   8.718  68.577  1.00  0.00    -0.116 C  
HETATM   25  O   UNL     1      -6.933   9.362  69.098  1.00  0.00    -0.056 OA 
HETATM   26  C   UNL     1      -6.645   8.964  70.451  1.00  0.00    -0.045 C  
HETATM   27  C   UNL     1      -6.248   7.496  70.450  1.00  0.00    -0.034 C  
HETATM   28  H   UNL     1      -7.477   4.801  69.276  1.00  0.00     0.000 HD 
HETATM   29  C   UNL     1      -7.381   6.626  69.913  1.00  0.00    -0.086 C  
HETATM   30  H   UNL     1      -5.641   6.100  71.751  1.00  0.00     0.000 HD 
HETATM   31  O   UNL     1      -5.888   7.017  71.752  1.00  0.00    -0.037 OA 
HETATM   32  O   UNL     1      -6.771   5.342  69.610  1.00  0.00    -0.050 OA 
HETATM   33  C   UNL     1      -8.049   7.159  68.637  1.00  0.00    -0.124 C  
BRANCH  26  34
HETATM   34  C   UNL     1      -5.494   9.827  70.984  1.00  0.00    -0.067 C  
HETATM   35  H   UNL     1      -5.280  11.633  71.724  1.00  0.00     0.000 HD 
HETATM   36  O   UNL     1      -5.993  11.099  71.394  1.00  0.00    -0.329 OA 
ENDBRANCH  26  34
BRANCH  33  37
HETATM   37  O   UNL     1      -9.396   6.665  68.434  1.00  0.00    -0.126 OA 
BRANCH  37  38
HETATM   38  C   UNL     1     -10.348   6.706  69.513  1.00  0.00    -0.202 C  
HETATM   39  O   UNL     1     -10.635   8.054  69.831  1.00  0.00    -0.236 OA 
HETATM   40  C   UNL     1     -11.446   8.314  70.974  1.00  0.00    -0.275 C  
HETATM   41  C   UNL     1     -11.034   7.534  72.228  1.00  0.00    -0.262 C  
HETATM   42  H   UNL     1      -9.831   3.891  71.134  1.00  0.00     0.000 HD 
HETATM   43  O   UNL     1     -10.074   4.433  70.392  1.00  0.00    -0.209 OA 
HETATM   44  O   UNL     1     -12.035   7.679  73.241  1.00  0.00    -0.529 OA 
HETATM   45  C   UNL     1     -10.868   6.059  71.911  1.00  0.00    -0.254 C  
HETATM   46  H   UNL     1     -10.234   4.437  72.861  1.00  0.00     0.000 HD 
HETATM   47  O   UNL     1     -10.339   5.360  73.059  1.00  0.00    -0.178 OA 
HETATM   48  H   UNL     1     -11.781   7.196  74.019  1.00  0.00     0.000 HD 
HETATM   49  C   UNL     1      -9.953   5.828  70.718  1.00  0.00    -0.193 C  
BRANCH  40  50
HETATM   50  C   UNL     1     -11.319   9.823  71.260  1.00  0.00    -0.375 C  
HETATM   51  O   UNL     1     -12.514  10.372  71.821  1.00  0.00    -0.390 OA 
HETATM   52  H   UNL     1     -12.435  11.303  71.996  1.00  0.00     0.000 HD 
ENDBRANCH  40  50
ENDBRANCH  37  38
ENDBRANCH  33  37
ENDBRANCH  23  24
ENDBRANCH  18  23
TORSDOF 6
ENDMDL
MODEL       78
REMARK 921   NORMALIZED FREE ENERGY PREDICTED BY IDOCK:   -5.41 KCAL/MOL
REMARK 922        TOTAL FREE ENERGY PREDICTED BY IDOCK:   -9.29 KCAL/MOL
REMARK 923 INTER-LIGAND FREE ENERGY PREDICTED BY IDOCK:   -7.74 KCAL/MOL
REMARK 924 INTRA-LIGAND FREE ENERGY PREDICTED BY IDOCK:   -1.55 KCAL/MOL
REMARK 927      BINDING AFFINITY PREDICTED BY RF-SCORE:    0.00 PKD
ROOT
HETATM    1  C   UNL     1      -5.135   6.614  65.887  1.00  0.00    -0.017 C  
HETATM    2  C   UNL     1      -6.460   6.349  66.705  1.00  0.00    -0.047 C  
HETATM    3  C   UNL     1      -6.150   5.271  67.741  1.00  0.00    -0.026 C  
HETATM    4  C   UNL     1      -7.418   4.820  68.438  1.00  0.00    -0.069 C  
HETATM    5  C   UNL     1      -8.356   4.072  67.520  1.00  0.00    -0.098 C  
HETATM    6  C   UNL     1      -8.497   4.559  66.040  1.00  0.00    -0.114 C  
HETATM    7  C   UNL     1      -7.467   5.743  65.632  1.00  0.00    -0.077 C  
HETATM    8  C   UNL     1      -9.964   4.955  65.707  1.00  0.00    -0.191 C  
HETATM    9  C   UNL     1      -8.436   3.180  65.279  1.00  0.00    -0.101 C  
HETATM   10  O   UNL     1      -9.247   2.275  65.510  1.00  0.00    -0.119 OA 
HETATM   11  O   UNL     1      -7.488   2.960  64.367  1.00  0.00    -0.071 OA 
HETATM   12  C   UNL     1      -7.957   6.874  64.705  1.00  0.00    -0.119 C  
HETATM   13  C   UNL     1      -8.405   8.137  65.410  1.00  0.00    -0.163 C  
HETATM   14  C   UNL     1      -7.514   8.790  66.476  1.00  0.00    -0.085 C  
HETATM   15  C   UNL     1      -6.509   9.881  66.054  1.00  0.00    -0.084 C  
HETATM   16  C   UNL     1      -6.472  10.793  67.285  1.00  0.00    -0.070 C  
HETATM   17  C   UNL     1      -5.632  11.832  67.380  1.00  0.00    -0.100 C  
HETATM   18  C   UNL     1      -7.611  10.434  68.269  1.00  0.00    -0.095 C  
HETATM   19  C   UNL     1      -7.170   9.416  69.346  1.00  0.00    -0.066 C  
HETATM   20  C   UNL     1      -6.773   7.771  67.393  1.00  0.00    -0.068 C  
HETATM   21  C   UNL     1      -8.476   9.708  67.264  1.00  0.00    -0.132 C  
HETATM   22  C   UNL     1      -7.258   7.933  68.862  1.00  0.00    -0.076 C  
ENDROOT
BRANCH  18  23
HETATM   23  O   UNL     1      -8.160  11.652  68.767  1.00  0.00    -0.140 OA 
BRANCH  23  24
HETATM   24  C   UNL     1      -8.912  12.584  67.967  1.00  0.00    -0.192 C  
HETATM   25  O   UNL     1      -8.228  13.844  67.895  1.00  0.00    -0.138 OA 
HETATM   26  C   UNL     1      -8.826  14.739  66.939  1.00  0.00    -0.248 C  
HETATM   27  C   UNL     1     -10.205  15.134  67.444  1.00  0.00    -0.235 C  
HETATM   28  H   UNL     1     -12.776  13.584  68.513  1.00  0.00     0.000 HD 
HETATM   29  C   UNL     1     -11.101  13.909  67.598  1.00  0.00    -0.277 C  
HETATM   30  H   UNL     1     -11.726  16.318  66.898  1.00  0.00     0.000 HD 
HETATM   31  O   UNL     1     -10.865  16.071  66.583  1.00  0.00    -0.285 OA 
HETATM   32  O   UNL     1     -12.218  14.347  68.418  1.00  0.00    -0.275 OA 
HETATM   33  C   UNL     1     -10.435  12.710  68.287  1.00  0.00    -0.239 C  
BRANCH  26  34
HETATM   34  C   UNL     1      -7.935  15.979  66.798  1.00  0.00    -0.267 C  
HETATM   35  H   UNL     1      -7.226  17.377  67.981  1.00  0.00     0.000 HD 
HETATM   36  O   UNL     1      -7.778  16.609  68.068  1.00  0.00    -0.158 OA 
ENDBRANCH  26  34
BRANCH  33  37
HETATM   37  O   UNL     1     -11.053  11.438  67.971  1.00  0.00    -0.219 OA 
BRANCH  37  38
HETATM   38  C   UNL     1     -11.793  10.727  68.981  1.00  0.00    -0.254 C  
HETATM   39  O   UNL     1     -12.363  11.655  69.883  1.00  0.00    -0.239 OA 
HETATM   40  C   UNL     1     -13.014  11.146  71.044  1.00  0.00    -0.245 C  
HETATM   41  C   UNL     1     -12.215  10.075  71.795  1.00  0.00    -0.296 C  
HETATM   42  H   UNL     1     -10.307   7.796  69.135  1.00  0.00     0.000 HD 
HETATM   43  O   UNL     1     -10.800   8.498  68.726  1.00  0.00    -0.108 OA 
HETATM   44  O   UNL     1     -13.039   9.466  72.795  1.00  0.00    -0.483 OA 
HETATM   45  C   UNL     1     -11.728   9.001  70.840  1.00  0.00    -0.276 C  
HETATM   46  H   UNL     1     -10.550   7.409  70.933  1.00  0.00     0.000 HD 
HETATM   47  O   UNL     1     -10.855   8.081  71.531  1.00  0.00    -0.225 OA 
HETATM   48  H   UNL     1     -12.545   8.802  73.262  1.00  0.00     0.000 HD 
HETATM   49  C   UNL     1     -10.993   9.587  69.644  1.00  0.00    -0.212 C  
BRANCH  40  50
HETATM   50  C   UNL     1     -13.236  12.352  71.978  1.00  0.00    -0.409 C  
HETATM   51  O   UNL     1     -13.067  13.601  71.303  1.00  0.00    -0.328 OA 
HETATM   52  H   UNL     1     -13.204  14.344  71.879  1.00  0.00     0.000 HD 
ENDBRANCH  40  50
ENDBRANCH  37  38
ENDBRANCH  33  37
ENDBRANCH  23  24
ENDBRANCH  18  23
TORSDOF 6
ENDMDL
MODEL       79
REMARK 921   NORMALIZED FREE ENERGY PREDICTED BY IDOCK:   -5.40 KCAL/MOL
REMARK 922        TOTAL FREE ENERGY PREDICTED BY IDOCK:   -9.28 KCAL/MOL
REMARK 923 INTER-LIGAND FREE ENERGY PREDICTED BY IDOCK:   -9.43 KCAL/MOL
REMARK 924 INTRA-LIGAND FREE ENERGY PREDICTED BY IDOCK:    0.15 KCAL/MOL
REMARK 927      BINDING AFFINITY PREDICTED BY RF-SCORE:    0.00 PKD
ROOT
HETATM    1  C   UNL     1     -10.446  14.130  64.933  1.00  0.00    -0.461 C  
HETATM    2  C   UNL     1     -10.602  14.047  66.502  1.00  0.00    -0.279 C  
HETATM    3  C   UNL     1     -12.011  14.526  66.846  1.00  0.00    -0.371 C  
HETATM    4  C   UNL     1     -12.178  14.662  68.346  1.00  0.00    -0.129 C  
HETATM    5  C   UNL     1     -11.346  15.781  68.928  1.00  0.00    -0.356 C  
HETATM    6  C   UNL     1      -9.912  16.023  68.351  1.00  0.00    -0.220 C  
HETATM    7  C   UNL     1      -9.559  15.112  67.056  1.00  0.00    -0.235 C  
HETATM    8  C   UNL     1      -8.822  15.879  69.450  1.00  0.00    -0.203 C  
HETATM    9  C   UNL     1      -9.920  17.594  68.217  1.00  0.00    -0.339 C  
HETATM   10  O   UNL     1     -10.117  18.327  69.193  1.00  0.00    -0.347 OA 
HETATM   11  O   UNL     1      -9.722  18.164  67.028  1.00  0.00    -0.286 OA 
HETATM   12  C   UNL     1      -8.132  14.544  66.909  1.00  0.00    -0.015 C  
HETATM   13  C   UNL     1      -7.955  13.117  67.385  1.00  0.00    -0.174 C  
HETATM   14  C   UNL     1      -8.921  12.018  66.923  1.00  0.00    -0.199 C  
HETATM   15  C   UNL     1      -8.584  11.198  65.661  1.00  0.00    -0.083 C  
HETATM   16  C   UNL     1      -9.188   9.827  65.985  1.00  0.00    -0.226 C  
HETATM   17  C   UNL     1      -9.204   8.825  65.096  1.00  0.00    -0.029 C  
HETATM   18  C   UNL     1      -9.599   9.746  67.475  1.00  0.00    -0.150 C  
HETATM   19  C   UNL     1     -11.074  10.147  67.709  1.00  0.00    -0.293 C  
HETATM   20  C   UNL     1     -10.406  12.482  66.823  1.00  0.00    -0.241 C  
HETATM   21  C   UNL     1      -8.723  10.882  67.951  1.00  0.00    -0.131 C  
HETATM   22  C   UNL     1     -11.276  11.691  67.841  1.00  0.00    -0.334 C  
ENDROOT
BRANCH  18  23
HETATM   23  O   UNL     1      -9.231   8.457  67.961  1.00  0.00    -0.137 OA 
BRANCH  23  24
HETATM   24  C   UNL     1      -9.354   8.048  69.336  1.00  0.00    -0.155 C  
HETATM   25  O   UNL     1     -10.535   8.617  69.922  1.00  0.00    -0.209 OA 
HETATM   26  C   UNL     1     -10.817   8.073  71.225  1.00  0.00    -0.232 C  
HETATM   27  C   UNL     1      -9.722   8.516  72.182  1.00  0.00    -0.317 C  
HETATM   28  H   UNL     1      -6.536   8.468  72.184  1.00  0.00     0.000 HD 
HETATM   29  C   UNL     1      -8.359   8.008  71.722  1.00  0.00    -0.127 C  
HETATM   30  H   UNL     1      -9.259   8.343  74.122  1.00  0.00     0.000 HD 
HETATM   31  O   UNL     1      -9.943   8.067  73.525  1.00  0.00    -0.244 OA 
HETATM   32  O   UNL     1      -7.385   8.785  72.471  1.00  0.00    -0.323 OA 
HETATM   33  C   UNL     1      -8.077   8.191  70.225  1.00  0.00    -0.109 C  
BRANCH  26  34
HETATM   34  C   UNL     1     -12.180   8.598  71.694  1.00  0.00    -0.333 C  
HETATM   35  H   UNL     1     -13.072  10.341  71.837  1.00  0.00     0.000 HD 
HETATM   36  O   UNL     1     -12.229  10.016  71.546  1.00  0.00    -0.373 OA 
ENDBRANCH  26  34
BRANCH  33  37
HETATM   37  O   UNL     1      -7.079   7.280  69.703  1.00  0.00    -0.069 OA 
BRANCH  37  38
HETATM   38  C   UNL     1      -7.461   5.958  69.279  1.00  0.00    -0.084 C  
HETATM   39  O   UNL     1      -8.038   6.030  67.990  1.00  0.00    -0.108 OA 
HETATM   40  C   UNL     1      -8.619   4.846  67.450  1.00  0.00    -0.104 C  
HETATM   41  C   UNL     1      -9.542   4.099  68.419  1.00  0.00    -0.125 C  
HETATM   42  H   UNL     1      -8.016   4.353  72.096  1.00  0.00     0.000 HD 
HETATM   43  O   UNL     1      -7.497   4.823  71.453  1.00  0.00    -0.072 OA 
HETATM   44  O   UNL     1      -9.885   2.819  67.876  1.00  0.00    -0.247 OA 
HETATM   45  C   UNL     1      -8.860   3.897  69.760  1.00  0.00    -0.087 C  
HETATM   46  H   UNL     1      -9.363   3.201  71.548  1.00  0.00     0.000 HD 
HETATM   47  O   UNL     1      -9.789   3.327  70.709  1.00  0.00    -0.150 OA 
HETATM   48  H   UNL     1     -10.457   2.356  68.477  1.00  0.00     0.000 HD 
HETATM   49  C   UNL     1      -8.303   5.195  70.322  1.00  0.00    -0.097 C  
BRANCH  40  50
HETATM   50  C   UNL     1      -9.436   5.287  66.220  1.00  0.00    -0.156 C  
HETATM   51  O   UNL     1     -10.843   5.292  66.476  1.00  0.00    -0.469 OA 
HETATM   52  H   UNL     1     -11.346   5.564  65.717  1.00  0.00     0.000 HD 
ENDBRANCH  40  50
ENDBRANCH  37  38
ENDBRANCH  33  37
ENDBRANCH  23  24
ENDBRANCH  18  23
TORSDOF 6
ENDMDL
MODEL       80
REMARK 921   NORMALIZED FREE ENERGY PREDICTED BY IDOCK:   -5.40 KCAL/MOL
REMARK 922        TOTAL FREE ENERGY PREDICTED BY IDOCK:   -9.27 KCAL/MOL
REMARK 923 INTER-LIGAND FREE ENERGY PREDICTED BY IDOCK:   -7.47 KCAL/MOL
REMARK 924 INTRA-LIGAND FREE ENERGY PREDICTED BY IDOCK:   -1.80 KCAL/MOL
REMARK 927      BINDING AFFINITY PREDICTED BY RF-SCORE:    0.00 PKD
ROOT
HETATM    1  C   UNL     1      -5.341   5.619  65.277  1.00  0.00    -0.010 C  
HETATM    2  C   UNL     1      -6.659   5.152  66.011  1.00  0.00    -0.048 C  
HETATM    3  C   UNL     1      -6.335   3.855  66.749  1.00  0.00    -0.036 C  
HETATM    4  C   UNL     1      -7.595   3.236  67.320  1.00  0.00    -0.074 C  
HETATM    5  C   UNL     1      -8.534   2.729  66.251  1.00  0.00    -0.103 C  
HETATM    6  C   UNL     1      -8.689   3.564  64.937  1.00  0.00    -0.115 C  
HETATM    7  C   UNL     1      -7.669   4.820  64.828  1.00  0.00    -0.078 C  
HETATM    8  C   UNL     1     -10.160   4.019  64.718  1.00  0.00    -0.222 C  
HETATM    9  C   UNL     1      -8.624   2.415  63.859  1.00  0.00    -0.086 C  
HETATM   10  O   UNL     1      -9.427   1.474  63.865  1.00  0.00    -0.111 OA 
HETATM   11  O   UNL     1      -7.681   2.434  62.917  1.00  0.00    -0.056 OA 
HETATM   12  C   UNL     1      -8.172   6.141  64.209  1.00  0.00    -0.044 C  
HETATM   13  C   UNL     1      -8.623   7.188  65.206  1.00  0.00    -0.000 C  
HETATM   14  C   UNL     1      -7.729   7.565  66.394  1.00  0.00    -0.089 C  
HETATM   15  C   UNL     1      -6.734   8.735  66.249  1.00  0.00    -0.073 C  
HETATM   16  C   UNL     1      -6.694   9.316  67.667  1.00  0.00    -0.068 C  
HETATM   17  C   UNL     1      -5.861  10.307  68.010  1.00  0.00    -0.041 C  
HETATM   18  C   UNL     1      -7.825   8.717  68.538  1.00  0.00    -0.108 C  
HETATM   19  C   UNL     1      -7.370   7.469  69.329  1.00  0.00    -0.089 C  
HETATM   20  C   UNL     1      -6.976   6.358  67.029  1.00  0.00    -0.071 C  
HETATM   21  C   UNL     1      -8.691   8.254  67.389  1.00  0.00    -0.125 C  
HETATM   22  C   UNL     1      -7.452   6.150  68.496  1.00  0.00    -0.087 C  
ENDROOT
BRANCH  18  23
HETATM   23  O   UNL     1      -8.378   9.771  69.322  1.00  0.00    -0.120 OA 
BRANCH  23  24
HETATM   24  C   UNL     1      -9.541  10.532  68.946  1.00  0.00    -0.193 C  
HETATM   25  O   UNL     1      -9.155  11.816  68.435  1.00  0.00    -0.185 OA 
HETATM   26  C   UNL     1     -10.260  12.529  67.850  1.00  0.00    -0.219 C  
HETATM   27  C   UNL     1     -11.241  12.890  68.955  1.00  0.00    -0.279 C  
HETATM   28  H   UNL     1     -12.710  11.320  71.306  1.00  0.00     0.000 HD 
HETATM   29  C   UNL     1     -11.774  11.636  69.642  1.00  0.00    -0.350 C  
HETATM   30  H   UNL     1     -12.969  13.879  69.168  1.00  0.00     0.000 HD 
HETATM   31  O   UNL     1     -12.357  13.654  68.479  1.00  0.00    -0.248 OA 
HETATM   32  O   UNL     1     -12.379  12.101  70.878  1.00  0.00    -0.373 OA 
HETATM   33  C   UNL     1     -10.704  10.591  69.988  1.00  0.00    -0.224 C  
BRANCH  26  34
HETATM   34  C   UNL     1      -9.726  13.799  67.175  1.00  0.00    -0.244 C  
HETATM   35  H   UNL     1      -9.948  14.705  65.448  1.00  0.00     0.000 HD 
HETATM   36  O   UNL     1     -10.278  13.919  65.866  1.00  0.00    -0.297 OA 
ENDBRANCH  26  34
BRANCH  33  37
HETATM   37  O   UNL     1     -11.227   9.248  70.135  1.00  0.00    -0.248 OA 
BRANCH  37  38
HETATM   38  C   UNL     1     -11.172   8.590  71.414  1.00  0.00    -0.266 C  
HETATM   39  O   UNL     1      -9.884   8.762  71.973  1.00  0.00    -0.300 OA 
HETATM   40  C   UNL     1      -9.576   8.060  73.174  1.00  0.00    -0.274 C  
HETATM   41  C   UNL     1      -9.967   6.578  73.154  1.00  0.00    -0.178 C  
HETATM   42  H   UNL     1     -13.402   6.184  71.164  1.00  0.00     0.000 HD 
HETATM   43  O   UNL     1     -13.094   7.083  71.186  1.00  0.00    -0.345 OA 
HETATM   44  O   UNL     1      -9.837   6.024  74.468  1.00  0.00    -0.220 OA 
HETATM   45  C   UNL     1     -11.402   6.409  72.690  1.00  0.00    -0.231 C  
HETATM   46  H   UNL     1     -12.609   4.900  72.244  1.00  0.00     0.000 HD 
HETATM   47  O   UNL     1     -11.712   5.006  72.534  1.00  0.00    -0.052 OA 
HETATM   48  H   UNL     1     -10.079   5.105  74.457  1.00  0.00     0.000 HD 
HETATM   49  C   UNL     1     -11.671   7.130  71.379  1.00  0.00    -0.296 C  
BRANCH  40  50
HETATM   50  C   UNL     1      -8.051   8.173  73.361  1.00  0.00    -0.194 C  
HETATM   51  O   UNL     1      -7.700   8.883  74.551  1.00  0.00    -0.403 OA 
HETATM   52  H   UNL     1      -6.759   8.953  74.666  1.00  0.00     0.000 HD 
ENDBRANCH  40  50
ENDBRANCH  37  38
ENDBRANCH  33  37
ENDBRANCH  23  24
ENDBRANCH  18  23
TORSDOF 6
ENDMDL
MODEL       81
REMARK 921   NORMALIZED FREE ENERGY PREDICTED BY IDOCK:   -5.37 KCAL/MOL
REMARK 922        TOTAL FREE ENERGY PREDICTED BY IDOCK:   -9.23 KCAL/MOL
REMARK 923 INTER-LIGAND FREE ENERGY PREDICTED BY IDOCK:   -8.89 KCAL/MOL
REMARK 924 INTRA-LIGAND FREE ENERGY PREDICTED BY IDOCK:   -0.34 KCAL/MOL
REMARK 927      BINDING AFFINITY PREDICTED BY RF-SCORE:    0.00 PKD
ROOT
HETATM    1  C   UNL     1     -10.364   6.212  68.502  1.00  0.00    -0.248 C  
HETATM    2  C   UNL     1      -9.330   6.879  69.492  1.00  0.00    -0.147 C  
HETATM    3  C   UNL     1      -8.120   5.952  69.581  1.00  0.00    -0.106 C  
HETATM    4  C   UNL     1      -7.164   6.421  70.660  1.00  0.00    -0.074 C  
HETATM    5  C   UNL     1      -7.736   6.278  72.050  1.00  0.00    -0.096 C  
HETATM    6  C   UNL     1      -9.255   6.585  72.268  1.00  0.00    -0.138 C  
HETATM    7  C   UNL     1     -10.074   6.872  70.898  1.00  0.00    -0.207 C  
HETATM    8  C   UNL     1      -9.465   7.733  73.296  1.00  0.00    -0.344 C  
HETATM    9  C   UNL     1      -9.665   5.363  73.177  1.00  0.00    -0.149 C  
HETATM   10  O   UNL     1      -9.113   5.148  74.262  1.00  0.00    -0.115 OA 
HETATM   11  O   UNL     1     -10.621   4.524  72.777  1.00  0.00    -0.191 OA 
HETATM   12  C   UNL     1     -11.168   7.960  70.895  1.00  0.00    -0.284 C  
HETATM   13  C   UNL     1     -10.730   9.312  70.372  1.00  0.00    -0.300 C  
HETATM   14  C   UNL     1      -9.987   9.424  69.034  1.00  0.00    -0.182 C  
HETATM   15  C   UNL     1     -10.794   9.650  67.739  1.00  0.00    -0.278 C  
HETATM   16  C   UNL     1      -9.833  10.494  66.892  1.00  0.00    -0.235 C  
HETATM   17  C   UNL     1     -10.109  10.835  65.626  1.00  0.00    -0.327 C  
HETATM   18  C   UNL     1      -8.643  10.993  67.745  1.00  0.00    -0.130 C  
HETATM   19  C   UNL     1      -7.426  10.041  67.686  1.00  0.00    -0.090 C  
HETATM   20  C   UNL     1      -8.965   8.274  68.778  1.00  0.00    -0.144 C  
HETATM   21  C   UNL     1      -9.314  10.814  69.088  1.00  0.00    -0.141 C  
HETATM   22  C   UNL     1      -7.524   8.856  68.700  1.00  0.00    -0.088 C  
ENDROOT
BRANCH  18  23
HETATM   23  O   UNL     1      -8.380  12.346  67.379  1.00  0.00    -0.162 OA 
BRANCH  23  24
HETATM   24  C   UNL     1      -9.117  13.476  67.883  1.00  0.00    -0.204 C  
HETATM   25  O   UNL     1     -10.311  13.036  68.547  1.00  0.00    -0.250 OA 
HETATM   26  C   UNL     1     -10.973  14.104  69.249  1.00  0.00    -0.220 C  
HETATM   27  C   UNL     1     -11.504  15.098  68.229  1.00  0.00    -0.336 C  
HETATM   28  H   UNL     1     -10.301  16.670  65.732  1.00  0.00     0.000 HD 
HETATM   29  C   UNL     1     -10.368  15.686  67.398  1.00  0.00    -0.275 C  
HETATM   30  H   UNL     1     -12.562  16.798  68.193  1.00  0.00     0.000 HD 
HETATM   31  O   UNL     1     -12.230  16.178  68.830  1.00  0.00    -0.103 OA 
HETATM   32  O   UNL     1     -11.009  16.304  66.249  1.00  0.00    -0.162 OA 
HETATM   33  C   UNL     1      -9.347  14.659  66.889  1.00  0.00    -0.243 C  
BRANCH  26  34
HETATM   34  C   UNL     1     -12.127  13.515  70.071  1.00  0.00    -0.341 C  
HETATM   35  H   UNL     1     -12.900  13.784  71.855  1.00  0.00     0.000 HD 
HETATM   36  O   UNL     1     -12.185  14.149  71.346  1.00  0.00    -0.343 OA 
ENDBRANCH  26  34
BRANCH  33  37
HETATM   37  O   UNL     1      -8.050  15.228  66.582  1.00  0.00    -0.200 OA 
BRANCH  37  38
HETATM   38  C   UNL     1      -7.707  16.540  67.063  1.00  0.00    -0.209 C  
HETATM   39  O   UNL     1      -7.333  17.356  65.970  1.00  0.00    -0.327 OA 
HETATM   40  C   UNL     1      -6.814  18.653  66.250  1.00  0.00    -0.226 C  
HETATM   41  C   UNL     1      -5.739  18.679  67.342  1.00  0.00    -0.155 C  
HETATM   42  H   UNL     1      -6.699  16.013  70.149  1.00  0.00     0.000 HD 
HETATM   43  O   UNL     1      -7.318  16.023  69.429  1.00  0.00    -0.223 OA 
HETATM   44  O   UNL     1      -5.453  20.032  67.711  1.00  0.00    -0.188 OA 
HETATM   45  C   UNL     1      -6.206  17.922  68.571  1.00  0.00    -0.189 C  
HETATM   46  H   UNL     1      -5.424  17.353  70.303  1.00  0.00     0.000 HD 
HETATM   47  O   UNL     1      -5.132  17.827  69.533  1.00  0.00    -0.165 OA 
HETATM   48  H   UNL     1      -4.786  20.049  68.388  1.00  0.00     0.000 HD 
HETATM   49  C   UNL     1      -6.701  16.525  68.232  1.00  0.00    -0.137 C  
BRANCH  40  50
HETATM   50  C   UNL     1      -6.201  19.167  64.932  1.00  0.00    -0.260 C  
HETATM   51  O   UNL     1      -5.325  18.210  64.330  1.00  0.00     0.034 OA 
HETATM   52  H   UNL     1      -4.948  18.527  63.518  1.00  0.00     0.000 HD 
ENDBRANCH  40  50
ENDBRANCH  37  38
ENDBRANCH  33  37
ENDBRANCH  23  24
ENDBRANCH  18  23
TORSDOF 6
ENDMDL
MODEL       82
REMARK 921   NORMALIZED FREE ENERGY PREDICTED BY IDOCK:   -5.24 KCAL/MOL
REMARK 922        TOTAL FREE ENERGY PREDICTED BY IDOCK:   -9.06 KCAL/MOL
REMARK 923 INTER-LIGAND FREE ENERGY PREDICTED BY IDOCK:   -8.17 KCAL/MOL
REMARK 924 INTRA-LIGAND FREE ENERGY PREDICTED BY IDOCK:   -0.90 KCAL/MOL
REMARK 927      BINDING AFFINITY PREDICTED BY RF-SCORE:    0.00 PKD
ROOT
HETATM    1  C   UNL     1      -6.651   6.060  69.831  1.00  0.00    -0.047 C  
HETATM    2  C   UNL     1      -7.665   7.032  70.555  1.00  0.00    -0.095 C  
HETATM    3  C   UNL     1      -7.233   7.137  72.015  1.00  0.00    -0.076 C  
HETATM    4  C   UNL     1      -8.265   7.896  72.825  1.00  0.00    -0.194 C  
HETATM    5  C   UNL     1      -9.567   7.143  72.966  1.00  0.00    -0.199 C  
HETATM    6  C   UNL     1     -10.091   6.323  71.741  1.00  0.00    -0.211 C  
HETATM    7  C   UNL     1      -9.055   6.261  70.495  1.00  0.00    -0.157 C  
HETATM    8  C   UNL     1     -11.492   6.817  71.280  1.00  0.00    -0.347 C  
HETATM    9  C   UNL     1     -10.526   4.986  72.457  1.00  0.00    -0.215 C  
HETATM   10  O   UNL     1     -11.365   4.981  73.366  1.00  0.00    -0.329 OA 
HETATM   11  O   UNL     1      -9.978   3.826  72.096  1.00  0.00    -0.160 OA 
HETATM   12  C   UNL     1      -9.610   6.332  69.057  1.00  0.00    -0.138 C  
HETATM   13  C   UNL     1      -9.574   7.705  68.420  1.00  0.00    -0.155 C  
HETATM   14  C   UNL     1      -8.285   8.538  68.442  1.00  0.00    -0.123 C  
HETATM   15  C   UNL     1      -7.294   8.426  67.266  1.00  0.00    -0.085 C  
HETATM   16  C   UNL     1      -6.699   9.837  67.196  1.00  0.00    -0.075 C  
HETATM   17  C   UNL     1      -5.703  10.152  66.357  1.00  0.00    -0.060 C  
HETATM   18  C   UNL     1      -7.503  10.816  68.084  1.00  0.00    -0.091 C  
HETATM   19  C   UNL     1      -6.925  10.937  69.513  1.00  0.00    -0.131 C  
HETATM   20  C   UNL     1      -7.481   8.426  69.772  1.00  0.00    -0.072 C  
HETATM   21  C   UNL     1      -8.761   9.981  68.156  1.00  0.00    -0.122 C  
HETATM   22  C   UNL     1      -7.427   9.813  70.475  1.00  0.00    -0.119 C  
ENDROOT
BRANCH  18  23
HETATM   23  O   UNL     1      -7.636  12.044  67.372  1.00  0.00    -0.133 OA 
BRANCH  23  24
HETATM   24  C   UNL     1      -8.614  13.055  67.681  1.00  0.00    -0.190 C  
HETATM   25  O   UNL     1      -9.898  12.454  67.906  1.00  0.00    -0.191 OA 
HETATM   26  C   UNL     1     -10.859  13.392  68.425  1.00  0.00    -0.264 C  
HETATM   27  C   UNL     1     -11.156  14.424  67.348  1.00  0.00    -0.308 C  
HETATM   28  H   UNL     1      -9.424  16.315  65.457  1.00  0.00     0.000 HD 
HETATM   29  C   UNL     1      -9.892  15.182  66.956  1.00  0.00    -0.230 C  
HETATM   30  H   UNL     1     -12.334  16.021  67.079  1.00  0.00     0.000 HD 
HETATM   31  O   UNL     1     -12.149  15.377  67.751  1.00  0.00    -0.038 OA 
HETATM   32  O   UNL     1     -10.212  15.843  65.702  1.00  0.00    -0.334 OA 
HETATM   33  C   UNL     1      -8.656  14.299  66.737  1.00  0.00    -0.084 C  
BRANCH  26  34
HETATM   34  C   UNL     1     -12.137  12.631  68.803  1.00  0.00    -0.114 C  
HETATM   35  H   UNL     1     -12.811  10.795  68.644  1.00  0.00     0.000 HD 
HETATM   36  O   UNL     1     -12.020  11.265  68.410  1.00  0.00    -0.555 OA 
ENDBRANCH  26  34
BRANCH  33  37
HETATM   37  O   UNL     1      -7.400  15.004  66.889  1.00  0.00    -0.098 OA 
BRANCH  37  38
HETATM   38  C   UNL     1      -7.365  16.275  67.565  1.00  0.00    -0.151 C  
HETATM   39  O   UNL     1      -7.176  17.305  66.615  1.00  0.00    -0.191 OA 
HETATM   40  C   UNL     1      -6.965  18.629  67.096  1.00  0.00    -0.203 C  
HETATM   41  C   UNL     1      -5.932  18.732  68.223  1.00  0.00    -0.210 C  
HETATM   42  H   UNL     1      -6.288  15.537  70.585  1.00  0.00     0.000 HD 
HETATM   43  O   UNL     1      -6.888  15.514  69.848  1.00  0.00    -0.167 OA 
HETATM   44  O   UNL     1      -5.962  20.045  68.792  1.00  0.00    -0.245 OA 
HETATM   45  C   UNL     1      -6.226  17.718  69.314  1.00  0.00    -0.239 C  
HETATM   46  H   UNL     1      -5.350  17.088  70.978  1.00  0.00     0.000 HD 
HETATM   47  O   UNL     1      -5.166  17.723  70.295  1.00  0.00    -0.207 OA 
HETATM   48  H   UNL     1      -5.321  20.110  69.491  1.00  0.00     0.000 HD 
HETATM   49  C   UNL     1      -6.391  16.311  68.761  1.00  0.00    -0.125 C  
BRANCH  40  50
HETATM   50  C   UNL     1      -6.473  19.453  65.890  1.00  0.00    -0.218 C  
HETATM   51  O   UNL     1      -6.327  18.658  64.711  1.00  0.00    -0.471 OA 
HETATM   52  H   UNL     1      -6.024  19.167  63.968  1.00  0.00     0.000 HD 
ENDBRANCH  40  50
ENDBRANCH  37  38
ENDBRANCH  33  37
ENDBRANCH  23  24
ENDBRANCH  18  23
TORSDOF 6
ENDMDL
MODEL       83
REMARK 921   NORMALIZED FREE ENERGY PREDICTED BY IDOCK:   -5.21 KCAL/MOL
REMARK 922        TOTAL FREE ENERGY PREDICTED BY IDOCK:   -9.02 KCAL/MOL
REMARK 923 INTER-LIGAND FREE ENERGY PREDICTED BY IDOCK:   -8.14 KCAL/MOL
REMARK 924 INTRA-LIGAND FREE ENERGY PREDICTED BY IDOCK:   -0.89 KCAL/MOL
REMARK 927      BINDING AFFINITY PREDICTED BY RF-SCORE:    0.00 PKD
ROOT
HETATM    1  C   UNL     1      -6.328  18.047  69.830  1.00  0.00    -0.118 C  
HETATM    2  C   UNL     1      -6.724  17.466  68.415  1.00  0.00    -0.187 C  
HETATM    3  C   UNL     1      -5.857  18.169  67.374  1.00  0.00    -0.151 C  
HETATM    4  C   UNL     1      -6.308  17.811  65.972  1.00  0.00    -0.269 C  
HETATM    5  C   UNL     1      -7.670  18.371  65.635  1.00  0.00     0.158 C  
HETATM    6  C   UNL     1      -8.767  18.387  66.750  1.00  0.00    -0.284 C  
HETATM    7  C   UNL     1      -8.232  17.929  68.211  1.00  0.00    -0.292 C  
HETATM    8  C   UNL     1     -10.019  17.566  66.330  1.00  0.00    -0.330 C  
HETATM    9  C   UNL     1      -9.350  19.839  66.556  1.00  0.00    -0.394 C  
HETATM   10  O   UNL     1      -9.831  20.207  65.477  1.00  0.00    -0.252 OA 
HETATM   11  O   UNL     1      -9.322  20.711  67.564  1.00  0.00    -0.375 OA 
HETATM   12  C   UNL     1      -9.149  17.072  69.108  1.00  0.00    -0.058 C  
HETATM   13  C   UNL     1      -8.890  15.581  69.057  1.00  0.00    -0.242 C  
HETATM   14  C   UNL     1      -7.466  15.034  69.224  1.00  0.00    -0.188 C  
HETATM   15  C   UNL     1      -6.965  14.650  70.631  1.00  0.00     0.461 C  
HETATM   16  C   UNL     1      -6.018  13.481  70.339  1.00  0.00    -0.140 C  
HETATM   17  C   UNL     1      -5.279  12.903  71.296  1.00  0.00    -0.172 C  
HETATM   18  C   UNL     1      -6.172  13.001  68.876  1.00  0.00    -0.088 C  
HETATM   19  C   UNL     1      -5.178  13.692  67.914  1.00  0.00    -0.083 C  
HETATM   20  C   UNL     1      -6.369  15.901  68.534  1.00  0.00    -0.111 C  
HETATM   21  C   UNL     1      -7.540  13.602  68.647  1.00  0.00    -0.115 C  
HETATM   22  C   UNL     1      -5.681  15.081  67.405  1.00  0.00     0.224 C  
ENDROOT
BRANCH  18  23
HETATM   23  O   UNL     1      -6.133  11.575  68.876  1.00  0.00    -0.048 OA 
BRANCH  23  24
HETATM   24  C   UNL     1      -6.943  10.746  68.024  1.00  0.00    -0.073 C  
HETATM   25  O   UNL     1      -6.554  10.910  66.652  1.00  0.00    -0.100 OA 
HETATM   26  C   UNL     1      -7.186   9.951  65.784  1.00  0.00    -0.110 C  
HETATM   27  C   UNL     1      -8.678  10.242  65.746  1.00  0.00    -0.156 C  
HETATM   28  H   UNL     1     -10.970  10.701  67.911  1.00  0.00     0.000 HD 
HETATM   29  C   UNL     1      -9.292  10.125  67.137  1.00  0.00    -0.153 C  
HETATM   30  H   UNL     1     -10.324   9.551  64.838  1.00  0.00     0.000 HD 
HETATM   31  O   UNL     1      -9.392   9.369  64.861  1.00  0.00    -0.242 OA 
HETATM   32  O   UNL     1     -10.588  10.774  67.044  1.00  0.00    -0.235 OA 
HETATM   33  C   UNL     1      -8.487  10.806  68.253  1.00  0.00    -0.130 C  
BRANCH  26  34
HETATM   34  C   UNL     1      -6.581  10.082  64.380  1.00  0.00    -0.130 C  
HETATM   35  H   UNL     1      -5.651   8.913  63.106  1.00  0.00     0.000 HD 
HETATM   36  O   UNL     1      -6.026   8.832  63.975  1.00  0.00    -0.070 OA 
ENDBRANCH  26  34
BRANCH  33  37
HETATM   37  O   UNL     1      -8.753  10.272  69.574  1.00  0.00    -0.175 OA 
BRANCH  37  38
HETATM   38  C   UNL     1     -10.078   9.828  69.917  1.00  0.00    -0.251 C  
HETATM   39  O   UNL     1     -10.914  10.953  70.106  1.00  0.00    -0.230 OA 
HETATM   40  C   UNL     1     -12.233  10.731  70.597  1.00  0.00    -0.379 C  
HETATM   41  C   UNL     1     -12.305   9.791  71.806  1.00  0.00    -0.386 C  
HETATM   42  H   UNL     1      -9.587   6.907  71.349  1.00  0.00     0.000 HD 
HETATM   43  O   UNL     1      -9.570   7.539  70.640  1.00  0.00    -0.171 OA 
HETATM   44  O   UNL     1     -13.669   9.449  72.075  1.00  0.00    -0.405 OA 
HETATM   45  C   UNL     1     -11.523   8.517  71.541  1.00  0.00    -0.287 C  
HETATM   46  H   UNL     1     -10.983   6.910  72.570  1.00  0.00     0.000 HD 
HETATM   47  O   UNL     1     -11.473   7.707  72.735  1.00  0.00    -0.355 OA 
HETATM   48  H   UNL     1     -13.714   8.866  72.824  1.00  0.00     0.000 HD 
HETATM   49  C   UNL     1     -10.105   8.802  71.069  1.00  0.00    -0.237 C  
BRANCH  40  50
HETATM   50  C   UNL     1     -12.779  12.113  71.006  1.00  0.00    -0.228 C  
HETATM   51  O   UNL     1     -13.312  12.117  72.333  1.00  0.00    -0.582 OA 
HETATM   52  H   UNL     1     -13.649  12.969  72.584  1.00  0.00     0.000 HD 
ENDBRANCH  40  50
ENDBRANCH  37  38
ENDBRANCH  33  37
ENDBRANCH  23  24
ENDBRANCH  18  23
TORSDOF 6
ENDMDL
MODEL       84
REMARK 921   NORMALIZED FREE ENERGY PREDICTED BY IDOCK:   -5.19 KCAL/MOL
REMARK 922        TOTAL FREE ENERGY PREDICTED BY IDOCK:   -8.99 KCAL/MOL
REMARK 923 INTER-LIGAND FREE ENERGY PREDICTED BY IDOCK:   -8.19 KCAL/MOL
REMARK 924 INTRA-LIGAND FREE ENERGY PREDICTED BY IDOCK:   -0.80 KCAL/MOL
REMARK 927      BINDING AFFINITY PREDICTED BY RF-SCORE:    0.00 PKD
ROOT
HETATM    1  C   UNL     1     -11.451  12.921  69.672  1.00  0.00    -0.251 C  
HETATM    2  C   UNL     1     -10.531  12.780  68.396  1.00  0.00    -0.253 C  
HETATM    3  C   UNL     1      -9.916  14.151  68.122  1.00  0.00    -0.232 C  
HETATM    4  C   UNL     1      -9.173  14.150  66.802  1.00  0.00    -0.282 C  
HETATM    5  C   UNL     1     -10.093  14.007  65.613  1.00  0.00    -0.342 C  
HETATM    6  C   UNL     1     -11.324  13.048  65.732  1.00  0.00    -0.331 C  
HETATM    7  C   UNL     1     -11.544  12.437  67.219  1.00  0.00    -0.435 C  
HETATM    8  C   UNL     1     -11.274  11.918  64.665  1.00  0.00    -0.364 C  
HETATM    9  C   UNL     1     -12.448  13.946  65.087  1.00  0.00    -0.453 C  
HETATM   10  O   UNL     1     -12.351  14.376  63.931  1.00  0.00    -0.720 OA 
HETATM   11  O   UNL     1     -13.532  14.271  65.793  1.00  0.00    -0.355 OA 
HETATM   12  C   UNL     1     -12.010  10.974  67.364  1.00  0.00     0.583 C  
HETATM   13  C   UNL     1     -10.906   9.968  67.616  1.00  0.00    -0.336 C  
HETATM   14  C   UNL     1      -9.866  10.216  68.717  1.00  0.00    -0.180 C  
HETATM   15  C   UNL     1     -10.122   9.664  70.135  1.00  0.00    -0.311 C  
HETATM   16  C   UNL     1      -8.706   9.351  70.630  1.00  0.00    -0.263 C  
HETATM   17  C   UNL     1      -8.461   8.935  71.880  1.00  0.00    -0.038 C  
HETATM   18  C   UNL     1      -7.687   9.431  69.467  1.00  0.00    -0.089 C  
HETATM   19  C   UNL     1      -7.039  10.829  69.337  1.00  0.00    -0.122 C  
HETATM   20  C   UNL     1      -9.421  11.704  68.845  1.00  0.00     0.014 C  
HETATM   21  C   UNL     1      -8.696   9.276  68.352  1.00  0.00    -0.129 C  
HETATM   22  C   UNL     1      -7.906  11.833  68.512  1.00  0.00    -0.144 C  
ENDROOT
BRANCH  18  23
HETATM   23  O   UNL     1      -6.775   8.344  69.610  1.00  0.00    -0.036 OA 
BRANCH  23  24
HETATM   24  C   UNL     1      -7.116   6.967  69.364  1.00  0.00    -0.079 C  
HETATM   25  O   UNL     1      -7.211   6.248  70.603  1.00  0.00    -0.070 OA 
HETATM   26  C   UNL     1      -7.755   4.927  70.430  1.00  0.00    -0.062 C  
HETATM   27  C   UNL     1      -6.760   4.095  69.636  1.00  0.00    -0.037 C  
HETATM   28  H   UNL     1      -5.150   4.449  66.910  1.00  0.00     0.000 HD 
HETATM   29  C   UNL     1      -6.511   4.708  68.262  1.00  0.00    -0.038 C  
HETATM   30  H   UNL     1      -6.567   2.219  68.961  1.00  0.00     0.000 HD 
HETATM   31  O   UNL     1      -7.188   2.739  69.456  1.00  0.00    -0.043 OA 
HETATM   32  O   UNL     1      -5.305   4.067  67.766  1.00  0.00    -0.014 OA 
HETATM   33  C   UNL     1      -6.286   6.226  68.268  1.00  0.00    -0.047 C  
BRANCH  26  34
HETATM   34  C   UNL     1      -7.988   4.304  71.813  1.00  0.00    -0.087 C  
HETATM   35  H   UNL     1      -7.536   4.735  73.673  1.00  0.00     0.000 HD 
HETATM   36  O   UNL     1      -7.391   5.121  72.818  1.00  0.00    -0.089 OA 
ENDBRANCH  26  34
BRANCH  33  37
HETATM   37  O   UNL     1      -6.574   6.864  66.999  1.00  0.00    -0.044 OA 
BRANCH  37  38
HETATM   38  C   UNL     1      -7.806   6.576  66.311  1.00  0.00    -0.105 C  
HETATM   39  O   UNL     1      -8.837   6.388  67.260  1.00  0.00    -0.110 OA 
HETATM   40  C   UNL     1     -10.107   5.947  66.789  1.00  0.00    -0.192 C  
HETATM   41  C   UNL     1     -10.042   4.766  65.814  1.00  0.00    -0.214 C  
HETATM   42  H   UNL     1      -6.834   5.203  63.484  1.00  0.00     0.000 HD 
HETATM   43  O   UNL     1      -6.912   5.895  64.131  1.00  0.00    -0.048 OA 
HETATM   44  O   UNL     1     -11.328   4.551  65.223  1.00  0.00    -1.003 OA 
HETATM   45  C   UNL     1      -9.034   5.036  64.712  1.00  0.00    -0.094 C  
HETATM   46  H   UNL     1      -8.242   4.031  63.197  1.00  0.00     0.000 HD 
HETATM   47  O   UNL     1      -8.873   3.862  63.886  1.00  0.00    -0.104 OA 
HETATM   48  H   UNL     1     -11.288   3.819  64.618  1.00  0.00     0.000 HD 
HETATM   49  C   UNL     1      -7.679   5.452  65.262  1.00  0.00    -0.089 C  
BRANCH  40  50
HETATM   50  C   UNL     1     -10.907   5.522  68.036  1.00  0.00     0.023 C  
HETATM   51  O   UNL     1     -11.536   6.631  68.683  1.00  0.00    -0.576 OA 
HETATM   52  H   UNL     1     -12.029   6.369  69.452  1.00  0.00     0.000 HD 
ENDBRANCH  40  50
ENDBRANCH  37  38
ENDBRANCH  33  37
ENDBRANCH  23  24
ENDBRANCH  18  23
TORSDOF 6
ENDMDL
MODEL       85
REMARK 921   NORMALIZED FREE ENERGY PREDICTED BY IDOCK:   -5.19 KCAL/MOL
REMARK 922        TOTAL FREE ENERGY PREDICTED BY IDOCK:   -8.99 KCAL/MOL
REMARK 923 INTER-LIGAND FREE ENERGY PREDICTED BY IDOCK:   -8.50 KCAL/MOL
REMARK 924 INTRA-LIGAND FREE ENERGY PREDICTED BY IDOCK:   -0.49 KCAL/MOL
REMARK 927      BINDING AFFINITY PREDICTED BY RF-SCORE:    0.00 PKD
ROOT
HETATM    1  C   UNL     1     -12.678  12.756  65.398  1.00  0.00    -0.234 C  
HETATM    2  C   UNL     1     -11.743  13.348  66.525  1.00  0.00    -0.415 C  
HETATM    3  C   UNL     1     -12.603  14.255  67.402  1.00  0.00     0.356 C  
HETATM    4  C   UNL     1     -11.742  15.015  68.391  1.00  0.00    -0.341 C  
HETATM    5  C   UNL     1     -10.844  16.031  67.725  1.00  0.00    -0.324 C  
HETATM    6  C   UNL     1     -10.188  15.661  66.353  1.00  0.00    -0.300 C  
HETATM    7  C   UNL     1     -10.701  14.253  65.733  1.00  0.00    -0.308 C  
HETATM    8  C   UNL     1      -8.635  15.704  66.432  1.00  0.00    -0.319 C  
HETATM    9  C   UNL     1     -10.430  16.997  65.551  1.00  0.00    -0.166 C  
HETATM   10  O   UNL     1      -9.996  18.083  65.954  1.00  0.00    -0.541 OA 
HETATM   11  O   UNL     1     -11.128  16.978  64.415  1.00  0.00    -1.144 OA 
HETATM   12  C   UNL     1      -9.689  13.341  65.010  1.00  0.00     0.065 C  
HETATM   13  C   UNL     1      -9.106  12.227  65.855  1.00  0.00     0.044 C  
HETATM   14  C   UNL     1     -10.027  11.310  66.672  1.00  0.00    -0.242 C  
HETATM   15  C   UNL     1     -10.539   9.999  66.042  1.00  0.00    -0.045 C  
HETATM   16  C   UNL     1     -10.641   9.066  67.253  1.00  0.00    -0.301 C  
HETATM   17  C   UNL     1     -11.151   7.830  67.163  1.00  0.00     0.201 C  
HETATM   18  C   UNL     1      -9.948   9.690  68.488  1.00  0.00    -0.165 C  
HETATM   19  C   UNL     1     -10.923  10.501  69.373  1.00  0.00    -0.297 C  
HETATM   20  C   UNL     1     -11.237  12.045  67.324  1.00  0.00    -0.371 C  
HETATM   21  C   UNL     1      -9.089  10.668  67.719  1.00  0.00    -0.144 C  
HETATM   22  C   UNL     1     -11.130  11.967  68.873  1.00  0.00    -0.298 C  
ENDROOT
BRANCH  18  23
HETATM   23  O   UNL     1      -9.231   8.655  69.157  1.00  0.00    -0.151 OA 
BRANCH  23  24
HETATM   24  C   UNL     1      -7.992   8.095  68.683  1.00  0.00    -0.115 C  
HETATM   25  O   UNL     1      -8.002   8.006  67.250  1.00  0.00    -0.117 OA 
HETATM   26  C   UNL     1      -6.713   7.653  66.714  1.00  0.00    -0.066 C  
HETATM   27  C   UNL     1      -6.387   6.229  67.136  1.00  0.00    -0.037 C  
HETATM   28  H   UNL     1      -6.365   4.610  69.880  1.00  0.00     0.000 HD 
HETATM   29  C   UNL     1      -6.336   6.109  68.656  1.00  0.00    -0.041 C  
HETATM   30  H   UNL     1      -4.937   4.874  66.867  1.00  0.00     0.000 HD 
HETATM   31  O   UNL     1      -5.141   5.763  66.603  1.00  0.00    -0.005 OA 
HETATM   32  O   UNL     1      -6.396   4.684  68.933  1.00  0.00    -0.030 OA 
HETATM   33  C   UNL     1      -7.495   6.796  69.392  1.00  0.00    -0.094 C  
BRANCH  26  34
HETATM   34  C   UNL     1      -6.770   7.756  65.184  1.00  0.00    -0.051 C  
HETATM   35  H   UNL     1      -7.973   8.539  63.844  1.00  0.00     0.000 HD 
HETATM   36  O   UNL     1      -7.938   8.475  64.791  1.00  0.00    -0.126 OA 
ENDBRANCH  26  34
BRANCH  33  37
HETATM   37  O   UNL     1      -7.191   7.139  70.767  1.00  0.00    -0.068 OA 
BRANCH  37  38
HETATM   38  C   UNL     1      -8.038   6.668  71.831  1.00  0.00    -0.103 C  
HETATM   39  O   UNL     1      -8.422   5.333  71.566  1.00  0.00    -0.119 OA 
HETATM   40  C   UNL     1      -9.383   4.730  72.427  1.00  0.00    -0.130 C  
HETATM   41  C   UNL     1     -10.610   5.603  72.711  1.00  0.00    -0.228 C  
HETATM   42  H   UNL     1      -9.437   9.405  73.001  1.00  0.00     0.000 HD 
HETATM   43  O   UNL     1      -8.720   8.817  72.798  1.00  0.00    -0.398 OA 
HETATM   44  O   UNL     1     -11.394   5.017  73.756  1.00  0.00    -0.400 OA 
HETATM   45  C   UNL     1     -10.188   6.998  73.137  1.00  0.00    -0.255 C  
HETATM   46  H   UNL     1     -11.083   8.725  73.523  1.00  0.00     0.000 HD 
HETATM   47  O   UNL     1     -11.347   7.852  73.257  1.00  0.00    -0.312 OA 
HETATM   48  H   UNL     1     -12.155   5.558  73.932  1.00  0.00     0.000 HD 
HETATM   49  C   UNL     1      -9.204   7.623  72.161  1.00  0.00    -0.141 C  
BRANCH  40  50
HETATM   50  C   UNL     1      -9.841   3.437  71.724  1.00  0.00    -0.159 C  
HETATM   51  O   UNL     1      -8.765   2.519  71.519  1.00  0.00    -0.065 OA 
HETATM   52  H   UNL     1      -9.047   1.722  71.085  1.00  0.00     0.000 HD 
ENDBRANCH  40  50
ENDBRANCH  37  38
ENDBRANCH  33  37
ENDBRANCH  23  24
ENDBRANCH  18  23
TORSDOF 6
ENDMDL
MODEL       86
REMARK 921   NORMALIZED FREE ENERGY PREDICTED BY IDOCK:   -5.17 KCAL/MOL
REMARK 922        TOTAL FREE ENERGY PREDICTED BY IDOCK:   -8.97 KCAL/MOL
REMARK 923 INTER-LIGAND FREE ENERGY PREDICTED BY IDOCK:   -7.17 KCAL/MOL
REMARK 924 INTRA-LIGAND FREE ENERGY PREDICTED BY IDOCK:   -1.80 KCAL/MOL
REMARK 927      BINDING AFFINITY PREDICTED BY RF-SCORE:    0.00 PKD
ROOT
HETATM    1  C   UNL     1      -5.128   8.165  68.179  1.00  0.00    -0.033 C  
HETATM    2  C   UNL     1      -6.579   8.280  67.566  1.00  0.00    -0.058 C  
HETATM    3  C   UNL     1      -7.441   7.207  68.228  1.00  0.00    -0.102 C  
HETATM    4  C   UNL     1      -8.797   7.121  67.557  1.00  0.00    -0.119 C  
HETATM    5  C   UNL     1      -8.718   6.591  66.145  1.00  0.00    -0.153 C  
HETATM    6  C   UNL     1      -7.512   7.029  65.250  1.00  0.00    -0.092 C  
HETATM    7  C   UNL     1      -6.388   7.897  66.034  1.00  0.00    -0.045 C  
HETATM    8  C   UNL     1      -7.990   7.765  63.966  1.00  0.00    -0.104 C  
HETATM    9  C   UNL     1      -7.116   5.645  64.606  1.00  0.00    -0.057 C  
HETATM   10  O   UNL     1      -7.923   4.984  63.942  1.00  0.00    -0.089 OA 
HETATM   11  O   UNL     1      -5.889   5.153  64.782  1.00  0.00    -0.017 OA 
HETATM   12  C   UNL     1      -5.705   9.070  65.302  1.00  0.00    -0.050 C  
HETATM   13  C   UNL     1      -6.293  10.437  65.586  1.00  0.00    -0.126 C  
HETATM   14  C   UNL     1      -6.535  10.893  67.031  1.00  0.00    -0.085 C  
HETATM   15  C   UNL     1      -5.431  11.676  67.770  1.00  0.00    -0.053 C  
HETATM   16  C   UNL     1      -6.238  12.605  68.684  1.00  0.00    -0.070 C  
HETATM   17  C   UNL     1      -5.653  13.404  69.587  1.00  0.00    -0.098 C  
HETATM   18  C   UNL     1      -7.737  12.590  68.299  1.00  0.00    -0.141 C  
HETATM   19  C   UNL     1      -8.547  11.545  69.099  1.00  0.00     0.237 C  
HETATM   20  C   UNL     1      -7.049   9.764  67.975  1.00  0.00    -0.079 C  
HETATM   21  C   UNL     1      -7.542  12.058  66.897  1.00  0.00    -0.060 C  
HETATM   22  C   UNL     1      -8.478  10.111  68.483  1.00  0.00    -0.121 C  
ENDROOT
BRANCH  18  23
HETATM   23  O   UNL     1      -8.222  13.929  68.373  1.00  0.00    -0.146 OA 
BRANCH  23  24
HETATM   24  C   UNL     1      -7.949  14.941  67.386  1.00  0.00    -0.199 C  
HETATM   25  O   UNL     1      -7.019  15.904  67.903  1.00  0.00    -0.120 OA 
HETATM   26  C   UNL     1      -6.552  16.814  66.891  1.00  0.00    -0.213 C  
HETATM   27  C   UNL     1      -7.718  17.681  66.444  1.00  0.00    -0.290 C  
HETATM   28  H   UNL     1     -10.704  17.162  65.460  1.00  0.00     0.000 HD 
HETATM   29  C   UNL     1      -8.839  16.828  65.859  1.00  0.00    -0.053 C  
HETATM   30  H   UNL     1      -8.069  19.204  65.191  1.00  0.00     0.000 HD 
HETATM   31  O   UNL     1      -7.340  18.662  65.470  1.00  0.00    -0.513 OA 
HETATM   32  O   UNL     1     -10.006  17.694  65.825  1.00  0.00    -0.544 OA 
HETATM   33  C   UNL     1      -9.187  15.577  66.677  1.00  0.00    -0.271 C  
BRANCH  26  34
HETATM   34  C   UNL     1      -5.437  17.684  67.485  1.00  0.00    -0.133 C  
HETATM   35  H   UNL     1      -4.712  18.063  69.270  1.00  0.00     0.000 HD 
HETATM   36  O   UNL     1      -5.402  17.524  68.902  1.00  0.00    -0.151 OA 
ENDBRANCH  26  34
BRANCH  33  37
HETATM   37  O   UNL     1      -9.830  14.534  65.904  1.00  0.00    -0.305 OA 
BRANCH  37  38
HETATM   38  C   UNL     1     -10.886  13.750  66.490  1.00  0.00    -0.287 C  
HETATM   39  O   UNL     1     -11.063  14.139  67.838  1.00  0.00    -0.255 OA 
HETATM   40  C   UNL     1     -11.963  13.380  68.640  1.00  0.00    -0.327 C  
HETATM   41  C   UNL     1     -11.777  11.862  68.531  1.00  0.00    -0.330 C  
HETATM   42  H   UNL     1     -10.849  10.953  64.760  1.00  0.00     0.000 HD 
HETATM   43  O   UNL     1     -10.951  11.888  64.895  1.00  0.00    -0.298 OA 
HETATM   44  O   UNL     1     -12.863  11.191  69.180  1.00  0.00    -0.290 OA 
HETATM   45  C   UNL     1     -11.733  11.431  67.077  1.00  0.00     0.090 C  
HETATM   46  H   UNL     1     -11.382   9.757  66.074  1.00  0.00     0.000 HD 
HETATM   47  O   UNL     1     -11.410  10.026  66.985  1.00  0.00    -0.062 OA 
HETATM   48  H   UNL     1     -12.748  10.251  69.113  1.00  0.00     0.000 HD 
HETATM   49  C   UNL     1     -10.721  12.232  66.271  1.00  0.00    -0.259 C  
BRANCH  40  50
HETATM   50  C   UNL     1     -11.711  13.811  70.098  1.00  0.00    -0.233 C  
HETATM   51  O   UNL     1     -10.601  14.705  70.217  1.00  0.00    -0.468 OA 
HETATM   52  H   UNL     1     -10.445  14.970  71.116  1.00  0.00     0.000 HD 
ENDBRANCH  40  50
ENDBRANCH  37  38
ENDBRANCH  33  37
ENDBRANCH  23  24
ENDBRANCH  18  23
TORSDOF 6
ENDMDL
MODEL       87
REMARK 921   NORMALIZED FREE ENERGY PREDICTED BY IDOCK:   -5.14 KCAL/MOL
REMARK 922        TOTAL FREE ENERGY PREDICTED BY IDOCK:   -8.93 KCAL/MOL
REMARK 923 INTER-LIGAND FREE ENERGY PREDICTED BY IDOCK:   -8.26 KCAL/MOL
REMARK 924 INTRA-LIGAND FREE ENERGY PREDICTED BY IDOCK:   -0.66 KCAL/MOL
REMARK 927      BINDING AFFINITY PREDICTED BY RF-SCORE:    0.00 PKD
ROOT
HETATM    1  C   UNL     1     -11.305   5.437  72.847  1.00  0.00    -0.365 C  
HETATM    2  C   UNL     1     -10.039   5.749  71.954  1.00  0.00    -0.228 C  
HETATM    3  C   UNL     1      -9.817   4.546  71.041  1.00  0.00    -0.266 C  
HETATM    4  C   UNL     1      -8.509   4.681  70.288  1.00  0.00    -0.090 C  
HETATM    5  C   UNL     1      -7.301   4.581  71.190  1.00  0.00    -0.048 C  
HETATM    6  C   UNL     1      -7.373   5.240  72.608  1.00  0.00    -0.095 C  
HETATM    7  C   UNL     1      -8.837   5.823  72.992  1.00  0.00    -0.123 C  
HETATM    8  C   UNL     1      -6.273   6.323  72.791  1.00  0.00    -0.054 C  
HETATM    9  C   UNL     1      -6.738   4.094  73.487  1.00  0.00    -0.053 C  
HETATM   10  O   UNL     1      -5.597   3.668  73.270  1.00  0.00     0.000 OA 
HETATM   11  O   UNL     1      -7.437   3.552  74.484  1.00  0.00    -0.055 OA 
HETATM   12  C   UNL     1      -8.930   7.147  73.779  1.00  0.00    -0.227 C  
HETATM   13  C   UNL     1      -9.169   8.382  72.936  1.00  0.00    -0.288 C  
HETATM   14  C   UNL     1     -10.293   8.404  71.892  1.00  0.00    -0.353 C  
HETATM   15  C   UNL     1     -11.689   8.921  72.296  1.00  0.00    -0.351 C  
HETATM   16  C   UNL     1     -12.196   9.559  70.998  1.00  0.00    -0.385 C  
HETATM   17  C   UNL     1     -13.436  10.052  70.881  1.00  0.00    -0.179 C  
HETATM   18  C   UNL     1     -11.052   9.681  69.963  1.00  0.00    -0.255 C  
HETATM   19  C   UNL     1     -10.975   8.463  69.014  1.00  0.00     0.091 C  
HETATM   20  C   UNL     1     -10.473   7.059  71.125  1.00  0.00    -0.229 C  
HETATM   21  C   UNL     1      -9.918   9.575  70.956  1.00  0.00    -0.269 C  
HETATM   22  C   UNL     1     -10.167   7.268  69.614  1.00  0.00    -0.214 C  
ENDROOT
BRANCH  18  23
HETATM   23  O   UNL     1     -11.176  10.949  69.322  1.00  0.00    -0.222 OA 
BRANCH  23  24
HETATM   24  C   UNL     1     -10.160  11.533  68.485  1.00  0.00    -0.207 C  
HETATM   25  O   UNL     1      -8.981  11.815  69.255  1.00  0.00     0.303 OA 
HETATM   26  C   UNL     1      -7.866  12.200  68.430  1.00  0.00    -0.149 C  
HETATM   27  C   UNL     1      -8.179  13.544  67.792  1.00  0.00    -0.176 C  
HETATM   28  H   UNL     1     -10.609  14.778  66.140  1.00  0.00     0.000 HD 
HETATM   29  C   UNL     1      -9.428  13.456  66.920  1.00  0.00    -0.253 C  
HETATM   30  H   UNL     1      -7.296  14.881  66.590  1.00  0.00     0.000 HD 
HETATM   31  O   UNL     1      -7.101  14.041  66.988  1.00  0.00    -0.012 OA 
HETATM   32  O   UNL     1      -9.830  14.832  66.683  1.00  0.00    -0.242 OA 
HETATM   33  C   UNL     1     -10.606  12.710  67.561  1.00  0.00    -0.221 C  
BRANCH  26  34
HETATM   34  C   UNL     1      -6.614  12.305  69.310  1.00  0.00    -0.099 C  
HETATM   35  H   UNL     1      -5.166  11.113  69.890  1.00  0.00     0.000 HD 
HETATM   36  O   UNL     1      -5.942  11.048  69.346  1.00  0.00    -0.043 OA 
ENDBRANCH  26  34
BRANCH  33  37
HETATM   37  O   UNL     1     -11.551  12.177  66.601  1.00  0.00    -0.394 OA 
BRANCH  37  38
HETATM   38  C   UNL     1     -11.107  11.253  65.590  1.00  0.00    -0.072 C  
HETATM   39  O   UNL     1     -10.356  10.220  66.199  1.00  0.00    -0.235 OA 
HETATM   40  C   UNL     1      -9.700   9.282  65.352  1.00  0.00    -0.099 C  
HETATM   41  C   UNL     1      -8.917   9.916  64.197  1.00  0.00    -0.240 C  
HETATM   42  H   UNL     1     -10.943  13.083  62.862  1.00  0.00     0.000 HD 
HETATM   43  O   UNL     1     -11.368  12.662  63.600  1.00  0.00    -0.427 OA 
HETATM   44  O   UNL     1      -8.495   8.901  63.279  1.00  0.00    -0.244 OA 
HETATM   45  C   UNL     1      -9.778  10.922  63.454  1.00  0.00    -0.352 C  
HETATM   46  H   UNL     1      -9.527  12.248  62.002  1.00  0.00     0.000 HD 
HETATM   47  O   UNL     1      -8.988  11.619  62.466  1.00  0.00    -0.302 OA 
HETATM   48  H   UNL     1      -8.010   9.294  62.563  1.00  0.00     0.000 HD 
HETATM   49  C   UNL     1     -10.415  11.935  64.392  1.00  0.00    -0.311 C  
BRANCH  40  50
HETATM   50  C   UNL     1      -8.721   8.500  66.250  1.00  0.00    -0.142 C  
HETATM   51  O   UNL     1      -7.356   8.843  65.994  1.00  0.00    -0.087 OA 
HETATM   52  H   UNL     1      -6.753   8.361  66.548  1.00  0.00     0.000 HD 
ENDBRANCH  40  50
ENDBRANCH  37  38
ENDBRANCH  33  37
ENDBRANCH  23  24
ENDBRANCH  18  23
TORSDOF 6
ENDMDL
MODEL       88
REMARK 921   NORMALIZED FREE ENERGY PREDICTED BY IDOCK:   -5.14 KCAL/MOL
REMARK 922        TOTAL FREE ENERGY PREDICTED BY IDOCK:   -8.93 KCAL/MOL
REMARK 923 INTER-LIGAND FREE ENERGY PREDICTED BY IDOCK:   -8.56 KCAL/MOL
REMARK 924 INTRA-LIGAND FREE ENERGY PREDICTED BY IDOCK:   -0.37 KCAL/MOL
REMARK 927      BINDING AFFINITY PREDICTED BY RF-SCORE:    0.00 PKD
ROOT
HETATM    1  C   UNL     1      -6.923  15.970  66.709  1.00  0.00    -0.030 C  
HETATM    2  C   UNL     1      -8.489  16.130  66.830  1.00  0.00    -0.264 C  
HETATM    3  C   UNL     1      -8.939  17.070  65.714  1.00  0.00     0.132 C  
HETATM    4  C   UNL     1     -10.402  17.432  65.876  1.00  0.00    -0.276 C  
HETATM    5  C   UNL     1     -10.661  18.289  67.092  1.00  0.00    -0.392 C  
HETATM    6  C   UNL     1      -9.856  17.991  68.401  1.00  0.00    -0.369 C  
HETATM    7  C   UNL     1      -8.701  16.866  68.224  1.00  0.00    -0.235 C  
HETATM    8  C   UNL     1     -10.801  17.641  69.585  1.00  0.00     0.752 C  
HETATM    9  C   UNL     1      -9.457  19.455  68.830  1.00  0.00    -0.404 C  
HETATM   10  O   UNL     1     -10.310  20.324  69.042  1.00  0.00    -0.294 OA 
HETATM   11  O   UNL     1      -8.172  19.786  68.961  1.00  0.00    -0.244 OA 
HETATM   12  C   UNL     1      -8.456  15.861  69.368  1.00  0.00    -0.191 C  
HETATM   13  C   UNL     1      -9.140  14.520  69.204  1.00  0.00     0.025 C  
HETATM   14  C   UNL     1      -9.013  13.739  67.889  1.00  0.00    -0.193 C  
HETATM   15  C   UNL     1      -7.877  12.708  67.730  1.00  0.00    -0.154 C  
HETATM   16  C   UNL     1      -8.513  11.649  66.822  1.00  0.00    -0.177 C  
HETATM   17  C   UNL     1      -7.820  10.606  66.347  1.00  0.00    -0.144 C  
HETATM   18  C   UNL     1     -10.037  11.883  66.689  1.00  0.00    -0.200 C  
HETATM   19  C   UNL     1     -10.402  12.758  65.468  1.00  0.00    -0.301 C  
HETATM   20  C   UNL     1      -9.043  14.635  66.614  1.00  0.00    -0.285 C  
HETATM   21  C   UNL     1     -10.183  12.730  67.933  1.00  0.00    -0.229 C  
HETATM   22  C   UNL     1     -10.294  14.290  65.756  1.00  0.00    -0.341 C  
ENDROOT
BRANCH  18  23
HETATM   23  O   UNL     1     -10.681  10.612  66.747  1.00  0.00    -0.250 OA 
BRANCH  23  24
HETATM   24  C   UNL     1     -11.150  10.000  67.962  1.00  0.00    -0.201 C  
HETATM   25  O   UNL     1     -11.302  10.988  68.992  1.00  0.00    -0.228 OA 
HETATM   26  C   UNL     1     -11.966  10.468  70.158  1.00  0.00    -0.316 C  
HETATM   27  C   UNL     1     -11.059   9.438  70.813  1.00  0.00    -0.300 C  
HETATM   28  H   UNL     1      -9.446   6.869  69.838  1.00  0.00     0.000 HD 
HETATM   29  C   UNL     1     -10.766   8.284  69.858  1.00  0.00    -0.234 C  
HETATM   30  H   UNL     1     -11.046   8.254  72.428  1.00  0.00     0.000 HD 
HETATM   31  O   UNL     1     -11.612   8.897  72.019  1.00  0.00    -0.351 OA 
HETATM   32  O   UNL     1      -9.628   7.587  70.433  1.00  0.00    -0.169 OA 
HETATM   33  C   UNL     1     -10.402   8.711  68.429  1.00  0.00    -0.201 C  
BRANCH  26  34
HETATM   34  C   UNL     1     -12.245  11.625  71.126  1.00  0.00    -0.144 C  
HETATM   35  H   UNL     1     -13.626  12.093  72.440  1.00  0.00     0.000 HD 
HETATM   36  O   UNL     1     -13.453  11.377  71.841  1.00  0.00    -0.360 OA 
ENDBRANCH  26  34
BRANCH  33  37
HETATM   37  O   UNL     1     -10.640   7.684  67.435  1.00  0.00    -0.274 OA 
BRANCH  37  38
HETATM   38  C   UNL     1      -9.552   6.863  66.974  1.00  0.00    -0.158 C  
HETATM   39  O   UNL     1      -8.992   7.439  65.810  1.00  0.00    -0.127 OA 
HETATM   40  C   UNL     1      -7.995   6.700  65.111  1.00  0.00    -0.124 C  
HETATM   41  C   UNL     1      -8.353   5.230  64.871  1.00  0.00    -0.144 C  
HETATM   42  H   UNL     1     -10.316   3.853  68.059  1.00  0.00     0.000 HD 
HETATM   43  O   UNL     1     -10.090   4.772  68.139  1.00  0.00    -0.120 OA 
HETATM   44  O   UNL     1      -7.208   4.524  64.379  1.00  0.00    -0.059 OA 
HETATM   45  C   UNL     1      -8.817   4.575  66.159  1.00  0.00    -0.118 C  
HETATM   46  H   UNL     1      -9.582   2.826  66.699  1.00  0.00     0.000 HD 
HETATM   47  O   UNL     1      -9.291   3.236  65.893  1.00  0.00    -0.155 OA 
HETATM   48  H   UNL     1      -7.430   3.612  64.230  1.00  0.00     0.000 HD 
HETATM   49  C   UNL     1      -9.918   5.370  66.843  1.00  0.00    -0.184 C  
BRANCH  40  50
HETATM   50  C   UNL     1      -7.814   7.400  63.749  1.00  0.00    -0.108 C  
HETATM   51  O   UNL     1      -8.672   8.535  63.603  1.00  0.00    -0.420 OA 
HETATM   52  H   UNL     1      -8.561   8.965  62.763  1.00  0.00     0.000 HD 
ENDBRANCH  40  50
ENDBRANCH  37  38
ENDBRANCH  33  37
ENDBRANCH  23  24
ENDBRANCH  18  23
TORSDOF 6
ENDMDL
MODEL       89
REMARK 921   NORMALIZED FREE ENERGY PREDICTED BY IDOCK:   -5.14 KCAL/MOL
REMARK 922        TOTAL FREE ENERGY PREDICTED BY IDOCK:   -8.92 KCAL/MOL
REMARK 923 INTER-LIGAND FREE ENERGY PREDICTED BY IDOCK:   -8.22 KCAL/MOL
REMARK 924 INTRA-LIGAND FREE ENERGY PREDICTED BY IDOCK:   -0.70 KCAL/MOL
REMARK 927      BINDING AFFINITY PREDICTED BY RF-SCORE:    0.00 PKD
ROOT
HETATM    1  C   UNL     1     -10.426  19.367  65.804  1.00  0.00    -0.478 C  
HETATM    2  C   UNL     1      -9.862  18.610  67.071  1.00  0.00    -0.351 C  
HETATM    3  C   UNL     1     -10.399  19.328  68.307  1.00  0.00    -0.478 C  
HETATM    4  C   UNL     1      -9.750  18.784  69.564  1.00  0.00     0.171 C  
HETATM    5  C   UNL     1      -8.280  19.119  69.655  1.00  0.00     0.433 C  
HETATM    6  C   UNL     1      -7.424  19.085  68.346  1.00  0.00    -0.334 C  
HETATM    7  C   UNL     1      -8.290  18.840  66.996  1.00  0.00    -0.280 C  
HETATM    8  C   UNL     1      -6.256  18.064  68.453  1.00  0.00    -0.190 C  
HETATM    9  C   UNL     1      -6.599  20.419  68.509  1.00  0.00    -0.266 C  
HETATM   10  O   UNL     1      -5.872  20.616  69.490  1.00  0.00    -0.351 OA 
HETATM   11  O   UNL     1      -6.684  21.375  67.583  1.00  0.00    -0.503 OA 
HETATM   12  C   UNL     1      -7.702  17.951  65.882  1.00  0.00    -0.141 C  
HETATM   13  C   UNL     1      -8.172  16.511  65.891  1.00  0.00     0.126 C  
HETATM   14  C   UNL     1      -9.669  16.184  65.979  1.00  0.00    -0.376 C  
HETATM   15  C   UNL     1     -10.480  16.002  64.680  1.00  0.00     0.296 C  
HETATM   16  C   UNL     1     -11.523  14.953  65.083  1.00  0.00    -0.357 C  
HETATM   17  C   UNL     1     -12.509  14.573  64.260  1.00  0.00    -0.293 C  
HETATM   18  C   UNL     1     -11.169  14.325  66.453  1.00  0.00    -0.337 C  
HETATM   19  C   UNL     1     -11.845  15.056  67.636  1.00  0.00    -0.205 C  
HETATM   20  C   UNL     1     -10.469  17.126  66.928  1.00  0.00    -0.274 C  
HETATM   21  C   UNL     1      -9.707  14.708  66.438  1.00  0.00    -0.315 C  
HETATM   22  C   UNL     1     -11.048  16.310  68.119  1.00  0.00    -0.329 C  
ENDROOT
BRANCH  18  23
HETATM   23  O   UNL     1     -11.426  12.925  66.371  1.00  0.00    -0.308 OA 
BRANCH  23  24
HETATM   24  C   UNL     1     -10.480  11.908  66.752  1.00  0.00    -0.221 C  
HETATM   25  O   UNL     1     -10.312  10.959  65.688  1.00  0.00    -0.250 OA 
HETATM   26  C   UNL     1      -9.226  10.047  65.932  1.00  0.00    -0.167 C  
HETATM   27  C   UNL     1      -9.594   9.163  67.114  1.00  0.00    -0.164 C  
HETATM   28  H   UNL     1     -10.663   9.641  70.077  1.00  0.00     0.000 HD 
HETATM   29  C   UNL     1      -9.826   9.999  68.369  1.00  0.00    -0.154 C  
HETATM   30  H   UNL     1      -8.823   7.627  68.142  1.00  0.00     0.000 HD 
HETATM   31  O   UNL     1      -8.593   8.179  67.405  1.00  0.00    -0.124 OA 
HETATM   32  O   UNL     1     -10.519   9.120  69.295  1.00  0.00    -0.214 OA 
HETATM   33  C   UNL     1     -10.686  11.252  68.154  1.00  0.00    -0.204 C  
BRANCH  26  34
HETATM   34  C   UNL     1      -9.004   9.194  64.677  1.00  0.00    -0.110 C  
HETATM   35  H   UNL     1      -7.736   9.151  63.179  1.00  0.00     0.000 HD 
HETATM   36  O   UNL     1      -7.873   9.679  63.957  1.00  0.00    -0.123 OA 
ENDBRANCH  26  34
BRANCH  33  37
HETATM   37  O   UNL     1     -10.476  12.282  69.152  1.00  0.00    -0.082 OA 
BRANCH  37  38
HETATM   38  C   UNL     1     -11.173  12.219  70.410  1.00  0.00     0.868 C  
HETATM   39  O   UNL     1     -11.726  10.927  70.573  1.00  0.00    -0.318 OA 
HETATM   40  C   UNL     1     -12.582  10.703  71.689  1.00  0.00    -0.377 C  
HETATM   41  C   UNL     1     -13.652  11.782  71.889  1.00  0.00    -0.002 C  
HETATM   42  H   UNL     1     -12.079  15.331  70.970  1.00  0.00     0.000 HD 
HETATM   43  O   UNL     1     -11.467  14.616  70.839  1.00  0.00    -0.257 OA 
HETATM   44  O   UNL     1     -14.301  11.596  73.152  1.00  0.00     0.935 OA 
HETATM   45  C   UNL     1     -13.029  13.166  71.858  1.00  0.00    -0.314 C  
HETATM   46  H   UNL     1     -13.671  15.042  71.878  1.00  0.00     0.000 HD 
HETATM   47  O   UNL     1     -14.061  14.176  71.898  1.00  0.00    -0.441 OA 
HETATM   48  H   UNL     1     -14.965  12.264  73.276  1.00  0.00     0.000 HD 
HETATM   49  C   UNL     1     -12.167  13.379  70.623  1.00  0.00    -0.350 C  
BRANCH  40  50
HETATM   50  C   UNL     1     -13.277   9.351  71.435  1.00  0.00    -0.344 C  
HETATM   51  O   UNL     1     -13.985   8.879  72.584  1.00  0.00    -0.667 OA 
HETATM   52  H   UNL     1     -14.413   8.045  72.427  1.00  0.00     0.000 HD 
ENDBRANCH  40  50
ENDBRANCH  37  38
ENDBRANCH  33  37
ENDBRANCH  23  24
ENDBRANCH  18  23
TORSDOF 6
ENDMDL
MODEL       90
REMARK 921   NORMALIZED FREE ENERGY PREDICTED BY IDOCK:   -4.95 KCAL/MOL
REMARK 922        TOTAL FREE ENERGY PREDICTED BY IDOCK:   -8.67 KCAL/MOL
REMARK 923 INTER-LIGAND FREE ENERGY PREDICTED BY IDOCK:   -7.42 KCAL/MOL
REMARK 924 INTRA-LIGAND FREE ENERGY PREDICTED BY IDOCK:   -1.25 KCAL/MOL
REMARK 927      BINDING AFFINITY PREDICTED BY RF-SCORE:    0.00 PKD
ROOT
HETATM    1  C   UNL     1      -5.964   6.962  65.076  1.00  0.00    -0.036 C  
HETATM    2  C   UNL     1      -6.637   6.681  66.477  1.00  0.00    -0.044 C  
HETATM    3  C   UNL     1      -5.523   6.655  67.521  1.00  0.00    -0.008 C  
HETATM    4  C   UNL     1      -6.059   6.199  68.863  1.00  0.00    -0.028 C  
HETATM    5  C   UNL     1      -6.483   4.749  68.862  1.00  0.00    -0.036 C  
HETATM    6  C   UNL     1      -7.189   4.180  67.587  1.00  0.00    -0.067 C  
HETATM    7  C   UNL     1      -7.232   5.213  66.338  1.00  0.00    -0.077 C  
HETATM    8  C   UNL     1      -8.610   3.639  67.915  1.00  0.00    -0.115 C  
HETATM    9  C   UNL     1      -6.434   2.804  67.433  1.00  0.00    -0.036 C  
HETATM   10  O   UNL     1      -6.434   1.959  68.336  1.00  0.00    -0.028 OA 
HETATM   11  O   UNL     1      -5.762   2.532  66.313  1.00  0.00    -0.020 OA 
HETATM   12  C   UNL     1      -8.494   5.262  65.451  1.00  0.00    -0.145 C  
HETATM   13  C   UNL     1      -9.480   6.358  65.794  1.00  0.00     0.163 C  
HETATM   14  C   UNL     1      -9.003   7.806  65.969  1.00  0.00    -0.185 C  
HETATM   15  C   UNL     1      -9.009   8.755  64.754  1.00  0.00    -0.016 C  
HETATM   16  C   UNL     1      -9.305  10.115  65.396  1.00  0.00    -0.269 C  
HETATM   17  C   UNL     1      -9.302  11.254  64.690  1.00  0.00    -0.156 C  
HETATM   18  C   UNL     1      -9.745   9.943  66.870  1.00  0.00    -0.186 C  
HETATM   19  C   UNL     1      -8.562  10.038  67.860  1.00  0.00    -0.121 C  
HETATM   20  C   UNL     1      -7.623   7.936  66.684  1.00  0.00    -0.093 C  
HETATM   21  C   UNL     1     -10.145   8.490  66.754  1.00  0.00    -0.369 C  
HETATM   22  C   UNL     1      -7.798   8.687  68.035  1.00  0.00    -0.103 C  
ENDROOT
BRANCH  18  23
HETATM   23  O   UNL     1     -10.822  10.846  67.113  1.00  0.00    -0.258 OA 
BRANCH  23  24
HETATM   24  C   UNL     1     -11.001  11.574  68.342  1.00  0.00    -0.221 C  
HETATM   25  O   UNL     1     -12.034  10.969  69.134  1.00  0.00    -0.329 OA 
HETATM   26  C   UNL     1     -12.108  11.527  70.459  1.00  0.00    -0.378 C  
HETATM   27  C   UNL     1     -12.572  12.971  70.350  1.00  0.00    -0.095 C  
HETATM   28  H   UNL     1     -11.699  15.529  68.663  1.00  0.00     0.000 HD 
HETATM   29  C   UNL     1     -11.593  13.797  69.522  1.00  0.00    -0.297 C  
HETATM   30  H   UNL     1     -13.019  14.503  71.560  1.00  0.00     0.000 HD 
HETATM   31  O   UNL     1     -12.729  13.602  71.628  1.00  0.00    -0.341 OA 
HETATM   32  O   UNL     1     -12.309  15.014  69.179  1.00  0.00    -0.183 OA 
HETATM   33  C   UNL     1     -11.125  13.126  68.223  1.00  0.00    -0.266 C  
BRANCH  26  34
HETATM   34  C   UNL     1     -13.106  10.706  71.286  1.00  0.00    -0.359 C  
HETATM   35  H   UNL     1     -13.021   9.280  72.632  1.00  0.00     0.000 HD 
HETATM   36  O   UNL     1     -12.403   9.788  72.120  1.00  0.00    -0.316 OA 
ENDBRANCH  26  34
BRANCH  33  37
HETATM   37  O   UNL     1      -9.859  13.629  67.730  1.00  0.00    -0.221 OA 
BRANCH  37  38
HETATM   38  C   UNL     1      -9.082  14.536  68.533  1.00  0.00    -0.190 C  
HETATM   39  O   UNL     1      -9.500  15.863  68.276  1.00  0.00    -0.197 OA 
HETATM   40  C   UNL     1      -8.754  16.925  68.863  1.00  0.00    -0.212 C  
HETATM   41  C   UNL     1      -7.235  16.791  68.701  1.00  0.00    -0.207 C  
HETATM   42  H   UNL     1      -6.247  12.939  69.014  1.00  0.00     0.000 HD 
HETATM   43  O   UNL     1      -7.184  13.082  69.079  1.00  0.00    -0.077 OA 
HETATM   44  O   UNL     1      -6.572  17.766  69.514  1.00  0.00    -0.235 OA 
HETATM   45  C   UNL     1      -6.772  15.408  69.118  1.00  0.00    -0.138 C  
HETATM   46  H   UNL     1      -5.077  14.378  69.084  1.00  0.00     0.000 HD 
HETATM   47  O   UNL     1      -5.367  15.244  68.823  1.00  0.00    -0.091 OA 
HETATM   48  H   UNL     1      -5.631  17.684  69.415  1.00  0.00     0.000 HD 
HETATM   49  C   UNL     1      -7.560  14.306  68.427  1.00  0.00    -0.124 C  
BRANCH  40  50
HETATM   50  C   UNL     1      -9.219  18.217  68.164  1.00  0.00    -0.301 C  
HETATM   51  O   UNL     1     -10.474  18.685  68.665  1.00  0.00    -0.407 OA 
HETATM   52  H   UNL     1     -10.760  19.482  68.234  1.00  0.00     0.000 HD 
ENDBRANCH  40  50
ENDBRANCH  37  38
ENDBRANCH  33  37
ENDBRANCH  23  24
ENDBRANCH  18  23
TORSDOF 6
ENDMDL
MODEL       91
REMARK 921   NORMALIZED FREE ENERGY PREDICTED BY IDOCK:   -4.91 KCAL/MOL
REMARK 922        TOTAL FREE ENERGY PREDICTED BY IDOCK:   -8.61 KCAL/MOL
REMARK 923 INTER-LIGAND FREE ENERGY PREDICTED BY IDOCK:   -7.40 KCAL/MOL
REMARK 924 INTRA-LIGAND FREE ENERGY PREDICTED BY IDOCK:   -1.21 KCAL/MOL
REMARK 927      BINDING AFFINITY PREDICTED BY RF-SCORE:    0.00 PKD
ROOT
HETATM    1  C   UNL     1      -7.921   8.520  68.700  1.00  0.00    -0.116 C  
HETATM    2  C   UNL     1      -7.951   9.140  67.247  1.00  0.00    -0.102 C  
HETATM    3  C   UNL     1      -9.392   9.066  66.749  1.00  0.00    -0.213 C  
HETATM    4  C   UNL     1      -9.474   9.461  65.288  1.00  0.00    -0.296 C  
HETATM    5  C   UNL     1      -8.804   8.463  64.373  1.00  0.00     0.237 C  
HETATM    6  C   UNL     1      -7.476   7.788  64.850  1.00  0.00    -0.094 C  
HETATM    7  C   UNL     1      -7.066   8.144  66.379  1.00  0.00    -0.075 C  
HETATM    8  C   UNL     1      -6.302   8.083  63.873  1.00  0.00    -0.066 C  
HETATM    9  C   UNL     1      -7.758   6.289  64.450  1.00  0.00    -0.107 C  
HETATM   10  O   UNL     1      -8.007   5.966  63.282  1.00  0.00    -0.102 OA 
HETATM   11  O   UNL     1      -7.744   5.335  65.380  1.00  0.00    -0.084 OA 
HETATM   12  C   UNL     1      -5.578   8.362  66.722  1.00  0.00    -0.037 C  
HETATM   13  C   UNL     1      -5.129   9.807  66.753  1.00  0.00    -0.040 C  
HETATM   14  C   UNL     1      -5.926  10.851  67.547  1.00  0.00    -0.045 C  
HETATM   15  C   UNL     1      -5.545  11.136  69.014  1.00  0.00    -0.040 C  
HETATM   16  C   UNL     1      -5.884  12.624  69.162  1.00  0.00    -0.080 C  
HETATM   17  C   UNL     1      -5.794  13.264  70.336  1.00  0.00    -0.161 C  
HETATM   18  C   UNL     1      -6.170  13.262  67.782  1.00  0.00    -0.158 C  
HETATM   19  C   UNL     1      -7.672  13.236  67.413  1.00  0.00    -0.148 C  
HETATM   20  C   UNL     1      -7.471  10.660  67.472  1.00  0.00    -0.093 C  
HETATM   21  C   UNL     1      -5.467  12.205  66.962  1.00  0.00    -0.066 C  
HETATM   22  C   UNL     1      -8.122  11.885  66.769  1.00  0.00    -0.108 C  
ENDROOT
BRANCH  18  23
HETATM   23  O   UNL     1      -5.557  14.549  67.760  1.00  0.00    -0.254 OA 
BRANCH  23  24
HETATM   24  C   UNL     1      -6.269  15.778  67.522  1.00  0.00    -0.143 C  
HETATM   25  O   UNL     1      -5.523  16.623  66.633  1.00  0.00    -0.343 OA 
HETATM   26  C   UNL     1      -6.282  17.765  66.196  1.00  0.00    -0.241 C  
HETATM   27  C   UNL     1      -6.524  18.671  67.393  1.00  0.00    -0.192 C  
HETATM   28  H   UNL     1      -7.647  18.293  70.351  1.00  0.00     0.000 HD 
HETATM   29  C   UNL     1      -7.313  17.942  68.477  1.00  0.00    -0.268 C  
HETATM   30  H   UNL     1      -7.382  20.435  67.797  1.00  0.00     0.000 HD 
HETATM   31  O   UNL     1      -7.230  19.870  67.049  1.00  0.00    -0.217 OA 
HETATM   32  O   UNL     1      -7.156  18.747  69.676  1.00  0.00    -0.083 OA 
HETATM   33  C   UNL     1      -6.823  16.520  68.780  1.00  0.00    -0.175 C  
BRANCH  26  34
HETATM   34  C   UNL     1      -5.480  18.508  65.119  1.00  0.00    -0.192 C  
HETATM   35  H   UNL     1      -5.875  19.611  63.544  1.00  0.00     0.000 HD 
HETATM   36  O   UNL     1      -6.372  19.151  64.211  1.00  0.00    -0.437 OA 
ENDBRANCH  26  34
BRANCH  33  37
HETATM   37  O   UNL     1      -7.832  15.669  69.378  1.00  0.00    -0.219 OA 
BRANCH  37  38
HETATM   38  C   UNL     1      -9.220  16.046  69.315  1.00  0.00    -0.243 C  
HETATM   39  O   UNL     1      -9.803  15.896  70.595  1.00  0.00     0.495 OA 
HETATM   40  C   UNL     1     -11.211  16.077  70.713  1.00  0.00    -0.352 C  
HETATM   41  C   UNL     1     -12.033  15.338  69.651  1.00  0.00    -0.338 C  
HETATM   42  H   UNL     1     -10.058  15.464  66.188  1.00  0.00     0.000 HD 
HETATM   43  O   UNL     1      -9.582  15.884  66.894  1.00  0.00    -0.220 OA 
HETATM   44  O   UNL     1     -13.399  15.764  69.709  1.00  0.00    -0.288 OA 
HETATM   45  C   UNL     1     -11.490  15.619  68.262  1.00  0.00    -0.350 C  
HETATM   46  H   UNL     1     -11.835  14.981  66.417  1.00  0.00     0.000 HD 
HETATM   47  O   UNL     1     -12.175  14.805  67.286  1.00  0.00    -0.227 OA 
HETATM   48  H   UNL     1     -13.909  15.307  69.051  1.00  0.00     0.000 HD 
HETATM   49  C   UNL     1      -9.994  15.362  68.168  1.00  0.00    -0.221 C  
BRANCH  40  50
HETATM   50  C   UNL     1     -11.599  15.543  72.106  1.00  0.00    -0.460 C  
HETATM   51  O   UNL     1     -12.880  16.015  72.532  1.00  0.00    -0.442 OA 
HETATM   52  H   UNL     1     -13.119  15.686  73.391  1.00  0.00     0.000 HD 
ENDBRANCH  40  50
ENDBRANCH  37  38
ENDBRANCH  33  37
ENDBRANCH  23  24
ENDBRANCH  18  23
TORSDOF 6
ENDMDL
MODEL       92
REMARK 921   NORMALIZED FREE ENERGY PREDICTED BY IDOCK:   -4.81 KCAL/MOL
REMARK 922        TOTAL FREE ENERGY PREDICTED BY IDOCK:   -8.48 KCAL/MOL
REMARK 923 INTER-LIGAND FREE ENERGY PREDICTED BY IDOCK:   -7.02 KCAL/MOL
REMARK 924 INTRA-LIGAND FREE ENERGY PREDICTED BY IDOCK:   -1.46 KCAL/MOL
REMARK 927      BINDING AFFINITY PREDICTED BY RF-SCORE:    0.00 PKD
ROOT
HETATM    1  C   UNL     1      -5.568   7.967  68.331  1.00  0.00    -0.032 C  
HETATM    2  C   UNL     1      -6.736   8.310  67.324  1.00  0.00    -0.063 C  
HETATM    3  C   UNL     1      -7.814   7.242  67.494  1.00  0.00    -0.112 C  
HETATM    4  C   UNL     1      -8.882   7.387  66.430  1.00  0.00    -0.176 C  
HETATM    5  C   UNL     1      -8.375   7.063  65.044  1.00  0.00    -0.051 C  
HETATM    6  C   UNL     1      -6.926   7.508  64.657  1.00  0.00    -0.052 C  
HETATM    7  C   UNL     1      -6.077   8.138  65.887  1.00  0.00    -0.041 C  
HETATM    8  C   UNL     1      -6.930   8.465  63.432  1.00  0.00    -0.089 C  
HETATM    9  C   UNL     1      -6.407   6.200  63.945  1.00  0.00    -0.029 C  
HETATM   10  O   UNL     1      -6.986   5.724  62.960  1.00  0.00    -0.044 OA 
HETATM   11  O   UNL     1      -5.327   5.570  64.407  1.00  0.00    -0.012 OA 
HETATM   12  C   UNL     1      -5.141   9.334  65.614  1.00  0.00    -0.032 C  
HETATM   13  C   UNL     1      -5.727  10.695  65.927  1.00  0.00    -0.132 C  
HETATM   14  C   UNL     1      -6.402  10.957  67.280  1.00  0.00    -0.068 C  
HETATM   15  C   UNL     1      -5.561  11.513  68.448  1.00  0.00    -0.045 C  
HETATM   16  C   UNL     1      -6.577  12.373  69.209  1.00  0.00    -0.093 C  
HETATM   17  C   UNL     1      -6.279  12.971  70.370  1.00  0.00     0.053 C  
HETATM   18  C   UNL     1      -7.869  12.560  68.378  1.00  0.00    -0.141 C  
HETATM   19  C   UNL     1      -8.942  11.493  68.698  1.00  0.00    -0.115 C  
HETATM   20  C   UNL     1      -7.244   9.758  67.812  1.00  0.00    -0.088 C  
HETATM   21  C   UNL     1      -7.256  12.222  67.039  1.00  0.00    -0.039 C  
HETATM   22  C   UNL     1      -8.743  10.164  67.901  1.00  0.00    -0.122 C  
ENDROOT
BRANCH  18  23
HETATM   23  O   UNL     1      -8.291  13.914  68.524  1.00  0.00    -0.155 OA 
BRANCH  23  24
HETATM   24  C   UNL     1      -7.671  15.028  67.854  1.00  0.00    -0.134 C  
HETATM   25  O   UNL     1      -7.015  15.880  68.805  1.00  0.00    -0.119 OA 
HETATM   26  C   UNL     1      -6.204  16.887  68.172  1.00  0.00    -0.132 C  
HETATM   27  C   UNL     1      -7.119  17.851  67.434  1.00  0.00    -0.187 C  
HETATM   28  H   UNL     1      -9.501  17.584  65.334  1.00  0.00     0.000 HD 
HETATM   29  C   UNL     1      -7.926  17.124  66.362  1.00  0.00    -0.311 C  
HETATM   30  H   UNL     1      -6.978  19.529  66.350  1.00  0.00     0.000 HD 
HETATM   31  O   UNL     1      -6.406  18.927  66.811  1.00  0.00    -0.184 OA 
HETATM   32  O   UNL     1      -8.998  18.036  66.002  1.00  0.00    -0.502 OA 
HETATM   33  C   UNL     1      -8.550  15.798  66.818  1.00  0.00    -0.270 C  
BRANCH  26  34
HETATM   34  C   UNL     1      -5.406  17.629  69.251  1.00  0.00    -0.182 C  
HETATM   35  H   UNL     1      -5.780  18.946  70.658  1.00  0.00     0.000 HD 
HETATM   36  O   UNL     1      -6.274  18.487  69.990  1.00  0.00    -0.205 OA 
ENDBRANCH  26  34
BRANCH  33  37
HETATM   37  O   UNL     1      -8.842  14.886  65.731  1.00  0.00     0.154 OA 
BRANCH  37  38
HETATM   38  C   UNL     1     -10.003  14.037  65.795  1.00  0.00    -0.298 C  
HETATM   39  O   UNL     1      -9.860  12.980  64.867  1.00  0.00    -0.159 OA 
HETATM   40  C   UNL     1     -10.969  12.108  64.669  1.00  0.00    -0.312 C  
HETATM   41  C   UNL     1     -12.308  12.828  64.473  1.00  0.00    -0.445 C  
HETATM   42  H   UNL     1     -12.395  16.040  66.836  1.00  0.00     0.000 HD 
HETATM   43  O   UNL     1     -11.573  15.567  66.895  1.00  0.00    -0.106 OA 
HETATM   44  O   UNL     1     -13.381  11.881  64.517  1.00  0.00    -0.398 OA 
HETATM   45  C   UNL     1     -12.523  13.865  65.560  1.00  0.00    -0.511 C  
HETATM   46  H   UNL     1     -13.847  15.286  65.962  1.00  0.00     0.000 HD 
HETATM   47  O   UNL     1     -13.712  14.637  65.282  1.00  0.00     0.079 OA 
HETATM   48  H   UNL     1     -14.211  12.327  64.395  1.00  0.00     0.000 HD 
HETATM   49  C   UNL     1     -11.337  14.806  65.699  1.00  0.00    -0.343 C  
BRANCH  40  50
HETATM   50  C   UNL     1     -10.653  11.286  63.404  1.00  0.00    -0.324 C  
HETATM   51  O   UNL     1      -9.542  11.815  62.676  1.00  0.00    -0.455 OA 
HETATM   52  H   UNL     1      -9.347  11.308  61.896  1.00  0.00     0.000 HD 
ENDBRANCH  40  50
ENDBRANCH  37  38
ENDBRANCH  33  37
ENDBRANCH  23  24
ENDBRANCH  18  23
TORSDOF 6
ENDMDL
MODEL       93
REMARK 921   NORMALIZED FREE ENERGY PREDICTED BY IDOCK:   -4.81 KCAL/MOL
REMARK 922        TOTAL FREE ENERGY PREDICTED BY IDOCK:   -8.48 KCAL/MOL
REMARK 923 INTER-LIGAND FREE ENERGY PREDICTED BY IDOCK:   -8.94 KCAL/MOL
REMARK 924 INTRA-LIGAND FREE ENERGY PREDICTED BY IDOCK:    0.46 KCAL/MOL
REMARK 927      BINDING AFFINITY PREDICTED BY RF-SCORE:    0.00 PKD
ROOT
HETATM    1  C   UNL     1      -5.664   7.423  68.253  1.00  0.00    -0.027 C  
HETATM    2  C   UNL     1      -7.213   7.616  68.493  1.00  0.00    -0.086 C  
HETATM    3  C   UNL     1      -7.514   7.162  69.920  1.00  0.00    -0.086 C  
HETATM    4  C   UNL     1      -9.009   7.132  70.167  1.00  0.00    -0.145 C  
HETATM    5  C   UNL     1      -9.711   6.057  69.372  1.00  0.00    -0.176 C  
HETATM    6  C   UNL     1      -9.230   5.775  67.910  1.00  0.00    -0.108 C  
HETATM    7  C   UNL     1      -7.895   6.593  67.484  1.00  0.00    -0.111 C  
HETATM    8  C   UNL     1     -10.373   5.996  66.879  1.00  0.00    -0.303 C  
HETATM    9  C   UNL     1      -9.206   4.198  67.916  1.00  0.00    -0.151 C  
HETATM   10  O   UNL     1     -10.220   3.536  68.168  1.00  0.00     0.414 OA 
HETATM   11  O   UNL     1      -8.073   3.546  67.658  1.00  0.00    -0.080 OA 
HETATM   12  C   UNL     1      -7.785   7.149  66.050  1.00  0.00    -0.099 C  
HETATM   13  C   UNL     1      -8.168   8.606  65.892  1.00  0.00    -0.123 C  
HETATM   14  C   UNL     1      -7.579   9.669  66.829  1.00  0.00    -0.098 C  
HETATM   15  C   UNL     1      -6.283  10.399  66.422  1.00  0.00    -0.087 C  
HETATM   16  C   UNL     1      -6.477  11.790  67.037  1.00  0.00    -0.147 C  
HETATM   17  C   UNL     1      -5.520  12.726  67.003  1.00  0.00     0.317 C  
HETATM   18  C   UNL     1      -7.934  11.975  67.527  1.00  0.00    -0.159 C  
HETATM   19  C   UNL     1      -8.116  11.591  69.014  1.00  0.00     0.037 C  
HETATM   20  C   UNL     1      -7.433   9.200  68.308  1.00  0.00    -0.083 C  
HETATM   21  C   UNL     1      -8.534  10.875  66.681  1.00  0.00    -0.151 C  
HETATM   22  C   UNL     1      -8.345  10.060  69.228  1.00  0.00    -0.154 C  
ENDROOT
BRANCH  18  23
HETATM   23  O   UNL     1      -8.347  13.295  67.181  1.00  0.00    -0.180 OA 
BRANCH  23  24
HETATM   24  C   UNL     1      -9.622  13.613  66.592  1.00  0.00    -0.283 C  
HETATM   25  O   UNL     1      -9.974  12.631  65.606  1.00  0.00    -0.264 OA 
HETATM   26  C   UNL     1     -11.328  12.782  65.141  1.00  0.00    -0.311 C  
HETATM   27  C   UNL     1     -11.431  14.087  64.367  1.00  0.00    -0.344 C  
HETATM   28  H   UNL     1     -10.630  17.126  64.897  1.00  0.00     0.000 HD 
HETATM   29  C   UNL     1     -11.081  15.277  65.255  1.00  0.00    -0.376 C  
HETATM   30  H   UNL     1     -12.799  15.119  63.330  1.00  0.00     0.000 HD 
HETATM   31  O   UNL     1     -12.735  14.304  63.814  1.00  0.00    -0.779 OA 
HETATM   32  O   UNL     1     -10.848  16.385  64.344  1.00  0.00    -0.732 OA 
HETATM   33  C   UNL     1      -9.824  15.086  66.117  1.00  0.00    -0.301 C  
BRANCH  26  34
HETATM   34  C   UNL     1     -11.674  11.595  64.233  1.00  0.00    -0.175 C  
HETATM   35  H   UNL     1     -12.843  11.263  62.692  1.00  0.00     0.000 HD 
HETATM   36  O   UNL     1     -12.629  11.998  63.254  1.00  0.00    -0.613 OA 
ENDBRANCH  26  34
BRANCH  33  37
HETATM   37  O   UNL     1      -9.789  15.933  67.292  1.00  0.00    -0.230 OA 
BRANCH  37  38
HETATM   38  C   UNL     1      -9.337  17.295  67.186  1.00  0.00    -0.243 C  
HETATM   39  O   UNL     1      -8.272  17.362  66.257  1.00  0.00    -0.325 OA 
HETATM   40  C   UNL     1      -7.584  18.602  66.117  1.00  0.00    -0.246 C  
HETATM   41  C   UNL     1      -7.190  19.257  67.445  1.00  0.00    -0.212 C  
HETATM   42  H   UNL     1     -10.094  18.613  70.103  1.00  0.00     0.000 HD 
HETATM   43  O   UNL     1     -10.271  18.204  69.263  1.00  0.00    -0.286 OA 
HETATM   44  O   UNL     1      -6.722  20.590  67.210  1.00  0.00    -0.233 OA 
HETATM   45  C   UNL     1      -8.378  19.314  68.388  1.00  0.00    -0.348 C  
HETATM   46  H   UNL     1      -8.705  19.831  70.274  1.00  0.00     0.000 HD 
HETATM   47  O   UNL     1      -7.962  19.796  69.684  1.00  0.00     0.006 OA 
HETATM   48  H   UNL     1      -6.477  20.996  68.033  1.00  0.00     0.000 HD 
HETATM   49  C   UNL     1      -9.049  17.958  68.548  1.00  0.00    -0.285 C  
BRANCH  40  50
HETATM   50  C   UNL     1      -6.306  18.298  65.311  1.00  0.00    -0.130 C  
HETATM   51  O   UNL     1      -6.209  19.091  64.125  1.00  0.00    -0.446 OA 
HETATM   52  H   UNL     1      -5.421  18.903  63.628  1.00  0.00     0.000 HD 
ENDBRANCH  40  50
ENDBRANCH  37  38
ENDBRANCH  33  37
ENDBRANCH  23  24
ENDBRANCH  18  23
TORSDOF 6
ENDMDL
MODEL       94
REMARK 921   NORMALIZED FREE ENERGY PREDICTED BY IDOCK:   -4.68 KCAL/MOL
REMARK 922        TOTAL FREE ENERGY PREDICTED BY IDOCK:   -8.31 KCAL/MOL
REMARK 923 INTER-LIGAND FREE ENERGY PREDICTED BY IDOCK:   -6.46 KCAL/MOL
REMARK 924 INTRA-LIGAND FREE ENERGY PREDICTED BY IDOCK:   -1.85 KCAL/MOL
REMARK 927      BINDING AFFINITY PREDICTED BY RF-SCORE:    0.00 PKD
ROOT
HETATM    1  C   UNL     1      -5.133  16.222  67.472  1.00  0.00    -0.142 C  
HETATM    2  C   UNL     1      -6.667  16.490  67.209  1.00  0.00    -0.216 C  
HETATM    3  C   UNL     1      -6.787  17.140  65.832  1.00  0.00     0.117 C  
HETATM    4  C   UNL     1      -8.207  17.607  65.584  1.00  0.00     0.459 C  
HETATM    5  C   UNL     1      -8.610  18.755  66.478  1.00  0.00    -0.312 C  
HETATM    6  C   UNL     1      -8.115  18.755  67.962  1.00  0.00    -0.308 C  
HETATM    7  C   UNL     1      -7.071  17.564  68.311  1.00  0.00    -0.210 C  
HETATM    8  C   UNL     1      -9.306  18.765  68.962  1.00  0.00    -0.222 C  
HETATM    9  C   UNL     1      -7.658  20.257  68.111  1.00  0.00    -0.154 C  
HETATM   10  O   UNL     1      -8.441  21.195  67.922  1.00  0.00     0.197 OA 
HETATM   11  O   UNL     1      -6.396  20.543  68.436  1.00  0.00    -0.299 OA 
HETATM   12  C   UNL     1      -7.163  16.867  69.684  1.00  0.00     0.221 C  
HETATM   13  C   UNL     1      -7.937  15.566  69.696  1.00  0.00    -0.123 C  
HETATM   14  C   UNL     1      -7.636  14.473  68.662  1.00  0.00    -0.131 C  
HETATM   15  C   UNL     1      -6.604  13.378  69.000  1.00  0.00    -0.107 C  
HETATM   16  C   UNL     1      -7.155  12.159  68.252  1.00  0.00    -0.084 C  
HETATM   17  C   UNL     1      -6.495  10.995  68.198  1.00  0.00    -0.057 C  
HETATM   18  C   UNL     1      -8.591  12.431  67.740  1.00  0.00    -0.172 C  
HETATM   19  C   UNL     1      -8.614  12.988  66.298  1.00  0.00     0.409 C  
HETATM   20  C   UNL     1      -7.320  15.019  67.237  1.00  0.00    -0.195 C  
HETATM   21  C   UNL     1      -8.890  13.571  68.688  1.00  0.00    -0.003 C  
HETATM   22  C   UNL     1      -8.406  14.535  66.233  1.00  0.00     0.677 C  
ENDROOT
BRANCH  18  23
HETATM   23  O   UNL     1      -9.362  11.251  67.954  1.00  0.00    -0.153 OA 
BRANCH  23  24
HETATM   24  C   UNL     1     -10.070  10.961  69.174  1.00  0.00    -0.177 C  
HETATM   25  O   UNL     1      -9.713   9.658  69.659  1.00  0.00    -0.186 OA 
HETATM   26  C   UNL     1     -10.226   9.404  70.980  1.00  0.00    -0.299 C  
HETATM   27  C   UNL     1     -11.743   9.329  70.902  1.00  0.00    -0.296 C  
HETATM   28  H   UNL     1     -14.061  11.148  69.690  1.00  0.00     0.000 HD 
HETATM   29  C   UNL     1     -12.329  10.641  70.391  1.00  0.00    -0.343 C  
HETATM   30  H   UNL     1     -13.296   8.977  72.117  1.00  0.00     0.000 HD 
HETATM   31  O   UNL     1     -12.349   9.024  72.165  1.00  0.00    -0.368 OA 
HETATM   32  O   UNL     1     -13.696  10.331  70.009  1.00  0.00     0.326 OA 
HETATM   33  C   UNL     1     -11.608  11.233  69.172  1.00  0.00    -0.319 C  
BRANCH  26  34
HETATM   34  C   UNL     1      -9.651   8.075  71.487  1.00  0.00    -0.163 C  
HETATM   35  H   UNL     1      -9.345   6.277  70.762  1.00  0.00     0.000 HD 
HETATM   36  O   UNL     1      -9.701   7.100  70.448  1.00  0.00    -0.176 OA 
ENDBRANCH  26  34
BRANCH  33  37
HETATM   37  O   UNL     1     -11.797  12.662  69.019  1.00  0.00    -0.296 OA 
BRANCH  37  38
HETATM   38  C   UNL     1     -12.273  13.196  67.770  1.00  0.00    -0.076 C  
HETATM   39  O   UNL     1     -12.091  12.232  66.751  1.00  0.00    -0.593 OA 
HETATM   40  C   UNL     1     -12.364  12.620  65.407  1.00  0.00    -0.436 C  
HETATM   41  C   UNL     1     -11.748  13.965  65.003  1.00  0.00    -0.359 C  
HETATM   42  H   UNL     1     -11.936  16.449  68.119  1.00  0.00     0.000 HD 
HETATM   43  O   UNL     1     -12.280  15.586  68.319  1.00  0.00    -0.040 OA 
HETATM   44  O   UNL     1     -12.266  14.374  63.733  1.00  0.00    -0.929 OA 
HETATM   45  C   UNL     1     -12.071  15.033  66.032  1.00  0.00     0.152 C  
HETATM   46  H   UNL     1     -11.567  16.922  66.363  1.00  0.00     0.000 HD 
HETATM   47  O   UNL     1     -11.365  16.254  65.719  1.00  0.00     0.110 OA 
HETATM   48  H   UNL     1     -11.884  15.208  63.481  1.00  0.00     0.000 HD 
HETATM   49  C   UNL     1     -11.714  14.596  67.444  1.00  0.00    -0.390 C  
BRANCH  40  50
HETATM   50  C   UNL     1     -11.778  11.512  64.510  1.00  0.00    -0.011 C  
HETATM   51  O   UNL     1     -11.871  11.832  63.120  1.00  0.00    -0.786 OA 
HETATM   52  H   UNL     1     -11.510  11.149  62.567  1.00  0.00     0.000 HD 
ENDBRANCH  40  50
ENDBRANCH  37  38
ENDBRANCH  33  37
ENDBRANCH  23  24
ENDBRANCH  18  23
TORSDOF 6
ENDMDL
MODEL       95
REMARK 921   NORMALIZED FREE ENERGY PREDICTED BY IDOCK:   -4.59 KCAL/MOL
REMARK 922        TOTAL FREE ENERGY PREDICTED BY IDOCK:   -8.19 KCAL/MOL
REMARK 923 INTER-LIGAND FREE ENERGY PREDICTED BY IDOCK:   -7.41 KCAL/MOL
REMARK 924 INTRA-LIGAND FREE ENERGY PREDICTED BY IDOCK:   -0.77 KCAL/MOL
REMARK 927      BINDING AFFINITY PREDICTED BY RF-SCORE:    0.00 PKD
ROOT
HETATM    1  C   UNL     1      -8.107   6.758  74.385  1.00  0.00    -0.141 C  
HETATM    2  C   UNL     1      -9.047   6.410  73.163  1.00  0.00    -0.134 C  
HETATM    3  C   UNL     1     -10.489   6.602  73.628  1.00  0.00    -0.353 C  
HETATM    4  C   UNL     1     -11.460   6.103  72.578  1.00  0.00    -0.318 C  
HETATM    5  C   UNL     1     -11.414   4.603  72.403  1.00  0.00     0.269 C  
HETATM    6  C   UNL     1     -10.026   3.886  72.482  1.00  0.00    -0.225 C  
HETATM    7  C   UNL     1      -8.801   4.860  72.910  1.00  0.00    -0.117 C  
HETATM    8  C   UNL     1      -9.700   3.125  71.165  1.00  0.00    -0.198 C  
HETATM    9  C   UNL     1     -10.393   2.652  73.393  1.00  0.00    -0.132 C  
HETATM   10  O   UNL     1     -11.273   1.846  73.070  1.00  0.00    -0.148 OA 
HETATM   11  O   UNL     1      -9.758   2.464  74.551  1.00  0.00    -0.087 OA 
HETATM   12  C   UNL     1      -7.425   4.670  72.239  1.00  0.00    -0.083 C  
HETATM   13  C   UNL     1      -7.144   5.595  71.074  1.00  0.00    -0.070 C  
HETATM   14  C   UNL     1      -7.368   7.107  71.211  1.00  0.00    -0.079 C  
HETATM   15  C   UNL     1      -6.200   8.005  71.665  1.00  0.00    -0.040 C  
HETATM   16  C   UNL     1      -6.477   9.315  70.919  1.00  0.00    -0.080 C  
HETATM   17  C   UNL     1      -5.740  10.417  71.111  1.00  0.00    -0.017 C  
HETATM   18  C   UNL     1      -7.579   9.115  69.850  1.00  0.00    -0.080 C  
HETATM   19  C   UNL     1      -8.994   9.437  70.385  1.00  0.00    -0.294 C  
HETATM   20  C   UNL     1      -8.630   7.488  72.043  1.00  0.00    -0.126 C  
HETATM   21  C   UNL     1      -7.445   7.613  69.752  1.00  0.00    -0.090 C  
HETATM   22  C   UNL     1      -9.651   8.238  71.141  1.00  0.00    -0.206 C  
ENDROOT
BRANCH  18  23
HETATM   23  O   UNL     1      -7.189   9.832  68.681  1.00  0.00    -0.071 OA 
BRANCH  23  24
HETATM   24  C   UNL     1      -7.701   9.564  67.362  1.00  0.00    -0.095 C  
HETATM   25  O   UNL     1      -7.496   8.186  67.018  1.00  0.00    -0.086 OA 
HETATM   26  C   UNL     1      -8.176   7.816  65.804  1.00  0.00    -0.132 C  
HETATM   27  C   UNL     1      -7.524   8.551  64.643  1.00  0.00    -0.096 C  
HETATM   28  H   UNL     1      -6.742  11.573  64.004  1.00  0.00     0.000 HD 
HETATM   29  C   UNL     1      -7.630  10.062  64.825  1.00  0.00    -0.143 C  
HETATM   30  H   UNL     1      -7.692   8.665  62.651  1.00  0.00     0.000 HD 
HETATM   31  O   UNL     1      -8.099   8.207  63.376  1.00  0.00    -0.156 OA 
HETATM   32  O   UNL     1      -6.676  10.631  63.890  1.00  0.00     0.038 OA 
HETATM   33  C   UNL     1      -7.287  10.563  66.235  1.00  0.00    -0.133 C  
BRANCH  26  34
HETATM   34  C   UNL     1      -8.054   6.299  65.612  1.00  0.00    -0.129 C  
HETATM   35  H   UNL     1      -8.213   4.695  66.732  1.00  0.00     0.000 HD 
HETATM   36  O   UNL     1      -8.289   5.634  66.851  1.00  0.00    -0.108 OA 
ENDBRANCH  26  34
BRANCH  33  37
HETATM   37  O   UNL     1      -7.872  11.849  66.556  1.00  0.00    -0.064 OA 
BRANCH  37  38
HETATM   38  C   UNL     1      -9.302  12.016  66.532  1.00  0.00    -0.223 C  
HETATM   39  O   UNL     1      -9.742  12.082  65.190  1.00  0.00    -0.228 OA 
HETATM   40  C   UNL     1     -11.111  12.394  64.950  1.00  0.00    -0.303 C  
HETATM   41  C   UNL     1     -11.636  13.589  65.755  1.00  0.00    -0.330 C  
HETATM   42  H   UNL     1      -9.971  13.520  69.380  1.00  0.00     0.000 HD 
HETATM   43  O   UNL     1      -9.662  12.815  68.823  1.00  0.00    -0.087 OA 
HETATM   44  O   UNL     1     -13.059  13.676  65.626  1.00  0.00    -0.549 OA 
HETATM   45  C   UNL     1     -11.285  13.440  67.224  1.00  0.00    -0.295 C  
HETATM   46  H   UNL     1     -11.431  14.543  68.866  1.00  0.00     0.000 HD 
HETATM   47  O   UNL     1     -11.651  14.636  67.947  1.00  0.00    -0.319 OA 
HETATM   48  H   UNL     1     -13.384  14.416  66.125  1.00  0.00     0.000 HD 
HETATM   49  C   UNL     1      -9.805  13.160  67.435  1.00  0.00    -0.226 C  
BRANCH  40  50
HETATM   50  C   UNL     1     -11.224  12.717  63.447  1.00  0.00    -0.344 C  
HETATM   51  O   UNL     1     -12.186  11.892  62.785  1.00  0.00    -0.585 OA 
HETATM   52  H   UNL     1     -12.255  12.091  61.858  1.00  0.00     0.000 HD 
ENDBRANCH  40  50
ENDBRANCH  37  38
ENDBRANCH  33  37
ENDBRANCH  23  24
ENDBRANCH  18  23
TORSDOF 6
ENDMDL
MODEL       96
REMARK 921   NORMALIZED FREE ENERGY PREDICTED BY IDOCK:   -4.57 KCAL/MOL
REMARK 922        TOTAL FREE ENERGY PREDICTED BY IDOCK:   -8.16 KCAL/MOL
REMARK 923 INTER-LIGAND FREE ENERGY PREDICTED BY IDOCK:   -8.72 KCAL/MOL
REMARK 924 INTRA-LIGAND FREE ENERGY PREDICTED BY IDOCK:    0.56 KCAL/MOL
REMARK 927      BINDING AFFINITY PREDICTED BY RF-SCORE:    0.00 PKD
ROOT
HETATM    1  C   UNL     1     -10.975   7.136  67.743  1.00  0.00    -0.187 C  
HETATM    2  C   UNL     1      -9.793   7.636  68.663  1.00  0.00    -0.175 C  
HETATM    3  C   UNL     1      -8.706   6.563  68.632  1.00  0.00    -0.123 C  
HETATM    4  C   UNL     1      -7.619   6.873  69.642  1.00  0.00    -0.101 C  
HETATM    5  C   UNL     1      -8.097   6.755  71.070  1.00  0.00    -0.115 C  
HETATM    6  C   UNL     1      -9.544   7.240  71.416  1.00  0.00    -0.165 C  
HETATM    7  C   UNL     1     -10.422   7.673  70.123  1.00  0.00    -0.227 C  
HETATM    8  C   UNL     1      -9.527   8.369  72.485  1.00  0.00    -0.360 C  
HETATM    9  C   UNL     1     -10.034   6.048  72.325  1.00  0.00    -0.167 C  
HETATM   10  O   UNL     1      -9.432   5.729  73.357  1.00  0.00    -0.139 OA 
HETATM   11  O   UNL     1     -11.116   5.348  71.983  1.00  0.00    -0.218 OA 
HETATM   12  C   UNL     1     -11.366   8.888  70.234  1.00  0.00    -0.179 C  
HETATM   13  C   UNL     1     -10.802  10.193  69.711  1.00  0.00    -0.320 C  
HETATM   14  C   UNL     1     -10.155  10.257  68.321  1.00  0.00    -0.176 C  
HETATM   15  C   UNL     1     -11.024  10.626  67.101  1.00  0.00    -0.312 C  
HETATM   16  C   UNL     1     -10.032  11.372  66.201  1.00  0.00    -0.265 C  
HETATM   17  C   UNL     1     -10.358  11.788  64.970  1.00  0.00    -0.325 C  
HETATM   18  C   UNL     1      -8.726  11.690  66.968  1.00  0.00    -0.173 C  
HETATM   19  C   UNL     1      -7.648  10.597  66.788  1.00  0.00    -0.120 C  
HETATM   20  C   UNL     1      -9.310   8.999  67.956  1.00  0.00    -0.153 C  
HETATM   21  C   UNL     1      -9.310  11.550  68.355  1.00  0.00    -0.194 C  
HETATM   22  C   UNL     1      -7.817   9.400  67.777  1.00  0.00    -0.095 C  
ENDROOT
BRANCH  18  23
HETATM   23  O   UNL     1      -8.323  13.012  66.615  1.00  0.00    -0.014 OA 
BRANCH  23  24
HETATM   24  C   UNL     1      -8.788  14.202  67.279  1.00  0.00    -0.218 C  
HETATM   25  O   UNL     1     -10.010  13.934  67.983  1.00  0.00    -0.227 OA 
HETATM   26  C   UNL     1     -10.403  15.027  68.834  1.00  0.00    -0.244 C  
HETATM   27  C   UNL     1     -10.774  16.213  67.957  1.00  0.00    -0.321 C  
HETATM   28  H   UNL     1      -9.408  17.785  65.545  1.00  0.00     0.000 HD 
HETATM   29  C   UNL     1      -9.587  16.655  67.107  1.00  0.00    -0.241 C  
HETATM   30  H   UNL     1     -11.465  18.081  68.166  1.00  0.00     0.000 HD 
HETATM   31  O   UNL     1     -11.233  17.341  68.713  1.00  0.00    -0.040 OA 
HETATM   32  O   UNL     1     -10.148  17.510  66.075  1.00  0.00    -0.451 OA 
HETATM   33  C   UNL     1      -8.824  15.510  66.426  1.00  0.00    -0.324 C  
BRANCH  26  34
HETATM   34  C   UNL     1     -11.608  14.589  69.675  1.00  0.00    -0.299 C  
HETATM   35  H   UNL     1     -12.205  14.786  71.535  1.00  0.00     0.000 HD 
HETATM   36  O   UNL     1     -11.459  15.058  71.014  1.00  0.00    -0.299 OA 
ENDBRANCH  26  34
BRANCH  33  37
HETATM   37  O   UNL     1      -7.457  15.843  66.082  1.00  0.00     0.189 OA 
BRANCH  37  38
HETATM   38  C   UNL     1      -6.699  16.733  66.922  1.00  0.00    -0.220 C  
HETATM   39  O   UNL     1      -6.570  16.164  68.210  1.00  0.00    -0.117 OA 
HETATM   40  C   UNL     1      -5.978  16.956  69.235  1.00  0.00    -0.190 C  
HETATM   41  C   UNL     1      -6.528  18.384  69.324  1.00  0.00    -0.257 C  
HETATM   42  H   UNL     1      -7.258  19.707  65.632  1.00  0.00     0.000 HD 
HETATM   43  O   UNL     1      -6.939  18.812  65.642  1.00  0.00    -0.362 OA 
HETATM   44  O   UNL     1      -5.719  19.162  70.213  1.00  0.00    -0.234 OA 
HETATM   45  C   UNL     1      -6.528  19.043  67.957  1.00  0.00    -0.224 C  
HETATM   46  H   UNL     1      -7.183  20.742  67.170  1.00  0.00     0.000 HD 
HETATM   47  O   UNL     1      -7.183  20.329  68.026  1.00  0.00    -0.290 OA 
HETATM   48  H   UNL     1      -6.060  20.047  70.269  1.00  0.00     0.000 HD 
HETATM   49  C   UNL     1      -7.216  18.186  66.906  1.00  0.00    -0.205 C  
BRANCH  40  50
HETATM   50  C   UNL     1      -6.264  16.227  70.563  1.00  0.00     0.354 C  
HETATM   51  O   UNL     1      -6.875  14.950  70.362  1.00  0.00    -0.193 OA 
HETATM   52  H   UNL     1      -7.051  14.501  71.180  1.00  0.00     0.000 HD 
ENDBRANCH  40  50
ENDBRANCH  37  38
ENDBRANCH  33  37
ENDBRANCH  23  24
ENDBRANCH  18  23
TORSDOF 6
ENDMDL
MODEL       97
REMARK 921   NORMALIZED FREE ENERGY PREDICTED BY IDOCK:   -4.56 KCAL/MOL
REMARK 922        TOTAL FREE ENERGY PREDICTED BY IDOCK:   -8.14 KCAL/MOL
REMARK 923 INTER-LIGAND FREE ENERGY PREDICTED BY IDOCK:   -8.66 KCAL/MOL
REMARK 924 INTRA-LIGAND FREE ENERGY PREDICTED BY IDOCK:    0.52 KCAL/MOL
REMARK 927      BINDING AFFINITY PREDICTED BY RF-SCORE:    0.00 PKD
ROOT
HETATM    1  C   UNL     1      -9.699   5.545  68.212  1.00  0.00    -0.167 C  
HETATM    2  C   UNL     1      -9.012   6.493  69.272  1.00  0.00    -0.131 C  
HETATM    3  C   UNL     1      -7.679   5.856  69.659  1.00  0.00    -0.096 C  
HETATM    4  C   UNL     1      -7.046   6.602  70.816  1.00  0.00    -0.069 C  
HETATM    5  C   UNL     1      -7.819   6.451  72.104  1.00  0.00    -0.099 C  
HETATM    6  C   UNL     1      -9.382   6.442  72.039  1.00  0.00    -0.151 C  
HETATM    7  C   UNL     1      -9.982   6.438  70.532  1.00  0.00    -0.214 C  
HETATM    8  C   UNL     1      -9.996   7.596  72.882  1.00  0.00    -0.319 C  
HETATM    9  C   UNL     1      -9.701   5.236  73.005  1.00  0.00    -0.146 C  
HETATM   10  O   UNL     1      -9.322   5.230  74.182  1.00  0.00    -0.124 OA 
HETATM   11  O   UNL     1     -10.385   4.183  72.556  1.00  0.00    -0.172 OA 
HETATM   12  C   UNL     1     -11.249   7.264  70.229  1.00  0.00    -0.287 C  
HETATM   13  C   UNL     1     -10.999   8.633  69.632  1.00  0.00    -0.099 C  
HETATM   14  C   UNL     1     -10.063   8.795  68.426  1.00  0.00    -0.217 C  
HETATM   15  C   UNL     1     -10.652   8.741  67.001  1.00  0.00    -0.283 C  
HETATM   16  C   UNL     1      -9.740   9.701  66.228  1.00  0.00    -0.303 C  
HETATM   17  C   UNL     1      -9.844   9.874  64.904  1.00  0.00    -0.282 C  
HETATM   18  C   UNL     1      -8.845  10.509  67.198  1.00  0.00    -0.136 C  
HETATM   19  C   UNL     1      -7.474   9.837  67.444  1.00  0.00    -0.091 C  
HETATM   20  C   UNL     1      -8.806   7.874  68.471  1.00  0.00    -0.134 C  
HETATM   21  C   UNL     1      -9.699  10.297  68.427  1.00  0.00    -0.165 C  
HETATM   22  C   UNL     1      -7.518   8.742  68.558  1.00  0.00    -0.089 C  
ENDROOT
BRANCH  18  23
HETATM   23  O   UNL     1      -8.792  11.853  66.726  1.00  0.00    -0.184 OA 
BRANCH  23  24
HETATM   24  C   UNL     1      -9.666  12.903  67.182  1.00  0.00    -0.221 C  
HETATM   25  O   UNL     1     -10.315  12.517  68.403  1.00  0.00    -0.223 OA 
HETATM   26  C   UNL     1     -11.032  13.607  69.010  1.00  0.00    -0.234 C  
HETATM   27  C   UNL     1     -12.202  13.976  68.112  1.00  0.00    -0.156 C  
HETATM   28  H   UNL     1     -12.582  14.650  65.020  1.00  0.00     0.000 HD 
HETATM   29  C   UNL     1     -11.714  14.416  66.735  1.00  0.00    -0.397 C  
HETATM   30  H   UNL     1     -13.745  15.252  68.098  1.00  0.00     0.000 HD 
HETATM   31  O   UNL     1     -13.015  15.022  68.659  1.00  0.00     0.793 OA 
HETATM   32  O   UNL     1     -12.887  14.376  65.878  1.00  0.00    -0.359 OA 
HETATM   33  C   UNL     1     -10.633  13.517  66.120  1.00  0.00    -0.290 C  
BRANCH  26  34
HETATM   34  C   UNL     1     -11.539  13.158  70.387  1.00  0.00     0.099 C  
HETATM   35  H   UNL     1     -12.502  11.616  71.127  1.00  0.00     0.000 HD 
HETATM   36  O   UNL     1     -12.189  11.894  70.274  1.00  0.00    -0.309 OA 
ENDBRANCH  26  34
BRANCH  33  37
HETATM   37  O   UNL     1      -9.819  14.181  65.122  1.00  0.00    -0.276 OA 
BRANCH  37  38
HETATM   38  C   UNL     1      -9.294  15.497  65.380  1.00  0.00     0.159 C  
HETATM   39  O   UNL     1      -8.289  15.412  66.372  1.00  0.00    -0.226 OA 
HETATM   40  C   UNL     1      -7.744  16.627  66.878  1.00  0.00    -0.228 C  
HETATM   41  C   UNL     1      -8.794  17.679  67.255  1.00  0.00    -0.236 C  
HETATM   42  H   UNL     1     -11.782  17.508  64.618  1.00  0.00     0.000 HD 
HETATM   43  O   UNL     1     -11.111  16.857  64.451  1.00  0.00    -1.128 OA 
HETATM   44  O   UNL     1      -8.153  18.930  67.526  1.00  0.00    -0.256 OA 
HETATM   45  C   UNL     1      -9.788  17.872  66.124  1.00  0.00    -0.249 C  
HETATM   46  H   UNL     1     -11.477  18.872  65.838  1.00  0.00     0.000 HD 
HETATM   47  O   UNL     1     -10.854  18.752  66.545  1.00  0.00    -0.312 OA 
HETATM   48  H   UNL     1      -8.803  19.583  67.759  1.00  0.00     0.000 HD 
HETATM   49  C   UNL     1     -10.383  16.554  65.653  1.00  0.00    -0.322 C  
BRANCH  40  50
HETATM   50  C   UNL     1      -6.941  16.249  68.138  1.00  0.00    -0.128 C  
HETATM   51  O   UNL     1      -7.622  16.605  69.344  1.00  0.00    -0.201 OA 
HETATM   52  H   UNL     1      -7.126  16.372  70.121  1.00  0.00     0.000 HD 
ENDBRANCH  40  50
ENDBRANCH  37  38
ENDBRANCH  33  37
ENDBRANCH  23  24
ENDBRANCH  18  23
TORSDOF 6
ENDMDL
MODEL       98
REMARK 921   NORMALIZED FREE ENERGY PREDICTED BY IDOCK:   -4.54 KCAL/MOL
REMARK 922        TOTAL FREE ENERGY PREDICTED BY IDOCK:   -8.11 KCAL/MOL
REMARK 923 INTER-LIGAND FREE ENERGY PREDICTED BY IDOCK:   -8.66 KCAL/MOL
REMARK 924 INTRA-LIGAND FREE ENERGY PREDICTED BY IDOCK:    0.55 KCAL/MOL
REMARK 927      BINDING AFFINITY PREDICTED BY RF-SCORE:    0.00 PKD
ROOT
HETATM    1  C   UNL     1      -6.836   5.965  68.796  1.00  0.00    -0.066 C  
HETATM    2  C   UNL     1      -7.521   6.701  70.015  1.00  0.00    -0.094 C  
HETATM    3  C   UNL     1      -6.761   6.297  71.277  1.00  0.00    -0.058 C  
HETATM    4  C   UNL     1      -7.472   6.805  72.515  1.00  0.00    -0.091 C  
HETATM    5  C   UNL     1      -8.798   6.122  72.749  1.00  0.00    -0.123 C  
HETATM    6  C   UNL     1      -9.691   5.780  71.511  1.00  0.00    -0.193 C  
HETATM    7  C   UNL     1      -8.980   6.072  70.082  1.00  0.00    -0.150 C  
HETATM    8  C   UNL     1     -11.079   6.476  71.597  1.00  0.00    -0.302 C  
HETATM    9  C   UNL     1     -10.131   4.310  71.873  1.00  0.00    -0.167 C  
HETATM   10  O   UNL     1     -10.737   4.053  72.920  1.00  0.00    -0.173 OA 
HETATM   11  O   UNL     1      -9.842   3.303  71.048  1.00  0.00    -0.162 OA 
HETATM   12  C   UNL     1      -9.829   6.643  68.928  1.00  0.00    -0.143 C  
HETATM   13  C   UNL     1      -9.750   8.145  68.751  1.00  0.00    -0.155 C  
HETATM   14  C   UNL     1      -8.389   8.850  68.694  1.00  0.00    -0.124 C  
HETATM   15  C   UNL     1      -7.712   9.074  67.326  1.00  0.00    -0.096 C  
HETATM   16  C   UNL     1      -6.961  10.394  67.539  1.00  0.00    -0.084 C  
HETATM   17  C   UNL     1      -6.146  10.910  66.609  1.00  0.00    -0.101 C  
HETATM   18  C   UNL     1      -7.405  11.071  68.858  1.00  0.00    -0.111 C  
HETATM   19  C   UNL     1      -6.509  10.684  70.057  1.00  0.00    -0.138 C  
HETATM   20  C   UNL     1      -7.328   8.262  69.674  1.00  0.00    -0.073 C  
HETATM   21  C   UNL     1      -8.716  10.331  68.992  1.00  0.00    -0.164 C  
HETATM   22  C   UNL     1      -6.930   9.336  70.727  1.00  0.00    -0.110 C  
ENDROOT
BRANCH  18  23
HETATM   23  O   UNL     1      -7.526  12.471  68.611  1.00  0.00    -0.111 OA 
BRANCH  23  24
HETATM   24  C   UNL     1      -8.750  13.117  68.215  1.00  0.00    -0.165 C  
HETATM   25  O   UNL     1      -9.867  12.240  68.425  1.00  0.00    -0.213 OA 
HETATM   26  C   UNL     1     -11.130  12.908  68.246  1.00  0.00    -0.264 C  
HETATM   27  C   UNL     1     -11.272  13.288  66.780  1.00  0.00    -0.304 C  
HETATM   28  H   UNL     1      -9.475  14.802  64.629  1.00  0.00     0.000 HD 
HETATM   29  C   UNL     1     -10.152  14.230  66.350  1.00  0.00    -0.288 C  
HETATM   30  H   UNL     1     -12.617  14.151  65.573  1.00  0.00     0.000 HD 
HETATM   31  O   UNL     1     -12.528  13.914  66.488  1.00  0.00    -0.424 OA 
HETATM   32  O   UNL     1     -10.173  14.216  64.897  1.00  0.00    -0.412 OA 
HETATM   33  C   UNL     1      -8.750  13.816  66.819  1.00  0.00    -0.087 C  
BRANCH  26  34
HETATM   34  C   UNL     1     -12.256  11.954  68.662  1.00  0.00     0.104 C  
HETATM   35  H   UNL     1     -12.726  10.897  70.248  1.00  0.00     0.000 HD 
HETATM   36  O   UNL     1     -12.029  11.488  69.990  1.00  0.00    -0.312 OA 
ENDBRANCH  26  34
BRANCH  33  37
HETATM   37  O   UNL     1      -7.808  14.915  66.881  1.00  0.00    -0.155 OA 
BRANCH  37  38
HETATM   38  C   UNL     1      -8.097  16.066  67.697  1.00  0.00    -0.149 C  
HETATM   39  O   UNL     1      -9.293  15.839  68.418  1.00  0.00    -0.190 OA 
HETATM   40  C   UNL     1      -9.833  16.919  69.174  1.00  0.00    -0.206 C  
HETATM   41  C   UNL     1      -9.898  18.249  68.415  1.00  0.00    -0.369 C  
HETATM   42  H   UNL     1      -6.672  18.556  66.088  1.00  0.00     0.000 HD 
HETATM   43  O   UNL     1      -6.701  17.735  66.565  1.00  0.00    -0.182 OA 
HETATM   44  O   UNL     1     -10.229  19.309  69.318  1.00  0.00    -0.577 OA 
HETATM   45  C   UNL     1      -8.563  18.559  67.762  1.00  0.00    -0.271 C  
HETATM   46  H   UNL     1      -7.843  19.928  66.521  1.00  0.00     0.000 HD 
HETATM   47  O   UNL     1      -8.678  19.734  66.930  1.00  0.00    -0.303 OA 
HETATM   48  H   UNL     1     -10.270  20.134  68.848  1.00  0.00     0.000 HD 
HETATM   49  C   UNL     1      -8.052  17.399  66.922  1.00  0.00    -0.227 C  
BRANCH  40  50
HETATM   50  C   UNL     1     -11.262  16.498  69.569  1.00  0.00    -0.169 C  
HETATM   51  O   UNL     1     -11.534  16.729  70.953  1.00  0.00    -0.506 OA 
HETATM   52  H   UNL     1     -12.415  16.469  71.196  1.00  0.00     0.000 HD 
ENDBRANCH  40  50
ENDBRANCH  37  38
ENDBRANCH  33  37
ENDBRANCH  23  24
ENDBRANCH  18  23
TORSDOF 6
ENDMDL
MODEL       99
REMARK 921   NORMALIZED FREE ENERGY PREDICTED BY IDOCK:   -4.47 KCAL/MOL
REMARK 922        TOTAL FREE ENERGY PREDICTED BY IDOCK:   -8.02 KCAL/MOL
REMARK 923 INTER-LIGAND FREE ENERGY PREDICTED BY IDOCK:   -8.15 KCAL/MOL
REMARK 924 INTRA-LIGAND FREE ENERGY PREDICTED BY IDOCK:    0.13 KCAL/MOL
REMARK 927      BINDING AFFINITY PREDICTED BY RF-SCORE:    0.00 PKD
ROOT
HETATM    1  C   UNL     1      -6.727  16.033  66.836  1.00  0.00    -0.031 C  
HETATM    2  C   UNL     1      -8.303  16.018  66.938  1.00  0.00    -0.278 C  
HETATM    3  C   UNL     1      -8.840  16.923  65.831  1.00  0.00    -0.067 C  
HETATM    4  C   UNL     1     -10.336  17.118  65.979  1.00  0.00    -0.317 C  
HETATM    5  C   UNL     1     -10.703  17.920  67.206  1.00  0.00    -0.278 C  
HETATM    6  C   UNL     1      -9.886  17.688  68.520  1.00  0.00    -0.346 C  
HETATM    7  C   UNL     1      -8.611  16.700  68.341  1.00  0.00    -0.221 C  
HETATM    8  C   UNL     1     -10.800  17.214  69.686  1.00  0.00     0.156 C  
HETATM    9  C   UNL     1      -9.655  19.179  68.980  1.00  0.00    -0.331 C  
HETATM   10  O   UNL     1     -10.602  19.945  69.194  1.00  0.00    -0.097 OA 
HETATM   11  O   UNL     1      -8.416  19.646  69.135  1.00  0.00    -0.259 OA 
HETATM   12  C   UNL     1      -8.271  15.707  69.471  1.00  0.00    -0.175 C  
HETATM   13  C   UNL     1      -8.801  14.302  69.275  1.00  0.00     0.277 C  
HETATM   14  C   UNL     1      -8.573  13.564  67.949  1.00  0.00    -0.182 C  
HETATM   15  C   UNL     1      -7.328  12.668  67.788  1.00  0.00    -0.128 C  
HETATM   16  C   UNL     1      -7.833  11.562  66.854  1.00  0.00    -0.163 C  
HETATM   17  C   UNL     1      -7.024  10.610  66.371  1.00  0.00    -0.129 C  
HETATM   18  C   UNL     1      -9.372  11.630  66.704  1.00  0.00    -0.194 C  
HETATM   19  C   UNL     1      -9.816  12.481  65.492  1.00  0.00    -0.197 C  
HETATM   20  C   UNL     1      -8.686  14.474  66.689  1.00  0.00    -0.162 C  
HETATM   21  C   UNL     1      -9.626  12.432  67.960  1.00  0.00    -0.211 C  
HETATM   22  C   UNL     1      -9.881  14.010  65.808  1.00  0.00    -0.280 C  
ENDROOT
BRANCH  18  23
HETATM   23  O   UNL     1      -9.873  10.295  66.730  1.00  0.00    -0.182 OA 
BRANCH  23  24
HETATM   24  C   UNL     1      -9.093   9.134  66.388  1.00  0.00    -0.170 C  
HETATM   25  O   UNL     1      -9.121   8.915  64.970  1.00  0.00    -0.165 OA 
HETATM   26  C   UNL     1      -8.190   7.899  64.553  1.00  0.00    -0.069 C  
HETATM   27  C   UNL     1      -8.655   6.561  65.108  1.00  0.00     0.013 C  
HETATM   28  H   UNL     1      -9.524   5.452  67.965  1.00  0.00     0.000 HD 
HETATM   29  C   UNL     1      -8.702   6.590  66.632  1.00  0.00    -0.128 C  
HETATM   30  H   UNL     1      -8.109   4.635  65.047  1.00  0.00     0.000 HD 
HETATM   31  O   UNL     1      -7.818   5.471  64.701  1.00  0.00    -0.094 OA 
HETATM   32  O   UNL     1      -9.495   5.434  67.015  1.00  0.00    -0.123 OA 
HETATM   33  C   UNL     1      -9.353   7.844  67.230  1.00  0.00    -0.148 C  
BRANCH  26  34
HETATM   34  C   UNL     1      -8.156   7.858  63.020  1.00  0.00    -0.108 C  
HETATM   35  H   UNL     1      -8.803   8.978  61.543  1.00  0.00     0.000 HD 
HETATM   36  O   UNL     1      -8.823   9.003  62.492  1.00  0.00    -0.222 OA 
ENDBRANCH  26  34
BRANCH  33  37
HETATM   37  O   UNL     1      -8.941   8.123  68.592  1.00  0.00    -0.137 OA 
BRANCH  37  38
HETATM   38  C   UNL     1      -9.791   7.749  69.692  1.00  0.00    -0.182 C  
HETATM   39  O   UNL     1     -10.808   8.720  69.846  1.00  0.00    -0.229 OA 
HETATM   40  C   UNL     1     -11.669   8.613  70.976  1.00  0.00    -0.278 C  
HETATM   41  C   UNL     1     -10.939   8.372  72.303  1.00  0.00    -0.361 C  
HETATM   42  H   UNL     1      -7.831   5.962  71.637  1.00  0.00     0.000 HD 
HETATM   43  O   UNL     1      -8.308   6.170  70.842  1.00  0.00    -0.123 OA 
HETATM   44  O   UNL     1     -11.886   8.047  73.327  1.00  0.00    -0.590 OA 
HETATM   45  C   UNL     1      -9.950   7.229  72.170  1.00  0.00    -0.165 C  
HETATM   46  H   UNL     1      -8.545   6.393  73.294  1.00  0.00     0.000 HD 
HETATM   47  O   UNL     1      -9.165   7.108  73.377  1.00  0.00    -0.142 OA 
HETATM   48  H   UNL     1     -11.435   7.898  74.149  1.00  0.00     0.000 HD 
HETATM   49  C   UNL     1      -9.017   7.412  70.983  1.00  0.00    -0.151 C  
BRANCH  40  50
HETATM   50  C   UNL     1     -12.436   9.947  71.063  1.00  0.00    -0.346 C  
HETATM   51  O   UNL     1     -13.525  10.008  70.138  1.00  0.00    -0.437 OA 
HETATM   52  H   UNL     1     -13.998  10.831  70.191  1.00  0.00     0.000 HD 
ENDBRANCH  40  50
ENDBRANCH  37  38
ENDBRANCH  33  37
ENDBRANCH  23  24
ENDBRANCH  18  23
TORSDOF 6
ENDMDL
MODEL      100
REMARK 921   NORMALIZED FREE ENERGY PREDICTED BY IDOCK:   -4.42 KCAL/MOL
REMARK 922        TOTAL FREE ENERGY PREDICTED BY IDOCK:   -7.96 KCAL/MOL
REMARK 923 INTER-LIGAND FREE ENERGY PREDICTED BY IDOCK:   -6.96 KCAL/MOL
REMARK 924 INTRA-LIGAND FREE ENERGY PREDICTED BY IDOCK:   -1.00 KCAL/MOL
REMARK 927      BINDING AFFINITY PREDICTED BY RF-SCORE:    0.00 PKD
ROOT
HETATM    1  C   UNL     1      -6.563  18.255  69.793  1.00  0.00    -0.001 C  
HETATM    2  C   UNL     1      -6.946  17.677  68.373  1.00  0.00    -0.222 C  
HETATM    3  C   UNL     1      -6.093  18.408  67.338  1.00  0.00    -0.174 C  
HETATM    4  C   UNL     1      -6.535  18.052  65.933  1.00  0.00    -0.305 C  
HETATM    5  C   UNL     1      -7.909  18.585  65.600  1.00  0.00     0.242 C  
HETATM    6  C   UNL     1      -9.007  18.567  66.714  1.00  0.00    -0.293 C  
HETATM    7  C   UNL     1      -8.463  18.109  68.171  1.00  0.00    -0.282 C  
HETATM    8  C   UNL     1     -10.241  17.722  66.286  1.00  0.00    -0.364 C  
HETATM    9  C   UNL     1      -9.622  20.008  66.532  1.00  0.00    -0.420 C  
HETATM   10  O   UNL     1     -10.110  20.374  65.456  1.00  0.00    -0.229 OA 
HETATM   11  O   UNL     1      -9.614  20.872  67.547  1.00  0.00    -0.402 OA 
HETATM   12  C   UNL     1      -9.362  17.225  69.060  1.00  0.00    -0.120 C  
HETATM   13  C   UNL     1      -9.070  15.740  68.997  1.00  0.00    -0.245 C  
HETATM   14  C   UNL     1      -7.634  15.223  69.160  1.00  0.00    -0.192 C  
HETATM   15  C   UNL     1      -7.126  14.838  70.565  1.00  0.00     0.437 C  
HETATM   16  C   UNL     1      -6.153  13.693  70.264  1.00  0.00    -0.121 C  
HETATM   17  C   UNL     1      -5.403  13.123  71.216  1.00  0.00    -0.185 C  
HETATM   18  C   UNL     1      -6.296  13.222  68.796  1.00  0.00    -0.094 C  
HETATM   19  C   UNL     1      -5.316  13.943  67.841  1.00  0.00    -0.080 C  
HETATM   20  C   UNL     1      -6.556  16.119  68.479  1.00  0.00    -0.122 C  
HETATM   21  C   UNL     1      -7.677  13.794  68.572  1.00  0.00    -0.138 C  
HETATM   22  C   UNL     1      -5.850  15.324  67.344  1.00  0.00     0.111 C  
ENDROOT
BRANCH  18  23
HETATM   23  O   UNL     1      -6.225  11.798  68.785  1.00  0.00    -0.052 OA 
BRANCH  23  24
HETATM   24  C   UNL     1      -6.979  10.960  67.889  1.00  0.00    -0.073 C  
HETATM   25  O   UNL     1      -6.466  11.069  66.553  1.00  0.00    -0.112 OA 
HETATM   26  C   UNL     1      -7.044  10.097  65.662  1.00  0.00    -0.133 C  
HETATM   27  C   UNL     1      -8.518  10.423  65.482  1.00  0.00    -0.167 C  
HETATM   28  H   UNL     1     -10.980  11.008  67.419  1.00  0.00     0.000 HD 
HETATM   29  C   UNL     1      -9.256  10.366  66.816  1.00  0.00    -0.155 C  
HETATM   30  H   UNL     1     -10.095   9.741  64.452  1.00  0.00     0.000 HD 
HETATM   31  O   UNL     1      -9.174   9.538  64.565  1.00  0.00    -0.238 OA 
HETATM   32  O   UNL     1     -10.521  11.043  66.587  1.00  0.00    -0.238 OA 
HETATM   33  C   UNL     1      -8.535  11.065  67.978  1.00  0.00    -0.129 C  
BRANCH  26  34
HETATM   34  C   UNL     1      -6.314  10.167  64.315  1.00  0.00    -0.126 C  
HETATM   35  H   UNL     1      -5.340   8.926  63.147  1.00  0.00     0.000 HD 
HETATM   36  O   UNL     1      -5.792   8.882  63.981  1.00  0.00    -0.069 OA 
ENDBRANCH  26  34
BRANCH  33  37
HETATM   37  O   UNL     1      -8.931  10.582  69.285  1.00  0.00    -0.179 OA 
BRANCH  37  38
HETATM   38  C   UNL     1      -8.551   9.259  69.710  1.00  0.00    -0.159 C  
HETATM   39  O   UNL     1      -9.600   8.356  69.418  1.00  0.00    -0.168 OA 
HETATM   40  C   UNL     1      -9.483   7.019  69.894  1.00  0.00    -0.157 C  
HETATM   41  C   UNL     1      -9.062   6.908  71.364  1.00  0.00    -0.148 C  
HETATM   42  H   UNL     1      -6.427   9.794  72.163  1.00  0.00     0.000 HD 
HETATM   43  O   UNL     1      -6.745   9.829  71.269  1.00  0.00    -0.317 OA 
HETATM   44  O   UNL     1      -8.747   5.548  71.679  1.00  0.00    -0.133 OA 
HETATM   45  C   UNL     1      -7.844   7.771  71.639  1.00  0.00    -0.089 C  
HETATM   46  H   UNL     1      -6.785   8.315  73.225  1.00  0.00     0.000 HD 
HETATM   47  O   UNL     1      -7.547   7.775  73.052  1.00  0.00    -0.096 OA 
HETATM   48  H   UNL     1      -8.487   5.479  72.590  1.00  0.00     0.000 HD 
HETATM   49  C   UNL     1      -8.034   9.202  71.162  1.00  0.00    -0.075 C  
BRANCH  40  50
HETATM   50  C   UNL     1     -10.873   6.376  69.722  1.00  0.00    -0.314 C  
HETATM   51  O   UNL     1     -11.261   6.279  68.349  1.00  0.00    -0.433 OA 
HETATM   52  H   UNL     1     -12.118   5.882  68.243  1.00  0.00     0.000 HD 
ENDBRANCH  40  50
ENDBRANCH  37  38
ENDBRANCH  33  37
ENDBRANCH  23  24
ENDBRANCH  18  23
TORSDOF 6
ENDMDL
MODEL      101
REMARK 921   NORMALIZED FREE ENERGY PREDICTED BY IDOCK:   -4.33 KCAL/MOL
REMARK 922        TOTAL FREE ENERGY PREDICTED BY IDOCK:   -7.83 KCAL/MOL
REMARK 923 INTER-LIGAND FREE ENERGY PREDICTED BY IDOCK:   -6.82 KCAL/MOL
REMARK 924 INTRA-LIGAND FREE ENERGY PREDICTED BY IDOCK:   -1.02 KCAL/MOL
REMARK 927      BINDING AFFINITY PREDICTED BY RF-SCORE:    0.00 PKD
ROOT
HETATM    1  C   UNL     1      -8.462  14.707  66.484  1.00  0.00     0.078 C  
HETATM    2  C   UNL     1      -9.815  13.943  66.772  1.00  0.00    -0.274 C  
HETATM    3  C   UNL     1     -10.929  14.704  66.056  1.00  0.00    -0.325 C  
HETATM    4  C   UNL     1     -12.286  14.150  66.440  1.00  0.00    -0.431 C  
HETATM    5  C   UNL     1     -12.640  14.416  67.884  1.00  0.00     0.508 C  
HETATM    6  C   UNL     1     -11.507  14.323  68.960  1.00  0.00    -0.318 C  
HETATM    7  C   UNL     1     -10.025  14.099  68.340  1.00  0.00    -0.235 C  
HETATM    8  C   UNL     1     -11.831  13.250  70.038  1.00  0.00    -0.365 C  
HETATM    9  C   UNL     1     -11.809  15.619  69.805  1.00  0.00    -0.363 C  
HETATM   10  O   UNL     1     -12.904  15.797  70.352  1.00  0.00    -0.401 OA 
HETATM   11  O   UNL     1     -10.877  16.564  69.936  1.00  0.00    -0.344 OA 
HETATM   12  C   UNL     1      -9.041  13.166  69.076  1.00  0.00     0.465 C  
HETATM   13  C   UNL     1      -8.974  11.750  68.543  1.00  0.00    -0.132 C  
HETATM   14  C   UNL     1      -8.792  11.494  67.041  1.00  0.00    -0.173 C  
HETATM   15  C   UNL     1      -7.369  11.331  66.470  1.00  0.00    -0.101 C  
HETATM   16  C   UNL     1      -7.583  10.338  65.321  1.00  0.00    -0.143 C  
HETATM   17  C   UNL     1      -6.597   9.992  64.483  1.00  0.00    -0.129 C  
HETATM   18  C   UNL     1      -8.998   9.715  65.391  1.00  0.00    -0.190 C  
HETATM   19  C   UNL     1     -10.034  10.494  64.549  1.00  0.00    -0.413 C  
HETATM   20  C   UNL     1      -9.574  12.487  66.129  1.00  0.00    -0.230 C  
HETATM   21  C   UNL     1      -9.246  10.029  66.848  1.00  0.00    -0.169 C  
HETATM   22  C   UNL     1     -10.646  11.717  65.306  1.00  0.00    -0.333 C  
ENDROOT
BRANCH  18  23
HETATM   23  O   UNL     1      -8.880   8.327  65.085  1.00  0.00    -0.109 OA 
BRANCH  23  24
HETATM   24  C   UNL     1      -8.334   7.347  65.987  1.00  0.00    -0.143 C  
HETATM   25  O   UNL     1      -7.189   6.711  65.399  1.00  0.00    -0.068 OA 
HETATM   26  C   UNL     1      -6.482   5.879  66.337  1.00  0.00    -0.043 C  
HETATM   27  C   UNL     1      -7.370   4.699  66.701  1.00  0.00    -0.081 C  
HETATM   28  H   UNL     1     -10.371   4.323  67.701  1.00  0.00     0.000 HD 
HETATM   29  C   UNL     1      -8.668   5.172  67.346  1.00  0.00    -0.103 C  
HETATM   30  H   UNL     1      -7.285   3.041  67.821  1.00  0.00     0.000 HD 
HETATM   31  O   UNL     1      -6.731   3.777  67.594  1.00  0.00    -0.041 OA 
HETATM   32  O   UNL     1      -9.562   4.028  67.299  1.00  0.00    -0.188 OA 
HETATM   33  C   UNL     1      -9.348   6.348  66.631  1.00  0.00    -0.153 C  
BRANCH  26  34
HETATM   34  C   UNL     1      -5.185   5.388  65.681  1.00  0.00    -0.009 C  
HETATM   35  H   UNL     1      -4.689   4.281  64.138  1.00  0.00     0.000 HD 
HETATM   36  O   UNL     1      -5.492   4.584  64.544  1.00  0.00    -0.013 OA 
ENDBRANCH  26  34
BRANCH  33  37
HETATM   37  O   UNL     1     -10.234   7.116  67.483  1.00  0.00    -0.175 OA 
BRANCH  37  38
HETATM   38  C   UNL     1      -9.911   7.306  68.873  1.00  0.00    -0.158 C  
HETATM   39  O   UNL     1      -8.506   7.396  69.017  1.00  0.00    -0.128 OA 
HETATM   40  C   UNL     1      -7.971   7.438  70.337  1.00  0.00    -0.103 C  
HETATM   41  C   UNL     1      -8.551   6.382  71.285  1.00  0.00    -0.127 C  
HETATM   42  H   UNL     1     -12.427   5.915  70.470  1.00  0.00     0.000 HD 
HETATM   43  O   UNL     1     -12.006   6.541  69.892  1.00  0.00    -0.319 OA 
HETATM   44  O   UNL     1      -8.132   6.651  72.628  1.00  0.00    -0.102 OA 
HETATM   45  C   UNL     1     -10.067   6.389  71.233  1.00  0.00    -0.187 C  
HETATM   46  H   UNL     1     -11.546   5.300  71.982  1.00  0.00     0.000 HD 
HETATM   47  O   UNL     1     -10.597   5.296  72.015  1.00  0.00    -0.217 OA 
HETATM   48  H   UNL     1      -8.490   5.997  73.216  1.00  0.00     0.000 HD 
HETATM   49  C   UNL     1     -10.594   6.289  69.810  1.00  0.00    -0.264 C  
BRANCH  40  50
HETATM   50  C   UNL     1      -6.454   7.205  70.196  1.00  0.00    -0.042 C  
HETATM   51  O   UNL     1      -6.146   5.877  69.765  1.00  0.00    -0.023 OA 
HETATM   52  H   UNL     1      -5.211   5.734  69.678  1.00  0.00     0.000 HD 
ENDBRANCH  40  50
ENDBRANCH  37  38
ENDBRANCH  33  37
ENDBRANCH  23  24
ENDBRANCH  18  23
TORSDOF 6
ENDMDL
MODEL      102
REMARK 921   NORMALIZED FREE ENERGY PREDICTED BY IDOCK:   -4.28 KCAL/MOL
REMARK 922        TOTAL FREE ENERGY PREDICTED BY IDOCK:   -7.77 KCAL/MOL
REMARK 923 INTER-LIGAND FREE ENERGY PREDICTED BY IDOCK:   -7.09 KCAL/MOL
REMARK 924 INTRA-LIGAND FREE ENERGY PREDICTED BY IDOCK:   -0.68 KCAL/MOL
REMARK 927      BINDING AFFINITY PREDICTED BY RF-SCORE:    0.00 PKD
ROOT
HETATM    1  C   UNL     1     -11.049   6.793  66.782  1.00  0.00    -0.137 C  
HETATM    2  C   UNL     1      -9.655   7.224  67.385  1.00  0.00    -0.176 C  
HETATM    3  C   UNL     1      -8.601   6.271  66.824  1.00  0.00    -0.116 C  
HETATM    4  C   UNL     1      -7.264   6.493  67.503  1.00  0.00    -0.086 C  
HETATM    5  C   UNL     1      -7.273   6.085  68.958  1.00  0.00    -0.083 C  
HETATM    6  C   UNL     1      -8.554   6.374  69.807  1.00  0.00    -0.138 C  
HETATM    7  C   UNL     1      -9.802   6.950  68.945  1.00  0.00    -0.147 C  
HETATM    8  C   UNL     1      -8.240   7.295  71.020  1.00  0.00    -0.107 C  
HETATM    9  C   UNL     1      -8.705   5.004  70.572  1.00  0.00    -0.113 C  
HETATM   10  O   UNL     1      -7.804   4.562  71.295  1.00  0.00    -0.080 OA 
HETATM   11  O   UNL     1      -9.819   4.283  70.440  1.00  0.00    -0.202 OA 
HETATM   12  C   UNL     1     -10.700   8.040  69.566  1.00  0.00    -0.185 C  
HETATM   13  C   UNL     1     -10.363   9.460  69.161  1.00  0.00    -0.221 C  
HETATM   14  C   UNL     1     -10.181   9.823  67.681  1.00  0.00    -0.261 C  
HETATM   15  C   UNL     1     -11.394  10.323  66.872  1.00  0.00     0.367 C  
HETATM   16  C   UNL     1     -10.752  11.299  65.879  1.00  0.00    -0.291 C  
HETATM   17  C   UNL     1     -11.455  11.895  64.906  1.00  0.00    -0.315 C  
HETATM   18  C   UNL     1      -9.282  11.590  66.267  1.00  0.00    -0.211 C  
HETATM   19  C   UNL     1      -8.282  10.643  65.566  1.00  0.00    -0.141 C  
HETATM   20  C   UNL     1      -9.454   8.726  66.845  1.00  0.00    -0.231 C  
HETATM   21  C   UNL     1      -9.404  11.158  67.711  1.00  0.00    -0.166 C  
HETATM   22  C   UNL     1      -8.102   9.280  66.309  1.00  0.00    -0.107 C  
ENDROOT
BRANCH  18  23
HETATM   23  O   UNL     1      -9.046  12.983  66.073  1.00  0.00    -0.007 OA 
BRANCH  23  24
HETATM   24  C   UNL     1      -8.388  13.831  67.032  1.00  0.00    -0.087 C  
HETATM   25  O   UNL     1      -7.232  13.172  67.570  1.00  0.00    -0.146 OA 
HETATM   26  C   UNL     1      -6.422  14.052  68.371  1.00  0.00    -0.103 C  
HETATM   27  C   UNL     1      -7.204  14.427  69.620  1.00  0.00    -0.004 C  
HETATM   28  H   UNL     1     -10.118  15.561  70.233  1.00  0.00     0.000 HD 
HETATM   29  C   UNL     1      -8.499  15.146  69.256  1.00  0.00    -0.209 C  
HETATM   30  H   UNL     1      -6.947  15.497  71.293  1.00  0.00     0.000 HD 
HETATM   31  O   UNL     1      -6.458  15.263  70.513  1.00  0.00    -0.024 OA 
HETATM   32  O   UNL     1      -9.311  15.113  70.460  1.00  0.00     0.487 OA 
HETATM   33  C   UNL     1      -9.295  14.497  68.115  1.00  0.00    -0.197 C  
BRANCH  26  34
HETATM   34  C   UNL     1      -5.127  13.321  68.752  1.00  0.00    -0.071 C  
HETATM   35  H   UNL     1      -4.637  11.688  69.724  1.00  0.00     0.000 HD 
HETATM   36  O   UNL     1      -5.438  12.140  69.488  1.00  0.00    -0.066 OA 
ENDBRANCH  26  34
BRANCH  33  37
HETATM   37  O   UNL     1     -10.189  15.410  67.433  1.00  0.00    -0.243 OA 
BRANCH  37  38
HETATM   38  C   UNL     1      -9.719  16.708  67.026  1.00  0.00    -0.249 C  
HETATM   39  O   UNL     1      -9.476  17.499  68.173  1.00  0.00    -0.272 OA 
HETATM   40  C   UNL     1      -9.145  18.871  67.982  1.00  0.00    -0.304 C  
HETATM   41  C   UNL     1     -10.058  19.608  66.996  1.00  0.00    -0.412 C  
HETATM   42  H   UNL     1     -11.019  17.118  64.032  1.00  0.00     0.000 HD 
HETATM   43  O   UNL     1     -10.473  16.706  64.691  1.00  0.00    -0.438 OA 
HETATM   44  O   UNL     1      -9.510  20.896  66.696  1.00  0.00    -0.636 OA 
HETATM   45  C   UNL     1     -10.199  18.822  65.706  1.00  0.00    -0.122 C  
HETATM   46  H   UNL     1     -11.264  18.957  64.038  1.00  0.00     0.000 HD 
HETATM   47  O   UNL     1     -11.175  19.449  64.846  1.00  0.00    -0.159 OA 
HETATM   48  H   UNL     1     -10.076  21.354  66.085  1.00  0.00     0.000 HD 
HETATM   49  C   UNL     1     -10.605  17.378  65.955  1.00  0.00    -0.210 C  
BRANCH  40  50
HETATM   50  C   UNL     1      -9.259  19.540  69.366  1.00  0.00     0.075 C  
HETATM   51  O   UNL     1     -10.556  20.097  69.595  1.00  0.00    -0.544 OA 
HETATM   52  H   UNL     1     -10.626  20.509  70.448  1.00  0.00     0.000 HD 
ENDBRANCH  40  50
ENDBRANCH  37  38
ENDBRANCH  33  37
ENDBRANCH  23  24
ENDBRANCH  18  23
TORSDOF 6
ENDMDL
MODEL      103
REMARK 921   NORMALIZED FREE ENERGY PREDICTED BY IDOCK:   -4.26 KCAL/MOL
REMARK 922        TOTAL FREE ENERGY PREDICTED BY IDOCK:   -7.74 KCAL/MOL
REMARK 923 INTER-LIGAND FREE ENERGY PREDICTED BY IDOCK:   -7.93 KCAL/MOL
REMARK 924 INTRA-LIGAND FREE ENERGY PREDICTED BY IDOCK:    0.19 KCAL/MOL
REMARK 927      BINDING AFFINITY PREDICTED BY RF-SCORE:    0.00 PKD
ROOT
HETATM    1  C   UNL     1     -11.388   5.815  72.440  1.00  0.00    -0.348 C  
HETATM    2  C   UNL     1     -10.070   5.853  71.570  1.00  0.00    -0.238 C  
HETATM    3  C   UNL     1     -10.065   4.602  70.695  1.00  0.00    -0.261 C  
HETATM    4  C   UNL     1      -8.741   4.461  69.970  1.00  0.00    -0.111 C  
HETATM    5  C   UNL     1      -7.592   4.162  70.904  1.00  0.00    -0.051 C  
HETATM    6  C   UNL     1      -7.563   4.865  72.301  1.00  0.00    -0.090 C  
HETATM    7  C   UNL     1      -8.895   5.729  72.635  1.00  0.00    -0.125 C  
HETATM    8  C   UNL     1      -6.279   5.725  72.482  1.00  0.00    -0.048 C  
HETATM    9  C   UNL     1      -7.175   3.648  73.225  1.00  0.00    -0.055 C  
HETATM   10  O   UNL     1      -6.133   3.005  73.048  1.00  0.00    -0.008 OA 
HETATM   11  O   UNL     1      -7.982   3.279  74.220  1.00  0.00    -0.067 OA 
HETATM   12  C   UNL     1      -8.748   7.070  73.383  1.00  0.00    -0.159 C  
HETATM   13  C   UNL     1      -8.730   8.301  72.502  1.00  0.00    -0.284 C  
HETATM   14  C   UNL     1      -9.810   8.505  71.430  1.00  0.00    -0.296 C  
HETATM   15  C   UNL     1     -11.089   9.290  71.787  1.00  0.00    -0.398 C  
HETATM   16  C   UNL     1     -11.440   9.973  70.460  1.00  0.00    -0.407 C  
HETATM   17  C   UNL     1     -12.561  10.689  70.300  1.00  0.00    -0.333 C  
HETATM   18  C   UNL     1     -10.275   9.843  69.450  1.00  0.00    -0.216 C  
HETATM   19  C   UNL     1     -10.415   8.603  68.536  1.00  0.00    -0.209 C  
HETATM   20  C   UNL     1     -10.229   7.195  70.696  1.00  0.00    -0.205 C  
HETATM   21  C   UNL     1      -9.200   9.553  70.472  1.00  0.00    -0.284 C  
HETATM   22  C   UNL     1      -9.862   7.295  69.188  1.00  0.00    -0.166 C  
ENDROOT
BRANCH  18  23
HETATM   23  O   UNL     1     -10.142  11.091  68.773  1.00  0.00    -0.190 OA 
BRANCH  23  24
HETATM   24  C   UNL     1      -9.139  11.365  67.777  1.00  0.00    -0.158 C  
HETATM   25  O   UNL     1      -9.376  10.577  66.600  1.00  0.00    -0.158 OA 
HETATM   26  C   UNL     1      -8.532  10.965  65.501  1.00  0.00    -0.115 C  
HETATM   27  C   UNL     1      -7.093  10.621  65.851  1.00  0.00    -0.115 C  
HETATM   28  H   UNL     1      -5.153  11.156  68.321  1.00  0.00     0.000 HD 
HETATM   29  C   UNL     1      -6.643  11.367  67.103  1.00  0.00    -0.118 C  
HETATM   30  H   UNL     1      -5.278  10.707  65.009  1.00  0.00     0.000 HD 
HETATM   31  O   UNL     1      -6.176  10.923  64.791  1.00  0.00     0.071 OA 
HETATM   32  O   UNL     1      -5.433  10.692  67.541  1.00  0.00    -0.043 OA 
HETATM   33  C   UNL     1      -7.654  11.349  68.258  1.00  0.00    -0.113 C  
BRANCH  26  34
HETATM   34  C   UNL     1      -8.974  10.202  64.246  1.00  0.00    -0.237 C  
HETATM   35  H   UNL     1     -10.584  10.089  63.129  1.00  0.00     0.000 HD 
HETATM   36  O   UNL     1     -10.311  10.562  63.906  1.00  0.00    -0.262 OA 
ENDBRANCH  26  34
BRANCH  33  37
HETATM   37  O   UNL     1      -7.488  12.441  69.196  1.00  0.00     0.010 OA 
BRANCH  37  38
HETATM   38  C   UNL     1      -8.063  13.729  68.910  1.00  0.00     0.059 C  
HETATM   39  O   UNL     1      -9.466  13.663  69.080  1.00  0.00     0.052 OA 
HETATM   40  C   UNL     1     -10.240  14.797  68.702  1.00  0.00    -0.236 C  
HETATM   41  C   UNL     1      -9.884  15.372  67.326  1.00  0.00    -0.217 C  
HETATM   42  H   UNL     1      -5.940  15.095  66.801  1.00  0.00     0.000 HD 
HETATM   43  O   UNL     1      -6.224  14.728  67.630  1.00  0.00    -0.227 OA 
HETATM   44  O   UNL     1     -10.542  16.630  67.140  1.00  0.00    -0.316 OA 
HETATM   45  C   UNL     1      -8.386  15.578  67.202  1.00  0.00    -0.214 C  
HETATM   46  H   UNL     1      -7.111  16.107  65.778  1.00  0.00     0.000 HD 
HETATM   47  O   UNL     1      -8.049  15.978  65.856  1.00  0.00     0.074 OA 
HETATM   48  H   UNL     1     -10.322  16.987  66.287  1.00  0.00     0.000 HD 
HETATM   49  C   UNL     1      -7.602  14.326  67.564  1.00  0.00    -0.184 C  
BRANCH  40  50
HETATM   50  C   UNL     1     -11.709  14.331  68.685  1.00  0.00    -0.345 C  
HETATM   51  O   UNL     1     -12.271  14.352  67.370  1.00  0.00    -0.591 OA 
HETATM   52  H   UNL     1     -13.177  14.065  67.360  1.00  0.00     0.000 HD 
ENDBRANCH  40  50
ENDBRANCH  37  38
ENDBRANCH  33  37
ENDBRANCH  23  24
ENDBRANCH  18  23
TORSDOF 6
ENDMDL
MODEL      104
REMARK 921   NORMALIZED FREE ENERGY PREDICTED BY IDOCK:   -4.25 KCAL/MOL
REMARK 922        TOTAL FREE ENERGY PREDICTED BY IDOCK:   -7.72 KCAL/MOL
REMARK 923 INTER-LIGAND FREE ENERGY PREDICTED BY IDOCK:   -7.80 KCAL/MOL
REMARK 924 INTRA-LIGAND FREE ENERGY PREDICTED BY IDOCK:    0.09 KCAL/MOL
REMARK 927      BINDING AFFINITY PREDICTED BY RF-SCORE:    0.00 PKD
ROOT
HETATM    1  C   UNL     1      -6.862  15.949  66.767  1.00  0.00     0.138 C  
HETATM    2  C   UNL     1      -8.436  16.043  66.867  1.00  0.00    -0.275 C  
HETATM    3  C   UNL     1      -8.898  17.068  65.834  1.00  0.00    -0.036 C  
HETATM    4  C   UNL     1     -10.376  17.361  65.996  1.00  0.00    -0.309 C  
HETATM    5  C   UNL     1     -10.691  18.089  67.282  1.00  0.00    -0.305 C  
HETATM    6  C   UNL     1      -9.901  17.695  68.575  1.00  0.00    -0.346 C  
HETATM    7  C   UNL     1      -8.701  16.634  68.319  1.00  0.00    -0.216 C  
HETATM    8  C   UNL     1     -10.855  17.201  69.699  1.00  0.00     0.156 C  
HETATM    9  C   UNL     1      -9.564  19.125  69.149  1.00  0.00    -0.262 C  
HETATM   10  O   UNL     1     -10.454  19.940  69.423  1.00  0.00    -0.148 OA 
HETATM   11  O   UNL     1      -8.296  19.487  69.341  1.00  0.00    -0.149 OA 
HETATM   12  C   UNL     1      -8.441  15.533  69.367  1.00  0.00    -0.256 C  
HETATM   13  C   UNL     1      -9.072  14.191  69.062  1.00  0.00     0.105 C  
HETATM   14  C   UNL     1      -8.891  13.544  67.682  1.00  0.00    -0.202 C  
HETATM   15  C   UNL     1      -7.714  12.573  67.452  1.00  0.00    -0.167 C  
HETATM   16  C   UNL     1      -8.292  11.585  66.434  1.00  0.00    -0.118 C  
HETATM   17  C   UNL     1      -7.552  10.616  65.878  1.00  0.00    -0.138 C  
HETATM   18  C   UNL     1      -9.821  11.776  66.289  1.00  0.00    -0.221 C  
HETATM   19  C   UNL     1     -10.194  12.750  65.148  1.00  0.00    -0.297 C  
HETATM   20  C   UNL     1      -8.929  14.556  66.497  1.00  0.00    -0.211 C  
HETATM   21  C   UNL     1     -10.023  12.495  67.604  1.00  0.00    -0.201 C  
HETATM   22  C   UNL     1     -10.149  14.251  65.582  1.00  0.00    -0.364 C  
ENDROOT
BRANCH  18  23
HETATM   23  O   UNL     1     -10.419  10.484  66.211  1.00  0.00    -0.235 OA 
BRANCH  23  24
HETATM   24  C   UNL     1      -9.928   9.325  66.910  1.00  0.00    -0.233 C  
HETATM   25  O   UNL     1      -9.439   8.350  65.978  1.00  0.00    -0.209 OA 
HETATM   26  C   UNL     1      -8.746   7.268  66.628  1.00  0.00    -0.132 C  
HETATM   27  C   UNL     1      -9.751   6.474  67.447  1.00  0.00    -0.126 C  
HETATM   28  H   UNL     1     -11.978   7.161  69.621  1.00  0.00     0.000 HD 
HETATM   29  C   UNL     1     -10.402   7.351  68.512  1.00  0.00    -0.198 C  
HETATM   30  H   UNL     1      -9.793   4.840  68.605  1.00  0.00     0.000 HD 
HETATM   31  O   UNL     1      -9.166   5.337  68.094  1.00  0.00    -0.109 OA 
HETATM   32  O   UNL     1     -11.572   6.614  68.958  1.00  0.00    -0.165 OA 
HETATM   33  C   UNL     1     -10.858   8.730  68.016  1.00  0.00     0.008 C  
BRANCH  26  34
HETATM   34  C   UNL     1      -8.107   6.376  65.556  1.00  0.00    -0.130 C  
HETATM   35  H   UNL     1      -7.239   6.627  63.814  1.00  0.00     0.000 HD 
HETATM   36  O   UNL     1      -7.635   7.180  64.477  1.00  0.00    -0.092 OA 
ENDBRANCH  26  34
BRANCH  33  37
HETATM   37  O   UNL     1     -10.973   9.720  69.067  1.00  0.00    -0.219 OA 
BRANCH  37  38
HETATM   38  C   UNL     1     -10.177   9.600  70.260  1.00  0.00    -0.277 C  
HETATM   39  O   UNL     1      -8.878   9.162  69.912  1.00  0.00    -0.143 OA 
HETATM   40  C   UNL     1      -7.976   8.838  70.967  1.00  0.00    -0.144 C  
HETATM   41  C   UNL     1      -8.578   7.944  72.057  1.00  0.00    -0.133 C  
HETATM   42  H   UNL     1     -12.381   9.003  72.628  1.00  0.00     0.000 HD 
HETATM   43  O   UNL     1     -11.962   9.507  71.940  1.00  0.00    -0.370 OA 
HETATM   44  O   UNL     1      -7.684   7.869  73.173  1.00  0.00    -0.113 OA 
HETATM   45  C   UNL     1      -9.909   8.499  72.531  1.00  0.00    -0.254 C  
HETATM   46  H   UNL     1     -11.368   7.922  73.744  1.00  0.00     0.000 HD 
HETATM   47  O   UNL     1     -10.535   7.575  73.448  1.00  0.00    -0.349 OA 
HETATM   48  H   UNL     1      -8.056   7.314  73.849  1.00  0.00     0.000 HD 
HETATM   49  C   UNL     1     -10.857   8.781  71.376  1.00  0.00    -0.289 C  
BRANCH  40  50
HETATM   50  C   UNL     1      -6.793   8.099  70.311  1.00  0.00    -0.037 C  
HETATM   51  O   UNL     1      -5.558   8.342  70.989  1.00  0.00    -0.032 OA 
HETATM   52  H   UNL     1      -4.828   7.887  70.585  1.00  0.00     0.000 HD 
ENDBRANCH  40  50
ENDBRANCH  37  38
ENDBRANCH  33  37
ENDBRANCH  23  24
ENDBRANCH  18  23
TORSDOF 6
ENDMDL
MODEL      105
REMARK 921   NORMALIZED FREE ENERGY PREDICTED BY IDOCK:   -4.23 KCAL/MOL
REMARK 922        TOTAL FREE ENERGY PREDICTED BY IDOCK:   -7.69 KCAL/MOL
REMARK 923 INTER-LIGAND FREE ENERGY PREDICTED BY IDOCK:   -8.22 KCAL/MOL
REMARK 924 INTRA-LIGAND FREE ENERGY PREDICTED BY IDOCK:    0.53 KCAL/MOL
REMARK 927      BINDING AFFINITY PREDICTED BY RF-SCORE:    0.00 PKD
ROOT
HETATM    1  C   UNL     1     -12.157  14.212  66.181  1.00  0.00    -0.454 C  
HETATM    2  C   UNL     1     -11.332  14.427  67.511  1.00  0.00    -0.345 C  
HETATM    3  C   UNL     1     -12.321  14.844  68.598  1.00  0.00     0.023 C  
HETATM    4  C   UNL     1     -11.587  15.259  69.858  1.00  0.00    -0.335 C  
HETATM    5  C   UNL     1     -10.800  16.536  69.683  1.00  0.00    -0.322 C  
HETATM    6  C   UNL     1     -10.065  16.779  68.323  1.00  0.00    -0.274 C  
HETATM    7  C   UNL     1     -10.386  15.665  67.189  1.00  0.00    -0.285 C  
HETATM    8  C   UNL     1      -8.532  16.947  68.524  1.00  0.00    -0.258 C  
HETATM    9  C   UNL     1     -10.445  18.287  68.060  1.00  0.00    -0.367 C  
HETATM   10  O   UNL     1     -10.157  19.179  68.867  1.00  0.00    -0.416 OA 
HETATM   11  O   UNL     1     -11.102  18.627  66.951  1.00  0.00    -0.151 OA 
HETATM   12  C   UNL     1      -9.250  15.201  66.254  1.00  0.00    -0.336 C  
HETATM   13  C   UNL     1      -8.562  13.916  66.665  1.00  0.00     0.040 C  
HETATM   14  C   UNL     1      -9.387  12.670  67.014  1.00  0.00    -0.220 C  
HETATM   15  C   UNL     1      -9.718  11.649  65.907  1.00  0.00    -0.260 C  
HETATM   16  C   UNL     1      -9.742  10.322  66.675  1.00  0.00    -0.233 C  
HETATM   17  C   UNL     1     -10.095   9.167  66.095  1.00  0.00    -0.278 C  
HETATM   18  C   UNL     1      -9.165  10.502  68.100  1.00  0.00    -0.148 C  
HETATM   19  C   UNL     1     -10.256  10.816  69.149  1.00  0.00    -0.229 C  
HETATM   20  C   UNL     1     -10.696  12.978  67.803  1.00  0.00    -0.242 C  
HETATM   21  C   UNL     1      -8.409  11.779  67.813  1.00  0.00    -0.146 C  
HETATM   22  C   UNL     1     -10.625  12.333  69.217  1.00  0.00     0.064 C  
ENDROOT
BRANCH  18  23
HETATM   23  O   UNL     1      -8.347   9.370  68.387  1.00  0.00    -0.116 OA 
BRANCH  23  24
HETATM   24  C   UNL     1      -8.817   8.009  68.363  1.00  0.00    -0.134 C  
HETATM   25  O   UNL     1      -9.715   7.772  69.457  1.00  0.00    -0.164 OA 
HETATM   26  C   UNL     1     -10.375   6.497  69.359  1.00  0.00    -0.205 C  
HETATM   27  C   UNL     1      -9.337   5.400  69.535  1.00  0.00    -0.124 C  
HETATM   28  H   UNL     1      -6.501   4.714  68.254  1.00  0.00     0.000 HD 
HETATM   29  C   UNL     1      -8.267   5.484  68.451  1.00  0.00    -0.099 C  
HETATM   30  H   UNL     1      -9.259   3.400  69.616  1.00  0.00     0.000 HD 
HETATM   31  O   UNL     1      -9.907   4.085  69.506  1.00  0.00    -0.195 OA 
HETATM   32  O   UNL     1      -7.168   4.661  68.929  1.00  0.00    -0.052 OA 
HETATM   33  C   UNL     1      -7.733   6.898  68.185  1.00  0.00    -0.113 C  
BRANCH  26  34
HETATM   34  C   UNL     1     -11.440   6.406  70.460  1.00  0.00    -0.379 C  
HETATM   35  H   UNL     1     -12.613   7.648  71.426  1.00  0.00     0.000 HD 
HETATM   36  O   UNL     1     -11.954   7.705  70.744  1.00  0.00    -0.264 OA 
ENDBRANCH  26  34
BRANCH  33  37
HETATM   37  O   UNL     1      -7.151   7.064  66.868  1.00  0.00    -0.071 OA 
BRANCH  37  38
HETATM   38  C   UNL     1      -7.413   6.094  65.838  1.00  0.00    -0.082 C  
HETATM   39  O   UNL     1      -8.809   5.905  65.718  1.00  0.00    -0.150 OA 
HETATM   40  C   UNL     1      -9.273   4.873  64.852  1.00  0.00    -0.077 C  
HETATM   41  C   UNL     1      -8.555   3.530  65.032  1.00  0.00    -0.110 C  
HETATM   42  H   UNL     1      -4.703   4.230  65.798  1.00  0.00     0.000 HD 
HETATM   43  O   UNL     1      -5.207   5.030  65.703  1.00  0.00    -0.011 OA 
HETATM   44  O   UNL     1      -8.920   2.638  63.974  1.00  0.00    -0.100 OA 
HETATM   45  C   UNL     1      -7.049   3.722  65.014  1.00  0.00    -0.066 C  
HETATM   46  H   UNL     1      -5.444   2.598  65.320  1.00  0.00     0.000 HD 
HETATM   47  O   UNL     1      -6.386   2.478  65.331  1.00  0.00    -0.023 OA 
HETATM   48  H   UNL     1      -8.476   1.805  64.085  1.00  0.00     0.000 HD 
HETATM   49  C   UNL     1      -6.595   4.795  65.991  1.00  0.00    -0.045 C  
BRANCH  40  50
HETATM   50  C   UNL     1     -10.770   4.685  65.167  1.00  0.00    -0.014 C  
HETATM   51  O   UNL     1     -11.116   5.162  66.469  1.00  0.00    -0.457 OA 
HETATM   52  H   UNL     1     -12.039   5.046  66.663  1.00  0.00     0.000 HD 
ENDBRANCH  40  50
ENDBRANCH  37  38
ENDBRANCH  33  37
ENDBRANCH  23  24
ENDBRANCH  18  23
TORSDOF 6
ENDMDL
MODEL      106
REMARK 921   NORMALIZED FREE ENERGY PREDICTED BY IDOCK:   -4.20 KCAL/MOL
REMARK 922        TOTAL FREE ENERGY PREDICTED BY IDOCK:   -7.65 KCAL/MOL
REMARK 923 INTER-LIGAND FREE ENERGY PREDICTED BY IDOCK:   -8.42 KCAL/MOL
REMARK 924 INTRA-LIGAND FREE ENERGY PREDICTED BY IDOCK:    0.77 KCAL/MOL
REMARK 927      BINDING AFFINITY PREDICTED BY RF-SCORE:    0.00 PKD
ROOT
HETATM    1  C   UNL     1     -10.414   5.605  69.605  1.00  0.00    -0.374 C  
HETATM    2  C   UNL     1      -9.333   5.530  68.455  1.00  0.00    -0.143 C  
HETATM    3  C   UNL     1      -9.806   4.481  67.451  1.00  0.00    -0.204 C  
HETATM    4  C   UNL     1      -8.733   4.208  66.417  1.00  0.00    -0.115 C  
HETATM    5  C   UNL     1      -7.521   3.519  67.000  1.00  0.00    -0.075 C  
HETATM    6  C   UNL     1      -7.038   3.940  68.428  1.00  0.00    -0.051 C  
HETATM    7  C   UNL     1      -8.028   4.982  69.180  1.00  0.00    -0.080 C  
HETATM    8  C   UNL     1      -5.578   4.475  68.402  1.00  0.00    -0.016 C  
HETATM    9  C   UNL     1      -6.769   2.524  69.067  1.00  0.00    -0.033 C  
HETATM   10  O   UNL     1      -5.970   1.726  68.563  1.00  0.00    -0.023 OA 
HETATM   11  O   UNL     1      -7.419   2.155  70.171  1.00  0.00    -0.039 OA 
HETATM   12  C   UNL     1      -7.415   6.109  70.037  1.00  0.00    -0.087 C  
HETATM   13  C   UNL     1      -7.287   7.448  69.343  1.00  0.00    -0.086 C  
HETATM   14  C   UNL     1      -8.484   8.055  68.599  1.00  0.00    -0.128 C  
HETATM   15  C   UNL     1      -9.437   9.007  69.350  1.00  0.00    -0.159 C  
HETATM   16  C   UNL     1      -9.881   9.973  68.247  1.00  0.00    -0.163 C  
HETATM   17  C   UNL     1     -10.808  10.918  68.455  1.00  0.00    -0.266 C  
HETATM   18  C   UNL     1      -9.015   9.793  66.977  1.00  0.00    -0.138 C  
HETATM   19  C   UNL     1      -9.630   8.791  65.972  1.00  0.00    -0.297 C  
HETATM   20  C   UNL     1      -9.345   7.011  67.825  1.00  0.00    -0.127 C  
HETATM   21  C   UNL     1      -7.853   9.113  67.665  1.00  0.00    -0.096 C  
HETATM   22  C   UNL     1      -9.283   7.303  66.298  1.00  0.00    -0.175 C  
ENDROOT
BRANCH  18  23
HETATM   23  O   UNL     1      -8.731  11.088  66.454  1.00  0.00    -0.161 OA 
BRANCH  23  24
HETATM   24  C   UNL     1      -9.690  12.160  66.388  1.00  0.00    -0.231 C  
HETATM   25  O   UNL     1     -10.698  11.868  65.409  1.00  0.00    -0.267 OA 
HETATM   26  C   UNL     1     -11.792  12.802  65.453  1.00  0.00    -0.415 C  
HETATM   27  C   UNL     1     -11.283  14.166  65.013  1.00  0.00    -0.356 C  
HETATM   28  H   UNL     1      -8.842  16.055  65.806  1.00  0.00     0.000 HD 
HETATM   29  C   UNL     1     -10.177  14.660  65.942  1.00  0.00    -0.326 C  
HETATM   30  H   UNL     1     -11.997  16.009  64.697  1.00  0.00     0.000 HD 
HETATM   31  O   UNL     1     -12.316  15.158  64.972  1.00  0.00    -0.090 OA 
HETATM   32  O   UNL     1      -9.531  15.748  65.228  1.00  0.00    -0.288 OA 
HETATM   33  C   UNL     1      -9.114  13.608  66.289  1.00  0.00     0.028 C  
BRANCH  26  34
HETATM   34  C   UNL     1     -12.896  12.314  64.506  1.00  0.00    -0.131 C  
HETATM   35  H   UNL     1     -12.995  11.444  62.749  1.00  0.00     0.000 HD 
HETATM   36  O   UNL     1     -12.312  11.746  63.335  1.00  0.00    -0.532 OA 
ENDBRANCH  26  34
BRANCH  33  37
HETATM   37  O   UNL     1      -8.406  13.881  67.523  1.00  0.00    -0.170 OA 
BRANCH  37  38
HETATM   38  C   UNL     1      -9.070  14.569  68.599  1.00  0.00    -0.187 C  
HETATM   39  O   UNL     1     -10.285  13.908  68.896  1.00  0.00    -0.213 OA 
HETATM   40  C   UNL     1     -11.166  14.518  69.834  1.00  0.00    -0.203 C  
HETATM   41  C   UNL     1     -11.405  16.013  69.595  1.00  0.00    -0.332 C  
HETATM   42  H   UNL     1      -8.000  17.668  68.339  1.00  0.00     0.000 HD 
HETATM   43  O   UNL     1      -7.920  16.732  68.479  1.00  0.00    -0.212 OA 
HETATM   44  O   UNL     1     -12.104  16.579  70.709  1.00  0.00    -0.341 OA 
HETATM   45  C   UNL     1     -10.087  16.744  69.420  1.00  0.00    -0.177 C  
HETATM   46  H   UNL     1      -9.501  18.577  68.939  1.00  0.00     0.000 HD 
HETATM   47  O   UNL     1     -10.326  18.119  69.049  1.00  0.00    -0.337 OA 
HETATM   48  H   UNL     1     -12.253  17.505  70.560  1.00  0.00     0.000 HD 
HETATM   49  C   UNL     1      -9.201  16.089  68.372  1.00  0.00    -0.196 C  
BRANCH  40  50
HETATM   50  C   UNL     1     -12.510  13.771  69.713  1.00  0.00    -0.162 C  
HETATM   51  O   UNL     1     -13.365  14.007  70.835  1.00  0.00    -0.252 OA 
HETATM   52  H   UNL     1     -14.193  13.546  70.760  1.00  0.00     0.000 HD 
ENDBRANCH  40  50
ENDBRANCH  37  38
ENDBRANCH  33  37
ENDBRANCH  23  24
ENDBRANCH  18  23
TORSDOF 6
ENDMDL
MODEL      107
REMARK 921   NORMALIZED FREE ENERGY PREDICTED BY IDOCK:   -4.18 KCAL/MOL
REMARK 922        TOTAL FREE ENERGY PREDICTED BY IDOCK:   -7.63 KCAL/MOL
REMARK 923 INTER-LIGAND FREE ENERGY PREDICTED BY IDOCK:   -6.96 KCAL/MOL
REMARK 924 INTRA-LIGAND FREE ENERGY PREDICTED BY IDOCK:   -0.66 KCAL/MOL
REMARK 927      BINDING AFFINITY PREDICTED BY RF-SCORE:    0.00 PKD
ROOT
HETATM    1  C   UNL     1      -9.759  12.835  64.271  1.00  0.00     0.122 C  
HETATM    2  C   UNL     1     -10.153  12.447  65.751  1.00  0.00    -0.273 C  
HETATM    3  C   UNL     1     -11.674  12.311  65.797  1.00  0.00    -0.445 C  
HETATM    4  C   UNL     1     -12.151  12.131  67.224  1.00  0.00     0.045 C  
HETATM    5  C   UNL     1     -11.949  13.367  68.069  1.00  0.00    -0.357 C  
HETATM    6  C   UNL     1     -10.648  14.209  67.859  1.00  0.00    -0.244 C  
HETATM    7  C   UNL     1      -9.734  13.716  66.613  1.00  0.00    -0.287 C  
HETATM    8  C   UNL     1      -9.809  14.301  69.166  1.00  0.00     0.006 C  
HETATM    9  C   UNL     1     -11.250  15.667  67.852  1.00  0.00    -0.328 C  
HETATM   10  O   UNL     1     -11.894  16.107  68.811  1.00  0.00    -0.339 OA 
HETATM   11  O   UNL     1     -11.081  16.455  66.790  1.00  0.00    -0.071 OA 
HETATM   12  C   UNL     1      -8.198  13.745  66.755  1.00  0.00     0.182 C  
HETATM   13  C   UNL     1      -7.562  12.427  67.144  1.00  0.00    -0.104 C  
HETATM   14  C   UNL     1      -7.916  11.140  66.386  1.00  0.00    -0.147 C  
HETATM   15  C   UNL     1      -7.059  10.718  65.175  1.00  0.00     0.166 C  
HETATM   16  C   UNL     1      -7.120   9.188  65.242  1.00  0.00    -0.088 C  
HETATM   17  C   UNL     1      -6.578   8.409  64.296  1.00  0.00    -0.067 C  
HETATM   18  C   UNL     1      -7.730   8.720  66.585  1.00  0.00    -0.093 C  
HETATM   19  C   UNL     1      -9.260   8.507  66.504  1.00  0.00    -0.239 C  
HETATM   20  C   UNL     1      -9.418  11.034  65.983  1.00  0.00    -0.235 C  
HETATM   21  C   UNL     1      -7.476  10.006  67.339  1.00  0.00    -0.091 C  
HETATM   22  C   UNL     1     -10.075   9.824  66.707  1.00  0.00    -0.295 C  
ENDROOT
BRANCH  18  23
HETATM   23  O   UNL     1      -6.979   7.597  67.040  1.00  0.00    -0.075 OA 
BRANCH  23  24
HETATM   24  C   UNL     1      -7.407   6.229  66.898  1.00  0.00    -0.083 C  
HETATM   25  O   UNL     1      -7.231   5.789  65.543  1.00  0.00    -0.071 OA 
HETATM   26  C   UNL     1      -7.443   4.373  65.394  1.00  0.00    -0.080 C  
HETATM   27  C   UNL     1      -8.911   4.074  65.655  1.00  0.00    -0.123 C  
HETATM   28  H   UNL     1     -11.008   4.763  67.952  1.00  0.00     0.000 HD 
HETATM   29  C   UNL     1      -9.308   4.485  67.069  1.00  0.00    -0.146 C  
HETATM   30  H   UNL     1     -10.152   2.503  65.639  1.00  0.00     0.000 HD 
HETATM   31  O   UNL     1      -9.236   2.690  65.477  1.00  0.00    -0.149 OA 
HETATM   32  O   UNL     1     -10.761   4.507  67.071  1.00  0.00     0.140 OA 
HETATM   33  C   UNL     1      -8.802   5.868  67.502  1.00  0.00    -0.106 C  
BRANCH  26  34
HETATM   34  C   UNL     1      -7.060   3.964  63.966  1.00  0.00    -0.050 C  
HETATM   35  H   UNL     1      -5.982   2.560  63.118  1.00  0.00     0.000 HD 
HETATM   36  O   UNL     1      -6.219   2.813  64.002  1.00  0.00    -0.017 OA 
ENDBRANCH  26  34
BRANCH  33  37
HETATM   37  O   UNL     1      -8.710   6.032  68.938  1.00  0.00    -0.121 OA 
BRANCH  37  38
HETATM   38  C   UNL     1      -9.905   6.220  69.719  1.00  0.00    -0.165 C  
HETATM   39  O   UNL     1     -10.308   7.574  69.639  1.00  0.00    -0.213 OA 
HETATM   40  C   UNL     1     -11.389   8.000  70.463  1.00  0.00    -0.225 C  
HETATM   41  C   UNL     1     -11.283   7.549  71.924  1.00  0.00    -0.248 C  
HETATM   42  H   UNL     1      -9.723   3.879  72.022  1.00  0.00     0.000 HD 
HETATM   43  O   UNL     1      -9.788   4.224  71.140  1.00  0.00    -0.175 OA 
HETATM   44  O   UNL     1     -12.511   7.820  72.607  1.00  0.00    -0.556 OA 
HETATM   45  C   UNL     1     -10.994   6.062  72.006  1.00  0.00    -0.263 C  
HETATM   46  H   UNL     1     -10.568   4.746  73.428  1.00  0.00     0.000 HD 
HETATM   47  O   UNL     1     -10.749   5.677  73.377  1.00  0.00    -0.244 OA 
HETATM   48  H   UNL     1     -12.446   7.541  73.513  1.00  0.00     0.000 HD 
HETATM   49  C   UNL     1      -9.800   5.661  71.153  1.00  0.00    -0.177 C  
BRANCH  40  50
HETATM   50  C   UNL     1     -11.388   9.541  70.414  1.00  0.00    -0.264 C  
HETATM   51  O   UNL     1     -10.087  10.091  70.636  1.00  0.00    -0.374 OA 
HETATM   52  H   UNL     1     -10.087  11.041  70.606  1.00  0.00     0.000 HD 
ENDBRANCH  40  50
ENDBRANCH  37  38
ENDBRANCH  33  37
ENDBRANCH  23  24
ENDBRANCH  18  23
TORSDOF 6
ENDMDL
MODEL      108
REMARK 921   NORMALIZED FREE ENERGY PREDICTED BY IDOCK:   -4.15 KCAL/MOL
REMARK 922        TOTAL FREE ENERGY PREDICTED BY IDOCK:   -7.58 KCAL/MOL
REMARK 923 INTER-LIGAND FREE ENERGY PREDICTED BY IDOCK:   -8.98 KCAL/MOL
REMARK 924 INTRA-LIGAND FREE ENERGY PREDICTED BY IDOCK:    1.40 KCAL/MOL
REMARK 927      BINDING AFFINITY PREDICTED BY RF-SCORE:    0.00 PKD
ROOT
HETATM    1  C   UNL     1     -10.863   6.495  66.709  1.00  0.00    -0.345 C  
HETATM    2  C   UNL     1      -9.355   6.807  67.065  1.00  0.00    -0.165 C  
HETATM    3  C   UNL     1      -8.485   5.906  66.192  1.00  0.00    -0.132 C  
HETATM    4  C   UNL     1      -7.031   6.002  66.607  1.00  0.00    -0.067 C  
HETATM    5  C   UNL     1      -6.773   5.410  67.973  1.00  0.00    -0.055 C  
HETATM    6  C   UNL     1      -7.844   5.623  69.093  1.00  0.00    -0.089 C  
HETATM    7  C   UNL     1      -9.206   6.339  68.578  1.00  0.00    -0.123 C  
HETATM    8  C   UNL     1      -7.249   6.372  70.319  1.00  0.00    -0.080 C  
HETATM    9  C   UNL     1      -7.913   4.170  69.702  1.00  0.00    -0.056 C  
HETATM   10  O   UNL     1      -6.911   3.615  70.169  1.00  0.00    -0.037 OA 
HETATM   11  O   UNL     1      -9.067   3.503  69.713  1.00  0.00    -0.097 OA 
HETATM   12  C   UNL     1      -9.904   7.364  69.495  1.00  0.00    -0.165 C  
HETATM   13  C   UNL     1      -9.580   8.814  69.204  1.00  0.00    -0.162 C  
HETATM   14  C   UNL     1      -9.675   9.359  67.772  1.00  0.00    -0.182 C  
HETATM   15  C   UNL     1     -10.997   9.993  67.292  1.00  0.00    -0.225 C  
HETATM   16  C   UNL     1     -10.513  11.070  66.315  1.00  0.00    -0.310 C  
HETATM   17  C   UNL     1     -11.362  11.805  65.584  1.00  0.00    -0.293 C  
HETATM   18  C   UNL     1      -8.982  11.269  66.429  1.00  0.00    -0.188 C  
HETATM   19  C   UNL     1      -8.191  10.393  65.431  1.00  0.00    -0.159 C  
HETATM   20  C   UNL     1      -9.187   8.360  66.680  1.00  0.00    -0.226 C  
HETATM   21  C   UNL     1      -8.839  10.659  67.805  1.00  0.00    -0.133 C  
HETATM   22  C   UNL     1      -7.940   8.941  65.952  1.00  0.00    -0.107 C  
ENDROOT
BRANCH  18  23
HETATM   23  O   UNL     1      -8.717  12.668  66.360  1.00  0.00    -0.076 OA 
BRANCH  23  24
HETATM   24  C   UNL     1      -9.673  13.688  66.701  1.00  0.00    -0.284 C  
HETATM   25  O   UNL     1      -9.646  14.743  65.727  1.00  0.00    -0.316 OA 
HETATM   26  C   UNL     1     -10.725  15.680  65.903  1.00  0.00    -0.329 C  
HETATM   27  C   UNL     1     -10.510  16.425  67.210  1.00  0.00    -0.303 C  
HETATM   28  H   UNL     1      -9.918  15.610  70.233  1.00  0.00     0.000 HD 
HETATM   29  C   UNL     1     -10.499  15.461  68.392  1.00  0.00    -0.239 C  
HETATM   30  H   UNL     1     -11.374  17.891  68.267  1.00  0.00     0.000 HD 
HETATM   31  O   UNL     1     -11.509  17.425  67.451  1.00  0.00     0.302 OA 
HETATM   32  O   UNL     1      -9.925  16.211  69.497  1.00  0.00    -0.250 OA 
HETATM   33  C   UNL     1      -9.660  14.194  68.179  1.00  0.00    -0.218 C  
BRANCH  26  34
HETATM   34  C   UNL     1     -10.724  16.660  64.723  1.00  0.00     0.052 C  
HETATM   35  H   UNL     1     -11.841  17.006  63.146  1.00  0.00     0.000 HD 
HETATM   36  O   UNL     1     -11.841  16.398  63.876  1.00  0.00    -1.034 OA 
ENDBRANCH  26  34
BRANCH  33  37
HETATM   37  O   UNL     1     -10.054  13.084  69.022  1.00  0.00    -0.014 OA 
BRANCH  37  38
HETATM   38  C   UNL     1     -11.288  13.143  69.761  1.00  0.00    -0.049 C  
HETATM   39  O   UNL     1     -11.188  14.142  70.758  1.00  0.00     0.045 OA 
HETATM   40  C   UNL     1     -12.253  14.259  71.697  1.00  0.00    -0.272 C  
HETATM   41  C   UNL     1     -12.707  12.927  72.304  1.00  0.00     0.084 C  
HETATM   42  H   UNL     1     -12.523  10.107  69.489  1.00  0.00     0.000 HD 
HETATM   43  O   UNL     1     -12.226  10.954  69.176  1.00  0.00    -0.421 OA 
HETATM   44  O   UNL     1     -13.918  13.117  73.044  1.00  0.00    -0.492 OA 
HETATM   45  C   UNL     1     -12.954  11.899  71.215  1.00  0.00    -0.236 C  
HETATM   46  H   UNL     1     -13.391   9.966  71.122  1.00  0.00     0.000 HD 
HETATM   47  O   UNL     1     -13.236  10.610  71.804  1.00  0.00    -0.438 OA 
HETATM   48  H   UNL     1     -14.200  12.292  73.421  1.00  0.00     0.000 HD 
HETATM   49  C   UNL     1     -11.771  11.769  70.269  1.00  0.00    -0.228 C  
BRANCH  40  50
HETATM   50  C   UNL     1     -11.735  15.172  72.826  1.00  0.00    -0.337 C  
HETATM   51  O   UNL     1     -11.817  16.558  72.484  1.00  0.00    -0.534 OA 
HETATM   52  H   UNL     1     -11.497  17.121  73.180  1.00  0.00     0.000 HD 
ENDBRANCH  40  50
ENDBRANCH  37  38
ENDBRANCH  33  37
ENDBRANCH  23  24
ENDBRANCH  18  23
TORSDOF 6
ENDMDL
MODEL      109
REMARK 921   NORMALIZED FREE ENERGY PREDICTED BY IDOCK:   -4.12 KCAL/MOL
REMARK 922        TOTAL FREE ENERGY PREDICTED BY IDOCK:   -7.55 KCAL/MOL
REMARK 923 INTER-LIGAND FREE ENERGY PREDICTED BY IDOCK:   -7.69 KCAL/MOL
REMARK 924 INTRA-LIGAND FREE ENERGY PREDICTED BY IDOCK:    0.14 KCAL/MOL
REMARK 927      BINDING AFFINITY PREDICTED BY RF-SCORE:    0.00 PKD
ROOT
HETATM    1  C   UNL     1     -11.419  14.111  65.506  1.00  0.00    -0.324 C  
HETATM    2  C   UNL     1     -11.109  14.398  67.028  1.00  0.00    -0.317 C  
HETATM    3  C   UNL     1     -12.307  15.148  67.605  1.00  0.00     0.544 C  
HETATM    4  C   UNL     1     -12.010  15.633  69.010  1.00  0.00    -0.323 C  
HETATM    5  C   UNL     1     -10.954  16.712  69.045  1.00  0.00    -0.279 C  
HETATM    6  C   UNL     1      -9.741  16.602  68.062  1.00  0.00    -0.241 C  
HETATM    7  C   UNL     1      -9.864  15.388  66.994  1.00  0.00    -0.236 C  
HETATM    8  C   UNL     1      -8.389  16.539  68.828  1.00  0.00    -0.248 C  
HETATM    9  C   UNL     1      -9.659  18.089  67.543  1.00  0.00    -0.273 C  
HETATM   10  O   UNL     1      -9.497  19.039  68.318  1.00  0.00    -0.314 OA 
HETATM   11  O   UNL     1      -9.777  18.350  66.240  1.00  0.00    -0.366 OA 
HETATM   12  C   UNL     1      -8.597  14.592  66.618  1.00  0.00    -0.129 C  
HETATM   13  C   UNL     1      -8.404  13.294  67.373  1.00  0.00    -0.193 C  
HETATM   14  C   UNL     1      -9.551  12.280  67.481  1.00  0.00    -0.184 C  
HETATM   15  C   UNL     1      -9.672  11.162  66.425  1.00  0.00    -0.235 C  
HETATM   16  C   UNL     1     -10.262  10.003  67.234  1.00  0.00    -0.275 C  
HETATM   17  C   UNL     1     -10.625   8.845  66.665  1.00  0.00    -0.150 C  
HETATM   18  C   UNL     1     -10.218  10.312  68.750  1.00  0.00    -0.192 C  
HETATM   19  C   UNL     1     -11.519  10.974  69.262  1.00  0.00    -0.370 C  
HETATM   20  C   UNL     1     -10.955  12.930  67.669  1.00  0.00    -0.274 C  
HETATM   21  C   UNL     1      -9.150  11.379  68.670  1.00  0.00    -0.138 C  
HETATM   22  C   UNL     1     -11.545  12.521  69.049  1.00  0.00    -0.365 C  
ENDROOT
BRANCH  18  23
HETATM   23  O   UNL     1      -9.830   9.120  69.429  1.00  0.00    -0.165 OA 
BRANCH  23  24
HETATM   24  C   UNL     1      -8.634   8.376  69.131  1.00  0.00    -0.134 C  
HETATM   25  O   UNL     1      -7.594   9.260  68.687  1.00  0.00    -0.079 OA 
HETATM   26  C   UNL     1      -6.320   8.598  68.580  1.00  0.00    -0.053 C  
HETATM   27  C   UNL     1      -6.397   7.580  67.454  1.00  0.00    -0.053 C  
HETATM   28  H   UNL     1      -8.376   5.218  66.643  1.00  0.00     0.000 HD 
HETATM   29  C   UNL     1      -7.472   6.534  67.737  1.00  0.00    -0.097 C  
HETATM   30  H   UNL     1      -5.202   6.266  66.528  1.00  0.00     0.000 HD 
HETATM   31  O   UNL     1      -5.154   6.902  67.231  1.00  0.00    -0.011 OA 
HETATM   32  O   UNL     1      -7.707   5.869  66.467  1.00  0.00    -0.097 OA 
HETATM   33  C   UNL     1      -8.805   7.105  68.240  1.00  0.00    -0.127 C  
BRANCH  26  34
HETATM   34  C   UNL     1      -5.242   9.647  68.277  1.00  0.00    -0.033 C  
HETATM   35  H   UNL     1      -5.184  11.571  67.891  1.00  0.00     0.000 HD 
HETATM   36  O   UNL     1      -5.851  10.922  68.079  1.00  0.00    -0.046 OA 
ENDBRANCH  26  34
BRANCH  33  37
HETATM   37  O   UNL     1      -9.603   6.153  68.986  1.00  0.00    -0.126 OA 
BRANCH  37  38
HETATM   38  C   UNL     1      -9.483   6.079  70.418  1.00  0.00    -0.163 C  
HETATM   39  O   UNL     1      -8.427   5.199  70.754  1.00  0.00    -0.112 OA 
HETATM   40  C   UNL     1      -8.240   4.873  72.127  1.00  0.00    -0.115 C  
HETATM   41  C   UNL     1      -9.527   4.485  72.864  1.00  0.00    -0.130 C  
HETATM   42  H   UNL     1     -12.514   6.752  71.504  1.00  0.00     0.000 HD 
HETATM   43  O   UNL     1     -11.692   6.929  71.062  1.00  0.00    -0.307 OA 
HETATM   44  O   UNL     1      -9.276   4.405  74.272  1.00  0.00    -0.105 OA 
HETATM   45  C   UNL     1     -10.616   5.513  72.617  1.00  0.00    -0.226 C  
HETATM   46  H   UNL     1     -12.544   5.707  73.036  1.00  0.00     0.000 HD 
HETATM   47  O   UNL     1     -11.863   5.064  73.191  1.00  0.00    -0.279 OA 
HETATM   48  H   UNL     1     -10.074   4.165  74.729  1.00  0.00     0.000 HD 
HETATM   49  C   UNL     1     -10.817   5.791  71.135  1.00  0.00    -0.248 C  
BRANCH  40  50
HETATM   50  C   UNL     1      -7.266   3.678  72.158  1.00  0.00    -0.050 C  
HETATM   51  O   UNL     1      -7.948   2.424  72.251  1.00  0.00    -0.052 OA 
HETATM   52  H   UNL     1      -7.347   1.688  72.270  1.00  0.00     0.000 HD 
ENDBRANCH  40  50
ENDBRANCH  37  38
ENDBRANCH  33  37
ENDBRANCH  23  24
ENDBRANCH  18  23
TORSDOF 6
ENDMDL
MODEL      110
REMARK 921   NORMALIZED FREE ENERGY PREDICTED BY IDOCK:   -4.04 KCAL/MOL
REMARK 922        TOTAL FREE ENERGY PREDICTED BY IDOCK:   -7.44 KCAL/MOL
REMARK 923 INTER-LIGAND FREE ENERGY PREDICTED BY IDOCK:   -8.33 KCAL/MOL
REMARK 924 INTRA-LIGAND FREE ENERGY PREDICTED BY IDOCK:    0.89 KCAL/MOL
REMARK 927      BINDING AFFINITY PREDICTED BY RF-SCORE:    0.00 PKD
ROOT
HETATM    1  C   UNL     1     -10.119  18.255  69.060  1.00  0.00    -0.283 C  
HETATM    2  C   UNL     1      -8.764  17.643  68.526  1.00  0.00    -0.285 C  
HETATM    3  C   UNL     1      -7.692  17.922  69.577  1.00  0.00     0.437 C  
HETATM    4  C   UNL     1      -6.321  17.540  69.057  1.00  0.00    -0.218 C  
HETATM    5  C   UNL     1      -5.854  18.430  67.929  1.00  0.00    -0.168 C  
HETATM    6  C   UNL     1      -6.903  18.909  66.873  1.00  0.00    -0.205 C  
HETATM    7  C   UNL     1      -8.432  18.501  67.228  1.00  0.00    -0.264 C  
HETATM    8  C   UNL     1      -6.521  18.448  65.437  1.00  0.00    -0.249 C  
HETATM    9  C   UNL     1      -6.513  20.432  66.753  1.00  0.00    -0.219 C  
HETATM   10  O   UNL     1      -5.377  20.786  66.417  1.00  0.00    -0.171 OA 
HETATM   11  O   UNL     1      -7.413  21.376  67.027  1.00  0.00    -0.360 OA 
HETATM   12  C   UNL     1      -9.377  18.073  66.086  1.00  0.00    -0.146 C  
HETATM   13  C   UNL     1      -9.512  16.578  65.888  1.00  0.00    -0.254 C  
HETATM   14  C   UNL     1      -9.812  15.661  67.081  1.00  0.00    -0.229 C  
HETATM   15  C   UNL     1     -11.278  15.326  67.426  1.00  0.00    -0.311 C  
HETATM   16  C   UNL     1     -11.171  13.902  67.985  1.00  0.00    -0.295 C  
HETATM   17  C   UNL     1     -12.224  13.258  68.505  1.00  0.00    -0.104 C  
HETATM   18  C   UNL     1      -9.767  13.309  67.712  1.00  0.00    -0.217 C  
HETATM   19  C   UNL     1      -8.782  13.550  68.880  1.00  0.00     0.216 C  
HETATM   20  C   UNL     1      -9.081  16.071  68.395  1.00  0.00    -0.192 C  
HETATM   21  C   UNL     1      -9.403  14.253  66.589  1.00  0.00    -0.302 C  
HETATM   22  C   UNL     1      -8.091  14.949  68.821  1.00  0.00    -0.162 C  
ENDROOT
BRANCH  18  23
HETATM   23  O   UNL     1      -9.936  11.948  67.324  1.00  0.00    -0.186 OA 
BRANCH  23  24
HETATM   24  C   UNL     1      -9.393  10.829  68.049  1.00  0.00    -0.150 C  
HETATM   25  O   UNL     1     -10.373  10.298  68.954  1.00  0.00    -0.182 OA 
HETATM   26  C   UNL     1      -9.955   9.054  69.546  1.00  0.00    -0.191 C  
HETATM   27  C   UNL     1      -8.770   9.327  70.459  1.00  0.00    -0.236 C  
HETATM   28  H   UNL     1      -5.976  10.834  70.184  1.00  0.00     0.000 HD 
HETATM   29  C   UNL     1      -7.601   9.914  69.674  1.00  0.00    -0.136 C  
HETATM   30  H   UNL     1      -7.572   8.323  71.711  1.00  0.00     0.000 HD 
HETATM   31  O   UNL     1      -8.312   8.152  71.141  1.00  0.00    -0.106 OA 
HETATM   32  O   UNL     1      -6.704  10.468  70.673  1.00  0.00    -0.333 OA 
HETATM   33  C   UNL     1      -7.984  11.030  68.693  1.00  0.00    -0.143 C  
BRANCH  26  34
HETATM   34  C   UNL     1     -11.125   8.473  70.351  1.00  0.00    -0.231 C  
HETATM   35  H   UNL     1     -11.827   6.690  70.776  1.00  0.00     0.000 HD 
HETATM   36  O   UNL     1     -11.102   7.049  70.278  1.00  0.00    -0.262 OA 
ENDBRANCH  26  34
BRANCH  33  37
HETATM   37  O   UNL     1      -7.034  11.210  67.614  1.00  0.00    -0.078 OA 
BRANCH  37  38
HETATM   38  C   UNL     1      -7.045  10.314  66.487  1.00  0.00    -0.108 C  
HETATM   39  O   UNL     1      -7.964  10.789  65.522  1.00  0.00    -0.145 OA 
HETATM   40  C   UNL     1      -8.234   9.963  64.393  1.00  0.00    -0.164 C  
HETATM   41  C   UNL     1      -8.515   8.497  64.737  1.00  0.00    -0.127 C  
HETATM   42  H   UNL     1      -6.158   7.418  67.769  1.00  0.00     0.000 HD 
HETATM   43  O   UNL     1      -6.047   8.330  67.528  1.00  0.00    -0.049 OA 
HETATM   44  O   UNL     1      -8.540   7.712  63.540  1.00  0.00    -0.363 OA 
HETATM   45  C   UNL     1      -7.442   7.948  65.661  1.00  0.00    -0.081 C  
HETATM   46  H   UNL     1      -7.124   6.274  66.675  1.00  0.00     0.000 HD 
HETATM   47  O   UNL     1      -7.795   6.617  66.097  1.00  0.00    -0.096 OA 
HETATM   48  H   UNL     1      -8.715   6.802  63.753  1.00  0.00     0.000 HD 
HETATM   49  C   UNL     1      -7.226   8.833  66.879  1.00  0.00    -0.079 C  
BRANCH  40  50
HETATM   50  C   UNL     1      -9.477  10.563  63.706  1.00  0.00    -0.298 C  
HETATM   51  O   UNL     1      -9.259  11.905  63.263  1.00  0.00    -0.607 OA 
HETATM   52  H   UNL     1     -10.025  12.274  62.840  1.00  0.00     0.000 HD 
ENDBRANCH  40  50
ENDBRANCH  37  38
ENDBRANCH  33  37
ENDBRANCH  23  24
ENDBRANCH  18  23
TORSDOF 6
ENDMDL
MODEL      111
REMARK 921   NORMALIZED FREE ENERGY PREDICTED BY IDOCK:   -4.00 KCAL/MOL
REMARK 922        TOTAL FREE ENERGY PREDICTED BY IDOCK:   -7.39 KCAL/MOL
REMARK 923 INTER-LIGAND FREE ENERGY PREDICTED BY IDOCK:   -8.46 KCAL/MOL
REMARK 924 INTRA-LIGAND FREE ENERGY PREDICTED BY IDOCK:    1.07 KCAL/MOL
REMARK 927      BINDING AFFINITY PREDICTED BY RF-SCORE:    0.00 PKD
ROOT
HETATM    1  C   UNL     1      -6.341   5.543  67.028  1.00  0.00    -0.039 C  
HETATM    2  C   UNL     1      -7.663   5.365  66.182  1.00  0.00    -0.092 C  
HETATM    3  C   UNL     1      -8.491   4.272  66.855  1.00  0.00    -0.104 C  
HETATM    4  C   UNL     1      -9.685   3.902  65.998  1.00  0.00    -0.172 C  
HETATM    5  C   UNL     1      -9.292   3.213  64.713  1.00  0.00    -0.148 C  
HETATM    6  C   UNL     1      -8.009   3.705  63.964  1.00  0.00    -0.085 C  
HETATM    7  C   UNL     1      -7.157   4.821  64.776  1.00  0.00    -0.062 C  
HETATM    8  C   UNL     1      -8.338   4.191  62.524  1.00  0.00    -0.079 C  
HETATM    9  C   UNL     1      -7.338   2.322  63.609  1.00  0.00    -0.053 C  
HETATM   10  O   UNL     1      -7.927   1.470  62.933  1.00  0.00    -0.053 OA 
HETATM   11  O   UNL     1      -6.111   2.042  64.048  1.00  0.00    -0.013 OA 
HETATM   12  C   UNL     1      -6.504   5.978  63.993  1.00  0.00    -0.030 C  
HETATM   13  C   UNL     1      -7.296   7.268  63.970  1.00  0.00    -0.088 C  
HETATM   14  C   UNL     1      -7.845   7.866  65.272  1.00  0.00    -0.111 C  
HETATM   15  C   UNL     1      -6.994   8.891  66.050  1.00  0.00    -0.084 C  
HETATM   16  C   UNL     1      -8.059   9.801  66.673  1.00  0.00    -0.116 C  
HETATM   17  C   UNL     1      -7.746  10.786  67.526  1.00  0.00    -0.105 C  
HETATM   18  C   UNL     1      -9.452   9.517  66.062  1.00  0.00    -0.233 C  
HETATM   19  C   UNL     1     -10.257   8.476  66.873  1.00  0.00    -0.375 C  
HETATM   20  C   UNL     1      -8.376   6.804  66.282  1.00  0.00    -0.126 C  
HETATM   21  C   UNL     1      -8.947   8.844  64.805  1.00  0.00    -0.088 C  
HETATM   22  C   UNL     1      -9.904   7.000  66.500  1.00  0.00    -0.175 C  
ENDROOT
BRANCH  18  23
HETATM   23  O   UNL     1     -10.103  10.769  65.855  1.00  0.00    -0.237 OA 
BRANCH  23  24
HETATM   24  C   UNL     1     -10.351  11.730  66.897  1.00  0.00    -0.217 C  
HETATM   25  O   UNL     1     -11.034  11.110  67.996  1.00  0.00    -0.214 OA 
HETATM   26  C   UNL     1     -11.118  11.971  69.147  1.00  0.00    -0.215 C  
HETATM   27  C   UNL     1     -12.024  13.144  68.808  1.00  0.00    -0.280 C  
HETATM   28  H   UNL     1     -12.217  15.272  66.445  1.00  0.00     0.000 HD 
HETATM   29  C   UNL     1     -11.465  13.944  67.636  1.00  0.00    -0.324 C  
HETATM   30  H   UNL     1     -12.781  14.768  69.703  1.00  0.00     0.000 HD 
HETATM   31  O   UNL     1     -12.215  14.036  69.914  1.00  0.00    -0.317 OA 
HETATM   32  O   UNL     1     -12.565  14.774  67.175  1.00  0.00     0.171 OA 
HETATM   33  C   UNL     1     -10.973  13.094  66.456  1.00  0.00    -0.286 C  
BRANCH  26  34
HETATM   34  C   UNL     1     -11.696  11.171  70.321  1.00  0.00    -0.341 C  
HETATM   35  H   UNL     1     -11.572   9.335  71.004  1.00  0.00     0.000 HD 
HETATM   36  O   UNL     1     -11.213   9.830  70.277  1.00  0.00    -0.254 OA 
ENDBRANCH  26  34
BRANCH  33  37
HETATM   37  O   UNL     1     -10.000  13.766  65.618  1.00  0.00    -0.295 OA 
BRANCH  37  38
HETATM   38  C   UNL     1      -9.372  14.978  66.074  1.00  0.00    -0.269 C  
HETATM   39  O   UNL     1      -8.618  14.704  67.239  1.00  0.00    -0.188 OA 
HETATM   40  C   UNL     1      -8.036  15.803  67.933  1.00  0.00    -0.138 C  
HETATM   41  C   UNL     1      -8.993  16.977  68.168  1.00  0.00    -0.227 C  
HETATM   42  H   UNL     1     -11.359  17.360  64.980  1.00  0.00     0.000 HD 
HETATM   43  O   UNL     1     -10.760  16.627  64.903  1.00  0.00    -0.710 OA 
HETATM   44  O   UNL     1      -8.264  18.109  68.655  1.00  0.00    -0.308 OA 
HETATM   45  C   UNL     1      -9.695  17.363  66.879  1.00  0.00    -0.286 C  
HETATM   46  H   UNL     1     -11.139  18.608  66.335  1.00  0.00     0.000 HD 
HETATM   47  O   UNL     1     -10.699  18.367  67.141  1.00  0.00    -0.399 OA 
HETATM   48  H   UNL     1      -8.857  18.837  68.801  1.00  0.00     0.000 HD 
HETATM   49  C   UNL     1     -10.346  16.168  66.200  1.00  0.00    -0.339 C  
BRANCH  40  50
HETATM   50  C   UNL     1      -7.571  15.255  69.297  1.00  0.00    -0.213 C  
HETATM   51  O   UNL     1      -6.239  15.662  69.621  1.00  0.00    -0.146 OA 
HETATM   52  H   UNL     1      -5.953  15.324  70.461  1.00  0.00     0.000 HD 
ENDBRANCH  40  50
ENDBRANCH  37  38
ENDBRANCH  33  37
ENDBRANCH  23  24
ENDBRANCH  18  23
TORSDOF 6
ENDMDL
MODEL      112
REMARK 921   NORMALIZED FREE ENERGY PREDICTED BY IDOCK:   -3.98 KCAL/MOL
REMARK 922        TOTAL FREE ENERGY PREDICTED BY IDOCK:   -7.36 KCAL/MOL
REMARK 923 INTER-LIGAND FREE ENERGY PREDICTED BY IDOCK:   -6.00 KCAL/MOL
REMARK 924 INTRA-LIGAND FREE ENERGY PREDICTED BY IDOCK:   -1.36 KCAL/MOL
REMARK 927      BINDING AFFINITY PREDICTED BY RF-SCORE:    0.00 PKD
ROOT
HETATM    1  C   UNL     1      -7.258   6.181  74.492  1.00  0.00    -0.090 C  
HETATM    2  C   UNL     1      -8.436   5.983  73.458  1.00  0.00    -0.119 C  
HETATM    3  C   UNL     1      -9.747   6.137  74.226  1.00  0.00    -0.243 C  
HETATM    4  C   UNL     1     -10.927   5.770  73.348  1.00  0.00    -0.261 C  
HETATM    5  C   UNL     1     -10.966   4.299  73.007  1.00  0.00    -0.255 C  
HETATM    6  C   UNL     1      -9.616   3.562  72.722  1.00  0.00    -0.182 C  
HETATM    7  C   UNL     1      -8.298   4.469  72.994  1.00  0.00    -0.099 C  
HETATM    8  C   UNL     1      -9.589   2.951  71.292  1.00  0.00    -0.228 C  
HETATM    9  C   UNL     1      -9.833   2.238  73.550  1.00  0.00    -0.095 C  
HETATM   10  O   UNL     1     -10.787   1.483  73.328  1.00  0.00    -0.112 OA 
HETATM   11  O   UNL     1      -8.984   1.914  74.526  1.00  0.00    -0.060 OA 
HETATM   12  C   UNL     1      -7.094   4.341  72.039  1.00  0.00    -0.055 C  
HETATM   13  C   UNL     1      -7.022   5.389  70.948  1.00  0.00    -0.053 C  
HETATM   14  C   UNL     1      -7.163   6.878  71.291  1.00  0.00    -0.076 C  
HETATM   15  C   UNL     1      -5.898   7.707  71.591  1.00  0.00    -0.035 C  
HETATM   16  C   UNL     1      -6.276   9.095  71.063  1.00  0.00    -0.067 C  
HETATM   17  C   UNL     1      -5.479  10.160  71.219  1.00  0.00    -0.066 C  
HETATM   18  C   UNL     1      -7.577   9.029  70.227  1.00  0.00    -0.087 C  
HETATM   19  C   UNL     1      -8.843   9.303  71.071  1.00  0.00    -0.205 C  
HETATM   20  C   UNL     1      -8.218   7.176  72.399  1.00  0.00    -0.113 C  
HETATM   21  C   UNL     1      -7.516   7.546  69.942  1.00  0.00    -0.084 C  
HETATM   22  C   UNL     1      -9.374   8.034  71.811  1.00  0.00    -0.218 C  
ENDROOT
BRANCH  18  23
HETATM   23  O   UNL     1      -7.407   9.869  69.087  1.00  0.00    -0.073 OA 
BRANCH  23  24
HETATM   24  C   UNL     1      -8.433  10.115  68.107  1.00  0.00    -0.118 C  
HETATM   25  O   UNL     1      -8.405   9.101  67.091  1.00  0.00    -0.115 OA 
HETATM   26  C   UNL     1      -9.538   9.179  66.207  1.00  0.00    -0.255 C  
HETATM   27  C   UNL     1      -9.435  10.464  65.400  1.00  0.00    -0.232 C  
HETATM   28  H   UNL     1      -8.971  13.546  66.065  1.00  0.00     0.000 HD 
HETATM   29  C   UNL     1      -9.441  11.684  66.316  1.00  0.00    -0.218 C  
HETATM   30  H   UNL     1     -10.430  11.411  63.943  1.00  0.00     0.000 HD 
HETATM   31  O   UNL     1     -10.495  10.608  64.447  1.00  0.00    -0.350 OA 
HETATM   32  O   UNL     1      -8.968  12.785  65.494  1.00  0.00     0.392 OA 
HETATM   33  C   UNL     1      -8.527  11.569  67.544  1.00  0.00    -0.143 C  
BRANCH  26  34
HETATM   34  C   UNL     1      -9.522   7.961  65.274  1.00  0.00     0.806 C  
HETATM   35  H   UNL     1      -8.343   6.427  64.941  1.00  0.00     0.000 HD 
HETATM   36  O   UNL     1      -8.353   7.182  65.518  1.00  0.00    -0.131 OA 
ENDBRANCH  26  34
BRANCH  33  37
HETATM   37  O   UNL     1      -8.910  12.436  68.640  1.00  0.00    -0.096 OA 
BRANCH  37  38
HETATM   38  C   UNL     1     -10.285  12.834  68.796  1.00  0.00    -0.079 C  
HETATM   39  O   UNL     1     -10.335  14.182  69.222  1.00  0.00    -0.145 OA 
HETATM   40  C   UNL     1     -11.603  14.724  69.578  1.00  0.00    -0.304 C  
HETATM   41  C   UNL     1     -12.433  13.829  70.505  1.00  0.00    -0.339 C  
HETATM   42  H   UNL     1     -11.853  10.021  69.467  1.00  0.00     0.000 HD 
HETATM   43  O   UNL     1     -11.340  10.624  68.942  1.00  0.00    -0.249 OA 
HETATM   44  O   UNL     1     -13.765  14.343  70.614  1.00  0.00    -0.386 OA 
HETATM   45  C   UNL     1     -12.497  12.412  69.966  1.00  0.00     0.033 C  
HETATM   46  H   UNL     1     -13.192  10.660  70.581  1.00  0.00     0.000 HD 
HETATM   47  O   UNL     1     -13.153  11.547  70.919  1.00  0.00    -0.161 OA 
HETATM   48  H   UNL     1     -14.279  13.789  71.189  1.00  0.00     0.000 HD 
HETATM   49  C   UNL     1     -11.117  11.855  69.650  1.00  0.00    -0.037 C  
BRANCH  40  50
HETATM   50  C   UNL     1     -11.317  16.058  70.295  1.00  0.00    -0.382 C  
HETATM   51  O   UNL     1     -12.123  16.232  71.463  1.00  0.00    -0.612 OA 
HETATM   52  H   UNL     1     -11.947  17.054  71.904  1.00  0.00     0.000 HD 
ENDBRANCH  40  50
ENDBRANCH  37  38
ENDBRANCH  33  37
ENDBRANCH  23  24
ENDBRANCH  18  23
TORSDOF 6
ENDMDL
MODEL      113
REMARK 921   NORMALIZED FREE ENERGY PREDICTED BY IDOCK:   -3.91 KCAL/MOL
REMARK 922        TOTAL FREE ENERGY PREDICTED BY IDOCK:   -7.27 KCAL/MOL
REMARK 923 INTER-LIGAND FREE ENERGY PREDICTED BY IDOCK:   -5.93 KCAL/MOL
REMARK 924 INTRA-LIGAND FREE ENERGY PREDICTED BY IDOCK:   -1.34 KCAL/MOL
REMARK 927      BINDING AFFINITY PREDICTED BY RF-SCORE:    0.00 PKD
ROOT
HETATM    1  C   UNL     1     -11.624  12.265  65.273  1.00  0.00    -0.405 C  
HETATM    2  C   UNL     1     -11.076  12.013  66.733  1.00  0.00    -0.353 C  
HETATM    3  C   UNL     1     -12.283  11.793  67.641  1.00  0.00     0.420 C  
HETATM    4  C   UNL     1     -11.856  11.737  69.094  1.00  0.00    -0.389 C  
HETATM    5  C   UNL     1     -11.350  13.065  69.607  1.00  0.00    -0.176 C  
HETATM    6  C   UNL     1     -10.490  13.956  68.650  1.00  0.00    -0.249 C  
HETATM    7  C   UNL     1     -10.386  13.388  67.134  1.00  0.00    -0.246 C  
HETATM    8  C   UNL     1      -9.079  14.233  69.242  1.00  0.00     0.265 C  
HETATM    9  C   UNL     1     -11.146  15.366  68.908  1.00  0.00    -0.275 C  
HETATM   10  O   UNL     1     -11.185  15.867  70.039  1.00  0.00    -0.296 OA 
HETATM   11  O   UNL     1     -11.688  16.047  67.898  1.00  0.00    -0.145 OA 
HETATM   12  C   UNL     1      -9.049  13.522  66.377  1.00  0.00    -0.064 C  
HETATM   13  C   UNL     1      -8.166  12.292  66.406  1.00  0.00     0.218 C  
HETATM   14  C   UNL     1      -8.742  10.914  66.053  1.00  0.00    -0.192 C  
HETATM   15  C   UNL     1      -8.671  10.418  64.595  1.00  0.00    -0.198 C  
HETATM   16  C   UNL     1      -8.519   8.902  64.766  1.00  0.00    -0.193 C  
HETATM   17  C   UNL     1      -8.520   8.061  63.724  1.00  0.00     0.152 C  
HETATM   18  C   UNL     1      -8.216   8.544  66.241  1.00  0.00    -0.109 C  
HETATM   19  C   UNL     1      -9.494   8.234  67.054  1.00  0.00    -0.226 C  
HETATM   20  C   UNL     1     -10.189  10.678  66.581  1.00  0.00    -0.284 C  
HETATM   21  C   UNL     1      -7.723   9.915  66.647  1.00  0.00    -0.106 C  
HETATM   22  C   UNL     1     -10.191   9.515  67.614  1.00  0.00    -0.273 C  
ENDROOT
BRANCH  18  23
HETATM   23  O   UNL     1      -7.223   7.521  66.248  1.00  0.00    -0.071 OA 
BRANCH  23  24
HETATM   24  C   UNL     1      -7.497   6.133  66.515  1.00  0.00    -0.086 C  
HETATM   25  O   UNL     1      -8.567   5.666  65.680  1.00  0.00    -0.141 OA 
HETATM   26  C   UNL     1      -8.738   4.238  65.755  1.00  0.00    -0.119 C  
HETATM   27  C   UNL     1      -9.223   3.882  67.151  1.00  0.00    -0.176 C  
HETATM   28  H   UNL     1      -8.293   4.537  70.128  1.00  0.00     0.000 HD 
HETATM   29  C   UNL     1      -8.209   4.311  68.207  1.00  0.00    -0.088 C  
HETATM   30  H   UNL     1      -9.779   2.258  68.182  1.00  0.00     0.000 HD 
HETATM   31  O   UNL     1      -9.476   2.480  67.310  1.00  0.00    -0.125 OA 
HETATM   32  O   UNL     1      -8.925   4.270  69.470  1.00  0.00    -0.086 OA 
HETATM   33  C   UNL     1      -7.644   5.726  68.016  1.00  0.00    -0.085 C  
BRANCH  26  34
HETATM   34  C   UNL     1      -9.771   3.809  64.705  1.00  0.00    -0.184 C  
HETATM   35  H   UNL     1     -11.695   4.054  64.405  1.00  0.00     0.000 HD 
HETATM   36  O   UNL     1     -11.056   4.320  65.055  1.00  0.00    -0.226 OA 
ENDBRANCH  26  34
BRANCH  33  37
HETATM   37  O   UNL     1      -6.359   5.932  68.652  1.00  0.00    -0.034 OA 
BRANCH  37  38
HETATM   38  C   UNL     1      -6.275   6.675  69.882  1.00  0.00    -0.038 C  
HETATM   39  O   UNL     1      -7.082   6.051  70.861  1.00  0.00    -0.065 OA 
HETATM   40  C   UNL     1      -7.253   6.715  72.110  1.00  0.00    -0.081 C  
HETATM   41  C   UNL     1      -7.597   8.204  71.989  1.00  0.00    -0.106 C  
HETATM   42  H   UNL     1      -5.579   9.740  68.910  1.00  0.00     0.000 HD 
HETATM   43  O   UNL     1      -5.426   8.808  69.017  1.00  0.00    -0.035 OA 
HETATM   44  O   UNL     1      -7.517   8.827  73.276  1.00  0.00    -0.367 OA 
HETATM   45  C   UNL     1      -6.634   8.901  71.046  1.00  0.00    -0.069 C  
HETATM   46  H   UNL     1      -6.454  10.702  70.234  1.00  0.00     0.000 HD 
HETATM   47  O   UNL     1      -7.056  10.265  70.824  1.00  0.00    -0.315 OA 
HETATM   48  H   UNL     1      -7.731   9.750  73.201  1.00  0.00     0.000 HD 
HETATM   49  C   UNL     1      -6.524   8.188  69.707  1.00  0.00    -0.036 C  
BRANCH  40  50
HETATM   50  C   UNL     1      -8.408   5.991  72.829  1.00  0.00    -0.118 C  
HETATM   51  O   UNL     1      -9.542   5.798  71.980  1.00  0.00    -0.151 OA 
HETATM   52  H   UNL     1     -10.253   5.352  72.424  1.00  0.00     0.000 HD 
ENDBRANCH  40  50
ENDBRANCH  37  38
ENDBRANCH  33  37
ENDBRANCH  23  24
ENDBRANCH  18  23
TORSDOF 6
ENDMDL
MODEL      114
REMARK 921   NORMALIZED FREE ENERGY PREDICTED BY IDOCK:   -3.89 KCAL/MOL
REMARK 922        TOTAL FREE ENERGY PREDICTED BY IDOCK:   -7.23 KCAL/MOL
REMARK 923 INTER-LIGAND FREE ENERGY PREDICTED BY IDOCK:   -8.23 KCAL/MOL
REMARK 924 INTRA-LIGAND FREE ENERGY PREDICTED BY IDOCK:    1.00 KCAL/MOL
REMARK 927      BINDING AFFINITY PREDICTED BY RF-SCORE:    0.00 PKD
ROOT
HETATM    1  C   UNL     1      -6.741   6.415  68.975  1.00  0.00    -0.053 C  
HETATM    2  C   UNL     1      -8.197   5.930  68.601  1.00  0.00    -0.109 C  
HETATM    3  C   UNL     1      -8.618   4.901  69.647  1.00  0.00    -0.098 C  
HETATM    4  C   UNL     1      -9.925   4.242  69.253  1.00  0.00    -0.086 C  
HETATM    5  C   UNL     1      -9.793   3.367  68.029  1.00  0.00     0.116 C  
HETATM    6  C   UNL     1      -8.864   3.847  66.865  1.00  0.00    -0.133 C  
HETATM    7  C   UNL     1      -8.015   5.186  67.207  1.00  0.00    -0.100 C  
HETATM    8  C   UNL     1      -9.651   4.008  65.534  1.00  0.00    -0.189 C  
HETATM    9  C   UNL     1      -8.101   2.506  66.538  1.00  0.00    -0.083 C  
HETATM   10  O   UNL     1      -8.706   1.480  66.207  1.00  0.00    -0.107 OA 
HETATM   11  O   UNL     1      -6.771   2.455  66.628  1.00  0.00    -0.038 OA 
HETATM   12  C   UNL     1      -7.801   6.238  66.098  1.00  0.00    -0.105 C  
HETATM   13  C   UNL     1      -8.768   7.403  66.119  1.00  0.00    -0.172 C  
HETATM   14  C   UNL     1      -9.028   8.173  67.420  1.00  0.00    -0.145 C  
HETATM   15  C   UNL     1      -8.175   9.418  67.743  1.00  0.00    -0.114 C  
HETATM   16  C   UNL     1      -9.161  10.305  68.512  1.00  0.00    -0.138 C  
HETATM   17  C   UNL     1      -8.791  11.464  69.073  1.00  0.00     0.080 C  
HETATM   18  C   UNL     1     -10.602   9.754  68.396  1.00  0.00    -0.226 C  
HETATM   19  C   UNL     1     -10.973   8.805  69.558  1.00  0.00    -0.080 C  
HETATM   20  C   UNL     1      -9.080   7.273  68.691  1.00  0.00    -0.133 C  
HETATM   21  C   UNL     1     -10.360   8.914  67.163  1.00  0.00    -0.351 C  
HETATM   22  C   UNL     1     -10.500   7.334  69.324  1.00  0.00    -0.221 C  
ENDROOT
BRANCH  18  23
HETATM   23  O   UNL     1     -11.480  10.862  68.206  1.00  0.00    -0.294 OA 
BRANCH  23  24
HETATM   24  C   UNL     1     -11.429  12.073  68.983  1.00  0.00    -0.300 C  
HETATM   25  O   UNL     1     -12.474  12.079  69.967  1.00  0.00    -0.131 OA 
HETATM   26  C   UNL     1     -12.339  13.163  70.905  1.00  0.00    -0.307 C  
HETATM   27  C   UNL     1     -12.567  14.473  70.166  1.00  0.00    -0.288 C  
HETATM   28  H   UNL     1     -11.435  15.823  67.511  1.00  0.00     0.000 HD 
HETATM   29  C   UNL     1     -11.541  14.656  69.052  1.00  0.00    -0.298 C  
HETATM   30  H   UNL     1     -12.648  16.433  70.568  1.00  0.00     0.000 HD 
HETATM   31  O   UNL     1     -12.506  15.615  71.029  1.00  0.00    -0.400 OA 
HETATM   32  O   UNL     1     -12.074  15.710  68.205  1.00  0.00    -0.139 OA 
HETATM   33  C   UNL     1     -11.306  13.410  68.185  1.00  0.00    -0.287 C  
BRANCH  26  34
HETATM   34  C   UNL     1     -13.383  12.989  72.015  1.00  0.00    -0.492 C  
HETATM   35  H   UNL     1     -13.940  11.565  73.247  1.00  0.00     0.000 HD 
HETATM   36  O   UNL     1     -13.294  11.673  72.559  1.00  0.00    -0.168 OA 
ENDBRANCH  26  34
BRANCH  33  37
HETATM   37  O   UNL     1     -10.022  13.401  67.514  1.00  0.00    -0.224 OA 
BRANCH  37  38
HETATM   38  C   UNL     1      -9.935  13.002  66.133  1.00  0.00    -0.278 C  
HETATM   39  O   UNL     1     -11.239  12.829  65.614  1.00  0.00    -0.287 OA 
HETATM   40  C   UNL     1     -11.370  12.291  64.301  1.00  0.00    -0.352 C  
HETATM   41  C   UNL     1     -10.511  11.049  64.041  1.00  0.00    -0.366 C  
HETATM   42  H   UNL     1      -7.024  11.485  65.929  1.00  0.00     0.000 HD 
HETATM   43  O   UNL     1      -7.612  12.216  66.077  1.00  0.00     0.614 OA 
HETATM   44  O   UNL     1     -10.530  10.727  62.646  1.00  0.00    -0.760 OA 
HETATM   45  C   UNL     1      -9.075  11.292  64.468  1.00  0.00     0.018 C  
HETATM   46  H   UNL     1      -7.411  10.224  64.624  1.00  0.00     0.000 HD 
HETATM   47  O   UNL     1      -8.310  10.072  64.357  1.00  0.00    -0.150 OA 
HETATM   48  H   UNL     1      -9.998   9.957  62.484  1.00  0.00     0.000 HD 
HETATM   49  C   UNL     1      -8.980  11.815  65.893  1.00  0.00    -0.059 C  
BRANCH  40  50
HETATM   50  C   UNL     1     -12.856  11.915  64.134  1.00  0.00    -0.091 C  
HETATM   51  O   UNL     1     -13.159  11.471  62.810  1.00  0.00    -0.707 OA 
HETATM   52  H   UNL     1     -14.075  11.240  62.708  1.00  0.00     0.000 HD 
ENDBRANCH  40  50
ENDBRANCH  37  38
ENDBRANCH  33  37
ENDBRANCH  23  24
ENDBRANCH  18  23
TORSDOF 6
ENDMDL
MODEL      115
REMARK 921   NORMALIZED FREE ENERGY PREDICTED BY IDOCK:   -3.83 KCAL/MOL
REMARK 922        TOTAL FREE ENERGY PREDICTED BY IDOCK:   -7.16 KCAL/MOL
REMARK 923 INTER-LIGAND FREE ENERGY PREDICTED BY IDOCK:   -7.39 KCAL/MOL
REMARK 924 INTRA-LIGAND FREE ENERGY PREDICTED BY IDOCK:    0.22 KCAL/MOL
REMARK 927      BINDING AFFINITY PREDICTED BY RF-SCORE:    0.00 PKD
ROOT
HETATM    1  C   UNL     1      -7.303   7.087  68.373  1.00  0.00    -0.100 C  
HETATM    2  C   UNL     1      -7.944   7.879  69.580  1.00  0.00    -0.116 C  
HETATM    3  C   UNL     1      -7.362   7.298  70.867  1.00  0.00    -0.074 C  
HETATM    4  C   UNL     1      -8.070   7.870  72.079  1.00  0.00    -0.141 C  
HETATM    5  C   UNL     1      -9.507   7.418  72.185  1.00  0.00    -0.169 C  
HETATM    6  C   UNL     1     -10.347   7.286  70.872  1.00  0.00    -0.210 C  
HETATM    7  C   UNL     1      -9.489   7.510  69.513  1.00  0.00    -0.156 C  
HETATM    8  C   UNL     1     -11.599   8.208  70.900  1.00  0.00    -0.283 C  
HETATM    9  C   UNL     1     -11.056   5.901  71.124  1.00  0.00    -0.236 C  
HETATM   10  O   UNL     1     -11.775   5.710  72.112  1.00  0.00    -0.215 OA 
HETATM   11  O   UNL     1     -10.879   4.893  70.269  1.00  0.00     0.038 OA 
HETATM   12  C   UNL     1     -10.138   8.265  68.336  1.00  0.00    -0.227 C  
HETATM   13  C   UNL     1      -9.794   9.737  68.246  1.00  0.00    -0.167 C  
HETATM   14  C   UNL     1      -8.332  10.198  68.319  1.00  0.00    -0.115 C  
HETATM   15  C   UNL     1      -7.524  10.358  67.015  1.00  0.00    -0.097 C  
HETATM   16  C   UNL     1      -6.580  11.518  67.349  1.00  0.00    -0.101 C  
HETATM   17  C   UNL     1      -5.621  11.924  66.506  1.00  0.00     0.134 C  
HETATM   18  C   UNL     1      -7.002  12.207  68.669  1.00  0.00    -0.097 C  
HETATM   19  C   UNL     1      -6.279  11.622  69.904  1.00  0.00    -0.144 C  
HETATM   20  C   UNL     1      -7.465   9.396  69.337  1.00  0.00    -0.080 C  
HETATM   21  C   UNL     1      -8.425  11.700  68.673  1.00  0.00    -0.094 C  
HETATM   22  C   UNL     1      -6.972  10.341  70.470  1.00  0.00     0.005 C  
ENDROOT
BRANCH  18  23
HETATM   23  O   UNL     1      -6.865  13.616  68.490  1.00  0.00    -0.083 OA 
BRANCH  23  24
HETATM   24  C   UNL     1      -7.968  14.508  68.245  1.00  0.00    -0.137 C  
HETATM   25  O   UNL     1      -9.167  13.995  68.844  1.00  0.00    -0.101 OA 
HETATM   26  C   UNL     1     -10.247  14.947  68.812  1.00  0.00    -0.243 C  
HETATM   27  C   UNL     1     -10.660  15.160  67.365  1.00  0.00    -0.271 C  
HETATM   28  H   UNL     1      -9.161  15.854  64.640  1.00  0.00     0.000 HD 
HETATM   29  C   UNL     1      -9.499  15.707  66.541  1.00  0.00    -0.274 C  
HETATM   30  H   UNL     1     -12.030  16.189  66.327  1.00  0.00     0.000 HD 
HETATM   31  O   UNL     1     -11.771  16.056  67.231  1.00  0.00     0.173 OA 
HETATM   32  O   UNL     1      -9.885  15.513  65.153  1.00  0.00    -0.297 OA 
HETATM   33  C   UNL     1      -8.157  14.998  66.774  1.00  0.00    -0.026 C  
BRANCH  26  34
HETATM   34  C   UNL     1     -11.421  14.389  69.626  1.00  0.00    -0.283 C  
HETATM   35  H   UNL     1     -11.958  14.333  71.513  1.00  0.00     0.000 HD 
HETATM   36  O   UNL     1     -11.231  14.678  71.010  1.00  0.00    -0.156 OA 
ENDBRANCH  26  34
BRANCH  33  37
HETATM   37  O   UNL     1      -7.004  15.805  66.432  1.00  0.00     0.095 OA 
BRANCH  37  38
HETATM   38  C   UNL     1      -6.927  17.175  66.869  1.00  0.00    -0.212 C  
HETATM   39  O   UNL     1      -8.043  17.467  67.688  1.00  0.00    -0.193 OA 
HETATM   40  C   UNL     1      -8.233  18.816  68.103  1.00  0.00    -0.304 C  
HETATM   41  C   UNL     1      -8.099  19.847  66.977  1.00  0.00    -0.309 C  
HETATM   42  H   UNL     1      -5.205  18.668  64.498  1.00  0.00     0.000 HD 
HETATM   43  O   UNL     1      -5.352  18.052  65.205  1.00  0.00    -0.151 OA 
HETATM   44  O   UNL     1      -8.072  21.168  67.527  1.00  0.00    -0.373 OA 
HETATM   45  C   UNL     1      -6.822  19.617  66.189  1.00  0.00    -0.238 C  
HETATM   46  H   UNL     1      -5.981  20.352  64.551  1.00  0.00     0.000 HD 
HETATM   47  O   UNL     1      -6.780  20.496  65.044  1.00  0.00    -0.290 OA 
HETATM   48  H   UNL     1      -7.990  21.808  66.829  1.00  0.00     0.000 HD 
HETATM   49  C   UNL     1      -6.688  18.177  65.721  1.00  0.00    -0.273 C  
BRANCH  40  50
HETATM   50  C   UNL     1      -9.658  18.892  68.685  1.00  0.00    -0.391 C  
HETATM   51  O   UNL     1     -10.659  18.581  67.713  1.00  0.00    -0.406 OA 
HETATM   52  H   UNL     1     -11.538  18.629  68.071  1.00  0.00     0.000 HD 
ENDBRANCH  40  50
ENDBRANCH  37  38
ENDBRANCH  33  37
ENDBRANCH  23  24
ENDBRANCH  18  23
TORSDOF 6
ENDMDL
MODEL      116
REMARK 921   NORMALIZED FREE ENERGY PREDICTED BY IDOCK:   -3.80 KCAL/MOL
REMARK 922        TOTAL FREE ENERGY PREDICTED BY IDOCK:   -7.11 KCAL/MOL
REMARK 923 INTER-LIGAND FREE ENERGY PREDICTED BY IDOCK:   -6.63 KCAL/MOL
REMARK 924 INTRA-LIGAND FREE ENERGY PREDICTED BY IDOCK:   -0.48 KCAL/MOL
REMARK 927      BINDING AFFINITY PREDICTED BY RF-SCORE:    0.00 PKD
ROOT
HETATM    1  C   UNL     1     -11.471  12.897  69.449  1.00  0.00    -0.323 C  
HETATM    2  C   UNL     1     -10.536  12.792  68.180  1.00  0.00    -0.244 C  
HETATM    3  C   UNL     1      -9.939  14.176  67.938  1.00  0.00    -0.231 C  
HETATM    4  C   UNL     1      -9.183  14.210  66.625  1.00  0.00    -0.272 C  
HETATM    5  C   UNL     1     -10.089  14.075  65.424  1.00  0.00    -0.343 C  
HETATM    6  C   UNL     1     -11.307  13.098  65.514  1.00  0.00    -0.325 C  
HETATM    7  C   UNL     1     -11.533  12.457  66.987  1.00  0.00    -0.423 C  
HETATM    8  C   UNL     1     -11.231  11.988  64.427  1.00  0.00    -0.406 C  
HETATM    9  C   UNL     1     -12.438  13.991  64.874  1.00  0.00    -0.396 C  
HETATM   10  O   UNL     1     -12.337  14.443  63.728  1.00  0.00    -0.736 OA 
HETATM   11  O   UNL     1     -13.533  14.288  65.575  1.00  0.00    -0.580 OA 
HETATM   12  C   UNL     1     -11.979  10.984  67.101  1.00  0.00     0.856 C  
HETATM   13  C   UNL     1     -10.863   9.990  67.345  1.00  0.00    -0.313 C  
HETATM   14  C   UNL     1      -9.838  10.232  68.461  1.00  0.00    -0.174 C  
HETATM   15  C   UNL     1     -10.099   9.651  69.866  1.00  0.00    -0.279 C  
HETATM   16  C   UNL     1      -8.683   9.348  70.369  1.00  0.00    -0.278 C  
HETATM   17  C   UNL     1      -8.445   8.913  71.613  1.00  0.00    -0.137 C  
HETATM   18  C   UNL     1      -7.655   9.464  69.218  1.00  0.00    -0.081 C  
HETATM   19  C   UNL     1      -7.026  10.873  69.120  1.00  0.00    -0.096 C  
HETATM   20  C   UNL     1      -9.415  11.724  68.620  1.00  0.00    -0.107 C  
HETATM   21  C   UNL     1      -8.651   9.315  68.090  1.00  0.00    -0.125 C  
HETATM   22  C   UNL     1      -7.900  11.879  68.305  1.00  0.00    -0.141 C  
ENDROOT
BRANCH  18  23
HETATM   23  O   UNL     1      -6.728   8.388  69.349  1.00  0.00    -0.044 OA 
BRANCH  23  24
HETATM   24  C   UNL     1      -7.072   7.001  69.168  1.00  0.00    -0.084 C  
HETATM   25  O   UNL     1      -7.354   6.387  70.435  1.00  0.00    -0.083 OA 
HETATM   26  C   UNL     1      -7.906   5.066  70.293  1.00  0.00    -0.070 C  
HETATM   27  C   UNL     1      -6.836   4.155  69.710  1.00  0.00    -0.041 C  
HETATM   28  H   UNL     1      -4.864   4.259  67.210  1.00  0.00     0.000 HD 
HETATM   29  C   UNL     1      -6.387   4.650  68.339  1.00  0.00    -0.036 C  
HETATM   30  H   UNL     1      -6.606   2.228  69.216  1.00  0.00     0.000 HD 
HETATM   31  O   UNL     1      -7.274   2.796  69.580  1.00  0.00    -0.043 OA 
HETATM   32  O   UNL     1      -5.143   3.950  68.064  1.00  0.00    -0.007 OA 
HETATM   33  C   UNL     1      -6.123   6.159  68.256  1.00  0.00    -0.021 C  
BRANCH  26  34
HETATM   34  C   UNL     1      -8.341   4.561  71.675  1.00  0.00    -0.103 C  
HETATM   35  H   UNL     1      -8.833   5.357  73.401  1.00  0.00     0.000 HD 
HETATM   36  O   UNL     1      -8.563   5.669  72.545  1.00  0.00    -0.124 OA 
ENDBRANCH  26  34
BRANCH  33  37
HETATM   37  O   UNL     1      -6.219   6.696  66.914  1.00  0.00    -0.037 OA 
BRANCH  37  38
HETATM   38  C   UNL     1      -7.100   6.084  65.955  1.00  0.00    -0.074 C  
HETATM   39  O   UNL     1      -6.634   4.782  65.657  1.00  0.00    -0.039 OA 
HETATM   40  C   UNL     1      -7.284   4.061  64.615  1.00  0.00    -0.066 C  
HETATM   41  C   UNL     1      -7.502   4.868  63.330  1.00  0.00    -0.055 C  
HETATM   42  H   UNL     1      -8.384   8.632  64.317  1.00  0.00     0.000 HD 
HETATM   43  O   UNL     1      -8.210   8.087  65.076  1.00  0.00    -0.142 OA 
HETATM   44  O   UNL     1      -8.360   4.145  62.440  1.00  0.00    -0.074 OA 
HETATM   45  C   UNL     1      -8.139   6.210  63.643  1.00  0.00    -0.065 C  
HETATM   46  H   UNL     1      -8.601   7.860  62.644  1.00  0.00     0.000 HD 
HETATM   47  O   UNL     1      -8.203   7.020  62.449  1.00  0.00    -0.126 OA 
HETATM   48  H   UNL     1      -8.495   4.646  61.644  1.00  0.00     0.000 HD 
HETATM   49  C   UNL     1      -7.381   6.968  64.722  1.00  0.00    -0.085 C  
BRANCH  40  50
HETATM   50  C   UNL     1      -6.382   2.851  64.298  1.00  0.00    -0.023 C  
HETATM   51  O   UNL     1      -7.082   1.821  63.596  1.00  0.00    -0.031 OA 
HETATM   52  H   UNL     1      -6.525   1.076  63.401  1.00  0.00     0.000 HD 
ENDBRANCH  40  50
ENDBRANCH  37  38
ENDBRANCH  33  37
ENDBRANCH  23  24
ENDBRANCH  18  23
TORSDOF 6
ENDMDL
MODEL      117
REMARK 921   NORMALIZED FREE ENERGY PREDICTED BY IDOCK:   -3.65 KCAL/MOL
REMARK 922        TOTAL FREE ENERGY PREDICTED BY IDOCK:   -6.92 KCAL/MOL
REMARK 923 INTER-LIGAND FREE ENERGY PREDICTED BY IDOCK:   -6.94 KCAL/MOL
REMARK 924 INTRA-LIGAND FREE ENERGY PREDICTED BY IDOCK:    0.02 KCAL/MOL
REMARK 927      BINDING AFFINITY PREDICTED BY RF-SCORE:    0.00 PKD
ROOT
HETATM    1  C   UNL     1      -9.527   4.092  69.080  1.00  0.00    -0.243 C  
HETATM    2  C   UNL     1      -9.119   4.875  67.770  1.00  0.00    -0.128 C  
HETATM    3  C   UNL     1     -10.167   4.559  66.705  1.00  0.00    -0.200 C  
HETATM    4  C   UNL     1      -9.746   5.115  65.359  1.00  0.00     0.025 C  
HETATM    5  C   UNL     1      -8.536   4.413  64.788  1.00  0.00    -0.132 C  
HETATM    6  C   UNL     1      -7.393   3.982  65.765  1.00  0.00    -0.076 C  
HETATM    7  C   UNL     1      -7.740   4.215  67.333  1.00  0.00    -0.084 C  
HETATM    8  C   UNL     1      -6.038   4.648  65.388  1.00  0.00    -0.026 C  
HETATM    9  C   UNL     1      -7.104   2.523  65.242  1.00  0.00    -0.057 C  
HETATM   10  O   UNL     1      -6.769   2.309  64.071  1.00  0.00    -0.029 OA 
HETATM   11  O   UNL     1      -7.230   1.481  66.063  1.00  0.00    -0.049 OA 
HETATM   12  C   UNL     1      -6.625   4.701  68.281  1.00  0.00    -0.046 C  
HETATM   13  C   UNL     1      -6.604   6.192  68.541  1.00  0.00    -0.059 C  
HETATM   14  C   UNL     1      -7.888   6.927  68.949  1.00  0.00    -0.111 C  
HETATM   15  C   UNL     1      -8.219   7.094  70.447  1.00  0.00    -0.126 C  
HETATM   16  C   UNL     1      -8.949   8.441  70.478  1.00  0.00    -0.160 C  
HETATM   17  C   UNL     1      -9.505   8.927  71.596  1.00  0.00    -0.351 C  
HETATM   18  C   UNL     1      -8.801   9.178  69.125  1.00  0.00    -0.146 C  
HETATM   19  C   UNL     1      -9.965   8.878  68.153  1.00  0.00    -0.208 C  
HETATM   20  C   UNL     1      -9.169   6.420  68.219  1.00  0.00    -0.112 C  
HETATM   21  C   UNL     1      -7.585   8.413  68.652  1.00  0.00    -0.102 C  
HETATM   22  C   UNL     1      -9.762   7.558  67.341  1.00  0.00    -0.204 C  
ENDROOT
BRANCH  18  23
HETATM   23  O   UNL     1      -8.574  10.559  69.401  1.00  0.00    -0.154 OA 
BRANCH  23  24
HETATM   24  C   UNL     1      -9.332  11.633  68.816  1.00  0.00    -0.046 C  
HETATM   25  O   UNL     1     -10.631  11.715  69.421  1.00  0.00    -0.112 OA 
HETATM   26  C   UNL     1     -11.347  12.899  69.024  1.00  0.00    -0.290 C  
HETATM   27  C   UNL     1     -11.674  12.792  67.543  1.00  0.00    -0.364 C  
HETATM   28  H   UNL     1     -10.039  12.154  64.884  1.00  0.00     0.000 HD 
HETATM   29  C   UNL     1     -10.401  12.686  66.710  1.00  0.00    -0.235 C  
HETATM   30  H   UNL     1     -12.643  13.838  66.136  1.00  0.00     0.000 HD 
HETATM   31  O   UNL     1     -12.439  13.905  67.061  1.00  0.00    -0.323 OA 
HETATM   32  O   UNL     1     -10.832  12.220  65.403  1.00  0.00    -0.270 OA 
HETATM   33  C   UNL     1      -9.358  11.701  67.255  1.00  0.00    -0.169 C  
BRANCH  26  34
HETATM   34  C   UNL     1     -12.637  12.996  69.850  1.00  0.00     0.156 C  
HETATM   35  H   UNL     1     -13.293  12.309  71.567  1.00  0.00     0.000 HD 
HETATM   36  O   UNL     1     -12.495  12.249  71.056  1.00  0.00    -0.370 OA 
ENDBRANCH  26  34
BRANCH  33  37
HETATM   37  O   UNL     1      -8.007  11.975  66.808  1.00  0.00    -0.145 OA 
BRANCH  37  38
HETATM   38  C   UNL     1      -7.248  13.036  67.417  1.00  0.00    -0.116 C  
HETATM   39  O   UNL     1      -6.523  12.521  68.516  1.00  0.00    -0.064 OA 
HETATM   40  C   UNL     1      -5.821  13.442  69.346  1.00  0.00    -0.093 C  
HETATM   41  C   UNL     1      -6.644  14.667  69.761  1.00  0.00    -0.164 C  
HETATM   42  H   UNL     1      -8.968  15.748  66.705  1.00  0.00     0.000 HD 
HETATM   43  O   UNL     1      -8.452  14.973  66.515  1.00  0.00    -0.217 OA 
HETATM   44  O   UNL     1      -5.793  15.635  70.387  1.00  0.00    -0.151 OA 
HETATM   45  C   UNL     1      -7.305  15.304  68.553  1.00  0.00    -0.119 C  
HETATM   46  H   UNL     1      -8.607  16.762  68.216  1.00  0.00     0.000 HD 
HETATM   47  O   UNL     1      -8.193  16.364  68.972  1.00  0.00    -0.229 OA 
HETATM   48  H   UNL     1      -6.302  16.394  70.645  1.00  0.00     0.000 HD 
HETATM   49  C   UNL     1      -8.086  14.294  67.727  1.00  0.00    -0.170 C  
BRANCH  40  50
HETATM   50  C   UNL     1      -5.413  12.661  70.610  1.00  0.00    -0.172 C  
HETATM   51  O   UNL     1      -6.270  11.544  70.860  1.00  0.00    -0.497 OA 
HETATM   52  H   UNL     1      -6.018  11.063  71.639  1.00  0.00     0.000 HD 
ENDBRANCH  40  50
ENDBRANCH  37  38
ENDBRANCH  33  37
ENDBRANCH  23  24
ENDBRANCH  18  23
TORSDOF 6
ENDMDL
MODEL      118
REMARK 921   NORMALIZED FREE ENERGY PREDICTED BY IDOCK:   -3.62 KCAL/MOL
REMARK 922        TOTAL FREE ENERGY PREDICTED BY IDOCK:   -6.87 KCAL/MOL
REMARK 923 INTER-LIGAND FREE ENERGY PREDICTED BY IDOCK:   -7.37 KCAL/MOL
REMARK 924 INTRA-LIGAND FREE ENERGY PREDICTED BY IDOCK:    0.50 KCAL/MOL
REMARK 927      BINDING AFFINITY PREDICTED BY RF-SCORE:    0.00 PKD
ROOT
HETATM    1  C   UNL     1     -10.936  16.483  68.848  1.00  0.00    -0.325 C  
HETATM    2  C   UNL     1      -9.461  16.286  68.316  1.00  0.00    -0.214 C  
HETATM    3  C   UNL     1      -8.512  16.680  69.446  1.00  0.00     0.141 C  
HETATM    4  C   UNL     1      -7.079  16.706  68.956  1.00  0.00    -0.216 C  
HETATM    5  C   UNL     1      -6.820  17.817  67.966  1.00  0.00    -0.191 C  
HETATM    6  C   UNL     1      -7.932  18.159  66.920  1.00  0.00    -0.250 C  
HETATM    7  C   UNL     1      -9.322  17.355  67.146  1.00  0.00    -0.246 C  
HETATM    8  C   UNL     1      -7.418  17.988  65.462  1.00  0.00     0.262 C  
HETATM    9  C   UNL     1      -7.924  19.734  66.999  1.00  0.00    -0.289 C  
HETATM   10  O   UNL     1      -6.901  20.390  66.766  1.00  0.00    -0.229 OA 
HETATM   11  O   UNL     1      -9.033  20.392  67.335  1.00  0.00    -0.346 OA 
HETATM   12  C   UNL     1     -10.108  16.860  65.915  1.00  0.00    -0.302 C  
HETATM   13  C   UNL     1      -9.870  15.413  65.537  1.00  0.00    -0.359 C  
HETATM   14  C   UNL     1      -9.961  14.308  66.598  1.00  0.00    -0.279 C  
HETATM   15  C   UNL     1     -11.308  13.591  66.826  1.00  0.00    -0.351 C  
HETATM   16  C   UNL     1     -10.868  12.176  67.219  1.00  0.00    -0.286 C  
HETATM   17  C   UNL     1     -11.742  11.237  67.605  1.00  0.00    -0.215 C  
HETATM   18  C   UNL     1      -9.357  11.976  66.952  1.00  0.00    -0.200 C  
HETATM   19  C   UNL     1      -8.485  12.297  68.188  1.00  0.00    -0.176 C  
HETATM   20  C   UNL     1      -9.381  14.713  67.987  1.00  0.00    -0.198 C  
HETATM   21  C   UNL     1      -9.211  13.113  65.967  1.00  0.00     0.078 C  
HETATM   22  C   UNL     1      -8.156  13.818  68.329  1.00  0.00    -0.150 C  
ENDROOT
BRANCH  18  23
HETATM   23  O   UNL     1      -9.179  10.674  66.399  1.00  0.00    -0.162 OA 
BRANCH  23  24
HETATM   24  C   UNL     1      -8.685   9.543  67.140  1.00  0.00    -0.132 C  
HETATM   25  O   UNL     1      -9.663   9.107  68.096  1.00  0.00    -0.149 OA 
HETATM   26  C   UNL     1      -9.308   7.856  68.713  1.00  0.00    -0.146 C  
HETATM   27  C   UNL     1      -8.073   8.076  69.574  1.00  0.00    -0.120 C  
HETATM   28  H   UNL     1      -5.197   9.381  69.151  1.00  0.00     0.000 HD 
HETATM   29  C   UNL     1      -6.898   8.558  68.729  1.00  0.00    -0.062 C  
HETATM   30  H   UNL     1      -6.899   7.031  70.815  1.00  0.00     0.000 HD 
HETATM   31  O   UNL     1      -7.670   6.894  70.278  1.00  0.00    -0.096 OA 
HETATM   32  O   UNL     1      -5.929   9.080  69.678  1.00  0.00    -0.032 OA 
HETATM   33  C   UNL     1      -7.242   9.668  67.727  1.00  0.00    -0.085 C  
BRANCH  26  34
HETATM   34  C   UNL     1     -10.483   7.381  69.577  1.00  0.00    -0.232 C  
HETATM   35  H   UNL     1     -11.718   8.175  70.880  1.00  0.00     0.000 HD 
HETATM   36  O   UNL     1     -10.990   8.470  70.345  1.00  0.00    -0.237 OA 
ENDBRANCH  26  34
BRANCH  33  37
HETATM   37  O   UNL     1      -6.323   9.751  66.609  1.00  0.00    -0.064 OA 
BRANCH  37  38
HETATM   38  C   UNL     1      -6.544   8.949  65.434  1.00  0.00    -0.068 C  
HETATM   39  O   UNL     1      -7.376   9.657  64.536  1.00  0.00    -0.113 OA 
HETATM   40  C   UNL     1      -7.836   8.976  63.372  1.00  0.00    -0.139 C  
HETATM   41  C   UNL     1      -8.395   7.574  63.642  1.00  0.00     0.169 C  
HETATM   42  H   UNL     1      -6.218   5.858  66.511  1.00  0.00     0.000 HD 
HETATM   43  O   UNL     1      -5.934   6.744  66.318  1.00  0.00    -0.028 OA 
HETATM   44  O   UNL     1      -8.610   6.889  62.404  1.00  0.00    -0.349 OA 
HETATM   45  C   UNL     1      -7.429   6.767  64.489  1.00  0.00    -0.099 C  
HETATM   46  H   UNL     1      -7.423   5.000  65.391  1.00  0.00     0.000 HD 
HETATM   47  O   UNL     1      -8.028   5.506  64.861  1.00  0.00    -0.101 OA 
HETATM   48  H   UNL     1      -8.956   6.020  62.571  1.00  0.00     0.000 HD 
HETATM   49  C   UNL     1      -7.006   7.511  65.746  1.00  0.00    -0.061 C  
BRANCH  40  50
HETATM   50  C   UNL     1      -8.953   9.852  62.772  1.00  0.00    -0.262 C  
HETATM   51  O   UNL     1     -10.037  10.051  63.682  1.00  0.00    -0.466 OA 
HETATM   52  H   UNL     1     -10.725  10.591  63.312  1.00  0.00     0.000 HD 
ENDBRANCH  40  50
ENDBRANCH  37  38
ENDBRANCH  33  37
ENDBRANCH  23  24
ENDBRANCH  18  23
TORSDOF 6
ENDMDL
MODEL      119
REMARK 921   NORMALIZED FREE ENERGY PREDICTED BY IDOCK:   -3.61 KCAL/MOL
REMARK 922        TOTAL FREE ENERGY PREDICTED BY IDOCK:   -6.86 KCAL/MOL
REMARK 923 INTER-LIGAND FREE ENERGY PREDICTED BY IDOCK:   -6.30 KCAL/MOL
REMARK 924 INTRA-LIGAND FREE ENERGY PREDICTED BY IDOCK:   -0.56 KCAL/MOL
REMARK 927      BINDING AFFINITY PREDICTED BY RF-SCORE:    0.00 PKD
ROOT
HETATM    1  C   UNL     1      -6.555  16.496  66.653  1.00  0.00    -0.071 C  
HETATM    2  C   UNL     1      -8.106  16.292  66.876  1.00  0.00    -0.270 C  
HETATM    3  C   UNL     1      -8.830  17.058  65.770  1.00  0.00     0.154 C  
HETATM    4  C   UNL     1     -10.324  17.075  66.023  1.00  0.00    -0.324 C  
HETATM    5  C   UNL     1     -10.704  17.895  67.233  1.00  0.00    -0.278 C  
HETATM    6  C   UNL     1      -9.774  17.843  68.491  1.00  0.00    -0.352 C  
HETATM    7  C   UNL     1      -8.399  17.012  68.263  1.00  0.00    -0.228 C  
HETATM    8  C   UNL     1     -10.537  17.329  69.744  1.00  0.00     0.208 C  
HETATM    9  C   UNL     1      -9.704  19.375  68.857  1.00  0.00    -0.437 C  
HETATM   10  O   UNL     1     -10.724  20.030  69.106  1.00  0.00     0.069 OA 
HETATM   11  O   UNL     1      -8.527  20.001  68.894  1.00  0.00    -0.069 OA 
HETATM   12  C   UNL     1      -7.857  16.136  69.411  1.00  0.00    -0.126 C  
HETATM   13  C   UNL     1      -8.216  14.668  69.326  1.00  0.00    -0.003 C  
HETATM   14  C   UNL     1      -7.989  13.887  68.024  1.00  0.00    -0.154 C  
HETATM   15  C   UNL     1      -6.654  13.144  67.812  1.00  0.00    -0.151 C  
HETATM   16  C   UNL     1      -7.077  11.932  66.975  1.00  0.00    -0.116 C  
HETATM   17  C   UNL     1      -6.189  11.061  66.479  1.00  0.00    -0.133 C  
HETATM   18  C   UNL     1      -8.619  11.800  66.940  1.00  0.00    -0.177 C  
HETATM   19  C   UNL     1      -9.252  12.517  65.726  1.00  0.00     0.111 C  
HETATM   20  C   UNL     1      -8.305  14.702  66.733  1.00  0.00    -0.078 C  
HETATM   21  C   UNL     1      -8.885  12.636  68.171  1.00  0.00    -0.194 C  
HETATM   22  C   UNL     1      -9.489  14.042  65.970  1.00  0.00    -0.164 C  
ENDROOT
BRANCH  18  23
HETATM   23  O   UNL     1      -8.942  10.417  67.071  1.00  0.00    -0.139 OA 
BRANCH  23  24
HETATM   24  C   UNL     1      -8.291   9.364  66.336  1.00  0.00    -0.115 C  
HETATM   25  O   UNL     1      -8.684   9.401  64.956  1.00  0.00    -0.163 OA 
HETATM   26  C   UNL     1      -7.904   8.508  64.139  1.00  0.00    -0.144 C  
HETATM   27  C   UNL     1      -8.227   7.078  64.541  1.00  0.00     0.003 C  
HETATM   28  H   UNL     1      -8.349   5.446  67.275  1.00  0.00     0.000 HD 
HETATM   29  C   UNL     1      -7.881   6.832  66.006  1.00  0.00    -0.104 C  
HETATM   30  H   UNL     1      -7.739   5.214  63.995  1.00  0.00     0.000 HD 
HETATM   31  O   UNL     1      -7.537   6.107  63.744  1.00  0.00    -0.075 OA 
HETATM   32  O   UNL     1      -8.564   5.599  66.362  1.00  0.00    -0.118 OA 
HETATM   33  C   UNL     1      -8.341   7.936  66.968  1.00  0.00    -0.117 C  
BRANCH  26  34
HETATM   34  C   UNL     1      -8.265   8.744  62.667  1.00  0.00    -0.194 C  
HETATM   35  H   UNL     1      -9.437   9.949  61.654  1.00  0.00     0.000 HD 
HETATM   36  O   UNL     1      -9.214   9.804  62.566  1.00  0.00    -0.283 OA 
ENDBRANCH  26  34
BRANCH  33  37
HETATM   37  O   UNL     1      -7.591   7.981  68.207  1.00  0.00    -0.104 OA 
BRANCH  37  38
HETATM   38  C   UNL     1      -8.227   7.622  69.448  1.00  0.00    -0.129 C  
HETATM   39  O   UNL     1      -8.637   6.270  69.388  1.00  0.00    -0.123 OA 
HETATM   40  C   UNL     1      -9.421   5.761  70.464  1.00  0.00    -0.167 C  
HETATM   41  C   UNL     1     -10.587   6.666  70.876  1.00  0.00    -0.224 C  
HETATM   42  H   UNL     1      -9.425  10.471  70.576  1.00  0.00     0.000 HD 
HETATM   43  O   UNL     1      -8.749   9.861  70.305  1.00  0.00    -0.183 OA 
HETATM   44  O   UNL     1     -11.163   6.191  72.098  1.00  0.00    -0.258 OA 
HETATM   45  C   UNL     1     -10.112   8.093  71.080  1.00  0.00    -0.184 C  
HETATM   46  H   UNL     1     -10.942   9.856  71.450  1.00  0.00     0.000 HD 
HETATM   47  O   UNL     1     -11.239   8.963  71.323  1.00  0.00    -0.255 OA 
HETATM   48  H   UNL     1     -11.886   6.752  72.354  1.00  0.00     0.000 HD 
HETATM   49  C   UNL     1      -9.326   8.612  69.886  1.00  0.00    -0.159 C  
BRANCH  40  50
HETATM   50  C   UNL     1      -9.983   4.408  69.986  1.00  0.00    -0.175 C  
HETATM   51  O   UNL     1      -9.119   3.760  69.049  1.00  0.00    -0.111 OA 
HETATM   52  H   UNL     1      -9.466   2.926  68.755  1.00  0.00     0.000 HD 
ENDBRANCH  40  50
ENDBRANCH  37  38
ENDBRANCH  33  37
ENDBRANCH  23  24
ENDBRANCH  18  23
TORSDOF 6
ENDMDL
MODEL      120
REMARK 921   NORMALIZED FREE ENERGY PREDICTED BY IDOCK:   -3.56 KCAL/MOL
REMARK 922        TOTAL FREE ENERGY PREDICTED BY IDOCK:   -6.80 KCAL/MOL
REMARK 923 INTER-LIGAND FREE ENERGY PREDICTED BY IDOCK:   -7.64 KCAL/MOL
REMARK 924 INTRA-LIGAND FREE ENERGY PREDICTED BY IDOCK:    0.84 KCAL/MOL
REMARK 927      BINDING AFFINITY PREDICTED BY RF-SCORE:    0.00 PKD
ROOT
HETATM    1  C   UNL     1      -6.825   7.835  70.073  1.00  0.00    -0.049 C  
HETATM    2  C   UNL     1      -8.024   8.067  69.071  1.00  0.00    -0.114 C  
HETATM    3  C   UNL     1      -9.316   7.768  69.828  1.00  0.00    -0.153 C  
HETATM    4  C   UNL     1     -10.503   7.777  68.885  1.00  0.00    -0.208 C  
HETATM    5  C   UNL     1     -10.477   6.632  67.901  1.00  0.00    -0.267 C  
HETATM    6  C   UNL     1      -9.100   6.195  67.300  1.00  0.00    -0.115 C  
HETATM    7  C   UNL     1      -7.823   6.950  67.956  1.00  0.00    -0.114 C  
HETATM    8  C   UNL     1      -9.087   6.318  65.750  1.00  0.00    -0.039 C  
HETATM    9  C   UNL     1      -9.221   4.627  67.421  1.00  0.00    -0.131 C  
HETATM   10  O   UNL     1     -10.141   4.004  66.878  1.00  0.00    -0.123 OA 
HETATM   11  O   UNL     1      -8.326   3.940  68.131  1.00  0.00    -0.090 OA 
HETATM   12  C   UNL     1      -6.645   7.353  67.045  1.00  0.00    -0.061 C  
HETATM   13  C   UNL     1      -6.663   8.789  66.564  1.00  0.00    -0.071 C  
HETATM   14  C   UNL     1      -6.870   9.938  67.559  1.00  0.00    -0.081 C  
HETATM   15  C   UNL     1      -5.640  10.610  68.204  1.00  0.00    -0.036 C  
HETATM   16  C   UNL     1      -6.107  12.059  68.383  1.00  0.00    -0.050 C  
HETATM   17  C   UNL     1      -5.362  12.977  69.011  1.00  0.00    -0.069 C  
HETATM   18  C   UNL     1      -7.429  12.308  67.617  1.00  0.00    -0.134 C  
HETATM   19  C   UNL     1      -8.680  12.083  68.498  1.00  0.00    -0.095 C  
HETATM   20  C   UNL     1      -7.902   9.625  68.685  1.00  0.00    -0.081 C  
HETATM   21  C   UNL     1      -7.300  11.132  66.676  1.00  0.00    -0.145 C  
HETATM   22  C   UNL     1      -9.120  10.585  68.567  1.00  0.00    -0.154 C  
ENDROOT
BRANCH  18  23
HETATM   23  O   UNL     1      -7.340  13.589  66.996  1.00  0.00     0.035 OA 
BRANCH  23  24
HETATM   24  C   UNL     1      -7.771  14.816  67.613  1.00  0.00    -0.182 C  
HETATM   25  O   UNL     1      -9.051  14.637  68.238  1.00  0.00    -0.177 OA 
HETATM   26  C   UNL     1      -9.428  15.767  69.047  1.00  0.00    -0.247 C  
HETATM   27  C   UNL     1      -9.665  16.958  68.133  1.00  0.00    -0.254 C  
HETATM   28  H   UNL     1      -8.049  18.401  65.797  1.00  0.00     0.000 HD 
HETATM   29  C   UNL     1      -8.400  17.311  67.358  1.00  0.00    -0.199 C  
HETATM   30  H   UNL     1     -10.249  18.869  68.272  1.00  0.00     0.000 HD 
HETATM   31  O   UNL     1     -10.101  18.125  68.843  1.00  0.00    -0.381 OA 
HETATM   32  O   UNL     1      -8.837  18.182  66.280  1.00  0.00    -0.405 OA 
HETATM   33  C   UNL     1      -7.669  16.109  66.743  1.00  0.00    -0.253 C  
BRANCH  26  34
HETATM   34  C   UNL     1     -10.711  15.418  69.813  1.00  0.00    -0.291 C  
HETATM   35  H   UNL     1     -12.534  14.842  69.368  1.00  0.00     0.000 HD 
HETATM   36  O   UNL     1     -11.740  15.058  68.894  1.00  0.00    -0.307 OA 
ENDBRANCH  26  34
BRANCH  33  37
HETATM   37  O   UNL     1      -6.263  16.351  66.485  1.00  0.00    -0.261 OA 
BRANCH  37  38
HETATM   38  C   UNL     1      -5.654  17.582  66.914  1.00  0.00    -0.158 C  
HETATM   39  O   UNL     1      -5.821  17.725  68.311  1.00  0.00    -0.158 OA 
HETATM   40  C   UNL     1      -5.417  18.951  68.912  1.00  0.00    -0.198 C  
HETATM   41  C   UNL     1      -5.904  20.204  68.175  1.00  0.00    -0.231 C  
HETATM   42  H   UNL     1      -5.792  19.505  64.249  1.00  0.00     0.000 HD 
HETATM   43  O   UNL     1      -5.525  18.751  64.761  1.00  0.00    -0.190 OA 
HETATM   44  O   UNL     1      -5.261  21.365  68.711  1.00  0.00    -0.471 OA 
HETATM   45  C   UNL     1      -5.591  20.109  66.693  1.00  0.00    -0.170 C  
HETATM   46  H   UNL     1      -5.987  21.162  65.060  1.00  0.00     0.000 HD 
HETATM   47  O   UNL     1      -6.183  21.222  65.987  1.00  0.00    -0.259 OA 
HETATM   48  H   UNL     1      -5.562  22.142  68.254  1.00  0.00     0.000 HD 
HETATM   49  C   UNL     1      -6.087  18.807  66.083  1.00  0.00    -0.174 C  
BRANCH  40  50
HETATM   50  C   UNL     1      -6.005  18.949  70.337  1.00  0.00    -0.088 C  
HETATM   51  O   UNL     1      -5.252  19.765  71.237  1.00  0.00    -0.237 OA 
HETATM   52  H   UNL     1      -5.614  19.763  72.115  1.00  0.00     0.000 HD 
ENDBRANCH  40  50
ENDBRANCH  37  38
ENDBRANCH  33  37
ENDBRANCH  23  24
ENDBRANCH  18  23
TORSDOF 6
ENDMDL
MODEL      121
REMARK 921   NORMALIZED FREE ENERGY PREDICTED BY IDOCK:   -3.55 KCAL/MOL
REMARK 922        TOTAL FREE ENERGY PREDICTED BY IDOCK:   -6.78 KCAL/MOL
REMARK 923 INTER-LIGAND FREE ENERGY PREDICTED BY IDOCK:   -5.57 KCAL/MOL
REMARK 924 INTRA-LIGAND FREE ENERGY PREDICTED BY IDOCK:   -1.21 KCAL/MOL
REMARK 927      BINDING AFFINITY PREDICTED BY RF-SCORE:    0.00 PKD
ROOT
HETATM    1  C   UNL     1      -7.255   6.177  74.523  1.00  0.00    -0.090 C  
HETATM    2  C   UNL     1      -8.396   5.984  73.448  1.00  0.00    -0.117 C  
HETATM    3  C   UNL     1      -9.733   6.135  74.170  1.00  0.00    -0.222 C  
HETATM    4  C   UNL     1     -10.881   5.773  73.250  1.00  0.00    -0.306 C  
HETATM    5  C   UNL     1     -10.910   4.303  72.901  1.00  0.00    -0.230 C  
HETATM    6  C   UNL     1      -9.550   3.567  72.661  1.00  0.00    -0.190 C  
HETATM    7  C   UNL     1      -8.243   4.471  72.983  1.00  0.00    -0.099 C  
HETATM    8  C   UNL     1      -9.474   2.961  71.230  1.00  0.00    -0.219 C  
HETATM    9  C   UNL     1      -9.797   2.239  73.476  1.00  0.00    -0.095 C  
HETATM   10  O   UNL     1     -10.743   1.486  73.218  1.00  0.00    -0.103 OA 
HETATM   11  O   UNL     1      -8.983   1.910  74.479  1.00  0.00    -0.060 OA 
HETATM   12  C   UNL     1      -7.005   4.346  72.070  1.00  0.00    -0.054 C  
HETATM   13  C   UNL     1      -6.895   5.398  70.986  1.00  0.00    -0.045 C  
HETATM   14  C   UNL     1      -7.048   6.886  71.330  1.00  0.00    -0.074 C  
HETATM   15  C   UNL     1      -5.793   7.713  71.678  1.00  0.00    -0.035 C  
HETATM   16  C   UNL     1      -6.152   9.104  71.143  1.00  0.00    -0.067 C  
HETATM   17  C   UNL     1      -5.360  10.168  71.331  1.00  0.00    -0.068 C  
HETATM   18  C   UNL     1      -7.423   9.042  70.261  1.00  0.00    -0.083 C  
HETATM   19  C   UNL     1      -8.717   9.314  71.062  1.00  0.00    -0.182 C  
HETATM   20  C   UNL     1      -8.140   7.181  72.402  1.00  0.00    -0.108 C  
HETATM   21  C   UNL     1      -7.352   7.560  69.973  1.00  0.00    -0.081 C  
HETATM   22  C   UNL     1      -9.275   8.042  71.778  1.00  0.00    -0.212 C  
ENDROOT
BRANCH  18  23
HETATM   23  O   UNL     1      -7.212   9.886  69.132  1.00  0.00    -0.065 OA 
BRANCH  23  24
HETATM   24  C   UNL     1      -8.179  10.086  68.084  1.00  0.00    -0.109 C  
HETATM   25  O   UNL     1      -8.731   8.828  67.667  1.00  0.00    -0.133 OA 
HETATM   26  C   UNL     1      -9.850   8.988  66.776  1.00  0.00    -0.234 C  
HETATM   27  C   UNL     1      -9.345   9.581  65.469  1.00  0.00    -0.255 C  
HETATM   28  H   UNL     1      -7.547  12.077  64.638  1.00  0.00     0.000 HD 
HETATM   29  C   UNL     1      -8.703  10.945  65.702  1.00  0.00    -0.183 C  
HETATM   30  H   UNL     1     -10.067  10.100  63.675  1.00  0.00     0.000 HD 
HETATM   31  O   UNL     1     -10.382   9.730  64.490  1.00  0.00     0.349 OA 
HETATM   32  O   UNL     1      -7.947  11.227  64.493  1.00  0.00     0.506 OA 
HETATM   33  C   UNL     1      -7.745  11.007  66.899  1.00  0.00    -0.140 C  
BRANCH  26  34
HETATM   34  C   UNL     1     -10.484   7.614  66.528  1.00  0.00     0.052 C  
HETATM   35  H   UNL     1     -10.002   5.962  65.582  1.00  0.00     0.000 HD 
HETATM   36  O   UNL     1      -9.609   6.813  65.736  1.00  0.00     0.150 OA 
ENDBRANCH  26  34
BRANCH  33  37
HETATM   37  O   UNL     1      -7.560  12.343  67.430  1.00  0.00    -0.143 OA 
BRANCH  37  38
HETATM   38  C   UNL     1      -8.586  13.337  67.252  1.00  0.00    -0.210 C  
HETATM   39  O   UNL     1      -7.997  14.536  66.787  1.00  0.00    -0.019 OA 
HETATM   40  C   UNL     1      -8.824  15.692  66.687  1.00  0.00    -0.292 C  
HETATM   41  C   UNL     1      -9.692  15.954  67.923  1.00  0.00    -0.216 C  
HETATM   42  H   UNL     1     -10.926  12.455  69.388  1.00  0.00     0.000 HD 
HETATM   43  O   UNL     1     -10.359  12.355  68.633  1.00  0.00    -0.225 OA 
HETATM   44  O   UNL     1     -10.645  16.984  67.639  1.00  0.00    -0.339 OA 
HETATM   45  C   UNL     1     -10.436  14.696  68.332  1.00  0.00    -0.243 C  
HETATM   46  H   UNL     1     -11.597  14.126  69.835  1.00  0.00     0.000 HD 
HETATM   47  O   UNL     1     -11.132  14.914  69.579  1.00  0.00    -0.260 OA 
HETATM   48  H   UNL     1     -11.183  17.148  68.405  1.00  0.00     0.000 HD 
HETATM   49  C   UNL     1      -9.507  13.501  68.478  1.00  0.00    -0.131 C  
BRANCH  40  50
HETATM   50  C   UNL     1      -7.872  16.887  66.482  1.00  0.00    -0.294 C  
HETATM   51  O   UNL     1      -8.577  18.116  66.284  1.00  0.00    -0.393 OA 
HETATM   52  H   UNL     1      -7.990  18.852  66.157  1.00  0.00     0.000 HD 
ENDBRANCH  40  50
ENDBRANCH  37  38
ENDBRANCH  33  37
ENDBRANCH  23  24
ENDBRANCH  18  23
TORSDOF 6
ENDMDL
MODEL      122
REMARK 921   NORMALIZED FREE ENERGY PREDICTED BY IDOCK:   -3.51 KCAL/MOL
REMARK 922        TOTAL FREE ENERGY PREDICTED BY IDOCK:   -6.73 KCAL/MOL
REMARK 923 INTER-LIGAND FREE ENERGY PREDICTED BY IDOCK:   -6.63 KCAL/MOL
REMARK 924 INTRA-LIGAND FREE ENERGY PREDICTED BY IDOCK:   -0.10 KCAL/MOL
REMARK 927      BINDING AFFINITY PREDICTED BY RF-SCORE:    0.00 PKD
ROOT
HETATM    1  C   UNL     1     -11.330  16.661  68.225  1.00  0.00    -0.121 C  
HETATM    2  C   UNL     1      -9.757  16.557  68.121  1.00  0.00    -0.234 C  
HETATM    3  C   UNL     1      -9.170  17.348  69.288  1.00  0.00     0.149 C  
HETATM    4  C   UNL     1      -7.665  17.461  69.153  1.00  0.00    -0.055 C  
HETATM    5  C   UNL     1      -7.246  18.323  67.985  1.00  0.00    -0.240 C  
HETATM    6  C   UNL     1      -8.071  18.234  66.659  1.00  0.00    -0.281 C  
HETATM    7  C   UNL     1      -9.404  17.317  66.769  1.00  0.00    -0.272 C  
HETATM    8  C   UNL     1      -7.183  17.789  65.462  1.00  0.00     0.252 C  
HETATM    9  C   UNL     1      -8.208  19.765  66.305  1.00  0.00    -0.350 C  
HETATM   10  O   UNL     1      -7.216  20.485  66.144  1.00  0.00    -0.232 OA 
HETATM   11  O   UNL     1      -9.416  20.317  66.185  1.00  0.00    -0.339 OA 
HETATM   12  C   UNL     1      -9.800  16.428  65.572  1.00  0.00    -0.108 C  
HETATM   13  C   UNL     1      -9.358  14.983  65.668  1.00  0.00    -0.055 C  
HETATM   14  C   UNL     1      -9.634  14.168  66.939  1.00  0.00    -0.275 C  
HETATM   15  C   UNL     1     -10.932  13.341  67.038  1.00  0.00    -0.291 C  
HETATM   16  C   UNL     1     -10.499  12.144  67.892  1.00  0.00    -0.224 C  
HETATM   17  C   UNL     1     -11.367  11.211  68.307  1.00  0.00    -0.365 C  
HETATM   18  C   UNL     1      -8.960  12.106  68.045  1.00  0.00    -0.189 C  
HETATM   19  C   UNL     1      -8.469  12.842  69.313  1.00  0.00     0.877 C  
HETATM   20  C   UNL     1      -9.470  14.980  68.260  1.00  0.00    -0.196 C  
HETATM   21  C   UNL     1      -8.653  12.978  66.848  1.00  0.00    -0.126 C  
HETATM   22  C   UNL     1      -8.309  14.382  69.106  1.00  0.00     0.056 C  
ENDROOT
BRANCH  18  23
HETATM   23  O   UNL     1      -8.541  10.748  67.924  1.00  0.00    -0.122 OA 
BRANCH  23  24
HETATM   24  C   UNL     1      -8.188  10.121  66.677  1.00  0.00    -0.123 C  
HETATM   25  O   UNL     1      -7.030  10.753  66.111  1.00  0.00    -0.129 OA 
HETATM   26  C   UNL     1      -6.510  10.033  64.978  1.00  0.00    -0.117 C  
HETATM   27  C   UNL     1      -7.523  10.117  63.847  1.00  0.00    -0.121 C  
HETATM   28  H   UNL     1     -10.646   9.568  63.533  1.00  0.00     0.000 HD 
HETATM   29  C   UNL     1      -8.853   9.492  64.258  1.00  0.00    -0.213 C  
HETATM   30  H   UNL     1      -7.705   9.524  61.942  1.00  0.00     0.000 HD 
HETATM   31  O   UNL     1      -7.072   9.472  62.649  1.00  0.00    -0.101 OA 
HETATM   32  O   UNL     1      -9.818   9.957  63.277  1.00  0.00     0.059 OA 
HETATM   33  C   UNL     1      -9.347   9.898  65.654  1.00  0.00    -0.214 C  
BRANCH  26  34
HETATM   34  C   UNL     1      -5.182  10.672  64.553  1.00  0.00    -0.143 C  
HETATM   35  H   UNL     1      -4.403  11.395  62.903  1.00  0.00     0.000 HD 
HETATM   36  O   UNL     1      -5.225  10.999  63.166  1.00  0.00    -0.167 OA 
ENDBRANCH  26  34
BRANCH  33  37
HETATM   37  O   UNL     1     -10.272   8.951  66.243  1.00  0.00    -0.284 OA 
BRANCH  37  38
HETATM   38  C   UNL     1      -9.784   7.712  66.790  1.00  0.00    -0.222 C  
HETATM   39  O   UNL     1      -9.822   6.713  65.789  1.00  0.00     0.285 OA 
HETATM   40  C   UNL     1      -9.518   5.374  66.168  1.00  0.00    -0.157 C  
HETATM   41  C   UNL     1     -10.235   4.901  67.438  1.00  0.00    -0.118 C  
HETATM   42  H   UNL     1     -10.442   7.948  70.004  1.00  0.00     0.000 HD 
HETATM   43  O   UNL     1     -10.029   8.191  69.183  1.00  0.00    -0.182 OA 
HETATM   44  O   UNL     1      -9.693   3.646  67.864  1.00  0.00    -0.159 OA 
HETATM   45  C   UNL     1     -10.067   5.913  68.556  1.00  0.00    -0.167 C  
HETATM   46  H   UNL     1     -10.762   6.164  70.397  1.00  0.00     0.000 HD 
HETATM   47  O   UNL     1     -10.867   5.531  69.697  1.00  0.00    -0.328 OA 
HETATM   48  H   UNL     1     -10.138   3.352  68.651  1.00  0.00     0.000 HD 
HETATM   49  C   UNL     1     -10.454   7.318  68.122  1.00  0.00    -0.198 C  
BRANCH  40  50
HETATM   50  C   UNL     1      -9.951   4.482  64.988  1.00  0.00    -0.095 C  
HETATM   51  O   UNL     1     -11.364   4.271  64.955  1.00  0.00    -0.996 OA 
HETATM   52  H   UNL     1     -11.630   3.721  64.228  1.00  0.00     0.000 HD 
ENDBRANCH  40  50
ENDBRANCH  37  38
ENDBRANCH  33  37
ENDBRANCH  23  24
ENDBRANCH  18  23
TORSDOF 6
ENDMDL
MODEL      123
REMARK 921   NORMALIZED FREE ENERGY PREDICTED BY IDOCK:   -3.35 KCAL/MOL
REMARK 922        TOTAL FREE ENERGY PREDICTED BY IDOCK:   -6.51 KCAL/MOL
REMARK 923 INTER-LIGAND FREE ENERGY PREDICTED BY IDOCK:   -8.79 KCAL/MOL
REMARK 924 INTRA-LIGAND FREE ENERGY PREDICTED BY IDOCK:    2.28 KCAL/MOL
REMARK 927      BINDING AFFINITY PREDICTED BY RF-SCORE:    0.00 PKD
ROOT
HETATM    1  C   UNL     1     -10.828  15.222  70.158  1.00  0.00    -0.302 C  
HETATM    2  C   UNL     1     -10.010  15.079  68.814  1.00  0.00    -0.228 C  
HETATM    3  C   UNL     1      -8.652  15.742  69.034  1.00  0.00    -0.236 C  
HETATM    4  C   UNL     1      -7.879  15.821  67.734  1.00  0.00    -0.155 C  
HETATM    5  C   UNL     1      -8.502  16.771  66.739  1.00  0.00    -0.268 C  
HETATM    6  C   UNL     1     -10.063  16.829  66.639  1.00  0.00    -0.304 C  
HETATM    7  C   UNL     1     -10.830  15.946  67.763  1.00  0.00    -0.324 C  
HETATM    8  C   UNL     1     -10.557  16.466  65.210  1.00  0.00    -0.320 C  
HETATM    9  C   UNL     1     -10.288  18.389  66.588  1.00  0.00    -0.396 C  
HETATM   10  O   UNL     1      -9.777  19.089  65.706  1.00  0.00    -0.428 OA 
HETATM   11  O   UNL     1     -11.035  18.987  67.516  1.00  0.00    -0.443 OA 
HETATM   12  C   UNL     1     -12.110  15.182  67.367  1.00  0.00     0.200 C  
HETATM   13  C   UNL     1     -11.908  13.721  67.023  1.00  0.00    -0.445 C  
HETATM   14  C   UNL     1     -11.114  12.804  67.963  1.00  0.00    -0.284 C  
HETATM   15  C   UNL     1     -11.863  12.012  69.055  1.00  0.00    -0.372 C  
HETATM   16  C   UNL     1     -11.030  10.730  69.165  1.00  0.00    -0.293 C  
HETATM   17  C   UNL     1     -11.282   9.791  70.086  1.00  0.00    -0.324 C  
HETATM   18  C   UNL     1     -10.017  10.631  67.999  1.00  0.00    -0.160 C  
HETATM   19  C   UNL     1      -8.638  11.233  68.354  1.00  0.00    -0.155 C  
HETATM   20  C   UNL     1      -9.875  13.487  68.618  1.00  0.00    -0.128 C  
HETATM   21  C   UNL     1     -10.728  11.597  67.079  1.00  0.00    -0.292 C  
HETATM   22  C   UNL     1      -8.572  12.780  68.147  1.00  0.00    -0.185 C  
ENDROOT
BRANCH  18  23
HETATM   23  O   UNL     1      -9.996   9.277  67.550  1.00  0.00    -0.178 OA 
BRANCH  23  24
HETATM   24  C   UNL     1      -9.174   8.248  68.131  1.00  0.00    -0.134 C  
HETATM   25  O   UNL     1      -9.967   7.382  68.956  1.00  0.00    -0.168 OA 
HETATM   26  C   UNL     1      -9.239   6.217  69.388  1.00  0.00    -0.138 C  
HETATM   27  C   UNL     1      -8.135   6.661  70.334  1.00  0.00    -0.117 C  
HETATM   28  H   UNL     1      -5.810   8.839  70.267  1.00  0.00     0.000 HD 
HETATM   29  C   UNL     1      -7.169   7.614  69.636  1.00  0.00    -0.079 C  
HETATM   30  H   UNL     1      -6.693   5.840  71.455  1.00  0.00     0.000 HD 
HETATM   31  O   UNL     1      -7.382   5.562  70.864  1.00  0.00    -0.077 OA 
HETATM   32  O   UNL     1      -6.411   8.246  70.702  1.00  0.00    -0.036 OA 
HETATM   33  C   UNL     1      -7.842   8.713  68.802  1.00  0.00    -0.106 C  
BRANCH  26  34
HETATM   34  C   UNL     1     -10.207   5.268  70.106  1.00  0.00    -0.280 C  
HETATM   35  H   UNL     1     -10.555   3.336  70.145  1.00  0.00     0.000 HD 
HETATM   36  O   UNL     1      -9.955   3.924  69.701  1.00  0.00    -0.129 OA 
ENDBRANCH  26  34
BRANCH  33  37
HETATM   37  O   UNL     1      -6.995   9.256  67.760  1.00  0.00    -0.079 OA 
BRANCH  37  38
HETATM   38  C   UNL     1      -6.963   8.636  66.462  1.00  0.00    -0.079 C  
HETATM   39  O   UNL     1      -7.735   9.402  65.558  1.00  0.00    -0.097 OA 
HETATM   40  C   UNL     1      -7.952   8.877  64.252  1.00  0.00    -0.146 C  
HETATM   41  C   UNL     1      -8.386   7.407  64.228  1.00  0.00     0.115 C  
HETATM   42  H   UNL     1      -6.450   5.453  67.118  1.00  0.00     0.000 HD 
HETATM   43  O   UNL     1      -6.241   6.380  67.101  1.00  0.00    -0.033 OA 
HETATM   44  O   UNL     1      -8.351   6.911  62.885  1.00  0.00    -0.322 OA 
HETATM   45  C   UNL     1      -7.462   6.562  65.087  1.00  0.00    -0.083 C  
HETATM   46  H   UNL     1      -7.387   4.682  65.715  1.00  0.00     0.000 HD 
HETATM   47  O   UNL     1      -7.965   5.211  65.177  1.00  0.00    -0.097 OA 
HETATM   48  H   UNL     1      -8.619   5.999  62.870  1.00  0.00     0.000 HD 
HETATM   49  C   UNL     1      -7.302   7.131  66.488  1.00  0.00    -0.083 C  
BRANCH  40  50
HETATM   50  C   UNL     1      -9.065   9.736  63.620  1.00  0.00    -0.232 C  
HETATM   51  O   UNL     1      -8.926  11.124  63.937  1.00  0.00    -0.371 OA 
HETATM   52  H   UNL     1      -9.612  11.653  63.547  1.00  0.00     0.000 HD 
ENDBRANCH  40  50
ENDBRANCH  37  38
ENDBRANCH  33  37
ENDBRANCH  23  24
ENDBRANCH  18  23
TORSDOF 6
ENDMDL
MODEL      124
REMARK 921   NORMALIZED FREE ENERGY PREDICTED BY IDOCK:   -3.27 KCAL/MOL
REMARK 922        TOTAL FREE ENERGY PREDICTED BY IDOCK:   -6.40 KCAL/MOL
REMARK 923 INTER-LIGAND FREE ENERGY PREDICTED BY IDOCK:   -6.78 KCAL/MOL
REMARK 924 INTRA-LIGAND FREE ENERGY PREDICTED BY IDOCK:    0.38 KCAL/MOL
REMARK 927      BINDING AFFINITY PREDICTED BY RF-SCORE:    0.00 PKD
ROOT
HETATM    1  C   UNL     1      -6.156   7.182  69.515  1.00  0.00    -0.030 C  
HETATM    2  C   UNL     1      -7.698   7.051  69.198  1.00  0.00    -0.105 C  
HETATM    3  C   UNL     1      -8.398   6.649  70.495  1.00  0.00    -0.130 C  
HETATM    4  C   UNL     1      -9.853   6.313  70.235  1.00  0.00    -0.199 C  
HETATM    5  C   UNL     1     -10.025   5.055  69.416  1.00  0.00    -0.290 C  
HETATM    6  C   UNL     1      -9.016   4.778  68.253  1.00  0.00    -0.132 C  
HETATM    7  C   UNL     1      -7.786   5.832  68.180  1.00  0.00    -0.096 C  
HETATM    8  C   UNL     1      -9.741   4.669  66.881  1.00  0.00    -0.215 C  
HETATM    9  C   UNL     1      -8.716   3.249  68.494  1.00  0.00    -0.103 C  
HETATM   10  O   UNL     1      -9.617   2.402  68.489  1.00  0.00    -0.185 OA 
HETATM   11  O   UNL     1      -7.467   2.841  68.723  1.00  0.00    -0.048 OA 
HETATM   12  C   UNL     1      -7.277   6.292  66.798  1.00  0.00    -0.074 C  
HETATM   13  C   UNL     1      -7.833   7.615  66.314  1.00  0.00    -0.091 C  
HETATM   14  C   UNL     1      -7.813   8.847  67.229  1.00  0.00    -0.096 C  
HETATM   15  C   UNL     1      -6.608   9.809  67.173  1.00  0.00    -0.070 C  
HETATM   16  C   UNL     1      -7.252  11.166  67.481  1.00  0.00    -0.101 C  
HETATM   17  C   UNL     1      -6.528  12.283  67.630  1.00  0.00    -0.120 C  
HETATM   18  C   UNL     1      -8.796  11.066  67.429  1.00  0.00    -0.138 C  
HETATM   19  C   UNL     1      -9.420  10.762  68.811  1.00  0.00    -0.187 C  
HETATM   20  C   UNL     1      -8.117   8.531  68.724  1.00  0.00    -0.120 C  
HETATM   21  C   UNL     1      -8.852   9.803  66.601  1.00  0.00    -0.153 C  
HETATM   22  C   UNL     1      -9.434   9.238  69.156  1.00  0.00    -0.157 C  
ENDROOT
BRANCH  18  23
HETATM   23  O   UNL     1      -9.288  12.235  66.779  1.00  0.00    -0.205 OA 
BRANCH  23  24
HETATM   24  C   UNL     1      -9.732  13.417  67.471  1.00  0.00    -0.224 C  
HETATM   25  O   UNL     1     -10.756  13.083  68.421  1.00  0.00    -0.241 OA 
HETATM   26  C   UNL     1     -11.083  14.187  69.285  1.00  0.00    -0.250 C  
HETATM   27  C   UNL     1     -11.742  15.275  68.451  1.00  0.00    -0.321 C  
HETATM   28  H   UNL     1     -11.054  16.809  65.745  1.00  0.00     0.000 HD 
HETATM   29  C   UNL     1     -10.800  15.769  67.358  1.00  0.00    -0.306 C  
HETATM   30  H   UNL     1     -12.567  17.080  68.715  1.00  0.00     0.000 HD 
HETATM   31  O   UNL     1     -12.156  16.401  69.235  1.00  0.00    -0.005 OA 
HETATM   32  O   UNL     1     -11.641  16.501  66.426  1.00  0.00     0.655 OA 
HETATM   33  C   UNL     1     -10.073  14.659  66.587  1.00  0.00    -0.273 C  
BRANCH  26  34
HETATM   34  C   UNL     1     -12.045  13.693  70.374  1.00  0.00    -0.351 C  
HETATM   35  H   UNL     1     -12.422  14.118  72.253  1.00  0.00     0.000 HD 
HETATM   36  O   UNL     1     -11.826  14.424  71.579  1.00  0.00    -0.306 OA 
ENDBRANCH  26  34
BRANCH  33  37
HETATM   37  O   UNL     1      -8.844  15.095  65.956  1.00  0.00    -0.198 OA 
BRANCH  37  38
HETATM   38  C   UNL     1      -7.786  15.658  66.753  1.00  0.00    -0.134 C  
HETATM   39  O   UNL     1      -7.714  14.972  67.987  1.00  0.00    -0.110 OA 
HETATM   40  C   UNL     1      -6.827  15.474  68.982  1.00  0.00    -0.139 C  
HETATM   41  C   UNL     1      -6.923  16.988  69.205  1.00  0.00    -0.228 C  
HETATM   42  H   UNL     1      -7.561  18.763  65.690  1.00  0.00     0.000 HD 
HETATM   43  O   UNL     1      -7.520  17.817  65.618  1.00  0.00    -0.533 OA 
HETATM   44  O   UNL     1      -5.845  17.426  70.039  1.00  0.00    -0.241 OA 
HETATM   45  C   UNL     1      -6.852  17.730  67.883  1.00  0.00    -0.192 C  
HETATM   46  H   UNL     1      -7.048  19.603  67.263  1.00  0.00     0.000 HD 
HETATM   47  O   UNL     1      -7.092  19.139  68.090  1.00  0.00    -0.245 OA 
HETATM   48  H   UNL     1      -5.904  18.364  70.178  1.00  0.00     0.000 HD 
HETATM   49  C   UNL     1      -7.853  17.195  66.870  1.00  0.00    -0.215 C  
BRANCH  40  50
HETATM   50  C   UNL     1      -7.193  14.752  70.293  1.00  0.00     0.272 C  
HETATM   51  O   UNL     1      -6.058  14.553  71.139  1.00  0.00    -0.148 OA 
HETATM   52  H   UNL     1      -6.284  14.107  71.947  1.00  0.00     0.000 HD 
ENDBRANCH  40  50
ENDBRANCH  37  38
ENDBRANCH  33  37
ENDBRANCH  23  24
ENDBRANCH  18  23
TORSDOF 6
ENDMDL
MODEL      125
REMARK 921   NORMALIZED FREE ENERGY PREDICTED BY IDOCK:   -3.14 KCAL/MOL
REMARK 922        TOTAL FREE ENERGY PREDICTED BY IDOCK:   -6.22 KCAL/MOL
REMARK 923 INTER-LIGAND FREE ENERGY PREDICTED BY IDOCK:   -5.12 KCAL/MOL
REMARK 924 INTRA-LIGAND FREE ENERGY PREDICTED BY IDOCK:   -1.10 KCAL/MOL
REMARK 927      BINDING AFFINITY PREDICTED BY RF-SCORE:    0.00 PKD
ROOT
HETATM    1  C   UNL     1      -8.491  14.769  70.063  1.00  0.00     0.609 C  
HETATM    2  C   UNL     1      -8.096  14.738  68.533  1.00  0.00    -0.146 C  
HETATM    3  C   UNL     1      -7.207  15.951  68.267  1.00  0.00    -0.118 C  
HETATM    4  C   UNL     1      -6.943  16.104  66.782  1.00  0.00    -0.107 C  
HETATM    5  C   UNL     1      -8.181  16.480  66.003  1.00  0.00    -0.113 C  
HETATM    6  C   UNL     1      -9.546  15.837  66.416  1.00  0.00    -0.311 C  
HETATM    7  C   UNL     1      -9.475  14.945  67.769  1.00  0.00    -0.203 C  
HETATM    8  C   UNL     1     -10.175  15.028  65.246  1.00  0.00    -0.409 C  
HETATM    9  C   UNL     1     -10.484  17.104  66.370  1.00  0.00    -0.255 C  
HETATM   10  O   UNL     1     -10.621  17.772  65.338  1.00  0.00    -0.659 OA 
HETATM   11  O   UNL     1     -11.145  17.487  67.462  1.00  0.00    -0.181 OA 
HETATM   12  C   UNL     1     -10.297  13.642  67.850  1.00  0.00    -0.249 C  
HETATM   13  C   UNL     1      -9.531  12.376  67.526  1.00  0.00    -0.187 C  
HETATM   14  C   UNL     1      -8.180  12.092  68.196  1.00  0.00    -0.164 C  
HETATM   15  C   UNL     1      -8.144  11.281  69.508  1.00  0.00     0.378 C  
HETATM   16  C   UNL     1      -6.811  10.533  69.399  1.00  0.00    -0.088 C  
HETATM   17  C   UNL     1      -6.334   9.774  70.395  1.00  0.00    -0.093 C  
HETATM   18  C   UNL     1      -6.225  10.659  67.972  1.00  0.00    -0.053 C  
HETATM   19  C   UNL     1      -5.255  11.854  67.829  1.00  0.00    -0.062 C  
HETATM   20  C   UNL     1      -7.285  13.356  68.378  1.00  0.00    -0.110 C  
HETATM   21  C   UNL     1      -7.524  11.025  67.291  1.00  0.00    -0.107 C  
HETATM   22  C   UNL     1      -5.984  13.205  67.540  1.00  0.00    -0.092 C  
ENDROOT
BRANCH  18  23
HETATM   23  O   UNL     1      -5.691   9.388  67.605  1.00  0.00    -0.041 OA 
BRANCH  23  24
HETATM   24  C   UNL     1      -5.863   8.785  66.309  1.00  0.00    -0.051 C  
HETATM   25  O   UNL     1      -6.074   9.796  65.312  1.00  0.00    -0.072 OA 
HETATM   26  C   UNL     1      -6.040   9.263  63.975  1.00  0.00    -0.084 C  
HETATM   27  C   UNL     1      -7.242   8.352  63.787  1.00  0.00    -0.098 C  
HETATM   28  H   UNL     1      -8.527   5.909  65.380  1.00  0.00     0.000 HD 
HETATM   29  C   UNL     1      -7.208   7.193  64.779  1.00  0.00    -0.072 C  
HETATM   30  H   UNL     1      -8.079   7.242  62.345  1.00  0.00     0.000 HD 
HETATM   31  O   UNL     1      -7.328   7.811  62.462  1.00  0.00    -0.088 OA 
HETATM   32  O   UNL     1      -8.548   6.630  64.762  1.00  0.00     0.014 OA 
HETATM   33  C   UNL     1      -6.869   7.593  66.221  1.00  0.00    -0.062 C  
BRANCH  26  34
HETATM   34  C   UNL     1      -6.092  10.428  62.978  1.00  0.00    -0.137 C  
HETATM   35  H   UNL     1      -7.452  11.666  62.291  1.00  0.00     0.000 HD 
HETATM   36  O   UNL     1      -7.420  10.945  62.908  1.00  0.00     0.020 OA 
ENDBRANCH  26  34
BRANCH  33  37
HETATM   37  O   UNL     1      -6.329   6.508  67.016  1.00  0.00    -0.038 OA 
BRANCH  37  38
HETATM   38  C   UNL     1      -7.172   5.815  67.955  1.00  0.00    -0.072 C  
HETATM   39  O   UNL     1      -8.524   5.961  67.565  1.00  0.00    -0.105 OA 
HETATM   40  C   UNL     1      -9.531   5.471  68.446  1.00  0.00    -0.118 C  
HETATM   41  C   UNL     1      -9.339   5.881  69.911  1.00  0.00    -0.150 C  
HETATM   42  H   UNL     1      -5.440   5.850  70.751  1.00  0.00     0.000 HD 
HETATM   43  O   UNL     1      -5.619   5.629  69.844  1.00  0.00    -0.007 OA 
HETATM   44  O   UNL     1     -10.253   5.158  70.742  1.00  0.00    -0.223 OA 
HETATM   45  C   UNL     1      -7.922   5.587  70.368  1.00  0.00    -0.102 C  
HETATM   46  H   UNL     1      -6.824   5.928  71.984  1.00  0.00     0.000 HD 
HETATM   47  O   UNL     1      -7.710   6.112  71.697  1.00  0.00    -0.098 OA 
HETATM   48  H   UNL     1     -10.135   5.412  71.650  1.00  0.00     0.000 HD 
HETATM   49  C   UNL     1      -6.882   6.174  69.427  1.00  0.00    -0.062 C  
BRANCH  40  50
HETATM   50  C   UNL     1     -10.867   6.046  67.936  1.00  0.00    -0.290 C  
HETATM   51  O   UNL     1     -11.269   7.212  68.660  1.00  0.00    -0.468 OA 
HETATM   52  H   UNL     1     -12.092   7.565  68.346  1.00  0.00     0.000 HD 
ENDBRANCH  40  50
ENDBRANCH  37  38
ENDBRANCH  33  37
ENDBRANCH  23  24
ENDBRANCH  18  23
TORSDOF 6
ENDMDL
MODEL      126
REMARK 921   NORMALIZED FREE ENERGY PREDICTED BY IDOCK:   -3.05 KCAL/MOL
REMARK 922        TOTAL FREE ENERGY PREDICTED BY IDOCK:   -6.10 KCAL/MOL
REMARK 923 INTER-LIGAND FREE ENERGY PREDICTED BY IDOCK:   -7.28 KCAL/MOL
REMARK 924 INTRA-LIGAND FREE ENERGY PREDICTED BY IDOCK:    1.18 KCAL/MOL
REMARK 927      BINDING AFFINITY PREDICTED BY RF-SCORE:    0.00 PKD
ROOT
HETATM    1  C   UNL     1      -7.835   6.901  70.757  1.00  0.00    -0.097 C  
HETATM    2  C   UNL     1      -8.523   7.533  69.483  1.00  0.00    -0.132 C  
HETATM    3  C   UNL     1     -10.034   7.441  69.688  1.00  0.00    -0.182 C  
HETATM    4  C   UNL     1     -10.770   7.848  68.428  1.00  0.00    -0.073 C  
HETATM    5  C   UNL     1     -10.575   6.868  67.294  1.00  0.00    -0.393 C  
HETATM    6  C   UNL     1      -9.167   6.210  67.111  1.00  0.00    -0.120 C  
HETATM    7  C   UNL     1      -8.115   6.559  68.295  1.00  0.00    -0.110 C  
HETATM    8  C   UNL     1      -8.564   6.532  65.714  1.00  0.00    -0.149 C  
HETATM    9  C   UNL     1      -9.584   4.710  66.858  1.00  0.00    -0.181 C  
HETATM   10  O   UNL     1     -10.330   4.393  65.924  1.00  0.00    -0.256 OA 
HETATM   11  O   UNL     1      -9.142   3.748  67.668  1.00  0.00    -0.130 OA 
HETATM   12  C   UNL     1      -6.635   6.797  67.932  1.00  0.00    -0.059 C  
HETATM   13  C   UNL     1      -6.234   8.250  67.780  1.00  0.00    -0.052 C  
HETATM   14  C   UNL     1      -6.598   9.273  68.863  1.00  0.00    -0.048 C  
HETATM   15  C   UNL     1      -5.599   9.552  70.005  1.00  0.00    -0.035 C  
HETATM   16  C   UNL     1      -5.850  11.033  70.312  1.00  0.00    -0.128 C  
HETATM   17  C   UNL     1      -5.246  11.664  71.328  1.00  0.00    -0.061 C  
HETATM   18  C   UNL     1      -6.735  11.679  69.218  1.00  0.00    -0.115 C  
HETATM   19  C   UNL     1      -8.241  11.632  69.566  1.00  0.00     0.772 C  
HETATM   20  C   UNL     1      -8.009   9.059  69.490  1.00  0.00    -0.099 C  
HETATM   21  C   UNL     1      -6.467  10.640  68.153  1.00  0.00    -0.062 C  
HETATM   22  C   UNL     1      -8.919  10.280  69.174  1.00  0.00    -0.187 C  
ENDROOT
BRANCH  18  23
HETATM   23  O   UNL     1      -6.211  12.975  68.941  1.00  0.00    -0.077 OA 
BRANCH  23  24
HETATM   24  C   UNL     1      -6.775  13.884  67.977  1.00  0.00    -0.144 C  
HETATM   25  O   UNL     1      -6.160  15.176  68.090  1.00  0.00    -0.112 OA 
HETATM   26  C   UNL     1      -6.534  16.058  67.015  1.00  0.00    -0.012 C  
HETATM   27  C   UNL     1      -8.015  16.378  67.146  1.00  0.00    -0.183 C  
HETATM   28  H   UNL     1     -10.694  14.691  67.506  1.00  0.00     0.000 HD 
HETATM   29  C   UNL     1      -8.858  15.110  67.057  1.00  0.00    -0.234 C  
HETATM   30  H   UNL     1      -9.399  17.498  66.229  1.00  0.00     0.000 HD 
HETATM   31  O   UNL     1      -8.475  17.298  66.147  1.00  0.00    -0.418 OA 
HETATM   32  O   UNL     1     -10.169  15.481  67.561  1.00  0.00    -0.246 OA 
HETATM   33  C   UNL     1      -8.334  13.932  67.891  1.00  0.00    -0.167 C  
BRANCH  26  34
HETATM   34  C   UNL     1      -5.700  17.341  67.115  1.00  0.00    -0.150 C  
HETATM   35  H   UNL     1      -5.412  18.764  68.436  1.00  0.00     0.000 HD 
HETATM   36  O   UNL     1      -5.929  17.969  68.374  1.00  0.00    -0.170 OA 
ENDBRANCH  26  34
BRANCH  33  37
HETATM   37  O   UNL     1      -8.785  12.638  67.421  1.00  0.00    -0.172 OA 
BRANCH  37  38
HETATM   38  C   UNL     1      -9.177  12.468  66.046  1.00  0.00    -0.013 C  
HETATM   39  O   UNL     1     -10.528  12.861  65.894  1.00  0.00    -0.270 OA 
HETATM   40  C   UNL     1     -11.154  12.630  64.636  1.00  0.00    -0.313 C  
HETATM   41  C   UNL     1     -10.929  11.223  64.069  1.00  0.00    -0.303 C  
HETATM   42  H   UNL     1      -7.216  10.064  64.953  1.00  0.00     0.000 HD 
HETATM   43  O   UNL     1      -7.423  10.922  65.304  1.00  0.00     0.025 OA 
HETATM   44  O   UNL     1     -11.391  11.164  62.715  1.00  0.00    -0.683 OA 
HETATM   45  C   UNL     1      -9.455  10.862  64.101  1.00  0.00    -0.257 C  
HETATM   46  H   UNL     1      -8.350   9.259  63.726  1.00  0.00     0.000 HD 
HETATM   47  O   UNL     1      -9.272   9.485  63.706  1.00  0.00    -0.209 OA 
HETATM   48  H   UNL     1     -11.252  10.293  62.364  1.00  0.00     0.000 HD 
HETATM   49  C   UNL     1      -8.842  11.074  65.477  1.00  0.00    -0.169 C  
BRANCH  40  50
HETATM   50  C   UNL     1     -12.664  12.844  64.859  1.00  0.00    -0.403 C  
HETATM   51  O   UNL     1     -12.954  14.124  65.425  1.00  0.00    -0.706 OA 
HETATM   52  H   UNL     1     -13.885  14.255  65.563  1.00  0.00     0.000 HD 
ENDBRANCH  40  50
ENDBRANCH  37  38
ENDBRANCH  33  37
ENDBRANCH  23  24
ENDBRANCH  18  23
TORSDOF 6
ENDMDL
MODEL      127
REMARK 921   NORMALIZED FREE ENERGY PREDICTED BY IDOCK:   -2.94 KCAL/MOL
REMARK 922        TOTAL FREE ENERGY PREDICTED BY IDOCK:   -5.96 KCAL/MOL
REMARK 923 INTER-LIGAND FREE ENERGY PREDICTED BY IDOCK:   -5.47 KCAL/MOL
REMARK 924 INTRA-LIGAND FREE ENERGY PREDICTED BY IDOCK:   -0.48 KCAL/MOL
REMARK 927      BINDING AFFINITY PREDICTED BY RF-SCORE:    0.00 PKD
ROOT
HETATM    1  C   UNL     1      -8.193   8.465  73.652  1.00  0.00    -0.182 C  
HETATM    2  C   UNL     1      -9.163   7.860  72.561  1.00  0.00    -0.250 C  
HETATM    3  C   UNL     1     -10.573   7.870  73.148  1.00  0.00    -0.342 C  
HETATM    4  C   UNL     1     -11.534   7.128  72.242  1.00  0.00    -0.309 C  
HETATM    5  C   UNL     1     -11.259   5.644  72.187  1.00  0.00    -0.288 C  
HETATM    6  C   UNL     1      -9.771   5.160  72.188  1.00  0.00    -0.205 C  
HETATM    7  C   UNL     1      -8.690   6.348  72.413  1.00  0.00    -0.120 C  
HETATM    8  C   UNL     1      -9.438   4.335  70.912  1.00  0.00    -0.239 C  
HETATM    9  C   UNL     1      -9.855   3.979  73.229  1.00  0.00    -0.129 C  
HETATM   10  O   UNL     1     -10.617   3.019  73.060  1.00  0.00    -0.155 OA 
HETATM   11  O   UNL     1      -9.104   4.003  74.330  1.00  0.00    -0.093 OA 
HETATM   12  C   UNL     1      -7.363   6.310  71.628  1.00  0.00    -0.089 C  
HETATM   13  C   UNL     1      -7.334   7.150  70.369  1.00  0.00    -0.079 C  
HETATM   14  C   UNL     1      -7.789   8.616  70.403  1.00  0.00    -0.091 C  
HETATM   15  C   UNL     1      -6.748   9.723  70.665  1.00  0.00    -0.111 C  
HETATM   16  C   UNL     1      -7.296  10.896  69.845  1.00  0.00     0.076 C  
HETATM   17  C   UNL     1      -6.735  12.112  69.873  1.00  0.00     0.174 C  
HETATM   18  C   UNL     1      -8.437  10.427  68.910  1.00  0.00    -0.144 C  
HETATM   19  C   UNL     1      -9.835  10.576  69.552  1.00  0.00    -0.170 C  
HETATM   20  C   UNL     1      -9.022   8.876  71.321  1.00  0.00    -0.312 C  
HETATM   21  C   UNL     1      -8.068   8.961  68.923  1.00  0.00    -0.112 C  
HETATM   22  C   UNL     1     -10.223   9.369  70.465  1.00  0.00    -0.332 C  
ENDROOT
BRANCH  18  23
HETATM   23  O   UNL     1      -8.267  11.079  67.653  1.00  0.00    -0.114 OA 
BRANCH  23  24
HETATM   24  C   UNL     1      -7.970  10.394  66.422  1.00  0.00    -0.130 C  
HETATM   25  O   UNL     1      -6.879  11.035  65.745  1.00  0.00    -0.045 OA 
HETATM   26  C   UNL     1      -6.405  10.269  64.622  1.00  0.00    -0.108 C  
HETATM   27  C   UNL     1      -7.492  10.248  63.558  1.00  0.00    -0.098 C  
HETATM   28  H   UNL     1     -10.603   9.565  63.487  1.00  0.00     0.000 HD 
HETATM   29  C   UNL     1      -8.765   9.599  64.093  1.00  0.00    -0.216 C  
HETATM   30  H   UNL     1      -7.772   9.538  61.707  1.00  0.00     0.000 HD 
HETATM   31  O   UNL     1      -7.093   9.551  62.371  1.00  0.00    -0.100 OA 
HETATM   32  O   UNL     1      -9.810   9.969  63.154  1.00  0.00    -0.079 OA 
HETATM   33  C   UNL     1      -9.183  10.067  65.494  1.00  0.00    -0.198 C  
BRANCH  26  34
HETATM   34  C   UNL     1      -5.135  10.932  64.073  1.00  0.00    -0.042 C  
HETATM   35  H   UNL     1      -4.589  11.833  62.416  1.00  0.00     0.000 HD 
HETATM   36  O   UNL     1      -5.376  11.422  62.756  1.00  0.00    -0.052 OA 
ENDBRANCH  26  34
BRANCH  33  37
HETATM   37  O   UNL     1     -10.028   9.122  66.196  1.00  0.00    -0.286 OA 
BRANCH  37  38
HETATM   38  C   UNL     1      -9.485   7.867  66.646  1.00  0.00    -0.211 C  
HETATM   39  O   UNL     1      -8.572   7.381  65.681  1.00  0.00    -0.148 OA 
HETATM   40  C   UNL     1      -8.034   6.075  65.868  1.00  0.00    -0.111 C  
HETATM   41  C   UNL     1      -9.078   5.008  66.217  1.00  0.00    -0.129 C  
HETATM   42  H   UNL     1     -11.834   6.640  68.594  1.00  0.00     0.000 HD 
HETATM   43  O   UNL     1     -11.172   7.264  68.321  1.00  0.00     0.058 OA 
HETATM   44  O   UNL     1      -8.423   3.797  66.611  1.00  0.00    -0.103 OA 
HETATM   45  C   UNL     1      -9.966   5.478  67.354  1.00  0.00    -0.162 C  
HETATM   46  H   UNL     1     -11.591   4.827  68.286  1.00  0.00     0.000 HD 
HETATM   47  O   UNL     1     -11.035   4.532  67.574  1.00  0.00     0.795 OA 
HETATM   48  H   UNL     1      -9.070   3.135  66.827  1.00  0.00     0.000 HD 
HETATM   49  C   UNL     1     -10.560   6.853  67.088  1.00  0.00    -0.338 C  
BRANCH  40  50
HETATM   50  C   UNL     1      -7.354   5.694  64.538  1.00  0.00    -0.068 C  
HETATM   51  O   UNL     1      -8.035   4.633  63.864  1.00  0.00    -0.087 OA 
HETATM   52  H   UNL     1      -7.615   4.398  63.045  1.00  0.00     0.000 HD 
ENDBRANCH  40  50
ENDBRANCH  37  38
ENDBRANCH  33  37
ENDBRANCH  23  24
ENDBRANCH  18  23
TORSDOF 6
ENDMDL
MODEL      128
REMARK 921   NORMALIZED FREE ENERGY PREDICTED BY IDOCK:   -2.90 KCAL/MOL
REMARK 922        TOTAL FREE ENERGY PREDICTED BY IDOCK:   -5.90 KCAL/MOL
REMARK 923 INTER-LIGAND FREE ENERGY PREDICTED BY IDOCK:   -7.69 KCAL/MOL
REMARK 924 INTRA-LIGAND FREE ENERGY PREDICTED BY IDOCK:    1.79 KCAL/MOL
REMARK 927      BINDING AFFINITY PREDICTED BY RF-SCORE:    0.00 PKD
ROOT
HETATM    1  C   UNL     1     -11.613   6.643  69.086  1.00  0.00    -0.079 C  
HETATM    2  C   UNL     1     -10.218   7.105  69.665  1.00  0.00    -0.215 C  
HETATM    3  C   UNL     1      -9.286   5.895  69.631  1.00  0.00    -0.162 C  
HETATM    4  C   UNL     1      -7.987   6.200  70.349  1.00  0.00    -0.108 C  
HETATM    5  C   UNL     1      -8.169   6.377  71.838  1.00  0.00    -0.109 C  
HETATM    6  C   UNL     1      -9.451   7.114  72.350  1.00  0.00    -0.166 C  
HETATM    7  C   UNL     1     -10.524   7.461  71.185  1.00  0.00    -0.220 C  
HETATM    8  C   UNL     1      -9.089   8.383  73.174  1.00  0.00    -0.225 C  
HETATM    9  C   UNL     1      -9.871   6.163  73.536  1.00  0.00    -0.174 C  
HETATM   10  O   UNL     1      -9.108   5.926  74.480  1.00  0.00    -0.126 OA 
HETATM   11  O   UNL     1     -11.071   5.581  73.533  1.00  0.00    -0.276 OA 
HETATM   12  C   UNL     1     -11.284   8.802  71.245  1.00  0.00    -0.352 C  
HETATM   13  C   UNL     1     -10.700   9.913  70.397  1.00  0.00    -0.379 C  
HETATM   14  C   UNL     1     -10.352   9.664  68.924  1.00  0.00    -0.220 C  
HETATM   15  C   UNL     1     -11.407   9.959  67.838  1.00  0.00     0.053 C  
HETATM   16  C   UNL     1     -10.547  10.403  66.650  1.00  0.00    -0.245 C  
HETATM   17  C   UNL     1     -11.072  10.663  65.445  1.00  0.00     0.303 C  
HETATM   18  C   UNL     1      -9.084  10.646  67.092  1.00  0.00    -0.143 C  
HETATM   19  C   UNL     1      -8.193   9.394  66.919  1.00  0.00    -0.116 C  
HETATM   20  C   UNL     1      -9.744   8.256  68.645  1.00  0.00    -0.162 C  
HETATM   21  C   UNL     1      -9.380  10.811  68.565  1.00  0.00    -0.174 C  
HETATM   22  C   UNL     1      -8.286   8.404  68.124  1.00  0.00    -0.124 C  
ENDROOT
BRANCH  18  23
HETATM   23  O   UNL     1      -8.619  11.824  66.435  1.00  0.00    -0.179 OA 
BRANCH  23  24
HETATM   24  C   UNL     1      -9.359  13.057  66.372  1.00  0.00    -0.182 C  
HETATM   25  O   UNL     1     -10.224  13.060  65.227  1.00  0.00    -0.292 OA 
HETATM   26  C   UNL     1     -11.137  14.173  65.233  1.00  0.00    -0.331 C  
HETATM   27  C   UNL     1     -10.339  15.455  65.052  1.00  0.00    -0.329 C  
HETATM   28  H   UNL     1      -7.780  16.763  66.428  1.00  0.00     0.000 HD 
HETATM   29  C   UNL     1      -9.336  15.636  66.187  1.00  0.00    -0.347 C  
HETATM   30  H   UNL     1     -10.669  17.422  64.878  1.00  0.00     0.000 HD 
HETATM   31  O   UNL     1     -11.168  16.622  64.991  1.00  0.00    -0.316 OA 
HETATM   32  O   UNL     1      -8.405  16.650  65.721  1.00  0.00    -0.391 OA 
HETATM   33  C   UNL     1      -8.538  14.375  66.546  1.00  0.00     0.099 C  
BRANCH  26  34
HETATM   34  C   UNL     1     -12.135  14.000  64.080  1.00  0.00    -0.422 C  
HETATM   35  H   UNL     1     -12.659  12.570  62.842  1.00  0.00     0.000 HD 
HETATM   36  O   UNL     1     -12.041  12.677  63.555  1.00  0.00    -0.494 OA 
ENDBRANCH  26  34
BRANCH  33  37
HETATM   37  O   UNL     1      -8.008  14.383  67.894  1.00  0.00    -0.123 OA 
BRANCH  37  38
HETATM   38  C   UNL     1      -8.458  15.372  68.838  1.00  0.00    -0.205 C  
HETATM   39  O   UNL     1      -9.861  15.272  68.987  1.00  0.00    -0.208 OA 
HETATM   40  C   UNL     1     -10.523  16.262  69.768  1.00  0.00    -0.260 C  
HETATM   41  C   UNL     1     -10.111  17.702  69.441  1.00  0.00    -0.033 C  
HETATM   42  H   UNL     1      -6.209  17.762  68.614  1.00  0.00     0.000 HD 
HETATM   43  O   UNL     1      -6.529  16.887  68.799  1.00  0.00    -0.161 OA 
HETATM   44  O   UNL     1     -10.645  18.596  70.423  1.00  0.00     0.622 OA 
HETATM   45  C   UNL     1      -8.599  17.836  69.426  1.00  0.00     0.479 C  
HETATM   46  H   UNL     1      -7.276  19.239  68.962  1.00  0.00     0.000 HD 
HETATM   47  O   UNL     1      -8.222  19.155  68.972  1.00  0.00    -0.321 OA 
HETATM   48  H   UNL     1     -10.390  19.489  70.220  1.00  0.00     0.000 HD 
HETATM   49  C   UNL     1      -7.939  16.793  68.538  1.00  0.00    -0.235 C  
BRANCH  40  50
HETATM   50  C   UNL     1     -12.029  16.097  69.488  1.00  0.00    -0.061 C  
HETATM   51  O   UNL     1     -12.316  14.919  68.731  1.00  0.00    -0.582 OA 
HETATM   52  H   UNL     1     -13.245  14.817  68.559  1.00  0.00     0.000 HD 
ENDBRANCH  40  50
ENDBRANCH  37  38
ENDBRANCH  33  37
ENDBRANCH  23  24
ENDBRANCH  18  23
TORSDOF 6
ENDMDL
MODEL      129
REMARK 921   NORMALIZED FREE ENERGY PREDICTED BY IDOCK:   -2.81 KCAL/MOL
REMARK 922        TOTAL FREE ENERGY PREDICTED BY IDOCK:   -5.78 KCAL/MOL
REMARK 923 INTER-LIGAND FREE ENERGY PREDICTED BY IDOCK:   -6.87 KCAL/MOL
REMARK 924 INTRA-LIGAND FREE ENERGY PREDICTED BY IDOCK:    1.08 KCAL/MOL
REMARK 927      BINDING AFFINITY PREDICTED BY RF-SCORE:    0.00 PKD
ROOT
HETATM    1  C   UNL     1      -7.682   9.100  70.252  1.00  0.00    -0.115 C  
HETATM    2  C   UNL     1      -7.876   9.523  68.743  1.00  0.00    -0.084 C  
HETATM    3  C   UNL     1      -9.346   9.304  68.393  1.00  0.00    -0.142 C  
HETATM    4  C   UNL     1      -9.578   9.501  66.908  1.00  0.00    -0.217 C  
HETATM    5  C   UNL     1      -8.921   8.432  66.067  1.00  0.00    -0.228 C  
HETATM    6  C   UNL     1      -7.515   7.900  66.500  1.00  0.00    -0.088 C  
HETATM    7  C   UNL     1      -7.002   8.474  67.928  1.00  0.00    -0.074 C  
HETATM    8  C   UNL     1      -6.450   8.131  65.390  1.00  0.00    -0.048 C  
HETATM    9  C   UNL     1      -7.727   6.349  66.317  1.00  0.00    -0.099 C  
HETATM   10  O   UNL     1      -8.051   5.862  65.227  1.00  0.00    -0.118 OA 
HETATM   11  O   UNL     1      -7.570   5.525  67.354  1.00  0.00    -0.087 OA 
HETATM   12  C   UNL     1      -5.508   8.819  68.102  1.00  0.00    -0.035 C  
HETATM   13  C   UNL     1      -5.157  10.279  67.912  1.00  0.00    -0.034 C  
HETATM   14  C   UNL     1      -5.954  11.371  68.639  1.00  0.00    -0.042 C  
HETATM   15  C   UNL     1      -5.471  11.866  70.018  1.00  0.00    -0.107 C  
HETATM   16  C   UNL     1      -5.896  13.338  70.010  1.00  0.00    -0.136 C  
HETATM   17  C   UNL     1      -5.751  14.130  71.081  1.00  0.00    -0.222 C  
HETATM   18  C   UNL     1      -6.341  13.774  68.593  1.00  0.00    -0.090 C  
HETATM   19  C   UNL     1      -7.862  13.615  68.370  1.00  0.00    -0.140 C  
HETATM   20  C   UNL     1      -7.484  11.084  68.731  1.00  0.00    -0.116 C  
HETATM   21  C   UNL     1      -5.639  12.661  67.849  1.00  0.00    -0.104 C  
HETATM   22  C   UNL     1      -8.272  12.169  67.944  1.00  0.00    -0.155 C  
ENDROOT
BRANCH  18  23
HETATM   23  O   UNL     1      -5.820  15.080  68.354  1.00  0.00    -0.094 OA 
BRANCH  23  24
HETATM   24  C   UNL     1      -6.593  16.172  67.823  1.00  0.00    -0.151 C  
HETATM   25  O   UNL     1      -5.913  16.770  66.709  1.00  0.00    -0.211 OA 
HETATM   26  C   UNL     1      -6.735  17.723  66.011  1.00  0.00    -0.281 C  
HETATM   27  C   UNL     1      -6.984  18.910  66.928  1.00  0.00    -0.200 C  
HETATM   28  H   UNL     1      -8.000  19.310  69.922  1.00  0.00     0.000 HD 
HETATM   29  C   UNL     1      -7.706  18.475  68.200  1.00  0.00    -0.284 C  
HETATM   30  H   UNL     1      -7.908  20.686  66.875  1.00  0.00     0.000 HD 
HETATM   31  O   UNL     1      -7.753  19.945  66.302  1.00  0.00    -0.289 OA 
HETATM   32  O   UNL     1      -7.550  19.581  69.130  1.00  0.00    -0.361 OA 
HETATM   33  C   UNL     1      -7.143  17.207  68.855  1.00  0.00    -0.242 C  
BRANCH  26  34
HETATM   34  C   UNL     1      -6.001  18.174  64.742  1.00  0.00     0.257 C  
HETATM   35  H   UNL     1      -4.701  19.562  64.255  1.00  0.00     0.000 HD 
HETATM   36  O   UNL     1      -5.156  19.283  65.041  1.00  0.00    -0.144 OA 
ENDBRANCH  26  34
BRANCH  33  37
HETATM   37  O   UNL     1      -8.095  16.515  69.701  1.00  0.00     0.089 OA 
BRANCH  37  38
HETATM   38  C   UNL     1      -9.110  15.683  69.111  1.00  0.00    -0.256 C  
HETATM   39  O   UNL     1      -9.284  16.047  67.755  1.00  0.00    -0.203 OA 
HETATM   40  C   UNL     1     -10.350  15.441  67.031  1.00  0.00    -0.280 C  
HETATM   41  C   UNL     1     -11.693  15.438  67.770  1.00  0.00    -0.146 C  
HETATM   42  H   UNL     1     -11.015  14.834  71.654  1.00  0.00     0.000 HD 
HETATM   43  O   UNL     1     -10.214  14.872  71.146  1.00  0.00     0.563 OA 
HETATM   44  O   UNL     1     -12.631  14.611  67.073  1.00  0.00    -0.431 OA 
HETATM   45  C   UNL     1     -11.526  14.908  69.182  1.00  0.00    -0.302 C  
HETATM   46  H   UNL     1     -12.658  14.716  70.799  1.00  0.00     0.000 HD 
HETATM   47  O   UNL     1     -12.762  15.048  69.915  1.00  0.00    -0.213 OA 
HETATM   48  H   UNL     1     -13.463  14.609  67.531  1.00  0.00     0.000 HD 
HETATM   49  C   UNL     1     -10.413  15.620  69.935  1.00  0.00    -0.320 C  
BRANCH  40  50
HETATM   50  C   UNL     1     -10.499  16.247  65.726  1.00  0.00    -0.364 C  
HETATM   51  O   UNL     1     -10.161  17.626  65.897  1.00  0.00    -0.519 OA 
HETATM   52  H   UNL     1     -10.253  18.123  65.093  1.00  0.00     0.000 HD 
ENDBRANCH  40  50
ENDBRANCH  37  38
ENDBRANCH  33  37
ENDBRANCH  23  24
ENDBRANCH  18  23
TORSDOF 6
ENDMDL
MODEL      130
REMARK 921   NORMALIZED FREE ENERGY PREDICTED BY IDOCK:   -2.77 KCAL/MOL
REMARK 922        TOTAL FREE ENERGY PREDICTED BY IDOCK:   -5.73 KCAL/MOL
REMARK 923 INTER-LIGAND FREE ENERGY PREDICTED BY IDOCK:   -5.15 KCAL/MOL
REMARK 924 INTRA-LIGAND FREE ENERGY PREDICTED BY IDOCK:   -0.58 KCAL/MOL
REMARK 927      BINDING AFFINITY PREDICTED BY RF-SCORE:    0.00 PKD
ROOT
HETATM    1  C   UNL     1      -8.534  14.718  66.294  1.00  0.00     0.351 C  
HETATM    2  C   UNL     1      -9.556  13.600  66.741  1.00  0.00    -0.277 C  
HETATM    3  C   UNL     1     -10.842  13.813  65.945  1.00  0.00    -0.283 C  
HETATM    4  C   UNL     1     -11.942  12.902  66.453  1.00  0.00    -0.462 C  
HETATM    5  C   UNL     1     -12.404  13.263  67.845  1.00  0.00     0.067 C  
HETATM    6  C   UNL     1     -11.336  13.733  68.887  1.00  0.00    -0.328 C  
HETATM    7  C   UNL     1      -9.849  13.926  68.269  1.00  0.00    -0.231 C  
HETATM    8  C   UNL     1     -11.307  12.803  70.134  1.00  0.00     0.172 C  
HETATM    9  C   UNL     1     -12.081  14.970  69.522  1.00  0.00    -0.276 C  
HETATM   10  O   UNL     1     -13.186  14.853  70.064  1.00  0.00     0.011 OA 
HETATM   11  O   UNL     1     -11.527  16.181  69.471  1.00  0.00    -0.326 OA 
HETATM   12  C   UNL     1      -8.628  13.512  69.117  1.00  0.00     0.518 C  
HETATM   13  C   UNL     1      -8.072  12.136  68.817  1.00  0.00     0.033 C  
HETATM   14  C   UNL     1      -7.774  11.717  67.371  1.00  0.00    -0.151 C  
HETATM   15  C   UNL     1      -6.364  11.955  66.792  1.00  0.00    -0.039 C  
HETATM   16  C   UNL     1      -6.198  10.777  65.825  1.00  0.00    -0.101 C  
HETATM   17  C   UNL     1      -5.131  10.654  65.025  1.00  0.00    -0.144 C  
HETATM   18  C   UNL     1      -7.321   9.732  66.036  1.00  0.00    -0.102 C  
HETATM   19  C   UNL     1      -8.536   9.969  65.110  1.00  0.00    -0.170 C  
HETATM   20  C   UNL     1      -8.820  12.227  66.334  1.00  0.00    -0.072 C  
HETATM   21  C   UNL     1      -7.700  10.175  67.430  1.00  0.00    -0.095 C  
HETATM   22  C   UNL     1      -9.545  11.018  65.678  1.00  0.00    -0.265 C  
ENDROOT
BRANCH  18  23
HETATM   23  O   UNL     1      -6.732   8.436  65.954  1.00  0.00    -0.053 OA 
BRANCH  23  24
HETATM   24  C   UNL     1      -7.474   7.206  66.056  1.00  0.00    -0.080 C  
HETATM   25  O   UNL     1      -7.589   6.585  64.766  1.00  0.00    -0.084 OA 
HETATM   26  C   UNL     1      -8.133   5.255  64.844  1.00  0.00    -0.122 C  
HETATM   27  C   UNL     1      -9.581   5.351  65.300  1.00  0.00     0.206 C  
HETATM   28  H   UNL     1     -11.133   6.783  67.686  1.00  0.00     0.000 HD 
HETATM   29  C   UNL     1      -9.677   6.003  66.676  1.00  0.00    -0.157 C  
HETATM   30  H   UNL     1     -11.136   4.136  65.641  1.00  0.00     0.000 HD 
HETATM   31  O   UNL     1     -10.232   4.076  65.357  1.00  0.00    -0.184 OA 
HETATM   32  O   UNL     1     -11.073   6.376  66.829  1.00  0.00    -0.358 OA 
HETATM   33  C   UNL     1      -8.817   7.263  66.850  1.00  0.00    -0.132 C  
BRANCH  26  34
HETATM   34  C   UNL     1      -8.053   4.606  63.457  1.00  0.00    -0.097 C  
HETATM   35  H   UNL     1      -9.047   4.708  61.767  1.00  0.00     0.000 HD 
HETATM   36  O   UNL     1      -9.097   5.109  62.626  1.00  0.00    -0.069 OA 
ENDBRANCH  26  34
BRANCH  33  37
HETATM   37  O   UNL     1      -8.495   7.562  68.231  1.00  0.00    -0.124 OA 
BRANCH  37  38
HETATM   38  C   UNL     1      -8.817   6.617  69.267  1.00  0.00    -0.133 C  
HETATM   39  O   UNL     1      -9.559   7.269  70.280  1.00  0.00    -0.166 OA 
HETATM   40  C   UNL     1      -9.851   6.542  71.469  1.00  0.00    -0.168 C  
HETATM   41  C   UNL     1      -8.648   5.802  72.066  1.00  0.00    -0.130 C  
HETATM   42  H   UNL     1      -6.406   4.387  69.085  1.00  0.00     0.000 HD 
HETATM   43  O   UNL     1      -7.156   4.881  68.774  1.00  0.00    -0.052 OA 
HETATM   44  O   UNL     1      -9.085   4.923  73.108  1.00  0.00    -0.117 OA 
HETATM   45  C   UNL     1      -7.939   4.986  71.001  1.00  0.00    -0.093 C  
HETATM   46  H   UNL     1      -6.282   3.903  70.871  1.00  0.00     0.000 HD 
HETATM   47  O   UNL     1      -6.726   4.414  71.538  1.00  0.00    -0.028 OA 
HETATM   48  H   UNL     1      -8.340   4.465  73.478  1.00  0.00     0.000 HD 
HETATM   49  C   UNL     1      -7.600   5.816  69.772  1.00  0.00    -0.080 C  
BRANCH  40  50
HETATM   50  C   UNL     1     -10.361   7.574  72.493  1.00  0.00    -0.240 C  
HETATM   51  O   UNL     1     -11.757   7.428  72.763  1.00  0.00    -0.521 OA 
HETATM   52  H   UNL     1     -12.071   8.065  73.395  1.00  0.00     0.000 HD 
ENDBRANCH  40  50
ENDBRANCH  37  38
ENDBRANCH  33  37
ENDBRANCH  23  24
ENDBRANCH  18  23
TORSDOF 6
ENDMDL
MODEL      131
REMARK 921   NORMALIZED FREE ENERGY PREDICTED BY IDOCK:   -2.70 KCAL/MOL
REMARK 922        TOTAL FREE ENERGY PREDICTED BY IDOCK:   -5.64 KCAL/MOL
REMARK 923 INTER-LIGAND FREE ENERGY PREDICTED BY IDOCK:   -6.93 KCAL/MOL
REMARK 924 INTRA-LIGAND FREE ENERGY PREDICTED BY IDOCK:    1.29 KCAL/MOL
REMARK 927      BINDING AFFINITY PREDICTED BY RF-SCORE:    0.00 PKD
ROOT
HETATM    1  C   UNL     1     -10.768   7.128  67.213  1.00  0.00    -0.399 C  
HETATM    2  C   UNL     1      -9.278   7.605  66.997  1.00  0.00    -0.168 C  
HETATM    3  C   UNL     1      -8.659   6.701  65.934  1.00  0.00    -0.153 C  
HETATM    4  C   UNL     1      -7.172   6.965  65.806  1.00  0.00    -0.073 C  
HETATM    5  C   UNL     1      -6.395   6.540  67.030  1.00  0.00    -0.041 C  
HETATM    6  C   UNL     1      -7.037   6.770  68.438  1.00  0.00    -0.083 C  
HETATM    7  C   UNL     1      -8.566   7.308  68.388  1.00  0.00    -0.124 C  
HETATM    8  C   UNL     1      -6.150   7.689  69.327  1.00  0.00    -0.034 C  
HETATM    9  C   UNL     1      -6.722   5.386  69.125  1.00  0.00    -0.053 C  
HETATM   10  O   UNL     1      -5.563   4.971  69.246  1.00  0.00    -0.007 OA 
HETATM   11  O   UNL     1      -7.716   4.625  69.583  1.00  0.00    -0.057 OA 
HETATM   12  C   UNL     1      -9.025   8.356  69.423  1.00  0.00    -0.153 C  
HETATM   13  C   UNL     1      -8.992   9.792  68.944  1.00  0.00    -0.144 C  
HETATM   14  C   UNL     1      -9.634  10.178  67.605  1.00  0.00    -0.170 C  
HETATM   15  C   UNL     1     -11.105  10.642  67.579  1.00  0.00    -0.367 C  
HETATM   16  C   UNL     1     -11.115  11.653  66.426  1.00  0.00    -0.347 C  
HETATM   17  C   UNL     1     -12.242  12.232  65.994  1.00  0.00    -0.050 C  
HETATM   18  C   UNL     1      -9.671  11.995  65.984  1.00  0.00    -0.239 C  
HETATM   19  C   UNL     1      -9.172  11.095  64.830  1.00  0.00    -0.175 C  
HETATM   20  C   UNL     1      -9.434   9.121  66.478  1.00  0.00    -0.266 C  
HETATM   21  C   UNL     1      -8.996  11.543  67.258  1.00  0.00    -0.162 C  
HETATM   22  C   UNL     1      -8.589   9.732  65.324  1.00  0.00    -0.168 C  
ENDROOT
BRANCH  18  23
HETATM   23  O   UNL     1      -9.611  13.398  65.736  1.00  0.00    -0.179 OA 
BRANCH  23  24
HETATM   24  C   UNL     1      -8.693  14.294  66.389  1.00  0.00     0.151 C  
HETATM   25  O   UNL     1      -7.615  13.557  66.985  1.00  0.00    -0.019 OA 
HETATM   26  C   UNL     1      -6.563  14.414  67.465  1.00  0.00    -0.076 C  
HETATM   27  C   UNL     1      -7.098  15.227  68.633  1.00  0.00    -0.116 C  
HETATM   28  H   UNL     1      -9.655  17.052  69.164  1.00  0.00     0.000 HD 
HETATM   29  C   UNL     1      -8.277  16.092  68.200  1.00  0.00    -0.157 C  
HETATM   30  H   UNL     1      -6.438  16.586  69.948  1.00  0.00     0.000 HD 
HETATM   31  O   UNL     1      -6.104  16.078  69.219  1.00  0.00    -0.123 OA 
HETATM   32  O   UNL     1      -8.920  16.513  69.434  1.00  0.00    -0.147 OA 
HETATM   33  C   UNL     1      -9.318  15.370  67.333  1.00  0.00    -0.201 C  
BRANCH  26  34
HETATM   34  C   UNL     1      -5.384  13.543  67.916  1.00  0.00    -0.095 C  
HETATM   35  H   UNL     1      -5.080  12.104  69.217  1.00  0.00     0.000 HD 
HETATM   36  O   UNL     1      -5.810  12.643  68.937  1.00  0.00    -0.066 OA 
ENDBRANCH  26  34
BRANCH  33  37
HETATM   37  O   UNL     1     -10.113  16.261  66.512  1.00  0.00    -0.266 OA 
BRANCH  37  38
HETATM   38  C   UNL     1      -9.824  17.671  66.491  1.00  0.00    -0.319 C  
HETATM   39  O   UNL     1      -8.652  17.896  65.731  1.00  0.00    -0.503 OA 
HETATM   40  C   UNL     1      -8.111  19.214  65.710  1.00  0.00     0.098 C  
HETATM   41  C   UNL     1      -7.999  19.871  67.091  1.00  0.00    -0.302 C  
HETATM   42  H   UNL     1     -11.155  18.795  69.281  1.00  0.00     0.000 HD 
HETATM   43  O   UNL     1     -11.156  18.395  68.420  1.00  0.00     0.197 OA 
HETATM   44  O   UNL     1      -7.672  21.257  66.945  1.00  0.00    -0.705 OA 
HETATM   45  C   UNL     1      -9.310  19.753  67.848  1.00  0.00    -0.344 C  
HETATM   46  H   UNL     1      -9.969  20.167  69.672  1.00  0.00     0.000 HD 
HETATM   47  O   UNL     1      -9.149  20.241  69.198  1.00  0.00     0.267 OA 
HETATM   48  H   UNL     1      -7.602  21.665  67.800  1.00  0.00     0.000 HD 
HETATM   49  C   UNL     1      -9.822  18.322  67.890  1.00  0.00    -0.317 C  
BRANCH  40  50
HETATM   50  C   UNL     1      -6.702  19.092  65.099  1.00  0.00    -0.118 C  
HETATM   51  O   UNL     1      -5.671  19.181  66.086  1.00  0.00    -0.155 OA 
HETATM   52  H   UNL     1      -4.802  19.107  65.708  1.00  0.00     0.000 HD 
ENDBRANCH  40  50
ENDBRANCH  37  38
ENDBRANCH  33  37
ENDBRANCH  23  24
ENDBRANCH  18  23
TORSDOF 6
ENDMDL
MODEL      132
REMARK 921   NORMALIZED FREE ENERGY PREDICTED BY IDOCK:   -2.63 KCAL/MOL
REMARK 922        TOTAL FREE ENERGY PREDICTED BY IDOCK:   -5.54 KCAL/MOL
REMARK 923 INTER-LIGAND FREE ENERGY PREDICTED BY IDOCK:   -6.85 KCAL/MOL
REMARK 924 INTRA-LIGAND FREE ENERGY PREDICTED BY IDOCK:    1.31 KCAL/MOL
REMARK 927      BINDING AFFINITY PREDICTED BY RF-SCORE:    0.00 PKD
ROOT
HETATM    1  C   UNL     1     -12.593  13.778  66.270  1.00  0.00    -0.372 C  
HETATM    2  C   UNL     1     -11.293  14.199  67.063  1.00  0.00    -0.346 C  
HETATM    3  C   UNL     1     -11.744  14.951  68.313  1.00  0.00    -0.342 C  
HETATM    4  C   UNL     1     -10.555  15.558  69.030  1.00  0.00    -0.246 C  
HETATM    5  C   UNL     1      -9.906  16.674  68.245  1.00  0.00    -0.253 C  
HETATM    6  C   UNL     1      -9.797  16.527  66.691  1.00  0.00    -0.279 C  
HETATM    7  C   UNL     1     -10.560  15.226  66.094  1.00  0.00    -0.318 C  
HETATM    8  C   UNL     1      -8.317  16.574  66.216  1.00  0.00    -0.364 C  
HETATM    9  C   UNL     1     -10.246  17.968  66.235  1.00  0.00    -0.381 C  
HETATM   10  O   UNL     1      -9.649  18.983  66.612  1.00  0.00    -0.312 OA 
HETATM   11  O   UNL     1     -11.301  18.117  65.434  1.00  0.00     0.233 OA 
HETATM   12  C   UNL     1      -9.911  14.447  64.931  1.00  0.00    -0.124 C  
HETATM   13  C   UNL     1      -9.119  13.223  65.338  1.00  0.00     0.859 C  
HETATM   14  C   UNL     1      -9.731  12.181  66.285  1.00  0.00    -0.251 C  
HETATM   15  C   UNL     1     -10.492  10.977  65.692  1.00  0.00    -0.293 C  
HETATM   16  C   UNL     1     -10.200   9.867  66.709  1.00  0.00    -0.301 C  
HETATM   17  C   UNL     1     -10.765   8.655  66.624  1.00  0.00     0.033 C  
HETATM   18  C   UNL     1      -9.087  10.301  67.692  1.00  0.00    -0.137 C  
HETATM   19  C   UNL     1      -9.648  10.956  68.976  1.00  0.00    -0.170 C  
HETATM   20  C   UNL     1     -10.597  12.794  67.426  1.00  0.00    -0.241 C  
HETATM   21  C   UNL     1      -8.513  11.395  66.821  1.00  0.00    -0.165 C  
HETATM   22  C   UNL     1      -9.951  12.479  68.806  1.00  0.00    -0.028 C  
ENDROOT
BRANCH  18  23
HETATM   23  O   UNL     1      -8.227   9.183  67.901  1.00  0.00    -0.111 OA 
BRANCH  23  24
HETATM   24  C   UNL     1      -8.528   8.088  68.786  1.00  0.00    -0.127 C  
HETATM   25  O   UNL     1      -9.704   8.378  69.556  1.00  0.00    -0.173 OA 
HETATM   26  C   UNL     1     -10.168   7.236  70.299  1.00  0.00    -0.199 C  
HETATM   27  C   UNL     1      -9.141   6.906  71.370  1.00  0.00    -0.148 C  
HETATM   28  H   UNL     1      -5.990   6.435  71.442  1.00  0.00     0.000 HD 
HETATM   29  C   UNL     1      -7.791   6.569  70.744  1.00  0.00    -0.106 C  
HETATM   30  H   UNL     1      -8.897   5.603  72.872  1.00  0.00     0.000 HD 
HETATM   31  O   UNL     1      -9.539   5.810  72.203  1.00  0.00    -0.150 OA 
HETATM   32  O   UNL     1      -6.831   6.645  71.832  1.00  0.00    -0.065 OA 
HETATM   33  C   UNL     1      -7.341   7.529  69.634  1.00  0.00    -0.090 C  
BRANCH  26  34
HETATM   34  C   UNL     1     -11.517   7.582  70.943  1.00  0.00    -0.281 C  
HETATM   35  H   UNL     1     -13.015   6.599  71.746  1.00  0.00     0.000 HD 
HETATM   36  O   UNL     1     -12.180   6.385  71.347  1.00  0.00    -0.292 OA 
ENDBRANCH  26  34
BRANCH  33  37
HETATM   37  O   UNL     1      -6.384   6.949  68.713  1.00  0.00    -0.026 OA 
BRANCH  37  38
HETATM   38  C   UNL     1      -6.839   6.125  67.625  1.00  0.00    -0.060 C  
HETATM   39  O   UNL     1      -6.930   6.909  66.451  1.00  0.00    -0.065 OA 
HETATM   40  C   UNL     1      -7.505   6.314  65.292  1.00  0.00    -0.084 C  
HETATM   41  C   UNL     1      -8.819   5.569  65.552  1.00  0.00    -0.144 C  
HETATM   42  H   UNL     1      -8.585   3.759  69.098  1.00  0.00     0.000 HD 
HETATM   43  O   UNL     1      -7.806   4.261  68.894  1.00  0.00    -0.068 OA 
HETATM   44  O   UNL     1      -9.190   4.818  64.391  1.00  0.00    -0.265 OA 
HETATM   45  C   UNL     1      -8.672   4.618  66.725  1.00  0.00    -0.111 C  
HETATM   46  H   UNL     1      -9.860   3.439  67.789  1.00  0.00     0.000 HD 
HETATM   47  O   UNL     1      -9.952   4.034  67.054  1.00  0.00    -0.176 OA 
HETATM   48  H   UNL     1     -10.005   4.356  64.551  1.00  0.00     0.000 HD 
HETATM   49  C   UNL     1      -8.105   5.309  67.956  1.00  0.00    -0.099 C  
BRANCH  40  50
HETATM   50  C   UNL     1      -7.770   7.466  64.302  1.00  0.00    -0.121 C  
HETATM   51  O   UNL     1      -7.665   8.750  64.921  1.00  0.00    -0.095 OA 
HETATM   52  H   UNL     1      -7.829   9.459  64.310  1.00  0.00     0.000 HD 
ENDBRANCH  40  50
ENDBRANCH  37  38
ENDBRANCH  33  37
ENDBRANCH  23  24
ENDBRANCH  18  23
TORSDOF 6
ENDMDL
MODEL      133
REMARK 921   NORMALIZED FREE ENERGY PREDICTED BY IDOCK:   -2.60 KCAL/MOL
REMARK 922        TOTAL FREE ENERGY PREDICTED BY IDOCK:   -5.49 KCAL/MOL
REMARK 923 INTER-LIGAND FREE ENERGY PREDICTED BY IDOCK:   -6.55 KCAL/MOL
REMARK 924 INTRA-LIGAND FREE ENERGY PREDICTED BY IDOCK:    1.06 KCAL/MOL
REMARK 927      BINDING AFFINITY PREDICTED BY RF-SCORE:    0.00 PKD
ROOT
HETATM    1  C   UNL     1      -9.296   5.614  70.238  1.00  0.00    -0.186 C  
HETATM    2  C   UNL     1      -9.800   7.029  70.727  1.00  0.00    -0.190 C  
HETATM    3  C   UNL     1      -9.571   7.098  72.235  1.00  0.00    -0.161 C  
HETATM    4  C   UNL     1     -10.206   8.346  72.815  1.00  0.00    -0.254 C  
HETATM    5  C   UNL     1     -11.715   8.318  72.755  1.00  0.00    -0.305 C  
HETATM    6  C   UNL     1     -12.400   7.696  71.493  1.00  0.00    -0.356 C  
HETATM    7  C   UNL     1     -11.366   7.001  70.454  1.00  0.00    -0.354 C  
HETATM    8  C   UNL     1     -13.310   8.730  70.770  1.00  0.00     0.366 C  
HETATM    9  C   UNL     1     -13.519   6.821  72.178  1.00  0.00     0.133 C  
HETATM   10  O   UNL     1     -14.370   7.323  72.923  1.00  0.00     0.592 OA 
HETATM   11  O   UNL     1     -13.559   5.505  71.970  1.00  0.00     1.232 OA 
HETATM   12  C   UNL     1     -11.618   7.148  68.940  1.00  0.00     0.459 C  
HETATM   13  C   UNL     1     -10.836   8.252  68.260  1.00  0.00     0.025 C  
HETATM   14  C   UNL     1      -9.322   8.377  68.474  1.00  0.00    -0.139 C  
HETATM   15  C   UNL     1      -8.360   7.667  67.499  1.00  0.00    -0.120 C  
HETATM   16  C   UNL     1      -7.154   8.612  67.475  1.00  0.00    -0.080 C  
HETATM   17  C   UNL     1      -6.027   8.316  66.813  1.00  0.00    -0.053 C  
HETATM   18  C   UNL     1      -7.494   9.956  68.163  1.00  0.00    -0.080 C  
HETATM   19  C   UNL     1      -7.128   9.966  69.665  1.00  0.00    -0.093 C  
HETATM   20  C   UNL     1      -8.859   8.064  69.930  1.00  0.00    -0.144 C  
HETATM   21  C   UNL     1      -8.996   9.826  68.046  1.00  0.00    -0.118 C  
HETATM   22  C   UNL     1      -8.236   9.337  70.571  1.00  0.00    -0.219 C  
ENDROOT
BRANCH  18  23
HETATM   23  O   UNL     1      -6.918  11.003  67.386  1.00  0.00    -0.078 OA 
BRANCH  23  24
HETATM   24  C   UNL     1      -7.219  12.400  67.565  1.00  0.00    -0.145 C  
HETATM   25  O   UNL     1      -6.240  13.016  68.416  1.00  0.00    -0.070 OA 
HETATM   26  C   UNL     1      -6.372  14.448  68.456  1.00  0.00    -0.088 C  
HETATM   27  C   UNL     1      -7.682  14.794  69.148  1.00  0.00    -0.144 C  
HETATM   28  H   UNL     1     -10.728  13.913  68.840  1.00  0.00     0.000 HD 
HETATM   29  C   UNL     1      -8.870  14.212  68.388  1.00  0.00    -0.187 C  
HETATM   30  H   UNL     1      -8.699  16.422  69.719  1.00  0.00     0.000 HD 
HETATM   31  O   UNL     1      -7.881  16.206  69.287  1.00  0.00    -0.234 OA 
HETATM   32  O   UNL     1      -9.988  14.276  69.314  1.00  0.00    -0.087 OA 
HETATM   33  C   UNL     1      -8.693  12.754  67.941  1.00  0.00    -0.185 C  
BRANCH  26  34
HETATM   34  C   UNL     1      -5.187  15.032  69.236  1.00  0.00    -0.090 C  
HETATM   35  H   UNL     1      -4.837  15.639  71.069  1.00  0.00     0.000 HD 
HETATM   36  O   UNL     1      -5.571  15.278  70.587  1.00  0.00    -0.135 OA 
ENDBRANCH  26  34
BRANCH  33  37
HETATM   37  O   UNL     1      -9.530  12.383  66.818  1.00  0.00    -0.215 OA 
BRANCH  37  38
HETATM   38  C   UNL     1      -9.808  13.341  65.780  1.00  0.00    -0.197 C  
HETATM   39  O   UNL     1      -9.739  14.647  66.318  1.00  0.00    -0.276 OA 
HETATM   40  C   UNL     1     -10.128  15.735  65.485  1.00  0.00    -0.351 C  
HETATM   41  C   UNL     1     -11.454  15.520  64.748  1.00  0.00    -0.313 C  
HETATM   42  H   UNL     1     -11.714  11.689  63.668  1.00  0.00     0.000 HD 
HETATM   43  O   UNL     1     -10.921  11.877  64.156  1.00  0.00    -0.316 OA 
HETATM   44  O   UNL     1     -11.640  16.550  63.770  1.00  0.00    -1.617 OA 
HETATM   45  C   UNL     1     -11.467  14.173  64.049  1.00  0.00    -0.040 C  
HETATM   46  H   UNL     1     -12.779  13.075  63.046  1.00  0.00     0.000 HD 
HETATM   47  O   UNL     1     -12.771  13.918  63.483  1.00  0.00    -0.797 OA 
HETATM   48  H   UNL     1     -12.462  16.418  63.313  1.00  0.00     0.000 HD 
HETATM   49  C   UNL     1     -11.097  13.036  64.988  1.00  0.00    -0.294 C  
BRANCH  40  50
HETATM   50  C   UNL     1     -10.264  16.960  66.411  1.00  0.00    -0.321 C  
HETATM   51  O   UNL     1     -10.657  16.599  67.737  1.00  0.00    -0.325 OA 
HETATM   52  H   UNL     1     -10.740  17.354  68.307  1.00  0.00     0.000 HD 
ENDBRANCH  40  50
ENDBRANCH  37  38
ENDBRANCH  33  37
ENDBRANCH  23  24
ENDBRANCH  18  23
TORSDOF 6
ENDMDL
MODEL      134
REMARK 921   NORMALIZED FREE ENERGY PREDICTED BY IDOCK:   -2.54 KCAL/MOL
REMARK 922        TOTAL FREE ENERGY PREDICTED BY IDOCK:   -5.41 KCAL/MOL
REMARK 923 INTER-LIGAND FREE ENERGY PREDICTED BY IDOCK:   -7.14 KCAL/MOL
REMARK 924 INTRA-LIGAND FREE ENERGY PREDICTED BY IDOCK:    1.73 KCAL/MOL
REMARK 927      BINDING AFFINITY PREDICTED BY RF-SCORE:    0.00 PKD
ROOT
HETATM    1  C   UNL     1      -8.993   6.801  70.890  1.00  0.00    -0.150 C  
HETATM    2  C   UNL     1      -9.235   6.630  69.338  1.00  0.00    -0.142 C  
HETATM    3  C   UNL     1     -10.535   5.849  69.163  1.00  0.00    -0.338 C  
HETATM    4  C   UNL     1     -10.741   5.472  67.709  1.00  0.00    -0.186 C  
HETATM    5  C   UNL     1      -9.732   4.461  67.219  1.00  0.00    -0.222 C  
HETATM    6  C   UNL     1      -8.254   4.579  67.717  1.00  0.00    -0.099 C  
HETATM    7  C   UNL     1      -8.028   5.715  68.853  1.00  0.00    -0.097 C  
HETATM    8  C   UNL     1      -7.265   4.770  66.532  1.00  0.00    -0.077 C  
HETATM    9  C   UNL     1      -7.944   3.070  68.054  1.00  0.00    -0.066 C  
HETATM   10  O   UNL     1      -8.037   2.182  67.198  1.00  0.00    -0.066 OA 
HETATM   11  O   UNL     1      -7.583   2.721  69.289  1.00  0.00    -0.044 OA 
HETATM   12  C   UNL     1      -6.737   6.558  68.821  1.00  0.00    -0.057 C  
HETATM   13  C   UNL     1      -6.867   7.910  68.153  1.00  0.00    -0.068 C  
HETATM   14  C   UNL     1      -8.009   8.860  68.537  1.00  0.00    -0.104 C  
HETATM   15  C   UNL     1      -7.784   9.900  69.654  1.00  0.00    -0.149 C  
HETATM   16  C   UNL     1      -8.661  11.072  69.199  1.00  0.00    -0.009 C  
HETATM   17  C   UNL     1      -8.834  12.168  69.949  1.00  0.00     2.741 C  
HETATM   18  C   UNL     1      -9.148  10.861  67.745  1.00  0.00    -0.149 C  
HETATM   19  C   UNL     1     -10.523  10.159  67.673  1.00  0.00    -0.293 C  
HETATM   20  C   UNL     1      -9.367   8.142  68.804  1.00  0.00    -0.143 C  
HETATM   21  C   UNL     1      -8.087   9.857  67.358  1.00  0.00    -0.113 C  
HETATM   22  C   UNL     1     -10.422   8.602  67.757  1.00  0.00    -0.287 C  
ENDROOT
BRANCH  18  23
HETATM   23  O   UNL     1      -9.065  12.115  67.070  1.00  0.00    -0.185 OA 
BRANCH  23  24
HETATM   24  C   UNL     1     -10.207  12.857  66.604  1.00  0.00    -0.247 C  
HETATM   25  O   UNL     1     -10.625  12.375  65.318  1.00  0.00    -0.274 OA 
HETATM   26  C   UNL     1     -11.884  12.937  64.905  1.00  0.00    -0.366 C  
HETATM   27  C   UNL     1     -11.692  14.425  64.659  1.00  0.00    -0.430 C  
HETATM   28  H   UNL     1     -10.446  16.866  66.284  1.00  0.00     0.000 HD 
HETATM   29  C   UNL     1     -11.233  15.133  65.929  1.00  0.00    -0.280 C  
HETATM   30  H   UNL     1     -12.764  15.997  64.034  1.00  0.00     0.000 HD 
HETATM   31  O   UNL     1     -12.884  15.068  64.188  1.00  0.00    -0.644 OA 
HETATM   32  O   UNL     1     -10.733  16.425  65.492  1.00  0.00    -0.356 OA 
HETATM   33  C   UNL     1     -10.113  14.414  66.695  1.00  0.00    -0.274 C  
BRANCH  26  34
HETATM   34  C   UNL     1     -12.337  12.237  63.617  1.00  0.00    -0.562 C  
HETATM   35  H   UNL     1     -12.839  12.772  61.796  1.00  0.00     0.000 HD 
HETATM   36  O   UNL     1     -12.558  13.205  62.593  1.00  0.00     0.020 OA 
ENDBRANCH  26  34
BRANCH  33  37
HETATM   37  O   UNL     1     -10.047  14.766  68.099  1.00  0.00    -0.215 OA 
BRANCH  37  38
HETATM   38  C   UNL     1     -11.228  14.682  68.919  1.00  0.00    -0.267 C  
HETATM   39  O   UNL     1     -11.140  15.633  69.962  1.00  0.00    -0.265 OA 
HETATM   40  C   UNL     1     -12.144  15.611  70.973  1.00  0.00    -0.400 C  
HETATM   41  C   UNL     1     -12.444  14.216  71.532  1.00  0.00    -0.341 C  
HETATM   42  H   UNL     1     -12.225  11.568  68.556  1.00  0.00     0.000 HD 
HETATM   43  O   UNL     1     -12.021  12.452  68.273  1.00  0.00    -0.334 OA 
HETATM   44  O   UNL     1     -13.611  14.264  72.359  1.00  0.00    -0.417 OA 
HETATM   45  C   UNL     1     -12.681  13.227  70.405  1.00  0.00    -0.033 C  
HETATM   46  H   UNL     1     -12.963  11.271  70.232  1.00  0.00     0.000 HD 
HETATM   47  O   UNL     1     -12.815  11.890  70.937  1.00  0.00    -0.248 OA 
HETATM   48  H   UNL     1     -13.798  13.399  72.706  1.00  0.00     0.000 HD 
HETATM   49  C   UNL     1     -11.559  13.247  69.378  1.00  0.00    -0.305 C  
BRANCH  40  50
HETATM   50  C   UNL     1     -11.626  16.507  72.115  1.00  0.00    -0.139 C  
HETATM   51  O   UNL     1     -12.067  16.060  73.399  1.00  0.00    -0.459 OA 
HETATM   52  H   UNL     1     -11.747  16.612  74.103  1.00  0.00     0.000 HD 
ENDBRANCH  40  50
ENDBRANCH  37  38
ENDBRANCH  33  37
ENDBRANCH  23  24
ENDBRANCH  18  23
TORSDOF 6
ENDMDL
MODEL      135
REMARK 921   NORMALIZED FREE ENERGY PREDICTED BY IDOCK:   -2.53 KCAL/MOL
REMARK 922        TOTAL FREE ENERGY PREDICTED BY IDOCK:   -5.39 KCAL/MOL
REMARK 923 INTER-LIGAND FREE ENERGY PREDICTED BY IDOCK:   -4.65 KCAL/MOL
REMARK 924 INTRA-LIGAND FREE ENERGY PREDICTED BY IDOCK:   -0.74 KCAL/MOL
REMARK 927      BINDING AFFINITY PREDICTED BY RF-SCORE:    0.00 PKD
ROOT
HETATM    1  C   UNL     1      -9.442  14.118  65.644  1.00  0.00     0.008 C  
HETATM    2  C   UNL     1     -10.032  13.455  66.951  1.00  0.00    -0.252 C  
HETATM    3  C   UNL     1     -11.534  13.280  66.735  1.00  0.00    -0.387 C  
HETATM    4  C   UNL     1     -12.208  12.829  68.015  1.00  0.00     0.020 C  
HETATM    5  C   UNL     1     -12.195  13.892  69.089  1.00  0.00    -0.305 C  
HETATM    6  C   UNL     1     -10.921  14.786  69.238  1.00  0.00    -0.275 C  
HETATM    7  C   UNL     1      -9.809  14.551  68.081  1.00  0.00    -0.223 C  
HETATM    8  C   UNL     1     -10.291  14.652  70.654  1.00  0.00     0.716 C  
HETATM    9  C   UNL     1     -11.586  16.207  69.399  1.00  0.00    -0.261 C  
HETATM   10  O   UNL     1     -12.387  16.449  70.310  1.00  0.00     0.117 OA 
HETATM   11  O   UNL     1     -11.300  17.181  68.535  1.00  0.00    -0.089 OA 
HETATM   12  C   UNL     1      -8.314  14.586  68.462  1.00  0.00    -0.160 C  
HETATM   13  C   UNL     1      -7.679  13.233  68.702  1.00  0.00    -0.080 C  
HETATM   14  C   UNL     1      -7.852  12.101  67.680  1.00  0.00    -0.153 C  
HETATM   15  C   UNL     1      -6.804  11.928  66.561  1.00  0.00     0.196 C  
HETATM   16  C   UNL     1      -6.800  10.411  66.342  1.00  0.00    -0.112 C  
HETATM   17  C   UNL     1      -6.085   9.832  65.368  1.00  0.00    -0.074 C  
HETATM   18  C   UNL     1      -7.579   9.691  67.469  1.00  0.00    -0.095 C  
HETATM   19  C   UNL     1      -9.067   9.464  67.114  1.00  0.00    -0.148 C  
HETATM   20  C   UNL     1      -9.270  12.039  67.037  1.00  0.00    -0.195 C  
HETATM   21  C   UNL     1      -7.503  10.820  68.471  1.00  0.00    -0.100 C  
HETATM   22  C   UNL     1      -9.967  10.703  67.422  1.00  0.00    -0.213 C  
ENDROOT
BRANCH  18  23
HETATM   23  O   UNL     1      -6.849   8.519  67.825  1.00  0.00    -0.065 OA 
BRANCH  23  24
HETATM   24  C   UNL     1      -7.441   7.215  67.977  1.00  0.00    -0.099 C  
HETATM   25  O   UNL     1      -7.548   6.565  66.701  1.00  0.00    -0.091 OA 
HETATM   26  C   UNL     1      -7.934   5.183  66.821  1.00  0.00    -0.104 C  
HETATM   27  C   UNL     1      -9.359   5.124  67.348  1.00  0.00    -0.120 C  
HETATM   28  H   UNL     1     -10.944   6.410  69.795  1.00  0.00     0.000 HD 
HETATM   29  C   UNL     1      -9.461   5.783  68.720  1.00  0.00    -0.124 C  
HETATM   30  H   UNL     1     -10.748   3.747  67.781  1.00  0.00     0.000 HD 
HETATM   31  O   UNL     1      -9.858   3.784  67.452  1.00  0.00    -0.156 OA 
HETATM   32  O   UNL     1     -10.881   5.999  68.940  1.00  0.00    -0.286 OA 
HETATM   33  C   UNL     1      -8.741   7.133  68.838  1.00  0.00    -0.128 C  
BRANCH  26  34
HETATM   34  C   UNL     1      -7.849   4.525  65.438  1.00  0.00    -0.090 C  
HETATM   35  H   UNL     1      -8.872   4.573  63.763  1.00  0.00     0.000 HD 
HETATM   36  O   UNL     1      -8.924   4.981  64.619  1.00  0.00    -0.145 OA 
ENDBRANCH  26  34
BRANCH  33  37
HETATM   37  O   UNL     1      -8.387   7.490  70.197  1.00  0.00    -0.130 OA 
BRANCH  37  38
HETATM   38  C   UNL     1      -7.793   6.509  71.067  1.00  0.00    -0.110 C  
HETATM   39  O   UNL     1      -8.795   5.623  71.525  1.00  0.00    -0.135 OA 
HETATM   40  C   UNL     1      -8.438   4.665  72.517  1.00  0.00    -0.115 C  
HETATM   41  C   UNL     1      -7.642   5.243  73.693  1.00  0.00    -0.095 C  
HETATM   42  H   UNL     1      -5.162   8.043  72.309  1.00  0.00     0.000 HD 
HETATM   43  O   UNL     1      -5.703   7.666  71.626  1.00  0.00    -0.035 OA 
HETATM   44  O   UNL     1      -7.134   4.179  74.506  1.00  0.00    -0.066 OA 
HETATM   45  C   UNL     1      -6.477   6.077  73.193  1.00  0.00    -0.068 C  
HETATM   46  H   UNL     1      -5.097   7.258  73.989  1.00  0.00     0.000 HD 
HETATM   47  O   UNL     1      -5.826   6.736  74.302  1.00  0.00    -0.061 OA 
HETATM   48  H   UNL     1      -6.641   4.537  75.236  1.00  0.00     0.000 HD 
HETATM   49  C   UNL     1      -6.914   7.121  72.177  1.00  0.00    -0.067 C  
BRANCH  40  50
HETATM   50  C   UNL     1      -9.761   4.079  73.048  1.00  0.00    -0.129 C  
HETATM   51  O   UNL     1     -10.073   4.545  74.364  1.00  0.00    -0.169 OA 
HETATM   52  H   UNL     1     -10.888   4.183  74.691  1.00  0.00     0.000 HD 
ENDBRANCH  40  50
ENDBRANCH  37  38
ENDBRANCH  33  37
ENDBRANCH  23  24
ENDBRANCH  18  23
TORSDOF 6
ENDMDL
MODEL      136
REMARK 921   NORMALIZED FREE ENERGY PREDICTED BY IDOCK:   -2.46 KCAL/MOL
REMARK 922        TOTAL FREE ENERGY PREDICTED BY IDOCK:   -5.31 KCAL/MOL
REMARK 923 INTER-LIGAND FREE ENERGY PREDICTED BY IDOCK:   -6.51 KCAL/MOL
REMARK 924 INTRA-LIGAND FREE ENERGY PREDICTED BY IDOCK:    1.20 KCAL/MOL
REMARK 927      BINDING AFFINITY PREDICTED BY RF-SCORE:    0.00 PKD
ROOT
HETATM    1  C   UNL     1     -12.831  12.497  66.117  1.00  0.00     1.298 C  
HETATM    2  C   UNL     1     -11.646  13.081  66.984  1.00  0.00    -0.413 C  
HETATM    3  C   UNL     1     -12.265  13.955  68.073  1.00  0.00    -0.188 C  
HETATM    4  C   UNL     1     -11.190  14.709  68.829  1.00  0.00    -0.285 C  
HETATM    5  C   UNL     1     -10.502  15.753  67.982  1.00  0.00    -0.270 C  
HETATM    6  C   UNL     1     -10.213  15.424  66.480  1.00  0.00    -0.287 C  
HETATM    7  C   UNL     1     -10.851  14.020  65.976  1.00  0.00    -0.295 C  
HETATM    8  C   UNL     1      -8.692  15.492  66.163  1.00  0.00    -0.186 C  
HETATM    9  C   UNL     1     -10.666  16.772  65.799  1.00  0.00    -0.180 C  
HETATM   10  O   UNL     1     -10.156  17.857  66.105  1.00  0.00    -0.412 OA 
HETATM   11  O   UNL     1     -11.630  16.765  64.878  1.00  0.00    -0.084 OA 
HETATM   12  C   UNL     1     -10.045  13.142  64.997  1.00  0.00    -0.240 C  
HETATM   13  C   UNL     1      -9.255  12.021  65.638  1.00  0.00    -0.010 C  
HETATM   14  C   UNL     1      -9.927  11.071  66.639  1.00  0.00    -0.249 C  
HETATM   15  C   UNL     1     -10.567   9.765  66.127  1.00  0.00    -0.018 C  
HETATM   16  C   UNL     1     -10.348   8.804  67.302  1.00  0.00    -0.360 C  
HETATM   17  C   UNL     1     -10.849   7.562  67.313  1.00  0.00    -0.297 C  
HETATM   18  C   UNL     1      -9.370   9.415  68.335  1.00  0.00    -0.134 C  
HETATM   19  C   UNL     1     -10.097  10.190  69.458  1.00  0.00    -0.258 C  
HETATM   20  C   UNL     1     -10.940  11.771  67.595  1.00  0.00    -0.286 C  
HETATM   21  C   UNL     1      -8.746  10.423  67.397  1.00  0.00    -0.125 C  
HETATM   22  C   UNL     1     -10.441  11.662  69.064  1.00  0.00    -0.159 C  
ENDROOT
BRANCH  18  23
HETATM   23  O   UNL     1      -8.495   8.378  68.774  1.00  0.00    -0.122 OA 
BRANCH  23  24
HETATM   24  C   UNL     1      -8.510   7.817  70.100  1.00  0.00    -0.134 C  
HETATM   25  O   UNL     1      -9.860   7.569  70.521  1.00  0.00    -0.183 OA 
HETATM   26  C   UNL     1      -9.922   6.816  71.746  1.00  0.00    -0.174 C  
HETATM   27  C   UNL     1      -9.374   7.679  72.872  1.00  0.00    -0.198 C  
HETATM   28  H   UNL     1      -6.735   9.399  73.353  1.00  0.00     0.000 HD 
HETATM   29  C   UNL     1      -7.922   8.064  72.606  1.00  0.00    -0.134 C  
HETATM   30  H   UNL     1      -9.101   7.573  74.853  1.00  0.00     0.000 HD 
HETATM   31  O   UNL     1      -9.444   7.034  74.151  1.00  0.00    -0.222 OA 
HETATM   32  O   UNL     1      -7.640   9.159  73.519  1.00  0.00    -0.103 OA 
HETATM   33  C   UNL     1      -7.637   8.540  71.175  1.00  0.00    -0.096 C  
BRANCH  26  34
HETATM   34  C   UNL     1     -11.385   6.444  72.023  1.00  0.00    -0.294 C  
HETATM   35  H   UNL     1     -13.111   6.644  71.111  1.00  0.00     0.000 HD 
HETATM   36  O   UNL     1     -12.206   6.874  70.939  1.00  0.00    -0.381 OA 
ENDBRANCH  26  34
BRANCH  33  37
HETATM   37  O   UNL     1      -6.251   8.398  70.778  1.00  0.00    -0.032 OA 
BRANCH  37  38
HETATM   38  C   UNL     1      -5.619   9.423  69.988  1.00  0.00    -0.035 C  
HETATM   39  O   UNL     1      -5.708  10.659  70.670  1.00  0.00    -0.093 OA 
HETATM   40  C   UNL     1      -5.272  11.832  69.989  1.00  0.00    -0.081 C  
HETATM   41  C   UNL     1      -5.801  11.961  68.556  1.00  0.00    -0.049 C  
HETATM   42  H   UNL     1      -5.908   8.334  66.898  1.00  0.00     0.000 HD 
HETATM   43  O   UNL     1      -5.613   8.314  67.801  1.00  0.00    -0.037 OA 
HETATM   44  O   UNL     1      -5.129  13.032  67.884  1.00  0.00    -0.092 OA 
HETATM   45  C   UNL     1      -5.571  10.676  67.782  1.00  0.00    -0.043 C  
HETATM   46  H   UNL     1      -6.059   9.951  66.002  1.00  0.00     0.000 HD 
HETATM   47  O   UNL     1      -6.203  10.756  66.486  1.00  0.00    -0.085 OA 
HETATM   48  H   UNL     1      -5.457  13.113  66.996  1.00  0.00     0.000 HD 
HETATM   49  C   UNL     1      -6.099   9.457  68.523  1.00  0.00    -0.044 C  
BRANCH  40  50
HETATM   50  C   UNL     1      -5.779  13.027  70.819  1.00  0.00    -0.160 C  
HETATM   51  O   UNL     1      -5.611  12.825  72.224  1.00  0.00    -0.280 OA 
HETATM   52  H   UNL     1      -5.924  13.562  72.735  1.00  0.00     0.000 HD 
ENDBRANCH  40  50
ENDBRANCH  37  38
ENDBRANCH  33  37
ENDBRANCH  23  24
ENDBRANCH  18  23
TORSDOF 6
ENDMDL
MODEL      137
REMARK 921   NORMALIZED FREE ENERGY PREDICTED BY IDOCK:   -2.39 KCAL/MOL
REMARK 922        TOTAL FREE ENERGY PREDICTED BY IDOCK:   -5.21 KCAL/MOL
REMARK 923 INTER-LIGAND FREE ENERGY PREDICTED BY IDOCK:   -4.72 KCAL/MOL
REMARK 924 INTRA-LIGAND FREE ENERGY PREDICTED BY IDOCK:   -0.50 KCAL/MOL
REMARK 927      BINDING AFFINITY PREDICTED BY RF-SCORE:    0.00 PKD
ROOT
HETATM    1  C   UNL     1      -9.482  15.311  69.924  1.00  0.00    -0.020 C  
HETATM    2  C   UNL     1      -8.858  15.429  68.478  1.00  0.00    -0.183 C  
HETATM    3  C   UNL     1      -7.855  16.580  68.506  1.00  0.00    -0.210 C  
HETATM    4  C   UNL     1      -7.353  16.886  67.109  1.00  0.00    -0.213 C  
HETATM    5  C   UNL     1      -8.426  17.463  66.216  1.00  0.00    -0.260 C  
HETATM    6  C   UNL     1      -9.881  16.902  66.338  1.00  0.00    -0.319 C  
HETATM    7  C   UNL     1     -10.084  15.850  67.556  1.00  0.00    -0.247 C  
HETATM    8  C   UNL     1     -10.376  16.300  64.992  1.00  0.00    -0.025 C  
HETATM    9  C   UNL     1     -10.707  18.245  66.325  1.00  0.00    -0.155 C  
HETATM   10  O   UNL     1     -10.635  19.042  65.382  1.00  0.00    -0.517 OA 
HETATM   11  O   UNL     1     -11.501  18.552  67.352  1.00  0.00     0.315 OA 
HETATM   12  C   UNL     1     -10.999  14.627  67.344  1.00  0.00    -0.309 C  
HETATM   13  C   UNL     1     -10.285  13.345  66.969  1.00  0.00    -0.249 C  
HETATM   14  C   UNL     1      -9.078  12.862  67.784  1.00  0.00    -0.197 C  
HETATM   15  C   UNL     1      -9.304  11.899  68.968  1.00  0.00     0.245 C  
HETATM   16  C   UNL     1      -8.027  11.051  68.954  1.00  0.00    -0.138 C  
HETATM   17  C   UNL     1      -7.765  10.138  69.899  1.00  0.00    -0.171 C  
HETATM   18  C   UNL     1      -7.219  11.294  67.656  1.00  0.00    -0.092 C  
HETATM   19  C   UNL     1      -6.156  12.405  67.815  1.00  0.00    -0.111 C  
HETATM   20  C   UNL     1      -8.134  14.008  68.259  1.00  0.00    -0.148 C  
HETATM   21  C   UNL     1      -8.368  11.857  66.850  1.00  0.00    -0.169 C  
HETATM   22  C   UNL     1      -6.732  13.842  67.606  1.00  0.00    -0.189 C  
ENDROOT
BRANCH  18  23
HETATM   23  O   UNL     1      -6.727  10.035  67.205  1.00  0.00    -0.072 OA 
BRANCH  23  24
HETATM   24  C   UNL     1      -6.950   9.507  65.884  1.00  0.00    -0.091 C  
HETATM   25  O   UNL     1      -8.093  10.134  65.283  1.00  0.00    -0.139 OA 
HETATM   26  C   UNL     1      -8.233   9.800  63.890  1.00  0.00    -0.159 C  
HETATM   27  C   UNL     1      -8.566   8.320  63.780  1.00  0.00     0.186 C  
HETATM   28  H   UNL     1      -7.344   5.613  64.932  1.00  0.00     0.000 HD 
HETATM   29  C   UNL     1      -7.455   7.465  64.381  1.00  0.00    -0.100 C  
HETATM   30  H   UNL     1      -8.988   6.975  62.357  1.00  0.00     0.000 HD 
HETATM   31  O   UNL     1      -8.780   7.899  62.426  1.00  0.00    -0.028 OA 
HETATM   32  O   UNL     1      -8.037   6.145  64.558  1.00  0.00    -0.130 OA 
HETATM   33  C   UNL     1      -6.935   7.952  65.741  1.00  0.00    -0.056 C  
BRANCH  26  34
HETATM   34  C   UNL     1      -9.363  10.647  63.290  1.00  0.00    -0.306 C  
HETATM   35  H   UNL     1      -9.529  12.386  62.394  1.00  0.00     0.000 HD 
HETATM   36  O   UNL     1      -8.830  11.861  62.766  1.00  0.00    -0.093 OA 
ENDBRANCH  26  34
BRANCH  33  37
HETATM   37  O   UNL     1      -5.594   7.498  66.049  1.00  0.00    -0.031 OA 
BRANCH  37  38
HETATM   38  C   UNL     1      -5.399   6.363  66.912  1.00  0.00    -0.012 C  
HETATM   39  O   UNL     1      -5.751   5.182  66.217  1.00  0.00    -0.017 OA 
HETATM   40  C   UNL     1      -5.770   3.958  66.945  1.00  0.00    -0.022 C  
HETATM   41  C   UNL     1      -6.500   4.036  68.290  1.00  0.00    -0.038 C  
HETATM   42  H   UNL     1      -5.770   7.594  69.939  1.00  0.00     0.000 HD 
HETATM   43  O   UNL     1      -5.364   7.497  69.086  1.00  0.00    -0.015 OA 
HETATM   44  O   UNL     1      -6.265   2.840  69.042  1.00  0.00    -0.027 OA 
HETATM   45  C   UNL     1      -6.012   5.226  69.096  1.00  0.00    -0.024 C  
HETATM   46  H   UNL     1      -6.503   6.121  70.797  1.00  0.00     0.000 HD 
HETATM   47  O   UNL     1      -6.808   5.376  70.292  1.00  0.00    -0.045 OA 
HETATM   48  H   UNL     1      -6.717   2.888  69.876  1.00  0.00     0.000 HD 
HETATM   49  C   UNL     1      -6.060   6.519  68.297  1.00  0.00    -0.028 C  
BRANCH  40  50
HETATM   50  C   UNL     1      -6.487   2.931  66.045  1.00  0.00    -0.028 C  
HETATM   51  O   UNL     1      -7.856   3.274  65.814  1.00  0.00    -0.084 OA 
HETATM   52  H   UNL     1      -8.297   2.641  65.260  1.00  0.00     0.000 HD 
ENDBRANCH  40  50
ENDBRANCH  37  38
ENDBRANCH  33  37
ENDBRANCH  23  24
ENDBRANCH  18  23
TORSDOF 6
ENDMDL
MODEL      138
REMARK 921   NORMALIZED FREE ENERGY PREDICTED BY IDOCK:   -2.32 KCAL/MOL
REMARK 922        TOTAL FREE ENERGY PREDICTED BY IDOCK:   -5.12 KCAL/MOL
REMARK 923 INTER-LIGAND FREE ENERGY PREDICTED BY IDOCK:   -4.44 KCAL/MOL
REMARK 924 INTRA-LIGAND FREE ENERGY PREDICTED BY IDOCK:   -0.68 KCAL/MOL
REMARK 927      BINDING AFFINITY PREDICTED BY RF-SCORE:    0.00 PKD
ROOT
HETATM    1  C   UNL     1     -12.272  13.123  67.062  1.00  0.00    -0.271 C  
HETATM    2  C   UNL     1     -11.773  12.704  68.501  1.00  0.00    -0.372 C  
HETATM    3  C   UNL     1     -12.901  11.915  69.164  1.00  0.00     1.245 C  
HETATM    4  C   UNL     1     -12.579  11.642  70.619  1.00  0.00    -0.319 C  
HETATM    5  C   UNL     1     -12.574  12.895  71.462  1.00  0.00    -0.269 C  
HETATM    6  C   UNL     1     -11.991  14.209  70.843  1.00  0.00    -0.371 C  
HETATM    7  C   UNL     1     -11.602  14.084  69.273  1.00  0.00    -0.356 C  
HETATM    8  C   UNL     1     -10.793  14.750  71.674  1.00  0.00     0.758 C  
HETATM    9  C   UNL     1     -13.090  15.248  71.291  1.00  0.00    -0.468 C  
HETATM   10  O   UNL     1     -13.368  15.424  72.483  1.00  0.00    -0.387 OA 
HETATM   11  O   UNL     1     -13.754  15.954  70.376  1.00  0.00     0.051 OA 
HETATM   12  C   UNL     1     -10.334  14.796  68.759  1.00  0.00    -0.248 C  
HETATM   13  C   UNL     1      -9.101  13.923  68.658  1.00  0.00    -0.085 C  
HETATM   14  C   UNL     1      -9.166  12.564  67.950  1.00  0.00    -0.200 C  
HETATM   15  C   UNL     1      -8.837  12.480  66.445  1.00  0.00    -0.018 C  
HETATM   16  C   UNL     1      -8.208  11.088  66.320  1.00  0.00    -0.164 C  
HETATM   17  C   UNL     1      -7.861  10.564  65.137  1.00  0.00    -0.076 C  
HETATM   18  C   UNL     1      -7.906  10.493  67.717  1.00  0.00    -0.104 C  
HETATM   19  C   UNL     1      -9.064   9.623  68.257  1.00  0.00    -0.123 C  
HETATM   20  C   UNL     1     -10.489  11.779  68.205  1.00  0.00    -0.224 C  
HETATM   21  C   UNL     1      -7.920  11.808  68.463  1.00  0.00    -0.145 C  
HETATM   22  C   UNL     1     -10.180  10.457  68.964  1.00  0.00    -0.233 C  
ENDROOT
BRANCH  18  23
HETATM   23  O   UNL     1      -6.635   9.850  67.653  1.00  0.00    -0.067 OA 
BRANCH  23  24
HETATM   24  C   UNL     1      -6.455   8.441  67.421  1.00  0.00    -0.058 C  
HETATM   25  O   UNL     1      -7.049   8.062  66.170  1.00  0.00    -0.061 OA 
HETATM   26  C   UNL     1      -6.715   6.714  65.790  1.00  0.00    -0.048 C  
HETATM   27  C   UNL     1      -7.370   5.758  66.775  1.00  0.00    -0.079 C  
HETATM   28  H   UNL     1      -7.497   5.480  69.946  1.00  0.00     0.000 HD 
HETATM   29  C   UNL     1      -6.867   6.008  68.193  1.00  0.00    -0.070 C  
HETATM   30  H   UNL     1      -7.549   3.784  67.063  1.00  0.00     0.000 HD 
HETATM   31  O   UNL     1      -7.140   4.381  66.449  1.00  0.00    -0.067 OA 
HETATM   32  O   UNL     1      -7.810   5.324  69.062  1.00  0.00    -0.080 OA 
HETATM   33  C   UNL     1      -6.814   7.486  68.604  1.00  0.00    -0.066 C  
BRANCH  26  34
HETATM   34  C   UNL     1      -7.236   6.458  64.370  1.00  0.00    -0.065 C  
HETATM   35  H   UNL     1      -8.102   7.502  62.951  1.00  0.00     0.000 HD 
HETATM   36  O   UNL     1      -7.779   7.661  63.830  1.00  0.00    -0.114 OA 
ENDBRANCH  26  34
BRANCH  33  37
HETATM   37  O   UNL     1      -5.884   7.759  69.681  1.00  0.00    -0.023 OA 
BRANCH  37  38
HETATM   38  C   UNL     1      -6.334   7.721  71.048  1.00  0.00    -0.037 C  
HETATM   39  O   UNL     1      -6.313   6.384  71.509  1.00  0.00    -0.043 OA 
HETATM   40  C   UNL     1      -6.863   6.111  72.795  1.00  0.00    -0.074 C  
HETATM   41  C   UNL     1      -8.235   6.751  73.041  1.00  0.00    -0.108 C  
HETATM   42  H   UNL     1      -8.303  10.343  71.307  1.00  0.00     0.000 HD 
HETATM   43  O   UNL     1      -7.483   9.885  71.164  1.00  0.00    -0.242 OA 
HETATM   44  O   UNL     1      -8.592   6.619  74.421  1.00  0.00    -0.136 OA 
HETATM   45  C   UNL     1      -8.211   8.225  72.679  1.00  0.00    -0.162 C  
HETATM   46  H   UNL     1      -9.526   9.703  72.547  1.00  0.00     0.000 HD 
HETATM   47  O   UNL     1      -9.541   8.781  72.773  1.00  0.00    -0.198 OA 
HETATM   48  H   UNL     1      -9.442   7.015  74.574  1.00  0.00     0.000 HD 
HETATM   49  C   UNL     1      -7.666   8.464  71.280  1.00  0.00    -0.098 C  
BRANCH  40  50
HETATM   50  C   UNL     1      -7.002   4.579  72.889  1.00  0.00    -0.067 C  
HETATM   51  O   UNL     1      -8.327   4.133  72.588  1.00  0.00    -0.097 OA 
HETATM   52  H   UNL     1      -8.412   3.189  72.647  1.00  0.00     0.000 HD 
ENDBRANCH  40  50
ENDBRANCH  37  38
ENDBRANCH  33  37
ENDBRANCH  23  24
ENDBRANCH  18  23
TORSDOF 6
ENDMDL
MODEL      139
REMARK 921   NORMALIZED FREE ENERGY PREDICTED BY IDOCK:   -2.27 KCAL/MOL
REMARK 922        TOTAL FREE ENERGY PREDICTED BY IDOCK:   -5.05 KCAL/MOL
REMARK 923 INTER-LIGAND FREE ENERGY PREDICTED BY IDOCK:   -4.78 KCAL/MOL
REMARK 924 INTRA-LIGAND FREE ENERGY PREDICTED BY IDOCK:   -0.27 KCAL/MOL
REMARK 927      BINDING AFFINITY PREDICTED BY RF-SCORE:    0.00 PKD
ROOT
HETATM    1  C   UNL     1      -6.182   6.980  64.912  1.00  0.00    -0.037 C  
HETATM    2  C   UNL     1      -6.859   6.547  66.272  1.00  0.00    -0.057 C  
HETATM    3  C   UNL     1      -5.754   6.453  67.322  1.00  0.00    -0.013 C  
HETATM    4  C   UNL     1      -6.287   5.856  68.608  1.00  0.00    -0.037 C  
HETATM    5  C   UNL     1      -6.669   4.401  68.464  1.00  0.00    -0.047 C  
HETATM    6  C   UNL     1      -7.346   3.936  67.133  1.00  0.00    -0.068 C  
HETATM    7  C   UNL     1      -7.409   5.082  65.987  1.00  0.00    -0.078 C  
HETATM    8  C   UNL     1      -8.754   3.326  67.391  1.00  0.00    -0.136 C  
HETATM    9  C   UNL     1      -6.549   2.604  66.857  1.00  0.00    -0.036 C  
HETATM   10  O   UNL     1      -6.532   1.677  67.675  1.00  0.00    -0.024 OA 
HETATM   11  O   UNL     1      -5.860   2.460  65.724  1.00  0.00    -0.017 OA 
HETATM   12  C   UNL     1      -8.663   5.179  65.095  1.00  0.00    -0.151 C  
HETATM   13  C   UNL     1      -9.685   6.209  65.529  1.00  0.00     0.506 C  
HETATM   14  C   UNL     1      -9.252   7.647  65.846  1.00  0.00    -0.053 C  
HETATM   15  C   UNL     1      -9.276   8.707  64.727  1.00  0.00     0.324 C  
HETATM   16  C   UNL     1      -9.618   9.991  65.492  1.00  0.00    -0.328 C  
HETATM   17  C   UNL     1      -9.642  11.192  64.898  1.00  0.00    -0.279 C  
HETATM   18  C   UNL     1     -10.065   9.666  66.938  1.00  0.00    -0.227 C  
HETATM   19  C   UNL     1      -8.894   9.700  67.946  1.00  0.00    -0.119 C  
HETATM   20  C   UNL     1      -7.884   7.748  66.586  1.00  0.00    -0.102 C  
HETATM   21  C   UNL     1     -10.421   8.220  66.680  1.00  0.00    -0.217 C  
HETATM   22  C   UNL     1      -8.092   8.360  68.001  1.00  0.00    -0.123 C  
ENDROOT
BRANCH  18  23
HETATM   23  O   UNL     1     -11.170  10.511  67.254  1.00  0.00    -0.307 OA 
BRANCH  23  24
HETATM   24  C   UNL     1     -11.110  11.599  68.194  1.00  0.00    -0.242 C  
HETATM   25  O   UNL     1     -11.792  11.248  69.408  1.00  0.00    -0.298 OA 
HETATM   26  C   UNL     1     -11.581  12.213  70.454  1.00  0.00     0.111 C  
HETATM   27  C   UNL     1     -12.257  13.515  70.055  1.00  0.00    -0.312 C  
HETATM   28  H   UNL     1     -12.249  15.398  67.484  1.00  0.00     0.000 HD 
HETATM   29  C   UNL     1     -11.668  14.060  68.758  1.00  0.00    -0.353 C  
HETATM   30  H   UNL     1     -12.572  15.342  70.813  1.00  0.00     0.000 HD 
HETATM   31  O   UNL     1     -12.149  14.529  71.062  1.00  0.00    -0.310 OA 
HETATM   32  O   UNL     1     -12.616  15.058  68.292  1.00  0.00     0.267 OA 
HETATM   33  C   UNL     1     -11.481  13.015  67.649  1.00  0.00    -0.324 C  
BRANCH  26  34
HETATM   34  C   UNL     1     -12.189  11.673  71.755  1.00  0.00     0.562 C  
HETATM   35  H   UNL     1     -13.570  10.372  72.258  1.00  0.00     0.000 HD 
HETATM   36  O   UNL     1     -13.194  10.706  71.453  1.00  0.00    -0.375 OA 
ENDBRANCH  26  34
BRANCH  33  37
HETATM   37  O   UNL     1     -10.482  13.379  66.666  1.00  0.00    -0.274 OA 
BRANCH  37  38
HETATM   38  C   UNL     1      -9.309  14.111  67.068  1.00  0.00    -0.246 C  
HETATM   39  O   UNL     1      -8.541  13.314  67.949  1.00  0.00    -0.164 OA 
HETATM   40  C   UNL     1      -7.412  13.912  68.579  1.00  0.00    -0.122 C  
HETATM   41  C   UNL     1      -7.688  15.289  69.192  1.00  0.00    -0.200 C  
HETATM   42  H   UNL     1     -10.217  17.263  66.820  1.00  0.00     0.000 HD 
HETATM   43  O   UNL     1     -10.028  16.387  66.504  1.00  0.00    -0.254 OA 
HETATM   44  O   UNL     1      -6.457  15.902  69.588  1.00  0.00    -0.175 OA 
HETATM   45  C   UNL     1      -8.386  16.191  68.190  1.00  0.00    -0.166 C  
HETATM   46  H   UNL     1      -9.210  17.995  68.196  1.00  0.00     0.000 HD 
HETATM   47  O   UNL     1      -8.774  17.431  68.823  1.00  0.00    -0.278 OA 
HETATM   48  H   UNL     1      -6.628  16.756  69.968  1.00  0.00     0.000 HD 
HETATM   49  C   UNL     1      -9.615  15.533  67.583  1.00  0.00    -0.210 C  
BRANCH  40  50
HETATM   50  C   UNL     1      -6.979  12.944  69.698  1.00  0.00     0.278 C  
HETATM   51  O   UNL     1      -6.410  11.738  69.184  1.00  0.00    -0.070 OA 
HETATM   52  H   UNL     1      -6.144  11.141  69.874  1.00  0.00     0.000 HD 
ENDBRANCH  40  50
ENDBRANCH  37  38
ENDBRANCH  33  37
ENDBRANCH  23  24
ENDBRANCH  18  23
TORSDOF 6
ENDMDL
MODEL      140
REMARK 921   NORMALIZED FREE ENERGY PREDICTED BY IDOCK:   -2.27 KCAL/MOL
REMARK 922        TOTAL FREE ENERGY PREDICTED BY IDOCK:   -5.05 KCAL/MOL
REMARK 923 INTER-LIGAND FREE ENERGY PREDICTED BY IDOCK:   -4.36 KCAL/MOL
REMARK 924 INTRA-LIGAND FREE ENERGY PREDICTED BY IDOCK:   -0.68 KCAL/MOL
REMARK 927      BINDING AFFINITY PREDICTED BY RF-SCORE:    0.00 PKD
ROOT
HETATM    1  C   UNL     1      -8.548  14.595  70.071  1.00  0.00     0.759 C  
HETATM    2  C   UNL     1      -8.131  14.614  68.547  1.00  0.00    -0.146 C  
HETATM    3  C   UNL     1      -7.121  15.745  68.365  1.00  0.00    -0.116 C  
HETATM    4  C   UNL     1      -6.817  15.957  66.895  1.00  0.00    -0.013 C  
HETATM    5  C   UNL     1      -7.997  16.502  66.126  1.00  0.00    -0.191 C  
HETATM    6  C   UNL     1      -9.427  15.978  66.484  1.00  0.00    -0.297 C  
HETATM    7  C   UNL     1      -9.469  15.005  67.781  1.00  0.00    -0.195 C  
HETATM    8  C   UNL     1     -10.113  15.307  65.260  1.00  0.00    -0.362 C  
HETATM    9  C   UNL     1     -10.232  17.334  66.503  1.00  0.00    -0.325 C  
HETATM   10  O   UNL     1     -10.283  18.072  65.512  1.00  0.00    -0.556 OA 
HETATM   11  O   UNL     1     -10.870  17.717  67.610  1.00  0.00    -0.350 OA 
HETATM   12  C   UNL     1     -10.419  13.790  67.774  1.00  0.00    -0.240 C  
HETATM   13  C   UNL     1      -9.779  12.474  67.383  1.00  0.00    -0.194 C  
HETATM   14  C   UNL     1      -8.476  12.016  68.050  1.00  0.00    -0.168 C  
HETATM   15  C   UNL     1      -8.544  11.129  69.311  1.00  0.00     0.142 C  
HETATM   16  C   UNL     1      -7.291  10.257  69.172  1.00  0.00    -0.096 C  
HETATM   17  C   UNL     1      -6.910   9.397  70.126  1.00  0.00    -0.071 C  
HETATM   18  C   UNL     1      -6.671  10.407  67.762  1.00  0.00    -0.070 C  
HETATM   19  C   UNL     1      -5.583  11.504  67.703  1.00  0.00    -0.054 C  
HETATM   20  C   UNL     1      -7.461  13.169  68.318  1.00  0.00    -0.129 C  
HETATM   21  C   UNL     1      -7.914  10.943  67.090  1.00  0.00    -0.127 C  
HETATM   22  C   UNL     1      -6.167  12.937  67.487  1.00  0.00    -0.154 C  
ENDROOT
BRANCH  18  23
HETATM   23  O   UNL     1      -6.260   9.113  67.325  1.00  0.00    -0.057 OA 
BRANCH  23  24
HETATM   24  C   UNL     1      -6.525   8.583  66.012  1.00  0.00    -0.053 C  
HETATM   25  O   UNL     1      -7.127   9.587  65.182  1.00  0.00    -0.096 OA 
HETATM   26  C   UNL     1      -7.217   9.178  63.804  1.00  0.00    -0.096 C  
HETATM   27  C   UNL     1      -8.203   8.025  63.706  1.00  0.00    -0.037 C  
HETATM   28  H   UNL     1      -8.614   5.237  65.194  1.00  0.00     0.000 HD 
HETATM   29  C   UNL     1      -7.739   6.837  64.542  1.00  0.00    -0.113 C  
HETATM   30  H   UNL     1      -9.020   6.859  62.297  1.00  0.00     0.000 HD 
HETATM   31  O   UNL     1      -8.404   7.579  62.359  1.00  0.00    -0.128 OA 
HETATM   32  O   UNL     1      -8.903   5.977  64.672  1.00  0.00     0.073 OA 
HETATM   33  C   UNL     1      -7.243   7.198  65.949  1.00  0.00    -0.074 C  
BRANCH  26  34
HETATM   34  C   UNL     1      -7.701  10.368  62.966  1.00  0.00    -0.118 C  
HETATM   35  H   UNL     1      -9.418  11.223  62.550  1.00  0.00     0.000 HD 
HETATM   36  O   UNL     1      -9.119  10.486  63.069  1.00  0.00    -0.213 OA 
ENDBRANCH  26  34
BRANCH  33  37
HETATM   37  O   UNL     1      -6.345   6.215  66.522  1.00  0.00    -0.041 OA 
BRANCH  37  38
HETATM   38  C   UNL     1      -6.859   5.194  67.396  1.00  0.00    -0.057 C  
HETATM   39  O   UNL     1      -7.091   5.748  68.677  1.00  0.00    -0.072 OA 
HETATM   40  C   UNL     1      -7.462   4.865  69.731  1.00  0.00    -0.056 C  
HETATM   41  C   UNL     1      -6.594   3.606  69.832  1.00  0.00    -0.033 C  
HETATM   42  H   UNL     1      -5.650   2.400  66.149  1.00  0.00     0.000 HD 
HETATM   43  O   UNL     1      -6.168   3.197  66.150  1.00  0.00    -0.024 OA 
HETATM   44  O   UNL     1      -7.182   2.683  70.756  1.00  0.00    -0.033 OA 
HETATM   45  C   UNL     1      -6.468   2.932  68.478  1.00  0.00    -0.029 C  
HETATM   46  H   UNL     1      -5.452   1.413  67.707  1.00  0.00     0.000 HD 
HETATM   47  O   UNL     1      -5.531   1.835  68.554  1.00  0.00    -0.016 OA 
HETATM   48  H   UNL     1      -6.644   1.902  70.819  1.00  0.00     0.000 HD 
HETATM   49  C   UNL     1      -6.019   3.900  67.395  1.00  0.00    -0.024 C  
BRANCH  40  50
HETATM   50  C   UNL     1      -7.327   5.672  71.038  1.00  0.00    -0.085 C  
HETATM   51  O   UNL     1      -6.461   5.036  71.982  1.00  0.00    -0.033 OA 
HETATM   52  H   UNL     1      -6.379   5.534  72.787  1.00  0.00     0.000 HD 
ENDBRANCH  40  50
ENDBRANCH  37  38
ENDBRANCH  33  37
ENDBRANCH  23  24
ENDBRANCH  18  23
TORSDOF 6
ENDMDL
MODEL      141
REMARK 921   NORMALIZED FREE ENERGY PREDICTED BY IDOCK:   -2.23 KCAL/MOL
REMARK 922        TOTAL FREE ENERGY PREDICTED BY IDOCK:   -5.00 KCAL/MOL
REMARK 923 INTER-LIGAND FREE ENERGY PREDICTED BY IDOCK:   -5.24 KCAL/MOL
REMARK 924 INTRA-LIGAND FREE ENERGY PREDICTED BY IDOCK:    0.24 KCAL/MOL
REMARK 927      BINDING AFFINITY PREDICTED BY RF-SCORE:    0.00 PKD
ROOT
HETATM    1  C   UNL     1      -9.111  15.033  65.750  1.00  0.00     0.127 C  
HETATM    2  C   UNL     1      -9.104  14.772  67.308  1.00  0.00    -0.214 C  
HETATM    3  C   UNL     1     -10.091  15.752  67.939  1.00  0.00    -0.230 C  
HETATM    4  C   UNL     1     -10.002  15.701  69.451  1.00  0.00    -0.279 C  
HETATM    5  C   UNL     1      -8.692  16.236  69.978  1.00  0.00     1.071 C  
HETATM    6  C   UNL     1      -7.382  15.921  69.181  1.00  0.00    -0.198 C  
HETATM    7  C   UNL     1      -7.634  15.172  67.765  1.00  0.00    -0.171 C  
HETATM    8  C   UNL     1      -6.357  15.141  70.052  1.00  0.00    -0.153 C  
HETATM    9  C   UNL     1      -6.691  17.338  69.198  1.00  0.00    -0.243 C  
HETATM   10  O   UNL     1      -6.418  17.915  70.258  1.00  0.00     0.156 OA 
HETATM   11  O   UNL     1      -6.395  17.952  68.052  1.00  0.00    -0.173 OA 
HETATM   12  C   UNL     1      -6.650  14.073  67.316  1.00  0.00     0.277 C  
HETATM   13  C   UNL     1      -7.086  12.655  67.617  1.00  0.00    -0.139 C  
HETATM   14  C   UNL     1      -8.493  12.176  67.233  1.00  0.00    -0.178 C  
HETATM   15  C   UNL     1      -8.714  11.509  65.860  1.00  0.00    -0.058 C  
HETATM   16  C   UNL     1      -9.833  10.503  66.157  1.00  0.00    -0.271 C  
HETATM   17  C   UNL     1     -10.406   9.768  65.195  1.00  0.00     0.334 C  
HETATM   18  C   UNL     1     -10.060  10.368  67.682  1.00  0.00    -0.188 C  
HETATM   19  C   UNL     1     -11.153  11.326  68.209  1.00  0.00    -0.297 C  
HETATM   20  C   UNL     1      -9.605  13.248  67.441  1.00  0.00    -0.223 C  
HETATM   21  C   UNL     1      -8.714  10.916  68.099  1.00  0.00    -0.133 C  
HETATM   22  C   UNL     1     -10.614  12.759  68.519  1.00  0.00    -0.270 C  
ENDROOT
BRANCH  18  23
HETATM   23  O   UNL     1     -10.264   8.986  67.972  1.00  0.00    -0.192 OA 
BRANCH  23  24
HETATM   24  C   UNL     1     -10.434   8.459  69.301  1.00  0.00    -0.215 C  
HETATM   25  O   UNL     1     -11.528   9.112  69.961  1.00  0.00    -0.158 OA 
HETATM   26  C   UNL     1     -11.874   8.478  71.207  1.00  0.00    -0.291 C  
HETATM   27  C   UNL     1     -10.727   8.676  72.185  1.00  0.00    -0.347 C  
HETATM   28  H   UNL     1      -7.574   8.219  72.129  1.00  0.00     0.000 HD 
HETATM   29  C   UNL     1      -9.443   8.047  71.654  1.00  0.00    -0.164 C  
HETATM   30  H   UNL     1     -10.283   8.248  74.090  1.00  0.00     0.000 HD 
HETATM   31  O   UNL     1     -11.000   8.124  73.479  1.00  0.00     0.059 OA 
HETATM   32  O   UNL     1      -8.374   8.611  72.460  1.00  0.00    -0.364 OA 
HETATM   33  C   UNL     1      -9.146   8.344  70.178  1.00  0.00    -0.150 C  
BRANCH  26  34
HETATM   34  C   UNL     1     -13.156   9.123  71.749  1.00  0.00    -0.392 C  
HETATM   35  H   UNL     1     -14.054  10.864  71.611  1.00  0.00     0.000 HD 
HETATM   36  O   UNL     1     -13.260  10.464  71.275  1.00  0.00    -0.374 OA 
ENDBRANCH  26  34
BRANCH  33  37
HETATM   37  O   UNL     1      -8.276   7.371  69.549  1.00  0.00    -0.127 OA 
BRANCH  37  38
HETATM   38  C   UNL     1      -8.107   7.372  68.120  1.00  0.00    -0.124 C  
HETATM   39  O   UNL     1      -9.103   6.559  67.531  1.00  0.00    -0.117 OA 
HETATM   40  C   UNL     1      -9.021   6.309  66.131  1.00  0.00    -0.153 C  
HETATM   41  C   UNL     1      -7.626   5.899  65.645  1.00  0.00    -0.084 C  
HETATM   42  H   UNL     1      -4.897   7.957  67.702  1.00  0.00     0.000 HD 
HETATM   43  O   UNL     1      -5.785   8.150  67.980  1.00  0.00    -0.033 OA 
HETATM   44  O   UNL     1      -7.590   5.899  64.214  1.00  0.00    -0.075 OA 
HETATM   45  C   UNL     1      -6.574   6.862  66.163  1.00  0.00    -0.052 C  
HETATM   46  H   UNL     1      -4.595   6.988  66.149  1.00  0.00     0.000 HD 
HETATM   47  O   UNL     1      -5.253   6.385  65.825  1.00  0.00    -0.013 OA 
HETATM   48  H   UNL     1      -6.725   5.645  63.912  1.00  0.00     0.000 HD 
HETATM   49  C   UNL     1      -6.666   7.058  67.668  1.00  0.00    -0.068 C  
BRANCH  40  50
HETATM   50  C   UNL     1     -10.009   5.163  65.838  1.00  0.00    -0.119 C  
HETATM   51  O   UNL     1     -10.891   4.912  66.936  1.00  0.00    -0.232 OA 
HETATM   52  H   UNL     1     -11.500   4.205  66.755  1.00  0.00     0.000 HD 
ENDBRANCH  40  50
ENDBRANCH  37  38
ENDBRANCH  33  37
ENDBRANCH  23  24
ENDBRANCH  18  23
TORSDOF 6
ENDMDL
MODEL      142
REMARK 921   NORMALIZED FREE ENERGY PREDICTED BY IDOCK:   -2.21 KCAL/MOL
REMARK 922        TOTAL FREE ENERGY PREDICTED BY IDOCK:   -4.96 KCAL/MOL
REMARK 923 INTER-LIGAND FREE ENERGY PREDICTED BY IDOCK:   -5.05 KCAL/MOL
REMARK 924 INTRA-LIGAND FREE ENERGY PREDICTED BY IDOCK:    0.09 KCAL/MOL
REMARK 927      BINDING AFFINITY PREDICTED BY RF-SCORE:    0.00 PKD
ROOT
HETATM    1  C   UNL     1      -5.902  16.711  66.699  1.00  0.00     0.045 C  
HETATM    2  C   UNL     1      -7.440  16.455  66.957  1.00  0.00    -0.250 C  
HETATM    3  C   UNL     1      -8.196  16.932  65.719  1.00  0.00     0.288 C  
HETATM    4  C   UNL     1      -9.691  16.901  65.961  1.00  0.00    -0.260 C  
HETATM    5  C   UNL     1     -10.140  17.921  66.980  1.00  0.00    -0.340 C  
HETATM    6  C   UNL     1      -9.227  18.186  68.223  1.00  0.00    -0.307 C  
HETATM    7  C   UNL     1      -7.799  17.419  68.170  1.00  0.00    -0.234 C  
HETATM    8  C   UNL     1      -9.973  17.886  69.555  1.00  0.00     0.167 C  
HETATM    9  C   UNL     1      -9.262  19.762  68.272  1.00  0.00    -0.311 C  
HETATM   10  O   UNL     1     -10.324  20.385  68.382  1.00  0.00    -0.290 OA 
HETATM   11  O   UNL     1      -8.128  20.458  68.182  1.00  0.00    -0.126 OA 
HETATM   12  C   UNL     1      -7.217  16.831  69.472  1.00  0.00     0.017 C  
HETATM   13  C   UNL     1      -7.480  15.355  69.685  1.00  0.00    -0.170 C  
HETATM   14  C   UNL     1      -7.184  14.344  68.569  1.00  0.00    -0.119 C  
HETATM   15  C   UNL     1      -5.801  13.663  68.513  1.00  0.00    -0.092 C  
HETATM   16  C   UNL     1      -6.134  12.282  67.938  1.00  0.00    -0.082 C  
HETATM   17  C   UNL     1      -5.184  11.389  67.629  1.00  0.00    -0.046 C  
HETATM   18  C   UNL     1      -7.663  12.044  67.929  1.00  0.00    -0.134 C  
HETATM   19  C   UNL     1      -8.323  12.458  66.594  1.00  0.00     0.012 C  
HETATM   20  C   UNL     1      -7.534  14.858  67.139  1.00  0.00    -0.111 C  
HETATM   21  C   UNL     1      -8.000  13.092  68.965  1.00  0.00     0.279 C  
HETATM   22  C   UNL     1      -8.662  13.982  66.524  1.00  0.00     0.048 C  
ENDROOT
BRANCH  18  23
HETATM   23  O   UNL     1      -7.898  10.697  68.337  1.00  0.00    -0.103 OA 
BRANCH  23  24
HETATM   24  C   UNL     1      -8.968  10.295  69.212  1.00  0.00    -0.179 C  
HETATM   25  O   UNL     1      -8.484   9.375  70.201  1.00  0.00    -0.165 OA 
HETATM   26  C   UNL     1      -9.459   9.107  71.225  1.00  0.00    -0.243 C  
HETATM   27  C   UNL     1     -10.619   8.347  70.601  1.00  0.00    -0.208 C  
HETATM   28  H   UNL     1     -12.501   8.739  68.060  1.00  0.00     0.000 HD 
HETATM   29  C   UNL     1     -11.278   9.169  69.498  1.00  0.00     0.040 C  
HETATM   30  H   UNL     1     -12.348   7.510  71.167  1.00  0.00     0.000 HD 
HETATM   31  O   UNL     1     -11.624   7.985  71.557  1.00  0.00    -0.260 OA 
HETATM   32  O   UNL     1     -12.091   8.227  68.747  1.00  0.00     2.166 OA 
HETATM   33  C   UNL     1     -10.298   9.844  68.528  1.00  0.00    -0.196 C  
BRANCH  26  34
HETATM   34  C   UNL     1      -8.801   8.265  72.326  1.00  0.00    -0.209 C  
HETATM   35  H   UNL     1      -6.989   7.989  73.029  1.00  0.00     0.000 HD 
HETATM   36  O   UNL     1      -7.396   8.510  72.347  1.00  0.00    -0.195 OA 
ENDBRANCH  26  34
BRANCH  33  37
HETATM   37  O   UNL     1     -10.851  10.997  67.847  1.00  0.00    -0.201 OA 
BRANCH  37  38
HETATM   38  C   UNL     1     -10.995  10.987  66.415  1.00  0.00    -0.137 C  
HETATM   39  O   UNL     1      -9.941  10.236  65.845  1.00  0.00    -0.229 OA 
HETATM   40  C   UNL     1      -9.818  10.227  64.425  1.00  0.00    -0.305 C  
HETATM   41  C   UNL     1      -9.913  11.613  63.776  1.00  0.00    -0.349 C  
HETATM   42  H   UNL     1     -12.614  13.775  65.762  1.00  0.00     0.000 HD 
HETATM   43  O   UNL     1     -12.491  12.911  66.138  1.00  0.00    -0.485 OA 
HETATM   44  O   UNL     1     -10.013  11.478  62.354  1.00  0.00    -0.442 OA 
HETATM   45  C   UNL     1     -11.132  12.360  64.286  1.00  0.00    -0.349 C  
HETATM   46  H   UNL     1     -11.893  14.182  64.102  1.00  0.00     0.000 HD 
HETATM   47  O   UNL     1     -11.130  13.714  63.783  1.00  0.00    -0.097 OA 
HETATM   48  H   UNL     1     -10.072  12.337  61.952  1.00  0.00     0.000 HD 
HETATM   49  C   UNL     1     -11.194  12.390  65.805  1.00  0.00    -0.333 C  
BRANCH  40  50
HETATM   50  C   UNL     1      -8.433   9.624  64.116  1.00  0.00    -0.180 C  
HETATM   51  O   UNL     1      -8.519   8.273  63.656  1.00  0.00    -0.383 OA 
HETATM   52  H   UNL     1      -7.666   7.902  63.466  1.00  0.00     0.000 HD 
ENDBRANCH  40  50
ENDBRANCH  37  38
ENDBRANCH  33  37
ENDBRANCH  23  24
ENDBRANCH  18  23
TORSDOF 6
ENDMDL
MODEL      143
REMARK 921   NORMALIZED FREE ENERGY PREDICTED BY IDOCK:   -2.15 KCAL/MOL
REMARK 922        TOTAL FREE ENERGY PREDICTED BY IDOCK:   -4.89 KCAL/MOL
REMARK 923 INTER-LIGAND FREE ENERGY PREDICTED BY IDOCK:   -5.06 KCAL/MOL
REMARK 924 INTRA-LIGAND FREE ENERGY PREDICTED BY IDOCK:    0.17 KCAL/MOL
REMARK 927      BINDING AFFINITY PREDICTED BY RF-SCORE:    0.00 PKD
ROOT
HETATM    1  C   UNL     1      -8.527  15.005  66.218  1.00  0.00     0.196 C  
HETATM    2  C   UNL     1      -9.571  13.964  66.785  1.00  0.00    -0.288 C  
HETATM    3  C   UNL     1     -10.857  14.120  65.976  1.00  0.00    -0.297 C  
HETATM    4  C   UNL     1     -11.973  13.294  66.581  1.00  0.00    -0.446 C  
HETATM    5  C   UNL     1     -12.419  13.810  67.929  1.00  0.00     0.236 C  
HETATM    6  C   UNL     1     -11.334  14.363  68.912  1.00  0.00    -0.300 C  
HETATM    7  C   UNL     1      -9.847  14.456  68.271  1.00  0.00    -0.229 C  
HETATM    8  C   UNL     1     -11.318  13.570  70.250  1.00  0.00     0.131 C  
HETATM    9  C   UNL     1     -12.048  15.677  69.414  1.00  0.00    -0.266 C  
HETATM   10  O   UNL     1     -13.152  15.643  69.970  1.00  0.00    -0.129 OA 
HETATM   11  O   UNL     1     -11.468  16.864  69.233  1.00  0.00     0.099 OA 
HETATM   12  C   UNL     1      -8.631  14.107  69.153  1.00  0.00     0.217 C  
HETATM   13  C   UNL     1      -8.107  12.695  68.998  1.00  0.00     0.343 C  
HETATM   14  C   UNL     1      -7.826  12.119  67.604  1.00  0.00    -0.153 C  
HETATM   15  C   UNL     1      -6.415  12.262  66.998  1.00  0.00    -0.051 C  
HETATM   16  C   UNL     1      -6.282  10.984  66.161  1.00  0.00    -0.104 C  
HETATM   17  C   UNL     1      -5.222  10.753  65.374  1.00  0.00    -0.142 C  
HETATM   18  C   UNL     1      -7.426   9.993  66.485  1.00  0.00    -0.105 C  
HETATM   19  C   UNL     1      -8.641  10.158  65.544  1.00  0.00    -0.162 C  
HETATM   20  C   UNL     1      -8.868  12.539  66.523  1.00  0.00    -0.090 C  
HETATM   21  C   UNL     1      -7.787  10.590  67.826  1.00  0.00    -0.104 C  
HETATM   22  C   UNL     1      -9.623  11.284  66.001  1.00  0.00    -0.245 C  
ENDROOT
BRANCH  18  23
HETATM   23  O   UNL     1      -6.867   8.683  66.539  1.00  0.00    -0.069 OA 
BRANCH  23  24
HETATM   24  C   UNL     1      -7.643   7.481  66.697  1.00  0.00    -0.097 C  
HETATM   25  O   UNL     1      -7.574   6.682  65.507  1.00  0.00    -0.079 OA 
HETATM   26  C   UNL     1      -8.155   5.377  65.687  1.00  0.00    -0.115 C  
HETATM   27  C   UNL     1      -9.653   5.540  65.895  1.00  0.00    -0.063 C  
HETATM   28  H   UNL     1     -11.517   7.299  67.788  1.00  0.00     0.000 HD 
HETATM   29  C   UNL     1      -9.943   6.382  67.134  1.00  0.00    -0.155 C  
HETATM   30  H   UNL     1     -11.269   4.387  66.162  1.00  0.00     0.000 HD 
HETATM   31  O   UNL     1     -10.334   4.286  66.032  1.00  0.00    -0.209 OA 
HETATM   32  O   UNL     1     -11.337   6.774  67.016  1.00  0.00    -0.337 OA 
HETATM   33  C   UNL     1      -9.090   7.652  67.259  1.00  0.00    -0.127 C  
BRANCH  26  34
HETATM   34  C   UNL     1      -7.879   4.537  64.434  1.00  0.00    -0.086 C  
HETATM   35  H   UNL     1      -6.944   2.864  64.008  1.00  0.00     0.000 HD 
HETATM   36  O   UNL     1      -7.115   3.384  64.784  1.00  0.00    -0.058 OA 
ENDBRANCH  26  34
BRANCH  33  37
HETATM   37  O   UNL     1      -8.975   8.146  68.617  1.00  0.00    -0.137 OA 
BRANCH  37  38
HETATM   38  C   UNL     1      -8.802   7.222  69.707  1.00  0.00    -0.142 C  
HETATM   39  O   UNL     1      -8.414   5.962  69.194  1.00  0.00    -0.111 OA 
HETATM   40  C   UNL     1      -8.335   4.867  70.101  1.00  0.00    -0.080 C  
HETATM   41  C   UNL     1      -9.548   4.727  71.028  1.00  0.00    -0.175 C  
HETATM   42  H   UNL     1     -10.809   8.372  72.046  1.00  0.00     0.000 HD 
HETATM   43  O   UNL     1     -10.071   8.396  71.447  1.00  0.00    -0.189 OA 
HETATM   44  O   UNL     1      -9.274   3.757  72.045  1.00  0.00    -0.112 OA 
HETATM   45  C   UNL     1      -9.872   6.054  71.689  1.00  0.00    -0.170 C  
HETATM   46  H   UNL     1     -11.304   6.778  72.855  1.00  0.00     0.000 HD 
HETATM   47  O   UNL     1     -11.101   5.947  72.441  1.00  0.00    -0.250 OA 
HETATM   48  H   UNL     1     -10.026   3.670  72.620  1.00  0.00     0.000 HD 
HETATM   49  C   UNL     1     -10.000   7.183  70.679  1.00  0.00    -0.190 C  
BRANCH  40  50
HETATM   50  C   UNL     1      -8.218   3.597  69.236  1.00  0.00    -0.056 C  
HETATM   51  O   UNL     1      -9.472   2.929  69.077  1.00  0.00    -0.164 OA 
HETATM   52  H   UNL     1      -9.400   2.147  68.543  1.00  0.00     0.000 HD 
ENDBRANCH  40  50
ENDBRANCH  37  38
ENDBRANCH  33  37
ENDBRANCH  23  24
ENDBRANCH  18  23
TORSDOF 6
ENDMDL
MODEL      144
REMARK 921   NORMALIZED FREE ENERGY PREDICTED BY IDOCK:   -2.09 KCAL/MOL
REMARK 922        TOTAL FREE ENERGY PREDICTED BY IDOCK:   -4.80 KCAL/MOL
REMARK 923 INTER-LIGAND FREE ENERGY PREDICTED BY IDOCK:   -5.65 KCAL/MOL
REMARK 924 INTRA-LIGAND FREE ENERGY PREDICTED BY IDOCK:    0.84 KCAL/MOL
REMARK 927      BINDING AFFINITY PREDICTED BY RF-SCORE:    0.00 PKD
ROOT
HETATM    1  C   UNL     1     -10.534  13.283  69.168  1.00  0.00     0.054 C  
HETATM    2  C   UNL     1     -10.009  12.641  67.824  1.00  0.00    -0.218 C  
HETATM    3  C   UNL     1      -9.194  13.707  67.096  1.00  0.00    -0.244 C  
HETATM    4  C   UNL     1      -8.816  13.235  65.706  1.00  0.00     0.860 C  
HETATM    5  C   UNL     1     -10.008  13.110  64.787  1.00  0.00    -0.149 C  
HETATM    6  C   UNL     1     -11.352  12.569  65.377  1.00  0.00    -0.363 C  
HETATM    7  C   UNL     1     -11.330  12.356  66.984  1.00  0.00    -0.388 C  
HETATM    8  C   UNL     1     -11.817  11.277  64.648  1.00  0.00     0.360 C  
HETATM    9  C   UNL     1     -12.374  13.590  64.742  1.00  0.00    -0.392 C  
HETATM   10  O   UNL     1     -12.471  13.733  63.518  1.00  0.00    -0.780 OA 
HETATM   11  O   UNL     1     -13.152  14.334  65.529  1.00  0.00    -0.639 OA 
HETATM   12  C   UNL     1     -12.058  11.136  67.587  1.00  0.00     0.478 C  
HETATM   13  C   UNL     1     -11.176   9.941  67.880  1.00  0.00    -0.108 C  
HETATM   14  C   UNL     1      -9.870  10.113  68.667  1.00  0.00    -0.170 C  
HETATM   15  C   UNL     1      -9.885   9.951  70.201  1.00  0.00    -0.272 C  
HETATM   16  C   UNL     1      -8.496   9.370  70.487  1.00  0.00    -0.251 C  
HETATM   17  C   UNL     1      -8.050   9.166  71.734  1.00  0.00     0.247 C  
HETATM   18  C   UNL     1      -7.802   8.932  69.175  1.00  0.00    -0.093 C  
HETATM   19  C   UNL     1      -6.914  10.044  68.570  1.00  0.00    -0.066 C  
HETATM   20  C   UNL     1      -9.089  11.417  68.321  1.00  0.00    -0.179 C  
HETATM   21  C   UNL     1      -9.062   8.835  68.346  1.00  0.00    -0.141 C  
HETATM   22  C   UNL     1      -7.713  11.057  67.690  1.00  0.00    -0.112 C  
ENDROOT
BRANCH  18  23
HETATM   23  O   UNL     1      -7.146   7.690  69.421  1.00  0.00    -0.071 OA 
BRANCH  23  24
HETATM   24  C   UNL     1      -7.824   6.486  69.826  1.00  0.00    -0.115 C  
HETATM   25  O   UNL     1      -8.853   6.790  70.779  1.00  0.00    -0.148 OA 
HETATM   26  C   UNL     1      -9.698   5.657  71.055  1.00  0.00    -0.173 C  
HETATM   27  C   UNL     1      -8.872   4.604  71.777  1.00  0.00    -0.122 C  
HETATM   28  H   UNL     1      -6.070   3.167  71.288  1.00  0.00     0.000 HD 
HETATM   29  C   UNL     1      -7.699   4.145  70.916  1.00  0.00    -0.055 C  
HETATM   30  H   UNL     1      -9.126   2.794  72.597  1.00  0.00     0.000 HD 
HETATM   31  O   UNL     1      -9.641   3.451  72.146  1.00  0.00    -0.120 OA 
HETATM   32  O   UNL     1      -6.801   3.452  71.825  1.00  0.00    -0.025 OA 
HETATM   33  C   UNL     1      -6.921   5.279  70.236  1.00  0.00    -0.056 C  
BRANCH  26  34
HETATM   34  C   UNL     1     -10.867   6.115  71.936  1.00  0.00    -0.249 C  
HETATM   35  H   UNL     1     -11.119   7.298  73.481  1.00  0.00     0.000 HD 
HETATM   36  O   UNL     1     -10.395   7.015  72.936  1.00  0.00    -0.203 OA 
ENDBRANCH  26  34
BRANCH  33  37
HETATM   37  O   UNL     1      -6.192   4.860  69.056  1.00  0.00    -0.028 OA 
BRANCH  37  38
HETATM   38  C   UNL     1      -6.899   4.307  67.930  1.00  0.00    -0.052 C  
HETATM   39  O   UNL     1      -7.667   5.324  67.317  1.00  0.00    -0.094 OA 
HETATM   40  C   UNL     1      -8.558   4.949  66.270  1.00  0.00    -0.115 C  
HETATM   41  C   UNL     1      -9.427   3.727  66.590  1.00  0.00    -0.192 C  
HETATM   42  H   UNL     1      -7.258   1.131  68.704  1.00  0.00     0.000 HD 
HETATM   43  O   UNL     1      -6.778   1.924  68.498  1.00  0.00    -0.029 OA 
HETATM   44  O   UNL     1     -10.108   3.292  65.409  1.00  0.00    -0.388 OA 
HETATM   45  C   UNL     1      -8.574   2.586  67.114  1.00  0.00    -0.109 C  
HETATM   46  H   UNL     1      -8.883   0.782  67.879  1.00  0.00     0.000 HD 
HETATM   47  O   UNL     1      -9.416   1.497  67.551  1.00  0.00    -0.101 OA 
HETATM   48  H   UNL     1     -10.647   2.535  65.607  1.00  0.00     0.000 HD 
HETATM   49  C   UNL     1      -7.679   3.019  68.264  1.00  0.00    -0.055 C  
BRANCH  40  50
HETATM   50  C   UNL     1      -9.474   6.164  66.027  1.00  0.00    -0.010 C  
HETATM   51  O   UNL     1     -10.823   5.919  66.434  1.00  0.00    -0.573 OA 
HETATM   52  H   UNL     1     -11.387   6.668  66.283  1.00  0.00     0.000 HD 
ENDBRANCH  40  50
ENDBRANCH  37  38
ENDBRANCH  33  37
ENDBRANCH  23  24
ENDBRANCH  18  23
TORSDOF 6
ENDMDL
MODEL      145
REMARK 921   NORMALIZED FREE ENERGY PREDICTED BY IDOCK:   -2.01 KCAL/MOL
REMARK 922        TOTAL FREE ENERGY PREDICTED BY IDOCK:   -4.70 KCAL/MOL
REMARK 923 INTER-LIGAND FREE ENERGY PREDICTED BY IDOCK:   -6.51 KCAL/MOL
REMARK 924 INTRA-LIGAND FREE ENERGY PREDICTED BY IDOCK:    1.81 KCAL/MOL
REMARK 927      BINDING AFFINITY PREDICTED BY RF-SCORE:    0.00 PKD
ROOT
HETATM    1  C   UNL     1     -12.771  13.419  65.924  1.00  0.00    -0.317 C  
HETATM    2  C   UNL     1     -11.774  14.071  66.961  1.00  0.00    -0.425 C  
HETATM    3  C   UNL     1     -12.574  15.066  67.799  1.00  0.00     0.938 C  
HETATM    4  C   UNL     1     -11.653  15.877  68.689  1.00  0.00    -0.383 C  
HETATM    5  C   UNL     1     -10.761  16.814  67.908  1.00  0.00    -0.347 C  
HETATM    6  C   UNL     1     -10.174  16.321  66.544  1.00  0.00    -0.307 C  
HETATM    7  C   UNL     1     -10.747  14.884  66.058  1.00  0.00    -0.326 C  
HETATM    8  C   UNL     1      -8.619  16.329  66.555  1.00  0.00    -0.332 C  
HETATM    9  C   UNL     1     -10.420  17.597  65.651  1.00  0.00    -0.144 C  
HETATM   10  O   UNL     1      -9.943  18.699  65.948  1.00  0.00    -0.517 OA 
HETATM   11  O   UNL     1     -11.166  17.509  64.549  1.00  0.00    -0.926 OA 
HETATM   12  C   UNL     1      -9.788  13.892  65.368  1.00  0.00    -0.193 C  
HETATM   13  C   UNL     1      -9.196  12.831  66.273  1.00  0.00    -0.096 C  
HETATM   14  C   UNL     1     -10.102  12.006  67.197  1.00  0.00    -0.217 C  
HETATM   15  C   UNL     1     -10.671  10.664  66.693  1.00  0.00    -0.246 C  
HETATM   16  C   UNL     1     -10.743   9.830  67.978  1.00  0.00    -0.298 C  
HETATM   17  C   UNL     1     -11.285   8.605  68.006  1.00  0.00     0.529 C  
HETATM   18  C   UNL     1      -9.982  10.530  69.130  1.00  0.00    -0.220 C  
HETATM   19  C   UNL     1     -10.899  11.433  69.988  1.00  0.00     0.226 C  
HETATM   20  C   UNL     1     -11.265  12.821  67.838  1.00  0.00    -0.315 C  
HETATM   21  C   UNL     1      -9.135  11.422  68.252  1.00  0.00    -0.179 C  
HETATM   22  C   UNL     1     -11.093  12.861  69.384  1.00  0.00    -0.131 C  
ENDROOT
BRANCH  18  23
HETATM   23  O   UNL     1      -9.262   9.531  69.848  1.00  0.00    -0.187 OA 
BRANCH  23  24
HETATM   24  C   UNL     1      -8.899   8.249  69.303  1.00  0.00    -0.143 C  
HETATM   25  O   UNL     1      -9.563   7.197  70.019  1.00  0.00    -0.165 OA 
HETATM   26  C   UNL     1      -9.404   5.915  69.382  1.00  0.00    -0.130 C  
HETATM   27  C   UNL     1      -7.941   5.510  69.472  1.00  0.00    -0.094 C  
HETATM   28  H   UNL     1      -5.146   6.879  68.786  1.00  0.00     0.000 HD 
HETATM   29  C   UNL     1      -7.049   6.525  68.763  1.00  0.00    -0.082 C  
HETATM   30  H   UNL     1      -6.774   3.963  68.967  1.00  0.00     0.000 HD 
HETATM   31  O   UNL     1      -7.687   4.216  68.911  1.00  0.00    -0.055 OA 
HETATM   32  O   UNL     1      -5.701   6.246  69.227  1.00  0.00    -0.018 OA 
HETATM   33  C   UNL     1      -7.376   7.992  69.073  1.00  0.00    -0.084 C  
BRANCH  26  34
HETATM   34  C   UNL     1     -10.286   4.891  70.107  1.00  0.00    -0.183 C  
HETATM   35  H   UNL     1     -10.996   4.639  71.920  1.00  0.00     0.000 HD 
HETATM   36  O   UNL     1     -10.450   5.273  71.471  1.00  0.00    -0.220 OA 
ENDBRANCH  26  34
BRANCH  33  37
HETATM   37  O   UNL     1      -6.927   8.918  68.053  1.00  0.00    -0.075 OA 
BRANCH  37  38
HETATM   38  C   UNL     1      -6.595   8.436  66.738  1.00  0.00    -0.057 C  
HETATM   39  O   UNL     1      -5.942   9.462  66.015  1.00  0.00    -0.059 OA 
HETATM   40  C   UNL     1      -5.662   9.235  64.637  1.00  0.00    -0.064 C  
HETATM   41  C   UNL     1      -6.845   8.674  63.839  1.00  0.00    -0.086 C  
HETATM   42  H   UNL     1      -8.856   6.120  66.150  1.00  0.00     0.000 HD 
HETATM   43  O   UNL     1      -8.124   6.523  66.603  1.00  0.00    -0.107 OA 
HETATM   44  O   UNL     1      -6.403   8.264  62.540  1.00  0.00    -0.086 OA 
HETATM   45  C   UNL     1      -7.453   7.479  64.550  1.00  0.00    -0.098 C  
HETATM   46  H   UNL     1      -9.033   6.305  64.313  1.00  0.00     0.000 HD 
HETATM   47  O   UNL     1      -8.652   7.052  63.868  1.00  0.00     0.250 OA 
HETATM   48  H   UNL     1      -7.136   7.916  62.044  1.00  0.00     0.000 HD 
HETATM   49  C   UNL     1      -7.784   7.783  66.003  1.00  0.00    -0.093 C  
BRANCH  40  50
HETATM   50  C   UNL     1      -5.264  10.602  64.047  1.00  0.00    -0.148 C  
HETATM   51  O   UNL     1      -5.152  11.615  65.049  1.00  0.00    -0.299 OA 
HETATM   52  H   UNL     1      -4.906  12.457  64.685  1.00  0.00     0.000 HD 
ENDBRANCH  40  50
ENDBRANCH  37  38
ENDBRANCH  33  37
ENDBRANCH  23  24
ENDBRANCH  18  23
TORSDOF 6
ENDMDL
MODEL      146
REMARK 921   NORMALIZED FREE ENERGY PREDICTED BY IDOCK:   -1.86 KCAL/MOL
REMARK 922        TOTAL FREE ENERGY PREDICTED BY IDOCK:   -4.50 KCAL/MOL
REMARK 923 INTER-LIGAND FREE ENERGY PREDICTED BY IDOCK:   -4.94 KCAL/MOL
REMARK 924 INTRA-LIGAND FREE ENERGY PREDICTED BY IDOCK:    0.44 KCAL/MOL
REMARK 927      BINDING AFFINITY PREDICTED BY RF-SCORE:    0.00 PKD
ROOT
HETATM    1  C   UNL     1      -7.994   6.631  73.979  1.00  0.00    -0.122 C  
HETATM    2  C   UNL     1      -8.964   6.178  72.818  1.00  0.00    -0.126 C  
HETATM    3  C   UNL     1     -10.394   6.407  73.302  1.00  0.00    -0.251 C  
HETATM    4  C   UNL     1     -11.391   5.818  72.324  1.00  0.00    -0.334 C  
HETATM    5  C   UNL     1     -11.344   4.309  72.279  1.00  0.00     0.549 C  
HETATM    6  C   UNL     1      -9.952   3.602  72.383  1.00  0.00    -0.235 C  
HETATM    7  C   UNL     1      -8.720   4.611  72.693  1.00  0.00    -0.117 C  
HETATM    8  C   UNL     1      -9.658   2.731  71.128  1.00  0.00    -0.224 C  
HETATM    9  C   UNL     1     -10.291   2.452  73.407  1.00  0.00    -0.124 C  
HETATM   10  O   UNL     1     -11.177   1.620  73.177  1.00  0.00    -0.159 OA 
HETATM   11  O   UNL     1      -9.626   2.365  74.559  1.00  0.00    -0.084 OA 
HETATM   12  C   UNL     1      -7.361   4.366  72.005  1.00  0.00    -0.066 C  
HETATM   13  C   UNL     1      -7.113   5.187  70.757  1.00  0.00    -0.060 C  
HETATM   14  C   UNL     1      -7.339   6.705  70.769  1.00  0.00    -0.079 C  
HETATM   15  C   UNL     1      -6.162   7.640  71.113  1.00  0.00    -0.035 C  
HETATM   16  C   UNL     1      -6.464   8.880  70.264  1.00  0.00    -0.041 C  
HETATM   17  C   UNL     1      -5.726   9.996  70.340  1.00  0.00    -0.064 C  
HETATM   18  C   UNL     1      -7.592   8.588  69.245  1.00  0.00    -0.095 C  
HETATM   19  C   UNL     1      -8.993   8.953  69.787  1.00  0.00    -0.149 C  
HETATM   20  C   UNL     1      -8.580   7.155  71.598  1.00  0.00    -0.114 C  
HETATM   21  C   UNL     1      -7.455   7.083  69.274  1.00  0.00    -0.094 C  
HETATM   22  C   UNL     1      -9.627   7.823  70.661  1.00  0.00    -0.166 C  
ENDROOT
BRANCH  18  23
HETATM   23  O   UNL     1      -7.235   9.201  68.009  1.00  0.00    -0.078 OA 
BRANCH  23  24
HETATM   24  C   UNL     1      -7.599   8.682  66.716  1.00  0.00    -0.086 C  
HETATM   25  O   UNL     1      -8.177   7.375  66.849  1.00  0.00    -0.117 OA 
HETATM   26  C   UNL     1      -8.750   6.901  65.616  1.00  0.00    -0.072 C  
HETATM   27  C   UNL     1      -7.626   6.670  64.618  1.00  0.00    -0.105 C  
HETATM   28  H   UNL     1      -5.157   8.364  63.527  1.00  0.00     0.000 HD 
HETATM   29  C   UNL     1      -6.868   7.965  64.342  1.00  0.00    -0.063 C  
HETATM   30  H   UNL     1      -7.389   5.999  62.746  1.00  0.00     0.000 HD 
HETATM   31  O   UNL     1      -8.091   6.144  63.369  1.00  0.00    -0.118 OA 
HETATM   32  O   UNL     1      -5.630   7.558  63.699  1.00  0.00    -0.040 OA 
HETATM   33  C   UNL     1      -6.518   8.783  65.593  1.00  0.00    -0.059 C  
BRANCH  26  34
HETATM   34  C   UNL     1      -9.497   5.590  65.890  1.00  0.00    -0.096 C  
HETATM   35  H   UNL     1      -9.214   3.979  66.975  1.00  0.00     0.000 HD 
HETATM   36  O   UNL     1      -8.751   4.791  66.805  1.00  0.00    -0.109 OA 
ENDBRANCH  26  34
BRANCH  33  37
HETATM   37  O   UNL     1      -6.295  10.189  65.327  1.00  0.00    -0.103 OA 
BRANCH  37  38
HETATM   38  C   UNL     1      -7.415  11.087  65.211  1.00  0.00     0.334 C  
HETATM   39  O   UNL     1      -7.881  11.421  66.504  1.00  0.00    -0.153 OA 
HETATM   40  C   UNL     1      -9.080  12.184  66.607  1.00  0.00    -0.206 C  
HETATM   41  C   UNL     1     -10.228  11.674  65.729  1.00  0.00    -0.240 C  
HETATM   42  H   UNL     1      -8.716  10.356  62.280  1.00  0.00     0.000 HD 
HETATM   43  O   UNL     1      -8.045  10.661  62.879  1.00  0.00    -0.151 OA 
HETATM   44  O   UNL     1     -11.295  12.628  65.721  1.00  0.00    -0.305 OA 
HETATM   45  C   UNL     1      -9.755  11.454  64.303  1.00  0.00    -0.230 C  
HETATM   46  H   UNL     1     -10.506  10.697  62.631  1.00  0.00     0.000 HD 
HETATM   47  O   UNL     1     -10.802  10.835  63.523  1.00  0.00    -0.073 OA 
HETATM   48  H   UNL     1     -12.008  12.312  65.177  1.00  0.00     0.000 HD 
HETATM   49  C   UNL     1      -8.505  10.591  64.239  1.00  0.00    -0.128 C  
BRANCH  40  50
HETATM   50  C   UNL     1      -9.511  12.115  68.085  1.00  0.00    -0.205 C  
HETATM   51  O   UNL     1      -8.416  12.317  68.981  1.00  0.00    -0.345 OA 
HETATM   52  H   UNL     1      -8.682  12.274  69.892  1.00  0.00     0.000 HD 
ENDBRANCH  40  50
ENDBRANCH  37  38
ENDBRANCH  33  37
ENDBRANCH  23  24
ENDBRANCH  18  23
TORSDOF 6
ENDMDL
MODEL      147
REMARK 921   NORMALIZED FREE ENERGY PREDICTED BY IDOCK:   -1.82 KCAL/MOL
REMARK 922        TOTAL FREE ENERGY PREDICTED BY IDOCK:   -4.45 KCAL/MOL
REMARK 923 INTER-LIGAND FREE ENERGY PREDICTED BY IDOCK:   -5.62 KCAL/MOL
REMARK 924 INTRA-LIGAND FREE ENERGY PREDICTED BY IDOCK:    1.17 KCAL/MOL
REMARK 927      BINDING AFFINITY PREDICTED BY RF-SCORE:    0.00 PKD
ROOT
HETATM    1  C   UNL     1     -12.615  13.582  66.241  1.00  0.00    -0.298 C  
HETATM    2  C   UNL     1     -11.250  14.055  66.881  1.00  0.00    -0.323 C  
HETATM    3  C   UNL     1     -11.589  14.881  68.119  1.00  0.00    -0.356 C  
HETATM    4  C   UNL     1     -10.343  15.535  68.683  1.00  0.00    -0.219 C  
HETATM    5  C   UNL     1      -9.780  16.602  67.773  1.00  0.00    -0.240 C  
HETATM    6  C   UNL     1      -9.814  16.359  66.228  1.00  0.00    -0.336 C  
HETATM    7  C   UNL     1     -10.619  15.021  65.787  1.00  0.00    -0.351 C  
HETATM    8  C   UNL     1      -8.386  16.380  65.614  1.00  0.00     0.779 C  
HETATM    9  C   UNL     1     -10.317  17.768  65.729  1.00  0.00    -0.186 C  
HETATM   10  O   UNL     1      -9.695  18.806  65.984  1.00  0.00    -0.477 OA 
HETATM   11  O   UNL     1     -11.443  17.864  65.022  1.00  0.00     0.014 OA 
HETATM   12  C   UNL     1     -10.076  14.174  64.618  1.00  0.00    -0.047 C  
HETATM   13  C   UNL     1      -9.239  12.978  65.023  1.00  0.00     0.840 C  
HETATM   14  C   UNL     1      -9.750  11.996  66.085  1.00  0.00    -0.254 C  
HETATM   15  C   UNL     1     -10.553  10.756  65.642  1.00  0.00    -0.199 C  
HETATM   16  C   UNL     1     -10.159   9.712  66.693  1.00  0.00    -0.307 C  
HETATM   17  C   UNL     1     -10.719   8.496  66.737  1.00  0.00    -0.081 C  
HETATM   18  C   UNL     1      -8.962  10.209  67.540  1.00  0.00    -0.131 C  
HETATM   19  C   UNL     1      -9.406  10.941  68.827  1.00  0.00    -0.190 C  
HETATM   20  C   UNL     1     -10.511  12.676  67.263  1.00  0.00    -0.237 C  
HETATM   21  C   UNL     1      -8.481  11.248  66.552  1.00  0.00    -0.171 C  
HETATM   22  C   UNL     1      -9.737  12.449  68.593  1.00  0.00    -0.064 C  
ENDROOT
BRANCH  18  23
HETATM   23  O   UNL     1      -8.078   9.108  67.735  1.00  0.00    -0.104 OA 
BRANCH  23  24
HETATM   24  C   UNL     1      -7.639   8.229  66.682  1.00  0.00    -0.090 C  
HETATM   25  O   UNL     1      -8.247   8.602  65.436  1.00  0.00    -0.119 OA 
HETATM   26  C   UNL     1      -7.682   7.894  64.317  1.00  0.00    -0.128 C  
HETATM   27  C   UNL     1      -8.049   6.423  64.441  1.00  0.00    -0.076 C  
HETATM   28  H   UNL     1      -7.855   4.206  66.722  1.00  0.00     0.000 HD 
HETATM   29  C   UNL     1      -7.491   5.829  65.731  1.00  0.00    -0.077 C  
HETATM   30  H   UNL     1      -7.805   4.719  63.417  1.00  0.00     0.000 HD 
HETATM   31  O   UNL     1      -7.576   5.637  63.340  1.00  0.00    -0.064 OA 
HETATM   32  O   UNL     1      -8.203   4.576  65.918  1.00  0.00    -0.108 OA 
HETATM   33  C   UNL     1      -7.700   6.697  66.979  1.00  0.00    -0.103 C  
BRANCH  26  34
HETATM   34  C   UNL     1      -8.257   8.479  63.021  1.00  0.00    -0.165 C  
HETATM   35  H   UNL     1      -7.640   9.673  61.590  1.00  0.00     0.000 HD 
HETATM   36  O   UNL     1      -7.284   9.311  62.393  1.00  0.00    -0.101 OA 
ENDBRANCH  26  34
BRANCH  33  37
HETATM   37  O   UNL     1      -6.758   6.422  68.046  1.00  0.00    -0.062 OA 
BRANCH  37  38
HETATM   38  C   UNL     1      -7.125   6.677  69.414  1.00  0.00    -0.080 C  
HETATM   39  O   UNL     1      -8.505   6.417  69.584  1.00  0.00    -0.127 OA 
HETATM   40  C   UNL     1      -9.100   6.749  70.835  1.00  0.00    -0.153 C  
HETATM   41  C   UNL     1      -8.741   8.148  71.350  1.00  0.00    -0.145 C  
HETATM   42  H   UNL     1      -4.942   8.923  70.416  1.00  0.00     0.000 HD 
HETATM   43  O   UNL     1      -5.230   8.076  70.096  1.00  0.00    -0.023 OA 
HETATM   44  O   UNL     1      -9.188   8.297  72.702  1.00  0.00    -0.232 OA 
HETATM   45  C   UNL     1      -7.240   8.368  71.302  1.00  0.00    -0.073 C  
HETATM   46  H   UNL     1      -5.988   9.874  71.617  1.00  0.00     0.000 HD 
HETATM   47  O   UNL     1      -6.928   9.736  71.648  1.00  0.00    -0.214 OA 
HETATM   48  H   UNL     1      -8.966   9.164  73.022  1.00  0.00     0.000 HD 
HETATM   49  C   UNL     1      -6.658   8.052  69.933  1.00  0.00    -0.036 C  
BRANCH  40  50
HETATM   50  C   UNL     1     -10.624   6.670  70.623  1.00  0.00    -0.227 C  
HETATM   51  O   UNL     1     -11.310   6.189  71.782  1.00  0.00    -0.275 OA 
HETATM   52  H   UNL     1     -12.249   6.140  71.652  1.00  0.00     0.000 HD 
ENDBRANCH  40  50
ENDBRANCH  37  38
ENDBRANCH  33  37
ENDBRANCH  23  24
ENDBRANCH  18  23
TORSDOF 6
ENDMDL
MODEL      148
REMARK 921   NORMALIZED FREE ENERGY PREDICTED BY IDOCK:   -1.67 KCAL/MOL
REMARK 922        TOTAL FREE ENERGY PREDICTED BY IDOCK:   -4.24 KCAL/MOL
REMARK 923 INTER-LIGAND FREE ENERGY PREDICTED BY IDOCK:   -4.95 KCAL/MOL
REMARK 924 INTRA-LIGAND FREE ENERGY PREDICTED BY IDOCK:    0.71 KCAL/MOL
REMARK 927      BINDING AFFINITY PREDICTED BY RF-SCORE:    0.00 PKD
ROOT
HETATM    1  C   UNL     1     -11.070  17.074  68.376  1.00  0.00    -0.164 C  
HETATM    2  C   UNL     1      -9.516  16.859  68.193  1.00  0.00    -0.251 C  
HETATM    3  C   UNL     1      -8.812  17.669  69.280  1.00  0.00     0.265 C  
HETATM    4  C   UNL     1      -7.313  17.673  69.057  1.00  0.00    -0.194 C  
HETATM    5  C   UNL     1      -6.908  18.441  67.820  1.00  0.00    -0.208 C  
HETATM    6  C   UNL     1      -7.812  18.338  66.548  1.00  0.00    -0.279 C  
HETATM    7  C   UNL     1      -9.193  17.519  66.783  1.00  0.00    -0.277 C  
HETATM    8  C   UNL     1      -7.026  17.770  65.332  1.00  0.00     0.388 C  
HETATM    9  C   UNL     1      -7.871  19.853  66.116  1.00  0.00    -0.326 C  
HETATM   10  O   UNL     1      -6.846  20.495  65.860  1.00  0.00    -0.244 OA 
HETATM   11  O   UNL     1      -9.046  20.479  66.030  1.00  0.00    -0.046 OA 
HETATM   12  C   UNL     1      -9.715  16.596  65.662  1.00  0.00    -0.086 C  
HETATM   13  C   UNL     1      -9.361  15.132  65.816  1.00  0.00    -0.207 C  
HETATM   14  C   UNL     1      -9.616  14.407  67.145  1.00  0.00    -0.251 C  
HETATM   15  C   UNL     1     -10.956  13.676  67.361  1.00  0.00    -0.289 C  
HETATM   16  C   UNL     1     -10.552  12.499  68.257  1.00  0.00    -0.245 C  
HETATM   17  C   UNL     1     -11.453  11.651  68.771  1.00  0.00    -0.346 C  
HETATM   18  C   UNL     1      -9.012  12.366  68.328  1.00  0.00    -0.178 C  
HETATM   19  C   UNL     1      -8.402  13.134  69.523  1.00  0.00     1.309 C  
HETATM   20  C   UNL     1      -9.323  15.275  68.406  1.00  0.00    -0.194 C  
HETATM   21  C   UNL     1      -8.720  13.150  67.068  1.00  0.00    -0.193 C  
HETATM   22  C   UNL     1      -8.156  14.646  69.220  1.00  0.00    -0.030 C  
ENDROOT
BRANCH  18  23
HETATM   23  O   UNL     1      -8.690  10.979  68.262  1.00  0.00    -0.131 OA 
BRANCH  23  24
HETATM   24  C   UNL     1      -8.398  10.276  67.040  1.00  0.00    -0.126 C  
HETATM   25  O   UNL     1      -7.134  10.701  66.509  1.00  0.00    -0.117 OA 
HETATM   26  C   UNL     1      -6.697   9.882  65.409  1.00  0.00    -0.104 C  
HETATM   27  C   UNL     1      -7.643  10.102  64.238  1.00  0.00    -0.124 C  
HETATM   28  H   UNL     1     -10.800  10.054  63.813  1.00  0.00     0.000 HD 
HETATM   29  C   UNL     1      -9.069   9.708  64.608  1.00  0.00    -0.235 C  
HETATM   30  H   UNL     1      -7.849   9.504  62.338  1.00  0.00     0.000 HD 
HETATM   31  O   UNL     1      -7.259   9.366  63.069  1.00  0.00    -0.102 OA 
HETATM   32  O   UNL     1      -9.912  10.299  63.582  1.00  0.00    -0.243 OA 
HETATM   33  C   UNL     1      -9.541  10.218  65.977  1.00  0.00    -0.206 C  
BRANCH  26  34
HETATM   34  C   UNL     1      -5.269  10.291  65.025  1.00  0.00    -0.098 C  
HETATM   35  H   UNL     1      -4.284  11.965  64.745  1.00  0.00     0.000 HD 
HETATM   36  O   UNL     1      -5.168  11.713  64.982  1.00  0.00     0.237 OA 
ENDBRANCH  26  34
BRANCH  33  37
HETATM   37  O   UNL     1     -10.626   9.445  66.545  1.00  0.00    -0.174 OA 
BRANCH  37  38
HETATM   38  C   UNL     1     -10.344   8.382  67.474  1.00  0.00    -0.265 C  
HETATM   39  O   UNL     1     -10.057   8.936  68.744  1.00  0.00    -0.188 OA 
HETATM   40  C   UNL     1      -9.606   8.057  69.770  1.00  0.00    -0.171 C  
HETATM   41  C   UNL     1      -8.496   7.094  69.332  1.00  0.00    -0.134 C  
HETATM   42  H   UNL     1      -9.200   5.953  65.575  1.00  0.00     0.000 HD 
HETATM   43  O   UNL     1      -9.843   6.575  65.893  1.00  0.00     0.141 OA 
HETATM   44  O   UNL     1      -8.278   6.108  70.347  1.00  0.00    -0.113 OA 
HETATM   45  C   UNL     1      -8.875   6.392  68.041  1.00  0.00    -0.113 C  
HETATM   46  H   UNL     1      -8.002   5.164  66.752  1.00  0.00     0.000 HD 
HETATM   47  O   UNL     1      -7.765   5.603  67.560  1.00  0.00    -0.094 OA 
HETATM   48  H   UNL     1      -7.591   5.511  70.077  1.00  0.00     0.000 HD 
HETATM   49  C   UNL     1      -9.299   7.373  66.958  1.00  0.00    -0.149 C  
BRANCH  40  50
HETATM   50  C   UNL     1      -9.071   8.954  70.903  1.00  0.00    -0.230 C  
HETATM   51  O   UNL     1      -7.878   9.649  70.529  1.00  0.00    -0.164 OA 
HETATM   52  H   UNL     1      -7.548  10.202  71.228  1.00  0.00     0.000 HD 
ENDBRANCH  40  50
ENDBRANCH  37  38
ENDBRANCH  33  37
ENDBRANCH  23  24
ENDBRANCH  18  23
TORSDOF 6
ENDMDL
MODEL      149
REMARK 921   NORMALIZED FREE ENERGY PREDICTED BY IDOCK:   -1.62 KCAL/MOL
REMARK 922        TOTAL FREE ENERGY PREDICTED BY IDOCK:   -4.17 KCAL/MOL
REMARK 923 INTER-LIGAND FREE ENERGY PREDICTED BY IDOCK:   -5.92 KCAL/MOL
REMARK 924 INTRA-LIGAND FREE ENERGY PREDICTED BY IDOCK:    1.75 KCAL/MOL
REMARK 927      BINDING AFFINITY PREDICTED BY RF-SCORE:    0.00 PKD
ROOT
HETATM    1  C   UNL     1      -7.011   7.812  63.574  1.00  0.00    -0.072 C  
HETATM    2  C   UNL     1      -6.890   8.089  65.125  1.00  0.00    -0.058 C  
HETATM    3  C   UNL     1      -5.415   8.344  65.430  1.00  0.00    -0.035 C  
HETATM    4  C   UNL     1      -5.185   8.426  66.925  1.00  0.00    -0.032 C  
HETATM    5  C   UNL     1      -5.397   7.104  67.623  1.00  0.00    -0.020 C  
HETATM    6  C   UNL     1      -6.563   6.181  67.137  1.00  0.00    -0.055 C  
HETATM    7  C   UNL     1      -7.315   6.714  65.802  1.00  0.00    -0.075 C  
HETATM    8  C   UNL     1      -7.582   5.898  68.277  1.00  0.00    -0.090 C  
HETATM    9  C   UNL     1      -5.830   4.785  67.111  1.00  0.00    -0.022 C  
HETATM   10  O   UNL     1      -5.303   4.310  68.124  1.00  0.00    -0.011 OA 
HETATM   11  O   UNL     1      -5.756   4.090  65.975  1.00  0.00    -0.017 OA 
HETATM   12  C   UNL     1      -8.844   6.547  65.688  1.00  0.00    -0.057 C  
HETATM   13  C   UNL     1      -9.656   7.766  66.073  1.00  0.00    -0.006 C  
HETATM   14  C   UNL     1      -9.314   9.143  65.489  1.00  0.00    -0.287 C  
HETATM   15  C   UNL     1     -10.009   9.607  64.193  1.00  0.00     0.751 C  
HETATM   16  C   UNL     1     -10.105  11.123  64.392  1.00  0.00    -0.377 C  
HETATM   17  C   UNL     1     -10.566  11.942  63.436  1.00  0.00    -0.485 C  
HETATM   18  C   UNL     1      -9.758  11.510  65.850  1.00  0.00    -0.232 C  
HETATM   19  C   UNL     1      -8.263  11.854  66.036  1.00  0.00     0.335 C  
HETATM   20  C   UNL     1      -7.785   9.409  65.347  1.00  0.00    -0.103 C  
HETATM   21  C   UNL     1     -10.003  10.142  66.446  1.00  0.00    -0.295 C  
HETATM   22  C   UNL     1      -7.367  10.594  66.264  1.00  0.00    -0.137 C  
ENDROOT
BRANCH  18  23
HETATM   23  O   UNL     1     -10.675  12.520  66.264  1.00  0.00    -0.253 OA 
BRANCH  23  24
HETATM   24  C   UNL     1     -10.288  13.853  66.646  1.00  0.00    -0.278 C  
HETATM   25  O   UNL     1     -10.723  14.801  65.660  1.00  0.00    -0.302 OA 
HETATM   26  C   UNL     1     -10.550  16.163  66.094  1.00  0.00    -0.283 C  
HETATM   27  C   UNL     1      -9.060  16.450  66.200  1.00  0.00    -0.326 C  
HETATM   28  H   UNL     1      -6.557  15.049  67.587  1.00  0.00     0.000 HD 
HETATM   29  C   UNL     1      -8.397  15.523  67.213  1.00  0.00    -0.193 C  
HETATM   30  H   UNL     1      -7.851  17.984  66.641  1.00  0.00     0.000 HD 
HETATM   31  O   UNL     1      -8.781  17.805  66.576  1.00  0.00    -0.253 OA 
HETATM   32  O   UNL     1      -6.971  15.626  66.956  1.00  0.00    -0.214 OA 
HETATM   33  C   UNL     1      -8.805  14.048  67.097  1.00  0.00    -0.228 C  
BRANCH  26  34
HETATM   34  C   UNL     1     -11.202  17.096  65.065  1.00  0.00     0.358 C  
HETATM   35  H   UNL     1     -11.958  16.934  63.261  1.00  0.00     0.000 HD 
HETATM   36  O   UNL     1     -11.554  16.356  63.898  1.00  0.00    -1.100 OA 
ENDBRANCH  26  34
BRANCH  33  37
HETATM   37  O   UNL     1      -8.618  13.292  68.318  1.00  0.00    -0.173 OA 
BRANCH  37  38
HETATM   38  C   UNL     1      -9.594  13.374  69.373  1.00  0.00     0.896 C  
HETATM   39  O   UNL     1     -10.455  12.254  69.301  1.00  0.00    -0.006 OA 
HETATM   40  C   UNL     1     -11.585  12.221  70.168  1.00  0.00    -0.094 C  
HETATM   41  C   UNL     1     -12.390  13.525  70.202  1.00  0.00    -0.275 C  
HETATM   42  H   UNL     1      -9.860  16.600  69.957  1.00  0.00     0.000 HD 
HETATM   43  O   UNL     1      -9.418  15.760  69.913  1.00  0.00    -0.204 OA 
HETATM   44  O   UNL     1     -13.351  13.476  71.262  1.00  0.00    -0.266 OA 
HETATM   45  C   UNL     1     -11.474  14.715  70.426  1.00  0.00    -0.229 C  
HETATM   46  H   UNL     1     -11.647  16.690  70.448  1.00  0.00     0.000 HD 
HETATM   47  O   UNL     1     -12.220  15.946  70.308  1.00  0.00    -0.354 OA 
HETATM   48  H   UNL     1     -13.851  14.284  71.283  1.00  0.00     0.000 HD 
HETATM   49  C   UNL     1     -10.312  14.737  69.444  1.00  0.00    -0.160 C  
BRANCH  40  50
HETATM   50  C   UNL     1     -12.492  11.087  69.653  1.00  0.00    -0.140 C  
HETATM   51  O   UNL     1     -11.746   9.934  69.252  1.00  0.00    -0.463 OA 
HETATM   52  H   UNL     1     -12.306   9.235  68.934  1.00  0.00     0.000 HD 
ENDBRANCH  40  50
ENDBRANCH  37  38
ENDBRANCH  33  37
ENDBRANCH  23  24
ENDBRANCH  18  23
TORSDOF 6
ENDMDL
MODEL      150
REMARK 921   NORMALIZED FREE ENERGY PREDICTED BY IDOCK:   -1.56 KCAL/MOL
REMARK 922        TOTAL FREE ENERGY PREDICTED BY IDOCK:   -4.08 KCAL/MOL
REMARK 923 INTER-LIGAND FREE ENERGY PREDICTED BY IDOCK:   -8.57 KCAL/MOL
REMARK 924 INTRA-LIGAND FREE ENERGY PREDICTED BY IDOCK:    4.48 KCAL/MOL
REMARK 927      BINDING AFFINITY PREDICTED BY RF-SCORE:    0.00 PKD
ROOT
HETATM    1  C   UNL     1      -5.323   9.499  66.950  1.00  0.00    -0.045 C  
HETATM    2  C   UNL     1      -6.599   8.614  67.236  1.00  0.00    -0.058 C  
HETATM    3  C   UNL     1      -6.254   7.677  68.392  1.00  0.00    -0.036 C  
HETATM    4  C   UNL     1      -7.358   6.660  68.603  1.00  0.00    -0.087 C  
HETATM    5  C   UNL     1      -7.472   5.676  67.463  1.00  0.00    -0.081 C  
HETATM    6  C   UNL     1      -7.260   6.197  66.003  1.00  0.00    -0.075 C  
HETATM    7  C   UNL     1      -6.775   7.743  65.917  1.00  0.00    -0.046 C  
HETATM    8  C   UNL     1      -8.519   5.957  65.122  1.00  0.00    -0.130 C  
HETATM    9  C   UNL     1      -6.335   5.059  65.425  1.00  0.00    -0.035 C  
HETATM   10  O   UNL     1      -6.695   3.876  65.408  1.00  0.00    -0.049 OA 
HETATM   11  O   UNL     1      -5.126   5.358  64.948  1.00  0.00    -0.009 OA 
HETATM   12  C   UNL     1      -7.331   8.639  64.791  1.00  0.00    -0.091 C  
HETATM   13  C   UNL     1      -8.505   9.512  65.183  1.00  0.00    -0.160 C  
HETATM   14  C   UNL     1      -8.441  10.376  66.450  1.00  0.00    -0.138 C  
HETATM   15  C   UNL     1      -7.932  11.828  66.348  1.00  0.00     0.065 C  
HETATM   16  C   UNL     1      -8.745  12.542  67.434  1.00  0.00    -0.189 C  
HETATM   17  C   UNL     1      -8.538  13.827  67.753  1.00  0.00    -0.184 C  
HETATM   18  C   UNL     1      -9.888  11.635  67.950  1.00  0.00    -0.184 C  
HETATM   19  C   UNL     1      -9.476  10.805  69.188  1.00  0.00    -0.151 C  
HETATM   20  C   UNL     1      -7.723   9.689  67.651  1.00  0.00    -0.095 C  
HETATM   21  C   UNL     1      -9.919  10.711  66.755  1.00  0.00    -0.254 C  
HETATM   22  C   UNL     1      -8.729   9.483  68.819  1.00  0.00    -0.128 C  
ENDROOT
BRANCH  18  23
HETATM   23  O   UNL     1     -11.049  12.446  68.116  1.00  0.00    -0.219 OA 
BRANCH  23  24
HETATM   24  C   UNL     1     -11.460  13.465  67.186  1.00  0.00    -0.339 C  
HETATM   25  O   UNL     1     -11.730  12.887  65.900  1.00  0.00    -0.356 OA 
HETATM   26  C   UNL     1     -12.346  13.823  64.996  1.00  0.00    -0.428 C  
HETATM   27  C   UNL     1     -11.337  14.913  64.668  1.00  0.00    -0.357 C  
HETATM   28  H   UNL     1      -9.441  16.848  66.346  1.00  0.00     0.000 HD 
HETATM   29  C   UNL     1     -10.909  15.657  65.930  1.00  0.00    -0.293 C  
HETATM   30  H   UNL     1     -11.210  16.551  63.523  1.00  0.00     0.000 HD 
HETATM   31  O   UNL     1     -11.840  15.871  63.728  1.00  0.00    -0.645 OA 
HETATM   32  O   UNL     1      -9.707  16.385  65.560  1.00  0.00    -0.505 OA 
HETATM   33  C   UNL     1     -10.579  14.753  67.126  1.00  0.00    -0.285 C  
BRANCH  26  34
HETATM   34  C   UNL     1     -12.760  13.079  63.720  1.00  0.00    -0.069 C  
HETATM   35  H   UNL     1     -14.212  11.878  63.169  1.00  0.00     0.000 HD 
HETATM   36  O   UNL     1     -13.955  12.339  63.959  1.00  0.00     0.593 OA 
ENDBRANCH  26  34
BRANCH  33  37
HETATM   37  O   UNL     1     -10.693  15.418  68.408  1.00  0.00    -0.242 OA 
BRANCH  37  38
HETATM   38  C   UNL     1     -10.112  16.722  68.597  1.00  0.00    -0.279 C  
HETATM   39  O   UNL     1     -10.769  17.652  67.759  1.00  0.00    -0.388 OA 
HETATM   40  C   UNL     1     -10.244  18.975  67.687  1.00  0.00    -0.400 C  
HETATM   41  C   UNL     1      -8.726  19.040  67.488  1.00  0.00    -0.290 C  
HETATM   42  H   UNL     1      -7.033  16.084  69.564  1.00  0.00     0.000 HD 
HETATM   43  O   UNL     1      -7.981  16.078  69.628  1.00  0.00    -0.130 OA 
HETATM   44  O   UNL     1      -8.270  20.386  67.662  1.00  0.00    -0.304 OA 
HETATM   45  C   UNL     1      -8.015  18.147  68.489  1.00  0.00    -0.300 C  
HETATM   46  H   UNL     1      -6.157  17.542  68.824  1.00  0.00     0.000 HD 
HETATM   47  O   UNL     1      -6.601  18.101  68.197  1.00  0.00    -0.194 OA 
HETATM   48  H   UNL     1      -7.328  20.427  67.538  1.00  0.00     0.000 HD 
HETATM   49  C   UNL     1      -8.573  16.732  68.493  1.00  0.00    -0.245 C  
BRANCH  40  50
HETATM   50  C   UNL     1     -10.936  19.649  66.486  1.00  0.00    -0.217 C  
HETATM   51  O   UNL     1     -10.703  18.949  65.261  1.00  0.00    -0.517 OA 
HETATM   52  H   UNL     1     -11.129  19.365  64.521  1.00  0.00     0.000 HD 
ENDBRANCH  40  50
ENDBRANCH  37  38
ENDBRANCH  33  37
ENDBRANCH  23  24
ENDBRANCH  18  23
TORSDOF 6
ENDMDL
MODEL      151
REMARK 921   NORMALIZED FREE ENERGY PREDICTED BY IDOCK:   -1.43 KCAL/MOL
REMARK 922        TOTAL FREE ENERGY PREDICTED BY IDOCK:   -3.91 KCAL/MOL
REMARK 923 INTER-LIGAND FREE ENERGY PREDICTED BY IDOCK:   -5.14 KCAL/MOL
REMARK 924 INTRA-LIGAND FREE ENERGY PREDICTED BY IDOCK:    1.23 KCAL/MOL
REMARK 927      BINDING AFFINITY PREDICTED BY RF-SCORE:    0.00 PKD
ROOT
HETATM    1  C   UNL     1     -10.473   8.812  66.615  1.00  0.00    -0.240 C  
HETATM    2  C   UNL     1      -9.265   8.661  67.621  1.00  0.00    -0.148 C  
HETATM    3  C   UNL     1      -8.435   7.465  67.162  1.00  0.00    -0.118 C  
HETATM    4  C   UNL     1      -7.366   7.132  68.184  1.00  0.00    -0.097 C  
HETATM    5  C   UNL     1      -7.938   6.603  69.478  1.00  0.00    -0.117 C  
HETATM    6  C   UNL     1      -9.264   7.232  70.020  1.00  0.00    -0.148 C  
HETATM    7  C   UNL     1      -9.954   8.295  69.007  1.00  0.00    -0.193 C  
HETATM    8  C   UNL     1      -9.066   7.853  71.432  1.00  0.00    -0.163 C  
HETATM    9  C   UNL     1     -10.051   5.929  70.433  1.00  0.00    -0.201 C  
HETATM   10  O   UNL     1      -9.591   5.127  71.254  1.00  0.00    -0.150 OA 
HETATM   11  O   UNL     1     -11.237   5.663  69.885  1.00  0.00    -0.278 OA 
HETATM   12  C   UNL     1     -10.618   9.559  69.590  1.00  0.00    -0.245 C  
HETATM   13  C   UNL     1      -9.758  10.805  69.575  1.00  0.00    -0.015 C  
HETATM   14  C   UNL     1      -9.035  11.234  68.291  1.00  0.00    -0.172 C  
HETATM   15  C   UNL     1      -9.732  12.210  67.321  1.00  0.00    -0.193 C  
HETATM   16  C   UNL     1      -8.554  12.996  66.736  1.00  0.00    -0.061 C  
HETATM   17  C   UNL     1      -8.712  13.899  65.759  1.00  0.00     1.207 C  
HETATM   18  C   UNL     1      -7.256  12.712  67.530  1.00  0.00    -0.155 C  
HETATM   19  C   UNL     1      -6.430  11.553  66.926  1.00  0.00    -0.144 C  
HETATM   20  C   UNL     1      -8.460  10.046  67.460  1.00  0.00    -0.118 C  
HETATM   21  C   UNL     1      -7.934  12.202  68.781  1.00  0.00     0.007 C  
HETATM   22  C   UNL     1      -6.909  10.144  67.402  1.00  0.00    -0.077 C  
ENDROOT
BRANCH  18  23
HETATM   23  O   UNL     1      -6.558  13.946  67.684  1.00  0.00    -0.170 OA 
BRANCH  23  24
HETATM   24  C   UNL     1      -7.182  15.241  67.601  1.00  0.00    -0.180 C  
HETATM   25  O   UNL     1      -6.477  16.076  66.671  1.00  0.00    -0.220 OA 
HETATM   26  C   UNL     1      -7.179  17.302  66.393  1.00  0.00    -0.292 C  
HETATM   27  C   UNL     1      -7.194  18.147  67.657  1.00  0.00    -0.208 C  
HETATM   28  H   UNL     1      -7.982  17.677  70.709  1.00  0.00     0.000 HD 
HETATM   29  C   UNL     1      -7.908  17.419  68.792  1.00  0.00    -0.250 C  
HETATM   30  H   UNL     1      -7.838  19.947  68.256  1.00  0.00     0.000 HD 
HETATM   31  O   UNL     1      -7.828  19.419  67.467  1.00  0.00    -0.250 OA 
HETATM   32  O   UNL     1      -7.537  18.131  70.002  1.00  0.00     0.873 OA 
HETATM   33  C   UNL     1      -7.512  15.945  68.956  1.00  0.00    -0.194 C  
BRANCH  26  34
HETATM   34  C   UNL     1      -6.450  18.043  65.265  1.00  0.00     0.086 C  
HETATM   35  H   UNL     1      -6.385  19.875  64.562  1.00  0.00     0.000 HD 
HETATM   36  O   UNL     1      -6.836  19.416  65.261  1.00  0.00    -0.367 OA 
ENDBRANCH  26  34
BRANCH  33  37
HETATM   37  O   UNL     1      -8.514  15.143  69.630  1.00  0.00    -0.204 OA 
BRANCH  37  38
HETATM   38  C   UNL     1      -9.876  15.603  69.700  1.00  0.00    -0.280 C  
HETATM   39  O   UNL     1     -10.294  15.623  71.052  1.00  0.00     0.113 OA 
HETATM   40  C   UNL     1     -11.662  15.908  71.325  1.00  0.00    -0.448 C  
HETATM   41  C   UNL     1     -12.654  15.121  70.461  1.00  0.00    -0.380 C  
HETATM   42  H   UNL     1     -11.146  14.762  66.785  1.00  0.00     0.000 HD 
HETATM   43  O   UNL     1     -10.560  15.220  67.376  1.00  0.00    -0.270 OA 
HETATM   44  O   UNL     1     -13.976  15.640  70.641  1.00  0.00    -0.827 OA 
HETATM   45  C   UNL     1     -12.283  15.223  68.992  1.00  0.00    -0.124 C  
HETATM   46  H   UNL     1     -12.900  14.423  67.285  1.00  0.00     0.000 HD 
HETATM   47  O   UNL     1     -13.133  14.360  68.204  1.00  0.00     1.432 OA 
HETATM   48  H   UNL     1     -14.591  15.153  70.106  1.00  0.00     0.000 HD 
HETATM   49  C   UNL     1     -10.828  14.859  68.741  1.00  0.00    -0.252 C  
BRANCH  40  50
HETATM   50  C   UNL     1     -11.892  15.546  72.805  1.00  0.00    -0.469 C  
HETATM   51  O   UNL     1     -13.244  15.162  73.068  1.00  0.00    -0.446 OA 
HETATM   52  H   UNL     1     -13.385  14.939  73.980  1.00  0.00     0.000 HD 
ENDBRANCH  40  50
ENDBRANCH  37  38
ENDBRANCH  33  37
ENDBRANCH  23  24
ENDBRANCH  18  23
TORSDOF 6
ENDMDL
MODEL      152
REMARK 921   NORMALIZED FREE ENERGY PREDICTED BY IDOCK:   -1.23 KCAL/MOL
REMARK 922        TOTAL FREE ENERGY PREDICTED BY IDOCK:   -3.65 KCAL/MOL
REMARK 923 INTER-LIGAND FREE ENERGY PREDICTED BY IDOCK:   -2.89 KCAL/MOL
REMARK 924 INTRA-LIGAND FREE ENERGY PREDICTED BY IDOCK:   -0.76 KCAL/MOL
REMARK 927      BINDING AFFINITY PREDICTED BY RF-SCORE:    0.00 PKD
ROOT
HETATM    1  C   UNL     1      -8.037   8.141  73.555  1.00  0.00    -0.261 C  
HETATM    2  C   UNL     1      -9.091   7.783  72.435  1.00  0.00    -0.208 C  
HETATM    3  C   UNL     1     -10.480   7.946  73.047  1.00  0.00    -0.410 C  
HETATM    4  C   UNL     1     -11.546   7.435  72.098  1.00  0.00    -0.331 C  
HETATM    5  C   UNL     1     -11.491   5.938  71.908  1.00  0.00    -0.287 C  
HETATM    6  C   UNL     1     -10.090   5.245  71.837  1.00  0.00    -0.252 C  
HETATM    7  C   UNL     1      -8.845   6.239  72.145  1.00  0.00    -0.137 C  
HETATM    8  C   UNL     1      -9.889   4.498  70.488  1.00  0.00    -0.297 C  
HETATM    9  C   UNL     1     -10.340   4.000  72.772  1.00  0.00    -0.168 C  
HETATM   10  O   UNL     1     -11.235   3.180  72.535  1.00  0.00     0.307 OA 
HETATM   11  O   UNL     1      -9.586   3.816  73.856  1.00  0.00    -0.101 OA 
HETATM   12  C   UNL     1      -7.543   6.078  71.334  1.00  0.00    -0.099 C  
HETATM   13  C   UNL     1      -7.399   7.015  70.154  1.00  0.00    -0.081 C  
HETATM   14  C   UNL     1      -7.635   8.522  70.325  1.00  0.00    -0.075 C  
HETATM   15  C   UNL     1      -6.441   9.439  70.664  1.00  0.00    -0.081 C  
HETATM   16  C   UNL     1      -6.817  10.748  69.960  1.00  0.00    -0.126 C  
HETATM   17  C   UNL     1      -6.084  11.862  70.084  1.00  0.00    -0.137 C  
HETATM   18  C   UNL     1      -8.020  10.534  69.009  1.00  0.00    -0.136 C  
HETATM   19  C   UNL     1      -9.377  10.827  69.689  1.00  0.00     0.215 C  
HETATM   20  C   UNL     1      -8.810   8.875  71.286  1.00  0.00    -0.298 C  
HETATM   21  C   UNL     1      -7.870   9.035  68.886  1.00  0.00    -0.095 C  
HETATM   22  C   UNL     1      -9.932   9.612  70.499  1.00  0.00    -0.318 C  
ENDROOT
BRANCH  18  23
HETATM   23  O   UNL     1      -7.765  11.265  67.811  1.00  0.00    -0.106 OA 
BRANCH  23  24
HETATM   24  C   UNL     1      -8.726  12.125  67.171  1.00  0.00    -0.190 C  
HETATM   25  O   UNL     1      -9.101  11.589  65.894  1.00  0.00    -0.209 OA 
HETATM   26  C   UNL     1     -10.212  12.294  65.308  1.00  0.00    -0.278 C  
HETATM   27  C   UNL     1      -9.760  13.704  64.960  1.00  0.00     0.102 C  
HETATM   28  H   UNL     1      -8.281  16.072  66.496  1.00  0.00     0.000 HD 
HETATM   29  C   UNL     1      -9.305  14.454  66.208  1.00  0.00    -0.232 C  
HETATM   30  H   UNL     1     -10.503  15.354  64.102  1.00  0.00     0.000 HD 
HETATM   31  O   UNL     1     -10.785  14.473  64.319  1.00  0.00    -0.120 OA 
HETATM   32  O   UNL     1      -8.565  15.605  65.719  1.00  0.00     0.032 OA 
HETATM   33  C   UNL     1      -8.389  13.650  67.141  1.00  0.00    -0.137 C  
BRANCH  26  34
HETATM   34  C   UNL     1     -10.658  11.550  64.043  1.00  0.00    -0.379 C  
HETATM   35  H   UNL     1      -9.791  10.673  62.516  1.00  0.00     0.000 HD 
HETATM   36  O   UNL     1      -9.515  11.134  63.299  1.00  0.00    -0.272 OA 
ENDBRANCH  26  34
BRANCH  33  37
HETATM   37  O   UNL     1      -8.390  14.124  68.511  1.00  0.00    -0.156 OA 
BRANCH  37  38
HETATM   38  C   UNL     1      -9.634  14.285  69.216  1.00  0.00     0.189 C  
HETATM   39  O   UNL     1     -10.706  14.198  68.297  1.00  0.00    -0.238 OA 
HETATM   40  C   UNL     1     -12.019  14.479  68.772  1.00  0.00    -0.280 C  
HETATM   41  C   UNL     1     -12.125  15.758  69.612  1.00  0.00    -0.264 C  
HETATM   42  H   UNL     1      -8.831  16.105  71.835  1.00  0.00     0.000 HD 
HETATM   43  O   UNL     1      -8.810  15.341  71.271  1.00  0.00     2.344 OA 
HETATM   44  O   UNL     1     -13.413  15.828  70.231  1.00  0.00    -0.719 OA 
HETATM   45  C   UNL     1     -11.059  15.778  70.693  1.00  0.00    -0.354 C  
HETATM   46  H   UNL     1     -10.405  17.061  72.056  1.00  0.00     0.000 HD 
HETATM   47  O   UNL     1     -11.072  17.048  71.380  1.00  0.00     0.364 OA 
HETATM   48  H   UNL     1     -13.479  16.620  70.752  1.00  0.00     0.000 HD 
HETATM   49  C   UNL     1      -9.668  15.526  70.132  1.00  0.00     0.115 C  
BRANCH  40  50
HETATM   50  C   UNL     1     -12.909  14.627  67.522  1.00  0.00     1.488 C  
HETATM   51  O   UNL     1     -12.733  13.550  66.599  1.00  0.00    -0.210 OA 
HETATM   52  H   UNL     1     -13.281  13.642  65.829  1.00  0.00     0.000 HD 
ENDBRANCH  40  50
ENDBRANCH  37  38
ENDBRANCH  33  37
ENDBRANCH  23  24
ENDBRANCH  18  23
TORSDOF 6
ENDMDL
MODEL      153
REMARK 921   NORMALIZED FREE ENERGY PREDICTED BY IDOCK:   -1.10 KCAL/MOL
REMARK 922        TOTAL FREE ENERGY PREDICTED BY IDOCK:   -3.47 KCAL/MOL
REMARK 923 INTER-LIGAND FREE ENERGY PREDICTED BY IDOCK:   -5.05 KCAL/MOL
REMARK 924 INTRA-LIGAND FREE ENERGY PREDICTED BY IDOCK:    1.57 KCAL/MOL
REMARK 927      BINDING AFFINITY PREDICTED BY RF-SCORE:    0.00 PKD
ROOT
HETATM    1  C   UNL     1      -9.926   4.351  68.909  1.00  0.00    -0.082 C  
HETATM    2  C   UNL     1      -9.372   5.078  67.621  1.00  0.00    -0.141 C  
HETATM    3  C   UNL     1     -10.348   4.796  66.481  1.00  0.00    -0.284 C  
HETATM    4  C   UNL     1      -9.791   5.295  65.163  1.00  0.00     0.317 C  
HETATM    5  C   UNL     1      -8.584   4.512  64.705  1.00  0.00    -0.139 C  
HETATM    6  C   UNL     1      -7.547   4.042  65.779  1.00  0.00    -0.085 C  
HETATM    7  C   UNL     1      -8.003   4.331  67.308  1.00  0.00    -0.096 C  
HETATM    8  C   UNL     1      -6.131   4.620  65.498  1.00  0.00    -0.026 C  
HETATM    9  C   UNL     1      -7.303   2.556  65.308  1.00  0.00    -0.063 C  
HETATM   10  O   UNL     1      -6.890   2.295  64.172  1.00  0.00    -0.033 OA 
HETATM   11  O   UNL     1      -7.554   1.543  66.137  1.00  0.00    -0.059 OA 
HETATM   12  C   UNL     1      -6.940   4.776  68.333  1.00  0.00    -0.056 C  
HETATM   13  C   UNL     1      -6.853   6.270  68.565  1.00  0.00    -0.074 C  
HETATM   14  C   UNL     1      -8.121   7.085  68.855  1.00  0.00    -0.121 C  
HETATM   15  C   UNL     1      -8.558   7.306  70.317  1.00  0.00    -0.142 C  
HETATM   16  C   UNL     1      -9.209   8.693  70.264  1.00  0.00    -0.178 C  
HETATM   17  C   UNL     1      -9.822   9.236  71.324  1.00  0.00    -0.318 C  
HETATM   18  C   UNL     1      -8.912   9.387  68.913  1.00  0.00    -0.136 C  
HETATM   19  C   UNL     1     -10.011   9.130  67.856  1.00  0.00    -0.228 C  
HETATM   20  C   UNL     1      -9.367   6.633  68.034  1.00  0.00    -0.113 C  
HETATM   21  C   UNL     1      -7.709   8.544  68.554  1.00  0.00    -0.103 C  
HETATM   22  C   UNL     1      -9.822   7.782  67.089  1.00  0.00    -0.270 C  
ENDROOT
BRANCH  18  23
HETATM   23  O   UNL     1      -8.628  10.759  69.179  1.00  0.00    -0.150 OA 
BRANCH  23  24
HETATM   24  C   UNL     1      -9.524  11.843  68.871  1.00  0.00     0.110 C  
HETATM   25  O   UNL     1     -10.640  11.839  69.774  1.00  0.00     0.175 OA 
HETATM   26  C   UNL     1     -11.453  13.020  69.647  1.00  0.00    -0.183 C  
HETATM   27  C   UNL     1     -12.125  13.000  68.283  1.00  0.00    -0.156 C  
HETATM   28  H   UNL     1     -11.167  12.597  65.271  1.00  0.00     0.000 HD 
HETATM   29  C   UNL     1     -11.088  12.994  67.164  1.00  0.00    -0.273 C  
HETATM   30  H   UNL     1     -13.423  14.102  67.229  1.00  0.00     0.000 HD 
HETATM   31  O   UNL     1     -13.003  14.115  68.080  1.00  0.00     1.013 OA 
HETATM   32  O   UNL     1     -11.813  12.601  65.968  1.00  0.00    -0.404 OA 
HETATM   33  C   UNL     1      -9.926  12.013  67.372  1.00  0.00    -0.191 C  
BRANCH  26  34
HETATM   34  C   UNL     1     -12.507  13.017  70.761  1.00  0.00    -0.302 C  
HETATM   35  H   UNL     1     -13.320  14.334  71.969  1.00  0.00     0.000 HD 
HETATM   36  O   UNL     1     -12.667  14.336  71.279  1.00  0.00    -0.316 OA 
ENDBRANCH  26  34
BRANCH  33  37
HETATM   37  O   UNL     1      -8.728  12.363  66.636  1.00  0.00    -0.193 OA 
BRANCH  37  38
HETATM   38  C   UNL     1      -8.486  13.732  66.263  1.00  0.00     0.739 C  
HETATM   39  O   UNL     1      -7.905  14.417  67.355  1.00  0.00    -0.177 OA 
HETATM   40  C   UNL     1      -7.723  15.826  67.240  1.00  0.00    -0.199 C  
HETATM   41  C   UNL     1      -8.950  16.579  66.716  1.00  0.00    -0.234 C  
HETATM   42  H   UNL     1     -10.746  14.334  63.950  1.00  0.00     0.000 HD 
HETATM   43  O   UNL     1      -9.990  13.905  64.332  1.00  0.00    -0.215 OA 
HETATM   44  O   UNL     1      -8.599  17.934  66.416  1.00  0.00    -0.294 OA 
HETATM   45  C   UNL     1      -9.486  15.921  65.457  1.00  0.00    -0.054 C  
HETATM   46  H   UNL     1     -11.060  16.134  64.270  1.00  0.00     0.000 HD 
HETATM   47  O   UNL     1     -10.725  16.546  65.057  1.00  0.00    -0.662 OA 
HETATM   48  H   UNL     1      -9.360  18.401  66.091  1.00  0.00     0.000 HD 
HETATM   49  C   UNL     1      -9.715  14.429  65.642  1.00  0.00    -0.224 C  
BRANCH  40  50
HETATM   50  C   UNL     1      -7.390  16.335  68.656  1.00  0.00    -0.180 C  
HETATM   51  O   UNL     1      -7.245  17.757  68.702  1.00  0.00    -0.241 OA 
HETATM   52  H   UNL     1      -7.040  18.071  69.575  1.00  0.00     0.000 HD 
ENDBRANCH  40  50
ENDBRANCH  37  38
ENDBRANCH  33  37
ENDBRANCH  23  24
ENDBRANCH  18  23
TORSDOF 6
ENDMDL
MODEL      154
REMARK 921   NORMALIZED FREE ENERGY PREDICTED BY IDOCK:   -1.08 KCAL/MOL
REMARK 922        TOTAL FREE ENERGY PREDICTED BY IDOCK:   -3.45 KCAL/MOL
REMARK 923 INTER-LIGAND FREE ENERGY PREDICTED BY IDOCK:   -2.85 KCAL/MOL
REMARK 924 INTRA-LIGAND FREE ENERGY PREDICTED BY IDOCK:   -0.60 KCAL/MOL
REMARK 927      BINDING AFFINITY PREDICTED BY RF-SCORE:    0.00 PKD
ROOT
HETATM    1  C   UNL     1      -8.137  15.832  65.886  1.00  0.00     0.956 C  
HETATM    2  C   UNL     1      -8.267  15.480  67.421  1.00  0.00    -0.199 C  
HETATM    3  C   UNL     1      -9.243  16.479  68.037  1.00  0.00    -0.214 C  
HETATM    4  C   UNL     1      -9.276  16.334  69.545  1.00  0.00     0.009 C  
HETATM    5  C   UNL     1      -7.983  16.756  70.202  1.00  0.00     1.931 C  
HETATM    6  C   UNL     1      -6.635  16.410  69.487  1.00  0.00    -0.210 C  
HETATM    7  C   UNL     1      -6.817  15.762  68.011  1.00  0.00    -0.141 C  
HETATM    8  C   UNL     1      -5.726  15.519  70.380  1.00  0.00    -0.121 C  
HETATM    9  C   UNL     1      -5.868  17.779  69.645  1.00  0.00    -0.245 C  
HETATM   10  O   UNL     1      -5.647  18.274  70.757  1.00  0.00    -0.220 OA 
HETATM   11  O   UNL     1      -5.450  18.439  68.565  1.00  0.00    -0.176 OA 
HETATM   12  C   UNL     1      -5.864  14.633  67.567  1.00  0.00     0.102 C  
HETATM   13  C   UNL     1      -6.401  13.229  67.745  1.00  0.00    -0.161 C  
HETATM   14  C   UNL     1      -7.798  12.861  67.227  1.00  0.00    -0.134 C  
HETATM   15  C   UNL     1      -7.949  12.290  65.802  1.00  0.00     1.350 C  
HETATM   16  C   UNL     1      -9.142  11.338  65.950  1.00  0.00    -0.217 C  
HETATM   17  C   UNL     1      -9.679  10.697  64.903  1.00  0.00    -0.341 C  
HETATM   18  C   UNL     1      -9.495  11.127  67.442  1.00  0.00    -0.164 C  
HETATM   19  C   UNL     1     -10.570  12.118  67.946  1.00  0.00    -0.230 C  
HETATM   20  C   UNL     1      -8.862  13.984  67.419  1.00  0.00    -0.210 C  
HETATM   21  C   UNL     1      -8.157  11.567  67.993  1.00  0.00    -0.136 C  
HETATM   22  C   UNL     1      -9.978  13.495  68.386  1.00  0.00    -0.232 C  
ENDROOT
BRANCH  18  23
HETATM   23  O   UNL     1      -9.799   9.747  67.629  1.00  0.00    -0.155 OA 
BRANCH  23  24
HETATM   24  C   UNL     1     -10.290   9.188  68.862  1.00  0.00    -0.214 C  
HETATM   25  O   UNL     1     -11.360   9.992  69.382  1.00  0.00    -0.215 OA 
HETATM   26  C   UNL     1     -12.025   9.366  70.495  1.00  0.00    -0.097 C  
HETATM   27  C   UNL     1     -11.055   9.302  71.664  1.00  0.00    -0.368 C  
HETATM   28  H   UNL     1      -8.065   8.290  72.098  1.00  0.00     0.000 HD 
HETATM   29  C   UNL     1      -9.820   8.481  71.304  1.00  0.00    -0.216 C  
HETATM   30  H   UNL     1     -11.037   8.701  73.574  1.00  0.00     0.000 HD 
HETATM   31  O   UNL     1     -11.643   8.741  72.844  1.00  0.00     0.027 OA 
HETATM   32  O   UNL     1      -8.834   8.801  72.322  1.00  0.00    -0.367 OA 
HETATM   33  C   UNL     1      -9.218   8.798  69.929  1.00  0.00    -0.157 C  
BRANCH  26  34
HETATM   34  C   UNL     1     -13.256  10.202  70.868  1.00  0.00    -0.289 C  
HETATM   35  H   UNL     1     -14.993   9.889  71.728  1.00  0.00     0.000 HD 
HETATM   36  O   UNL     1     -14.230   9.372  71.497  1.00  0.00    -0.158 OA 
ENDBRANCH  26  34
BRANCH  33  37
HETATM   37  O   UNL     1      -8.425   7.719  69.376  1.00  0.00    -0.131 OA 
BRANCH  37  38
HETATM   38  C   UNL     1      -9.073   6.545  68.851  1.00  0.00    -0.131 C  
HETATM   39  O   UNL     1      -9.352   5.652  69.911  1.00  0.00    -0.142 OA 
HETATM   40  C   UNL     1      -9.860   4.362  69.583  1.00  0.00    -0.202 C  
HETATM   41  C   UNL     1      -9.098   3.652  68.459  1.00  0.00    -0.147 C  
HETATM   42  H   UNL     1      -7.992   6.363  65.750  1.00  0.00     0.000 HD 
HETATM   43  O   UNL     1      -8.447   6.751  66.488  1.00  0.00    -0.115 OA 
HETATM   44  O   UNL     1      -9.816   2.484  68.046  1.00  0.00    -0.240 OA 
HETATM   45  C   UNL     1      -8.928   4.571  67.263  1.00  0.00    -0.117 C  
HETATM   46  H   UNL     1      -7.977   4.522  65.523  1.00  0.00     0.000 HD 
HETATM   47  O   UNL     1      -8.084   3.947  66.272  1.00  0.00    -0.096 OA 
HETATM   48  H   UNL     1      -9.344   2.043  67.349  1.00  0.00     0.000 HD 
HETATM   49  C   UNL     1      -8.334   5.916  67.652  1.00  0.00    -0.104 C  
BRANCH  40  50
HETATM   50  C   UNL     1      -9.758   3.518  70.868  1.00  0.00    -0.143 C  
HETATM   51  O   UNL     1      -8.429   3.491  71.396  1.00  0.00    -0.067 OA 
HETATM   52  H   UNL     1      -8.366   2.970  72.188  1.00  0.00     0.000 HD 
ENDBRANCH  40  50
ENDBRANCH  37  38
ENDBRANCH  33  37
ENDBRANCH  23  24
ENDBRANCH  18  23
TORSDOF 6
ENDMDL
MODEL      155
REMARK 921   NORMALIZED FREE ENERGY PREDICTED BY IDOCK:   -0.57 KCAL/MOL
REMARK 922        TOTAL FREE ENERGY PREDICTED BY IDOCK:   -2.75 KCAL/MOL
REMARK 923 INTER-LIGAND FREE ENERGY PREDICTED BY IDOCK:   -6.51 KCAL/MOL
REMARK 924 INTRA-LIGAND FREE ENERGY PREDICTED BY IDOCK:    3.75 KCAL/MOL
REMARK 927      BINDING AFFINITY PREDICTED BY RF-SCORE:    0.00 PKD
ROOT
HETATM    1  C   UNL     1     -10.827   6.048  68.528  1.00  0.00    -0.363 C  
HETATM    2  C   UNL     1      -9.248   6.080  68.530  1.00  0.00    -0.114 C  
HETATM    3  C   UNL     1      -8.772   5.170  67.400  1.00  0.00    -0.103 C  
HETATM    4  C   UNL     1      -7.268   4.992  67.454  1.00  0.00    -0.070 C  
HETATM    5  C   UNL     1      -6.816   4.207  68.663  1.00  0.00    -0.047 C  
HETATM    6  C   UNL     1      -7.550   4.443  70.024  1.00  0.00    -0.050 C  
HETATM    7  C   UNL     1      -8.844   5.415  69.917  1.00  0.00    -0.140 C  
HETATM    8  C   UNL     1      -6.569   4.939  71.124  1.00  0.00    -0.031 C  
HETATM    9  C   UNL     1      -7.734   2.955  70.511  1.00  0.00    -0.043 C  
HETATM   10  O   UNL     1      -6.767   2.201  70.672  1.00  0.00    -0.031 OA 
HETATM   11  O   UNL     1      -8.955   2.476  70.749  1.00  0.00    -0.076 OA 
HETATM   12  C   UNL     1      -9.124   6.416  71.056  1.00  0.00    -0.154 C  
HETATM   13  C   UNL     1      -8.623   7.825  70.814  1.00  0.00    -0.133 C  
HETATM   14  C   UNL     1      -8.942   8.547  69.499  1.00  0.00    -0.149 C  
HETATM   15  C   UNL     1     -10.205   9.428  69.409  1.00  0.00    -0.214 C  
HETATM   16  C   UNL     1      -9.773  10.529  68.434  1.00  0.00    -0.166 C  
HETATM   17  C   UNL     1     -10.622  11.468  67.994  1.00  0.00    -0.222 C  
HETATM   18  C   UNL     1      -8.246  10.477  68.187  1.00  0.00    -0.114 C  
HETATM   19  C   UNL     1      -7.870   9.618  66.958  1.00  0.00    -0.098 C  
HETATM   20  C   UNL     1      -8.899   7.625  68.242  1.00  0.00    -0.125 C  
HETATM   21  C   UNL     1      -7.904   9.690  69.432  1.00  0.00    -0.104 C  
HETATM   22  C   UNL     1      -7.768   8.093  67.283  1.00  0.00    -0.098 C  
ENDROOT
BRANCH  18  23
HETATM   23  O   UNL     1      -7.760  11.817  68.169  1.00  0.00    -0.109 OA 
BRANCH  23  24
HETATM   24  C   UNL     1      -8.508  12.940  67.668  1.00  0.00    -0.183 C  
HETATM   25  O   UNL     1      -9.230  12.570  66.483  1.00  0.00    -0.232 OA 
HETATM   26  C   UNL     1     -10.156  13.589  66.064  1.00  0.00    -0.310 C  
HETATM   27  C   UNL     1      -9.364  14.805  65.609  1.00  0.00     0.060 C  
HETATM   28  H   UNL     1      -7.014  16.584  66.818  1.00  0.00     0.000 HD 
HETATM   29  C   UNL     1      -8.509  15.356  66.745  1.00  0.00    -0.272 C  
HETATM   30  H   UNL     1      -9.706  16.620  64.834  1.00  0.00     0.000 HD 
HETATM   31  O   UNL     1     -10.200  15.861  65.119  1.00  0.00    -0.472 OA 
HETATM   32  O   UNL     1      -7.547  16.241  66.110  1.00  0.00    -0.096 OA 
HETATM   33  C   UNL     1      -7.738  14.293  67.541  1.00  0.00    -0.191 C  
BRANCH  26  34
HETATM   34  C   UNL     1     -11.004  13.041  64.910  1.00  0.00    -0.307 C  
HETATM   35  H   UNL     1     -12.706  13.493  64.041  1.00  0.00     0.000 HD 
HETATM   36  O   UNL     1     -12.181  13.832  64.756  1.00  0.00    -0.382 OA 
ENDBRANCH  26  34
BRANCH  33  37
HETATM   37  O   UNL     1      -7.375  14.715  68.879  1.00  0.00    -0.113 OA 
BRANCH  37  38
HETATM   38  C   UNL     1      -7.979  15.889  69.452  1.00  0.00    -0.184 C  
HETATM   39  O   UNL     1      -9.387  15.756  69.414  1.00  0.00    -0.254 OA 
HETATM   40  C   UNL     1     -10.176  16.877  69.801  1.00  0.00     0.054 C  
HETATM   41  C   UNL     1      -9.737  18.203  69.170  1.00  0.00    -0.098 C  
HETATM   42  H   UNL     1      -5.755  18.258  68.938  1.00  0.00     0.000 HD 
HETATM   43  O   UNL     1      -6.088  17.444  69.299  1.00  0.00    -0.205 OA 
HETATM   44  O   UNL     1     -10.430  19.291  69.792  1.00  0.00    -0.262 OA 
HETATM   45  C   UNL     1      -8.244  18.410  69.342  1.00  0.00     0.388 C  
HETATM   46  H   UNL     1      -6.883  19.715  68.724  1.00  0.00     0.000 HD 
HETATM   47  O   UNL     1      -7.818  19.585  68.617  1.00  0.00    -0.344 OA 
HETATM   48  H   UNL     1     -10.159  20.113  69.401  1.00  0.00     0.000 HD 
HETATM   49  C   UNL     1      -7.439  17.210  68.867  1.00  0.00    -0.241 C  
BRANCH  40  50
HETATM   50  C   UNL     1     -11.618  16.565  69.356  1.00  0.00     0.092 C  
HETATM   51  O   UNL     1     -11.676  16.038  68.028  1.00  0.00    -0.202 OA 
HETATM   52  H   UNL     1     -12.565  15.846  67.755  1.00  0.00     0.000 HD 
ENDBRANCH  40  50
ENDBRANCH  37  38
ENDBRANCH  33  37
ENDBRANCH  23  24
ENDBRANCH  18  23
TORSDOF 6
ENDMDL
MODEL      156
REMARK 921   NORMALIZED FREE ENERGY PREDICTED BY IDOCK:   -0.37 KCAL/MOL
REMARK 922        TOTAL FREE ENERGY PREDICTED BY IDOCK:   -2.48 KCAL/MOL
REMARK 923 INTER-LIGAND FREE ENERGY PREDICTED BY IDOCK:   -4.08 KCAL/MOL
REMARK 924 INTRA-LIGAND FREE ENERGY PREDICTED BY IDOCK:    1.60 KCAL/MOL
REMARK 927      BINDING AFFINITY PREDICTED BY RF-SCORE:    0.00 PKD
ROOT
HETATM    1  C   UNL     1      -6.151   7.746  67.525  1.00  0.00    -0.049 C  
HETATM    2  C   UNL     1      -7.422   6.990  68.079  1.00  0.00    -0.099 C  
HETATM    3  C   UNL     1      -6.931   5.933  69.066  1.00  0.00    -0.068 C  
HETATM    4  C   UNL     1      -8.071   5.033  69.497  1.00  0.00    -0.078 C  
HETATM    5  C   UNL     1      -8.583   4.160  68.375  1.00  0.00    -0.111 C  
HETATM    6  C   UNL     1      -8.666   4.767  66.936  1.00  0.00    -0.107 C  
HETATM    7  C   UNL     1      -8.022   6.250  66.805  1.00  0.00    -0.108 C  
HETATM    8  C   UNL     1     -10.121   4.739  66.386  1.00  0.00    -0.291 C  
HETATM    9  C   UNL     1      -8.062   3.580  66.090  1.00  0.00    -0.093 C  
HETATM   10  O   UNL     1      -8.564   2.450  66.108  1.00  0.00    -0.100 OA 
HETATM   11  O   UNL     1      -6.976   3.778  65.342  1.00  0.00    -0.058 OA 
HETATM   12  C   UNL     1      -8.715   7.288  65.898  1.00  0.00    -0.150 C  
HETATM   13  C   UNL     1      -9.637   8.254  66.612  1.00  0.00    -0.299 C  
HETATM   14  C   UNL     1      -9.158   9.004  67.863  1.00  0.00    -0.141 C  
HETATM   15  C   UNL     1      -8.507  10.393  67.707  1.00  0.00    -0.114 C  
HETATM   16  C   UNL     1      -8.935  11.107  68.994  1.00  0.00    -0.027 C  
HETATM   17  C   UNL     1      -8.494  12.331  69.313  1.00  0.00     0.794 C  
HETATM   18  C   UNL     1     -10.025  10.296  69.736  1.00  0.00    -0.181 C  
HETATM   19  C   UNL     1      -9.436   9.331  70.790  1.00  0.00    -0.336 C  
HETATM   20  C   UNL     1      -8.265   8.148  68.812  1.00  0.00    -0.125 C  
HETATM   21  C   UNL     1     -10.463   9.478  68.543  1.00  0.00    -0.247 C  
HETATM   22  C   UNL     1      -8.976   7.966  70.184  1.00  0.00    -0.151 C  
ENDROOT
BRANCH  18  23
HETATM   23  O   UNL     1     -10.998  11.217  70.225  1.00  0.00    -0.077 OA 
BRANCH  23  24
HETATM   24  C   UNL     1     -11.076  12.597  69.824  1.00  0.00     0.196 C  
HETATM   25  O   UNL     1     -11.439  13.422  70.941  1.00  0.00     0.342 OA 
HETATM   26  C   UNL     1     -11.323  14.826  70.647  1.00  0.00    -0.188 C  
HETATM   27  C   UNL     1     -12.372  15.190  69.608  1.00  0.00    -0.207 C  
HETATM   28  H   UNL     1     -13.266  14.049  66.771  1.00  0.00     0.000 HD 
HETATM   29  C   UNL     1     -12.161  14.400  68.320  1.00  0.00    -0.225 C  
HETATM   30  H   UNL     1     -13.028  16.814  68.637  1.00  0.00     0.000 HD 
HETATM   31  O   UNL     1     -12.373  16.587  69.286  1.00  0.00     0.263 OA 
HETATM   32  O   UNL     1     -13.398  14.542  67.572  1.00  0.00     2.269 OA 
HETATM   33  C   UNL     1     -11.886  12.903  68.524  1.00  0.00    -0.313 C  
BRANCH  26  34
HETATM   34  C   UNL     1     -11.554  15.622  71.939  1.00  0.00    -0.461 C  
HETATM   35  H   UNL     1     -12.289  15.272  73.725  1.00  0.00     0.000 HD 
HETATM   36  O   UNL     1     -12.146  14.780  72.926  1.00  0.00    -0.264 OA 
ENDBRANCH  26  34
BRANCH  33  37
HETATM   37  O   UNL     1     -11.187  12.282  67.418  1.00  0.00    -0.265 OA 
BRANCH  37  38
HETATM   38  C   UNL     1     -10.853  13.056  66.251  1.00  0.00    -0.278 C  
HETATM   39  O   UNL     1     -10.403  14.336  66.653  1.00  0.00    -0.272 OA 
HETATM   40  C   UNL     1     -10.162  15.309  65.641  1.00  0.00    -0.372 C  
HETATM   41  C   UNL     1     -11.282  15.426  64.601  1.00  0.00    -0.364 C  
HETATM   42  H   UNL     1     -12.756  11.789  63.886  1.00  0.00     0.000 HD 
HETATM   43  O   UNL     1     -12.072  11.782  64.547  1.00  0.00    -0.206 OA 
HETATM   44  O   UNL     1     -10.850  16.247  63.511  1.00  0.00     0.294 OA 
HETATM   45  C   UNL     1     -11.662  14.058  64.065  1.00  0.00    -0.248 C  
HETATM   46  H   UNL     1     -13.052  13.309  62.865  1.00  0.00     0.000 HD 
HETATM   47  O   UNL     1     -12.814  14.165  63.200  1.00  0.00    -0.440 OA 
HETATM   48  H   UNL     1     -11.544  16.321  62.866  1.00  0.00     0.000 HD 
HETATM   49  C   UNL     1     -11.962  13.068  65.180  1.00  0.00    -0.402 C  
BRANCH  40  50
HETATM   50  C   UNL     1     -10.010  16.659  66.367  1.00  0.00    -0.302 C  
HETATM   51  O   UNL     1      -8.757  17.289  66.087  1.00  0.00    -0.425 OA 
HETATM   52  H   UNL     1      -8.663  18.121  66.535  1.00  0.00     0.000 HD 
ENDBRANCH  40  50
ENDBRANCH  37  38
ENDBRANCH  33  37
ENDBRANCH  23  24
ENDBRANCH  18  23
TORSDOF 6
ENDMDL
MODEL      157
REMARK 921   NORMALIZED FREE ENERGY PREDICTED BY IDOCK:   -0.33 KCAL/MOL
REMARK 922        TOTAL FREE ENERGY PREDICTED BY IDOCK:   -2.44 KCAL/MOL
REMARK 923 INTER-LIGAND FREE ENERGY PREDICTED BY IDOCK:   -3.72 KCAL/MOL
REMARK 924 INTRA-LIGAND FREE ENERGY PREDICTED BY IDOCK:    1.28 KCAL/MOL
REMARK 927      BINDING AFFINITY PREDICTED BY RF-SCORE:    0.00 PKD
ROOT
HETATM    1  C   UNL     1     -10.493   6.295  68.892  1.00  0.00    -0.280 C  
HETATM    2  C   UNL     1      -8.992   6.539  68.465  1.00  0.00    -0.126 C  
HETATM    3  C   UNL     1      -8.491   5.256  67.805  1.00  0.00    -0.105 C  
HETATM    4  C   UNL     1      -7.001   5.337  67.541  1.00  0.00    -0.065 C  
HETATM    5  C   UNL     1      -6.182   5.343  68.809  1.00  0.00    -0.033 C  
HETATM    6  C   UNL     1      -6.726   6.134  70.045  1.00  0.00    -0.056 C  
HETATM    7  C   UNL     1      -8.220   6.731  69.843  1.00  0.00    -0.127 C  
HETATM    8  C   UNL     1      -5.735   7.247  70.492  1.00  0.00    -0.024 C  
HETATM    9  C   UNL     1      -6.455   5.089  71.194  1.00  0.00    -0.023 C  
HETATM   10  O   UNL     1      -5.319   4.660  71.427  1.00  0.00    -0.003 OA 
HETATM   11  O   UNL     1      -7.466   4.635  71.937  1.00  0.00    -0.077 OA 
HETATM   12  C   UNL     1      -8.554   8.123  70.418  1.00  0.00    -0.131 C  
HETATM   13  C   UNL     1      -8.463   9.267  69.430  1.00  0.00    -0.137 C  
HETATM   14  C   UNL     1      -9.157   9.171  68.065  1.00  0.00    -0.136 C  
HETATM   15  C   UNL     1     -10.596   9.704  67.911  1.00  0.00    -0.308 C  
HETATM   16  C   UNL     1     -10.611  10.206  66.463  1.00  0.00    -0.179 C  
HETATM   17  C   UNL     1     -11.725  10.667  65.878  1.00  0.00     1.651 C  
HETATM   18  C   UNL     1      -9.178  10.244  65.879  1.00  0.00    -0.167 C  
HETATM   19  C   UNL     1      -8.802   8.941  65.137  1.00  0.00    -0.209 C  
HETATM   20  C   UNL     1      -9.087   7.756  67.416  1.00  0.00    -0.138 C  
HETATM   21  C   UNL     1      -8.458  10.252  67.208  1.00  0.00    -0.125 C  
HETATM   22  C   UNL     1      -8.275   7.822  66.091  1.00  0.00    -0.123 C  
ENDROOT
BRANCH  18  23
HETATM   23  O   UNL     1      -9.048  11.443  65.117  1.00  0.00    -0.163 OA 
BRANCH  23  24
HETATM   24  C   UNL     1      -9.630  12.705  65.493  1.00  0.00    -0.013 C  
HETATM   25  O   UNL     1     -10.479  13.195  64.444  1.00  0.00    -0.393 OA 
HETATM   26  C   UNL     1     -11.248  14.341  64.851  1.00  0.00    -0.379 C  
HETATM   27  C   UNL     1     -10.296  15.504  65.083  1.00  0.00    -0.356 C  
HETATM   28  H   UNL     1      -7.608  15.961  66.731  1.00  0.00     0.000 HD 
HETATM   29  C   UNL     1      -9.288  15.174  66.179  1.00  0.00    -0.311 C  
HETATM   30  H   UNL     1     -10.380  17.441  65.586  1.00  0.00     0.000 HD 
HETATM   31  O   UNL     1     -10.975  16.715  65.442  1.00  0.00    -0.254 OA 
HETATM   32  O   UNL     1      -8.236  16.167  66.048  1.00  0.00    -0.228 OA 
HETATM   33  C   UNL     1      -8.655  13.780  66.069  1.00  0.00     1.001 C  
BRANCH  26  34
HETATM   34  C   UNL     1     -12.249  14.684  63.741  1.00  0.00     0.145 C  
HETATM   35  H   UNL     1     -13.284  16.255  63.179  1.00  0.00     0.000 HD 
HETATM   36  O   UNL     1     -12.664  16.042  63.867  1.00  0.00    -0.557 OA 
ENDBRANCH  26  34
BRANCH  33  37
HETATM   37  O   UNL     1      -8.140  13.273  67.325  1.00  0.00    -0.175 OA 
BRANCH  37  38
HETATM   38  C   UNL     1      -8.839  13.547  68.554  1.00  0.00    -0.086 C  
HETATM   39  O   UNL     1     -10.032  12.789  68.592  1.00  0.00    -0.190 OA 
HETATM   40  C   UNL     1     -10.942  13.028  69.661  1.00  0.00     0.201 C  
HETATM   41  C   UNL     1     -11.231  14.511  69.922  1.00  0.00    -0.203 C  
HETATM   42  H   UNL     1      -7.875  16.589  69.351  1.00  0.00     0.000 HD 
HETATM   43  O   UNL     1      -7.763  15.662  69.176  1.00  0.00    -0.178 OA 
HETATM   44  O   UNL     1     -11.960  14.656  71.146  1.00  0.00    -0.322 OA 
HETATM   45  C   UNL     1      -9.937  15.298  70.025  1.00  0.00    -0.107 C  
HETATM   46  H   UNL     1      -9.413  17.204  70.186  1.00  0.00     0.000 HD 
HETATM   47  O   UNL     1     -10.222  16.711  70.122  1.00  0.00     0.080 OA 
HETATM   48  H   UNL     1     -12.139  15.575  71.308  1.00  0.00     0.000 HD 
HETATM   49  C   UNL     1      -9.020  15.052  68.837  1.00  0.00    -0.202 C  
BRANCH  40  50
HETATM   50  C   UNL     1     -12.258  12.323  69.274  1.00  0.00    -0.044 C  
HETATM   51  O   UNL     1     -12.851  11.636  70.378  1.00  0.00    -0.066 OA 
HETATM   52  H   UNL     1     -13.662  11.202  70.139  1.00  0.00     0.000 HD 
ENDBRANCH  40  50
ENDBRANCH  37  38
ENDBRANCH  33  37
ENDBRANCH  23  24
ENDBRANCH  18  23
TORSDOF 6
ENDMDL
MODEL      158
REMARK 921   NORMALIZED FREE ENERGY PREDICTED BY IDOCK:   -0.12 KCAL/MOL
REMARK 922        TOTAL FREE ENERGY PREDICTED BY IDOCK:   -2.14 KCAL/MOL
REMARK 923 INTER-LIGAND FREE ENERGY PREDICTED BY IDOCK:   -2.38 KCAL/MOL
REMARK 924 INTRA-LIGAND FREE ENERGY PREDICTED BY IDOCK:    0.24 KCAL/MOL
REMARK 927      BINDING AFFINITY PREDICTED BY RF-SCORE:    0.00 PKD
ROOT
HETATM    1  C   UNL     1     -11.467   6.258  68.581  1.00  0.00     0.020 C  
HETATM    2  C   UNL     1     -10.227   6.322  69.557  1.00  0.00    -0.239 C  
HETATM    3  C   UNL     1      -9.594   4.932  69.583  1.00  0.00    -0.243 C  
HETATM    4  C   UNL     1      -8.515   4.855  70.645  1.00  0.00    -0.111 C  
HETATM    5  C   UNL     1      -9.068   4.944  72.048  1.00  0.00    -0.156 C  
HETATM    6  C   UNL     1     -10.261   5.919  72.320  1.00  0.00    -0.222 C  
HETATM    7  C   UNL     1     -10.867   6.611  70.984  1.00  0.00    -0.289 C  
HETATM    8  C   UNL     1      -9.891   6.990  73.386  1.00  0.00    -0.273 C  
HETATM    9  C   UNL     1     -11.185   4.999  73.207  1.00  0.00    -0.338 C  
HETATM   10  O   UNL     1     -10.784   4.508  74.269  1.00  0.00    -0.270 OA 
HETATM   11  O   UNL     1     -12.429   4.724  72.814  1.00  0.00     0.255 OA 
HETATM   12  C   UNL     1     -11.319   8.084  71.045  1.00  0.00    -0.294 C  
HETATM   13  C   UNL     1     -10.304   9.091  70.547  1.00  0.00    -0.266 C  
HETATM   14  C   UNL     1      -9.614   8.892  69.190  1.00  0.00    -0.162 C  
HETATM   15  C   UNL     1     -10.237   9.522  67.927  1.00  0.00    -0.251 C  
HETATM   16  C   UNL     1      -9.005   9.847  67.075  1.00  0.00    -0.152 C  
HETATM   17  C   UNL     1      -9.105  10.327  65.829  1.00  0.00    -0.202 C  
HETATM   18  C   UNL     1      -7.708   9.695  67.905  1.00  0.00    -0.087 C  
HETATM   19  C   UNL     1      -7.084   8.286  67.783  1.00  0.00    -0.083 C  
HETATM   20  C   UNL     1      -9.258   7.409  68.872  1.00  0.00    -0.142 C  
HETATM   21  C   UNL     1      -8.366   9.800  69.262  1.00  0.00    -0.142 C  
HETATM   22  C   UNL     1      -7.714   7.248  68.766  1.00  0.00    -0.119 C  
ENDROOT
BRANCH  18  23
HETATM   23  O   UNL     1      -6.844  10.779  67.569  1.00  0.00    -0.075 OA 
BRANCH  23  24
HETATM   24  C   UNL     1      -6.849  12.052  68.241  1.00  0.00    -0.068 C  
HETATM   25  O   UNL     1      -6.230  11.939  69.531  1.00  0.00    -0.093 OA 
HETATM   26  C   UNL     1      -6.019  13.220  70.153  1.00  0.00    -0.139 C  
HETATM   27  C   UNL     1      -7.373  13.825  70.484  1.00  0.00     1.647 C  
HETATM   28  H   UNL     1     -10.084  14.362  68.897  1.00  0.00     0.000 HD 
HETATM   29  C   UNL     1      -8.206  14.023  69.221  1.00  0.00     0.341 C  
HETATM   30  H   UNL     1      -8.115  15.463  71.366  1.00  0.00     0.000 HD 
HETATM   31  O   UNL     1      -7.269  15.085  71.159  1.00  0.00     0.966 OA 
HETATM   32  O   UNL     1      -9.566  14.239  69.684  1.00  0.00     0.327 OA 
HETATM   33  C   UNL     1      -8.205  12.828  68.258  1.00  0.00    -0.159 C  
BRANCH  26  34
HETATM   34  C   UNL     1      -5.197  13.018  71.432  1.00  0.00    -0.170 C  
HETATM   35  H   UNL     1      -5.223  11.804  72.975  1.00  0.00     0.000 HD 
HETATM   36  O   UNL     1      -5.731  11.929  72.183  1.00  0.00     0.149 OA 
ENDBRANCH  26  34
BRANCH  33  37
HETATM   37  O   UNL     1      -8.523  13.181  66.889  1.00  0.00    -0.170 OA 
BRANCH  37  38
HETATM   38  C   UNL     1      -8.364  14.539  66.440  1.00  0.00     0.481 C  
HETATM   39  O   UNL     1      -7.056  14.983  66.745  1.00  0.00     0.017 OA 
HETATM   40  C   UNL     1      -6.744  16.354  66.515  1.00  0.00     0.169 C  
HETATM   41  C   UNL     1      -7.791  17.336  67.051  1.00  0.00    -0.214 C  
HETATM   42  H   UNL     1     -11.417  15.761  66.521  1.00  0.00     0.000 HD 
HETATM   43  O   UNL     1     -10.722  15.182  66.231  1.00  0.00    -0.307 OA 
HETATM   44  O   UNL     1      -7.510  18.656  66.572  1.00  0.00    -0.225 OA 
HETATM   45  C   UNL     1      -9.183  16.936  66.598  1.00  0.00    -0.256 C  
HETATM   46  H   UNL     1     -11.044  17.528  66.945  1.00  0.00     0.000 HD 
HETATM   47  O   UNL     1     -10.173  17.779  67.228  1.00  0.00    -0.324 OA 
HETATM   48  H   UNL     1      -8.159  19.266  66.904  1.00  0.00     0.000 HD 
HETATM   49  C   UNL     1      -9.492  15.480  66.912  1.00  0.00    -0.228 C  
BRANCH  40  50
HETATM   50  C   UNL     1      -5.402  16.616  67.226  1.00  0.00    -0.139 C  
HETATM   51  O   UNL     1      -5.503  17.641  68.218  1.00  0.00    -0.145 OA 
HETATM   52  H   UNL     1      -4.675  17.802  68.655  1.00  0.00     0.000 HD 
ENDBRANCH  40  50
ENDBRANCH  37  38
ENDBRANCH  33  37
ENDBRANCH  23  24
ENDBRANCH  18  23
TORSDOF 6
ENDMDL
MODEL      159
REMARK 921   NORMALIZED FREE ENERGY PREDICTED BY IDOCK:   -0.11 KCAL/MOL
REMARK 922        TOTAL FREE ENERGY PREDICTED BY IDOCK:   -2.13 KCAL/MOL
REMARK 923 INTER-LIGAND FREE ENERGY PREDICTED BY IDOCK:   -1.76 KCAL/MOL
REMARK 924 INTRA-LIGAND FREE ENERGY PREDICTED BY IDOCK:   -0.37 KCAL/MOL
REMARK 927      BINDING AFFINITY PREDICTED BY RF-SCORE:    0.00 PKD
ROOT
HETATM    1  C   UNL     1     -12.834  11.885  66.083  1.00  0.00     2.996 C  
HETATM    2  C   UNL     1     -11.542  12.719  66.443  1.00  0.00    -0.435 C  
HETATM    3  C   UNL     1     -11.903  13.640  67.606  1.00  0.00    -0.404 C  
HETATM    4  C   UNL     1     -10.775  14.613  67.887  1.00  0.00    -0.250 C  
HETATM    5  C   UNL     1     -10.579  15.618  66.776  1.00  0.00    -0.307 C  
HETATM    6  C   UNL     1     -10.747  15.137  65.297  1.00  0.00    -0.422 C  
HETATM    7  C   UNL     1     -11.281  13.612  65.154  1.00  0.00    -0.318 C  
HETATM    8  C   UNL     1      -9.444  15.353  64.474  1.00  0.00     2.800 C  
HETATM    9  C   UNL     1     -11.607  16.320  64.708  1.00  0.00     0.005 C  
HETATM   10  O   UNL     1     -11.206  17.490  64.735  1.00  0.00    -0.878 OA 
HETATM   11  O   UNL     1     -12.805  16.075  64.175  1.00  0.00    -0.271 OA 
HETATM   12  C   UNL     1     -10.709  12.722  64.031  1.00  0.00    -0.457 C  
HETATM   13  C   UNL     1      -9.583  11.800  64.449  1.00  0.00    -0.085 C  
HETATM   14  C   UNL     1      -9.730  10.910  65.691  1.00  0.00    -0.279 C  
HETATM   15  C   UNL     1     -10.284   9.480  65.534  1.00  0.00     0.103 C  
HETATM   16  C   UNL     1      -9.542   8.713  66.635  1.00  0.00    -0.285 C  
HETATM   17  C   UNL     1      -9.807   7.430  66.914  1.00  0.00    -0.284 C  
HETATM   18  C   UNL     1      -8.392   9.568  67.220  1.00  0.00    -0.125 C  
HETATM   19  C   UNL     1      -8.827  10.384  68.459  1.00  0.00    -0.142 C  
HETATM   20  C   UNL     1     -10.474  11.595  66.878  1.00  0.00    -0.262 C  
HETATM   21  C   UNL     1      -8.279  10.517  66.049  1.00  0.00    -0.150 C  
HETATM   22  C   UNL     1      -9.512  11.739  68.092  1.00  0.00    -0.193 C  
ENDROOT
BRANCH  18  23
HETATM   23  O   UNL     1      -7.267   8.713  67.414  1.00  0.00    -0.079 OA 
BRANCH  23  24
HETATM   24  C   UNL     1      -6.740   8.354  68.704  1.00  0.00    -0.059 C  
HETATM   25  O   UNL     1      -7.615   7.422  69.359  1.00  0.00    -0.092 OA 
HETATM   26  C   UNL     1      -7.033   6.870  70.554  1.00  0.00    -0.063 C  
HETATM   27  C   UNL     1      -6.897   7.981  71.583  1.00  0.00    -0.057 C  
HETATM   28  H   UNL     1      -5.676  10.924  71.619  1.00  0.00     0.000 HD 
HETATM   29  C   UNL     1      -5.993   9.096  71.066  1.00  0.00    -0.055 C  
HETATM   30  H   UNL     1      -6.290   8.212  73.477  1.00  0.00     0.000 HD 
HETATM   31  O   UNL     1      -6.374   7.518  72.835  1.00  0.00    -0.058 OA 
HETATM   32  O   UNL     1      -6.239  10.229  71.941  1.00  0.00    -0.099 OA 
HETATM   33  C   UNL     1      -6.272   9.529  69.620  1.00  0.00    -0.040 C  
BRANCH  26  34
HETATM   34  C   UNL     1      -7.952   5.761  71.084  1.00  0.00    -0.112 C  
HETATM   35  H   UNL     1      -9.488   4.735  70.421  1.00  0.00     0.000 HD 
HETATM   36  O   UNL     1      -8.919   5.421  70.093  1.00  0.00    -0.129 OA 
ENDBRANCH  26  34
BRANCH  33  37
HETATM   37  O   UNL     1      -5.141  10.163  68.973  1.00  0.00    -0.036 OA 
BRANCH  37  38
HETATM   38  C   UNL     1      -5.130  11.589  68.776  1.00  0.00    -0.046 C  
HETATM   39  O   UNL     1      -5.173  12.234  70.034  1.00  0.00    -0.076 OA 
HETATM   40  C   UNL     1      -5.318  13.651  70.055  1.00  0.00    -0.099 C  
HETATM   41  C   UNL     1      -6.420  14.184  69.132  1.00  0.00    -0.111 C  
HETATM   42  H   UNL     1      -6.474  11.990  65.801  1.00  0.00     0.000 HD 
HETATM   43  O   UNL     1      -5.826  11.687  66.426  1.00  0.00    -0.179 OA 
HETATM   44  O   UNL     1      -6.333  15.611  69.045  1.00  0.00    -0.114 OA 
HETATM   45  C   UNL     1      -6.282  13.598  67.739  1.00  0.00    -0.152 C  
HETATM   46  H   UNL     1      -7.320  13.622  66.050  1.00  0.00     0.000 HD 
HETATM   47  O   UNL     1      -7.406  13.990  66.921  1.00  0.00     0.140 OA 
HETATM   48  H   UNL     1      -7.016  15.942  68.473  1.00  0.00     0.000 HD 
HETATM   49  C   UNL     1      -6.183  12.080  67.762  1.00  0.00    -0.081 C  
BRANCH  40  50
HETATM   50  C   UNL     1      -5.659  14.029  71.510  1.00  0.00    -0.235 C  
HETATM   51  O   UNL     1      -5.657  12.895  72.381  1.00  0.00    -0.286 OA 
HETATM   52  H   UNL     1      -5.867  13.128  73.278  1.00  0.00     0.000 HD 
ENDBRANCH  40  50
ENDBRANCH  37  38
ENDBRANCH  33  37
ENDBRANCH  23  24
ENDBRANCH  18  23
TORSDOF 6
ENDMDL
MODEL      160
REMARK 921   NORMALIZED FREE ENERGY PREDICTED BY IDOCK:   -0.07 KCAL/MOL
REMARK 922        TOTAL FREE ENERGY PREDICTED BY IDOCK:   -2.07 KCAL/MOL
REMARK 923 INTER-LIGAND FREE ENERGY PREDICTED BY IDOCK:   -4.42 KCAL/MOL
REMARK 924 INTRA-LIGAND FREE ENERGY PREDICTED BY IDOCK:    2.35 KCAL/MOL
REMARK 927      BINDING AFFINITY PREDICTED BY RF-SCORE:    0.00 PKD
ROOT
HETATM    1  C   UNL     1     -11.719   7.051  68.107  1.00  0.00     0.983 C  
HETATM    2  C   UNL     1     -10.281   7.042  68.762  1.00  0.00    -0.181 C  
HETATM    3  C   UNL     1      -9.571   5.777  68.285  1.00  0.00    -0.139 C  
HETATM    4  C   UNL     1      -8.258   5.591  69.019  1.00  0.00    -0.099 C  
HETATM    5  C   UNL     1      -8.447   5.277  70.485  1.00  0.00    -0.120 C  
HETATM    6  C   UNL     1      -9.597   6.002  71.261  1.00  0.00    -0.189 C  
HETATM    7  C   UNL     1     -10.562   6.904  70.321  1.00  0.00    -0.246 C  
HETATM    8  C   UNL     1      -9.045   6.831  72.455  1.00  0.00    -0.142 C  
HETATM    9  C   UNL     1     -10.206   4.790  72.065  1.00  0.00    -0.195 C  
HETATM   10  O   UNL     1      -9.521   4.118  72.845  1.00  0.00    -0.120 OA 
HETATM   11  O   UNL     1     -11.488   4.458  71.904  1.00  0.00     0.723 OA 
HETATM   12  C   UNL     1     -11.082   8.253  70.861  1.00  0.00    -0.289 C  
HETATM   13  C   UNL     1     -10.293   9.469  70.424  1.00  0.00    -0.334 C  
HETATM   14  C   UNL     1      -9.953   9.683  68.943  1.00  0.00    -0.186 C  
HETATM   15  C   UNL     1     -10.912  10.507  68.060  1.00  0.00    -0.345 C  
HETATM   16  C   UNL     1      -9.957  11.177  67.066  1.00  0.00    -0.223 C  
HETATM   17  C   UNL     1     -10.397  11.919  66.041  1.00  0.00    -0.268 C  
HETATM   18  C   UNL     1      -8.486  11.001  67.514  1.00  0.00    -0.127 C  
HETATM   19  C   UNL     1      -7.820   9.751  66.894  1.00  0.00    -0.102 C  
HETATM   20  C   UNL     1      -9.589   8.373  68.180  1.00  0.00    -0.158 C  
HETATM   21  C   UNL     1      -8.790  10.700  68.964  1.00  0.00    -0.154 C  
HETATM   22  C   UNL     1      -8.114   8.440  67.692  1.00  0.00    -0.118 C  
ENDROOT
BRANCH  18  23
HETATM   23  O   UNL     1      -7.808  12.234  67.284  1.00  0.00    -0.160 OA 
BRANCH  23  24
HETATM   24  C   UNL     1      -8.302  13.518  67.709  1.00  0.00    -0.181 C  
HETATM   25  O   UNL     1      -9.727  13.473  67.876  1.00  0.00    -0.211 OA 
HETATM   26  C   UNL     1     -10.243  14.663  68.501  1.00  0.00    -0.240 C  
HETATM   27  C   UNL     1     -10.055  15.831  67.546  1.00  0.00    -0.245 C  
HETATM   28  H   UNL     1      -7.633  17.034  65.861  1.00  0.00     0.000 HD 
HETATM   29  C   UNL     1      -8.578  16.044  67.230  1.00  0.00    -0.184 C  
HETATM   30  H   UNL     1     -10.471  17.788  67.461  1.00  0.00     0.000 HD 
HETATM   31  O   UNL     1     -10.589  17.059  68.058  1.00  0.00    -0.346 OA 
HETATM   32  O   UNL     1      -8.553  16.902  66.058  1.00  0.00    -0.469 OA 
HETATM   33  C   UNL     1      -7.800  14.760  66.907  1.00  0.00     0.080 C  
BRANCH  26  34
HETATM   34  C   UNL     1     -11.733  14.455  68.802  1.00  0.00    -0.337 C  
HETATM   35  H   UNL     1     -13.012  15.034  70.175  1.00  0.00     0.000 HD 
HETATM   36  O   UNL     1     -12.089  15.163  69.988  1.00  0.00    -0.308 OA 
ENDBRANCH  26  34
BRANCH  33  37
HETATM   37  O   UNL     1      -6.372  14.873  67.127  1.00  0.00    -0.258 OA 
BRANCH  37  38
HETATM   38  C   UNL     1      -5.807  14.500  68.397  1.00  0.00    -0.105 C  
HETATM   39  O   UNL     1      -5.579  13.105  68.416  1.00  0.00    -0.070 OA 
HETATM   40  C   UNL     1      -5.159  12.512  69.642  1.00  0.00    -0.073 C  
HETATM   41  C   UNL     1      -5.977  12.946  70.864  1.00  0.00     0.147 C  
HETATM   42  H   UNL     1      -6.926  16.800  70.466  1.00  0.00     0.000 HD 
HETATM   43  O   UNL     1      -6.439  16.466  69.721  1.00  0.00    -0.212 OA 
HETATM   44  O   UNL     1      -5.341  12.489  72.062  1.00  0.00    -0.385 OA 
HETATM   45  C   UNL     1      -6.096  14.458  70.918  1.00  0.00    -0.142 C  
HETATM   46  H   UNL     1      -7.064  15.795  72.019  1.00  0.00     0.000 HD 
HETATM   47  O   UNL     1      -6.989  14.848  71.985  1.00  0.00     1.597 OA 
HETATM   48  H   UNL     1      -5.847  12.758  72.820  1.00  0.00     0.000 HD 
HETATM   49  C   UNL     1      -6.597  15.042  69.606  1.00  0.00    -0.166 C  
BRANCH  40  50
HETATM   50  C   UNL     1      -5.306  10.989  69.457  1.00  0.00    -0.038 C  
HETATM   51  O   UNL     1      -5.963  10.368  70.566  1.00  0.00    -0.090 OA 
HETATM   52  H   UNL     1      -6.053   9.429  70.452  1.00  0.00     0.000 HD 
ENDBRANCH  40  50
ENDBRANCH  37  38
ENDBRANCH  33  37
ENDBRANCH  23  24
ENDBRANCH  18  23
TORSDOF 6
ENDMDL
MODEL      161
REMARK 921   NORMALIZED FREE ENERGY PREDICTED BY IDOCK:   -0.06 KCAL/MOL
REMARK 922        TOTAL FREE ENERGY PREDICTED BY IDOCK:   -2.07 KCAL/MOL
REMARK 923 INTER-LIGAND FREE ENERGY PREDICTED BY IDOCK:   -2.14 KCAL/MOL
REMARK 924 INTRA-LIGAND FREE ENERGY PREDICTED BY IDOCK:    0.08 KCAL/MOL
REMARK 927      BINDING AFFINITY PREDICTED BY RF-SCORE:    0.00 PKD
ROOT
HETATM    1  C   UNL     1     -10.647  10.911  70.063  1.00  0.00     0.056 C  
HETATM    2  C   UNL     1      -9.597  11.143  68.906  1.00  0.00    -0.154 C  
HETATM    3  C   UNL     1      -8.298  11.615  69.557  1.00  0.00     0.843 C  
HETATM    4  C   UNL     1      -7.298  12.047  68.504  1.00  0.00    -0.111 C  
HETATM    5  C   UNL     1      -7.722  13.299  67.773  1.00  0.00    -0.159 C  
HETATM    6  C   UNL     1      -9.237  13.485  67.430  1.00  0.00    -0.223 C  
HETATM    7  C   UNL     1     -10.204  12.347  68.063  1.00  0.00    -0.219 C  
HETATM    8  C   UNL     1      -9.463  13.621  65.897  1.00  0.00    -0.057 C  
HETATM    9  C   UNL     1      -9.440  14.994  67.842  1.00  0.00    -0.195 C  
HETATM   10  O   UNL     1      -8.771  15.901  67.332  1.00  0.00    -0.174 OA 
HETATM   11  O   UNL     1     -10.341  15.318  68.769  1.00  0.00    -0.219 OA 
HETATM   12  C   UNL     1     -11.394  11.829  67.230  1.00  0.00    -0.379 C  
HETATM   13  C   UNL     1     -11.141  10.540  66.477  1.00  0.00     0.050 C  
HETATM   14  C   UNL     1     -10.540   9.325  67.196  1.00  0.00    -0.286 C  
HETATM   15  C   UNL     1     -11.481   8.281  67.831  1.00  0.00     1.298 C  
HETATM   16  C   UNL     1     -10.690   6.978  67.667  1.00  0.00    -0.331 C  
HETATM   17  C   UNL     1     -11.113   5.816  68.182  1.00  0.00     0.022 C  
HETATM   18  C   UNL     1      -9.481   7.184  66.723  1.00  0.00    -0.169 C  
HETATM   19  C   UNL     1      -8.187   7.555  67.485  1.00  0.00    -0.113 C  
HETATM   20  C   UNL     1      -9.438   9.688  68.238  1.00  0.00    -0.145 C  
HETATM   21  C   UNL     1     -10.005   8.434  66.053  1.00  0.00     0.023 C  
HETATM   22  C   UNL     1      -8.075   9.081  67.797  1.00  0.00    -0.109 C  
ENDROOT
BRANCH  18  23
HETATM   23  O   UNL     1      -9.387   6.041  65.877  1.00  0.00    -0.126 OA 
BRANCH  23  24
HETATM   24  C   UNL     1      -8.224   5.196  65.788  1.00  0.00    -0.117 C  
HETATM   25  O   UNL     1      -7.392   5.607  64.693  1.00  0.00    -0.063 OA 
HETATM   26  C   UNL     1      -6.119   4.935  64.690  1.00  0.00    -0.026 C  
HETATM   27  C   UNL     1      -6.351   3.461  64.399  1.00  0.00    -0.023 C  
HETATM   28  H   UNL     1      -8.240   1.174  65.562  1.00  0.00     0.000 HD 
HETATM   29  C   UNL     1      -7.238   2.828  65.466  1.00  0.00    -0.066 C  
HETATM   30  H   UNL     1      -5.277   1.791  64.138  1.00  0.00     0.000 HD 
HETATM   31  O   UNL     1      -5.132   2.712  64.320  1.00  0.00    -0.007 OA 
HETATM   32  O   UNL     1      -7.687   1.568  64.897  1.00  0.00    -0.061 OA 
HETATM   33  C   UNL     1      -8.473   3.655  65.847  1.00  0.00    -0.111 C  
BRANCH  26  34
HETATM   34  C   UNL     1      -5.233   5.561  63.604  1.00  0.00    -0.013 C  
HETATM   35  H   UNL     1      -4.657   7.365  63.088  1.00  0.00     0.000 HD 
HETATM   36  O   UNL     1      -5.205   6.978  63.761  1.00  0.00    -0.027 OA 
ENDBRANCH  26  34
BRANCH  33  37
HETATM   37  O   UNL     1      -8.998   3.349  67.162  1.00  0.00    -0.128 OA 
BRANCH  37  38
HETATM   38  C   UNL     1      -8.097   3.114  68.260  1.00  0.00    -0.069 C  
HETATM   39  O   UNL     1      -8.808   2.516  69.327  1.00  0.00    -0.075 OA 
HETATM   40  C   UNL     1      -8.128   2.337  70.566  1.00  0.00    -0.041 C  
HETATM   41  C   UNL     1      -7.361   3.574  71.048  1.00  0.00    -0.037 C  
HETATM   42  H   UNL     1      -5.772   5.410  67.883  1.00  0.00     0.000 HD 
HETATM   43  O   UNL     1      -6.285   4.647  67.642  1.00  0.00    -0.033 OA 
HETATM   44  O   UNL     1      -6.531   3.228  72.162  1.00  0.00    -0.014 OA 
HETATM   45  C   UNL     1      -6.486   4.128  69.938  1.00  0.00    -0.032 C  
HETATM   46  H   UNL     1      -5.337   5.720  69.659  1.00  0.00     0.000 HD 
HETATM   47  O   UNL     1      -5.884   5.373  70.354  1.00  0.00    -0.019 OA 
HETATM   48  H   UNL     1      -6.055   3.994  72.461  1.00  0.00     0.000 HD 
HETATM   49  C   UNL     1      -7.265   4.352  68.651  1.00  0.00    -0.056 C  
BRANCH  40  50
HETATM   50  C   UNL     1      -9.210   1.983  71.606  1.00  0.00    -0.096 C  
HETATM   51  O   UNL     1      -9.802   3.146  72.191  1.00  0.00    -0.150 OA 
HETATM   52  H   UNL     1     -10.468   2.927  72.832  1.00  0.00     0.000 HD 
ENDBRANCH  40  50
ENDBRANCH  37  38
ENDBRANCH  33  37
ENDBRANCH  23  24
ENDBRANCH  18  23
TORSDOF 6
ENDMDL
MODEL      162
REMARK 921   NORMALIZED FREE ENERGY PREDICTED BY IDOCK:    0.84 KCAL/MOL
REMARK 922        TOTAL FREE ENERGY PREDICTED BY IDOCK:   -0.85 KCAL/MOL
REMARK 923 INTER-LIGAND FREE ENERGY PREDICTED BY IDOCK:   -1.77 KCAL/MOL
REMARK 924 INTRA-LIGAND FREE ENERGY PREDICTED BY IDOCK:    0.92 KCAL/MOL
REMARK 927      BINDING AFFINITY PREDICTED BY RF-SCORE:    0.00 PKD
ROOT
HETATM    1  C   UNL     1     -10.276  16.185  68.494  1.00  0.00    -0.241 C  
HETATM    2  C   UNL     1      -8.721  16.253  68.220  1.00  0.00    -0.190 C  
HETATM    3  C   UNL     1      -8.132  17.277  69.187  1.00  0.00    -0.006 C  
HETATM    4  C   UNL     1      -6.677  17.546  68.860  1.00  0.00    -0.239 C  
HETATM    5  C   UNL     1      -6.497  18.262  67.542  1.00  0.00    -0.195 C  
HETATM    6  C   UNL     1      -7.431  17.874  66.348  1.00  0.00    -0.308 C  
HETATM    7  C   UNL     1      -8.610  16.833  66.743  1.00  0.00    -0.264 C  
HETATM    8  C   UNL     1      -6.615  17.358  65.128  1.00  0.00     1.598 C  
HETATM    9  C   UNL     1      -7.808  19.305  65.804  1.00  0.00    -0.061 C  
HETATM   10  O   UNL     1      -6.942  20.105  65.428  1.00  0.00    -0.304 OA 
HETATM   11  O   UNL     1      -9.085  19.686  65.752  1.00  0.00    -0.377 OA 
HETATM   12  C   UNL     1      -9.001  15.730  65.738  1.00  0.00    -0.072 C  
HETATM   13  C   UNL     1      -8.361  14.380  65.980  1.00  0.00     1.333 C  
HETATM   14  C   UNL     1      -8.397  13.743  67.376  1.00  0.00    -0.201 C  
HETATM   15  C   UNL     1      -9.555  12.793  67.742  1.00  0.00    -0.204 C  
HETATM   16  C   UNL     1      -8.882  11.800  68.697  1.00  0.00    -0.062 C  
HETATM   17  C   UNL     1      -9.570  10.846  69.338  1.00  0.00     0.009 C  
HETATM   18  C   UNL     1      -7.344  11.969  68.670  1.00  0.00    -0.111 C  
HETATM   19  C   UNL     1      -6.832  12.943  69.756  1.00  0.00     0.265 C  
HETATM   20  C   UNL     1      -8.212  14.761  68.542  1.00  0.00    -0.153 C  
HETATM   21  C   UNL     1      -7.279  12.677  67.336  1.00  0.00    -0.138 C  
HETATM   22  C   UNL     1      -6.902  14.442  69.319  1.00  0.00    -0.129 C  
ENDROOT
BRANCH  18  23
HETATM   23  O   UNL     1      -6.760  10.668  68.690  1.00  0.00    -0.055 OA 
BRANCH  23  24
HETATM   24  C   UNL     1      -6.826   9.738  67.593  1.00  0.00    -0.085 C  
HETATM   25  O   UNL     1      -6.177  10.285  66.436  1.00  0.00    -0.066 OA 
HETATM   26  C   UNL     1      -6.028   9.316  65.381  1.00  0.00    -0.062 C  
HETATM   27  C   UNL     1      -7.408   8.960  64.854  1.00  0.00    -0.093 C  
HETATM   28  H   UNL     1     -10.175   8.037  66.137  1.00  0.00     0.000 HD 
HETATM   29  C   UNL     1      -8.274   8.357  65.956  1.00  0.00    -0.112 C  
HETATM   30  H   UNL     1      -8.226   7.814  63.429  1.00  0.00     0.000 HD 
HETATM   31  O   UNL     1      -7.363   8.037  63.758  1.00  0.00    -0.090 OA 
HETATM   32  O   UNL     1      -9.636   8.412  65.451  1.00  0.00     0.146 OA 
HETATM   33  C   UNL     1      -8.223   9.107  67.294  1.00  0.00    -0.114 C  
BRANCH  26  34
HETATM   34  C   UNL     1      -5.172   9.929  64.265  1.00  0.00    -0.074 C  
HETATM   35  H   UNL     1      -5.484  10.785  62.526  1.00  0.00     0.000 HD 
HETATM   36  O   UNL     1      -6.013  10.405  63.217  1.00  0.00    -0.143 OA 
ENDBRANCH  26  34
BRANCH  33  37
HETATM   37  O   UNL     1      -8.586   8.291  68.435  1.00  0.00    -0.131 OA 
BRANCH  37  38
HETATM   38  C   UNL     1      -7.750   7.187  68.826  1.00  0.00    -0.116 C  
HETATM   39  O   UNL     1      -7.739   6.220  67.793  1.00  0.00    -0.099 OA 
HETATM   40  C   UNL     1      -7.086   4.979  68.045  1.00  0.00    -0.062 C  
HETATM   41  C   UNL     1      -7.451   4.337  69.388  1.00  0.00    -0.054 C  
HETATM   42  H   UNL     1      -7.879   7.220  72.112  1.00  0.00     0.000 HD 
HETATM   43  O   UNL     1      -7.678   7.561  71.249  1.00  0.00    -0.083 OA 
HETATM   44  O   UNL     1      -6.580   3.232  69.651  1.00  0.00    -0.032 OA 
HETATM   45  C   UNL     1      -7.320   5.344  70.517  1.00  0.00    -0.071 C  
HETATM   46  H   UNL     1      -7.725   5.403  72.457  1.00  0.00     0.000 HD 
HETATM   47  O   UNL     1      -7.807   4.773  71.751  1.00  0.00    -0.093 OA 
HETATM   48  H   UNL     1      -6.806   2.833  70.484  1.00  0.00     0.000 HD 
HETATM   49  C   UNL     1      -8.076   6.632  70.227  1.00  0.00    -0.121 C  
BRANCH  40  50
HETATM   50  C   UNL     1      -7.508   4.030  66.906  1.00  0.00    -0.073 C  
HETATM   51  O   UNL     1      -6.556   2.986  66.688  1.00  0.00    -0.035 OA 
HETATM   52  H   UNL     1      -6.816   2.401  65.986  1.00  0.00     0.000 HD 
ENDBRANCH  40  50
ENDBRANCH  37  38
ENDBRANCH  33  37
ENDBRANCH  23  24
ENDBRANCH  18  23
TORSDOF 6
ENDMDL
MODEL      163
REMARK 921   NORMALIZED FREE ENERGY PREDICTED BY IDOCK:    0.96 KCAL/MOL
REMARK 922        TOTAL FREE ENERGY PREDICTED BY IDOCK:   -0.69 KCAL/MOL
REMARK 923 INTER-LIGAND FREE ENERGY PREDICTED BY IDOCK:   -1.19 KCAL/MOL
REMARK 924 INTRA-LIGAND FREE ENERGY PREDICTED BY IDOCK:    0.50 KCAL/MOL
REMARK 927      BINDING AFFINITY PREDICTED BY RF-SCORE:    0.00 PKD
ROOT
HETATM    1  C   UNL     1      -7.424  15.256  66.020  1.00  0.00     2.707 C  
HETATM    2  C   UNL     1      -7.618  15.017  67.569  1.00  0.00    -0.216 C  
HETATM    3  C   UNL     1      -8.741  15.941  68.037  1.00  0.00    -0.169 C  
HETATM    4  C   UNL     1      -8.860  15.916  69.547  1.00  0.00    -0.115 C  
HETATM    5  C   UNL     1      -7.670  16.539  70.239  1.00  0.00     1.886 C  
HETATM    6  C   UNL     1      -6.247  16.297  69.637  1.00  0.00    -0.195 C  
HETATM    7  C   UNL     1      -6.253  15.515  68.216  1.00  0.00    -0.123 C  
HETATM    8  C   UNL     1      -5.307  15.595  70.658  1.00  0.00    -0.148 C  
HETATM    9  C   UNL     1      -5.651  17.755  69.718  1.00  0.00    -0.227 C  
HETATM   10  O   UNL     1      -5.564  18.361  70.793  1.00  0.00    -0.223 OA 
HETATM   11  O   UNL     1      -5.237  18.371  68.610  1.00  0.00    -0.173 OA 
HETATM   12  C   UNL     1      -5.151  14.474  67.931  1.00  0.00    -0.051 C  
HETATM   13  C   UNL     1      -5.538  13.035  68.200  1.00  0.00    -0.093 C  
HETATM   14  C   UNL     1      -6.846  12.464  67.636  1.00  0.00    -0.132 C  
HETATM   15  C   UNL     1      -6.834  11.766  66.261  1.00  0.00     0.370 C  
HETATM   16  C   UNL     1      -7.919  10.696  66.422  1.00  0.00    -0.142 C  
HETATM   17  C   UNL     1      -8.308   9.913  65.407  1.00  0.00    -0.150 C  
HETATM   18  C   UNL     1      -8.347  10.566  67.904  1.00  0.00    -0.115 C  
HETATM   19  C   UNL     1      -9.559  11.460  68.255  1.00  0.00    -0.192 C  
HETATM   20  C   UNL     1      -8.039  13.466  67.665  1.00  0.00    -0.175 C  
HETATM   21  C   UNL     1      -7.109  11.203  68.491  1.00  0.00    -0.080 C  
HETATM   22  C   UNL     1      -9.157  12.929  68.604  1.00  0.00     0.044 C  
ENDROOT
BRANCH  18  23
HETATM   23  O   UNL     1      -8.506   9.179  68.194  1.00  0.00    -0.123 OA 
BRANCH  23  24
HETATM   24  C   UNL     1      -9.068   8.670  69.418  1.00  0.00    -0.149 C  
HETATM   25  O   UNL     1     -10.323   9.309  69.695  1.00  0.00    -0.199 OA 
HETATM   26  C   UNL     1     -11.025   8.689  70.787  1.00  0.00    -0.245 C  
HETATM   27  C   UNL     1     -10.238   8.929  72.066  1.00  0.00    -0.293 C  
HETATM   28  H   UNL     1      -7.214   8.542  72.992  1.00  0.00     0.000 HD 
HETATM   29  C   UNL     1      -8.843   8.320  71.970  1.00  0.00    -0.193 C  
HETATM   30  H   UNL     1     -10.395   8.543  74.025  1.00  0.00     0.000 HD 
HETATM   31  O   UNL     1     -10.887   8.393  73.227  1.00  0.00     0.176 OA 
HETATM   32  O   UNL     1      -8.083   8.921  73.053  1.00  0.00    -0.380 OA 
HETATM   33  C   UNL     1      -8.111   8.599  70.650  1.00  0.00    -0.120 C  
BRANCH  26  34
HETATM   34  C   UNL     1     -12.422   9.315  70.895  1.00  0.00    -0.128 C  
HETATM   35  H   UNL     1     -14.184   8.779  71.574  1.00  0.00     0.000 HD 
HETATM   36  O   UNL     1     -13.319   8.392  71.508  1.00  0.00    -0.327 OA 
ENDBRANCH  26  34
BRANCH  33  37
HETATM   37  O   UNL     1      -7.074   7.635  70.342  1.00  0.00    -0.056 OA 
BRANCH  37  38
HETATM   38  C   UNL     1      -7.430   6.308  69.909  1.00  0.00    -0.084 C  
HETATM   39  O   UNL     1      -7.955   6.370  68.597  1.00  0.00    -0.104 OA 
HETATM   40  C   UNL     1      -8.505   5.180  68.040  1.00  0.00    -0.100 C  
HETATM   41  C   UNL     1      -9.462   4.431  68.974  1.00  0.00    -0.168 C  
HETATM   42  H   UNL     1      -8.087   4.711  72.709  1.00  0.00     0.000 HD 
HETATM   43  O   UNL     1      -7.547   5.182  72.085  1.00  0.00    -0.093 OA 
HETATM   44  O   UNL     1      -9.773   3.147  68.424  1.00  0.00    -0.118 OA 
HETATM   45  C   UNL     1      -8.834   4.239  70.343  1.00  0.00    -0.085 C  
HETATM   46  H   UNL     1      -9.403   3.547  72.112  1.00  0.00     0.000 HD 
HETATM   47  O   UNL     1      -9.796   3.667  71.255  1.00  0.00    -0.179 OA 
HETATM   48  H   UNL     1     -10.367   2.682  69.002  1.00  0.00     0.000 HD 
HETATM   49  C   UNL     1      -8.308   5.544  70.921  1.00  0.00    -0.120 C  
BRANCH  40  50
HETATM   50  C   UNL     1      -9.275   5.611  66.776  1.00  0.00    -0.128 C  
HETATM   51  O   UNL     1     -10.470   4.851  66.582  1.00  0.00    -0.262 OA 
HETATM   52  H   UNL     1     -10.944   5.117  65.803  1.00  0.00     0.000 HD 
ENDBRANCH  40  50
ENDBRANCH  37  38
ENDBRANCH  33  37
ENDBRANCH  23  24
ENDBRANCH  18  23
TORSDOF 6
ENDMDL
MODEL      164
REMARK 921   NORMALIZED FREE ENERGY PREDICTED BY IDOCK:    1.38 KCAL/MOL
REMARK 922        TOTAL FREE ENERGY PREDICTED BY IDOCK:   -0.12 KCAL/MOL
REMARK 923 INTER-LIGAND FREE ENERGY PREDICTED BY IDOCK:   -0.16 KCAL/MOL
REMARK 924 INTRA-LIGAND FREE ENERGY PREDICTED BY IDOCK:    0.05 KCAL/MOL
REMARK 927      BINDING AFFINITY PREDICTED BY RF-SCORE:    0.00 PKD
ROOT
HETATM    1  C   UNL     1      -5.240  15.116  67.748  1.00  0.00    -0.062 C  
HETATM    2  C   UNL     1      -6.808  15.003  67.597  1.00  0.00    -0.203 C  
HETATM    3  C   UNL     1      -7.195  15.720  66.305  1.00  0.00     1.161 C  
HETATM    4  C   UNL     1      -8.702  15.827  66.184  1.00  0.00    -0.293 C  
HETATM    5  C   UNL     1      -9.308  16.750  67.215  1.00  0.00    -0.234 C  
HETATM    6  C   UNL     1      -8.713  16.745  68.662  1.00  0.00    -0.255 C  
HETATM    7  C   UNL     1      -7.380  15.835  68.826  1.00  0.00    -0.141 C  
HETATM    8  C   UNL     1      -9.786  16.360  69.720  1.00  0.00     0.088 C  
HETATM    9  C   UNL     1      -8.636  18.295  68.944  1.00  0.00    -0.132 C  
HETATM   10  O   UNL     1      -9.641  19.013  68.897  1.00  0.00    -0.376 OA 
HETATM   11  O   UNL     1      -7.465  18.864  69.230  1.00  0.00    -0.242 OA 
HETATM   12  C   UNL     1      -7.187  15.020  70.121  1.00  0.00     0.101 C  
HETATM   13  C   UNL     1      -7.607  13.568  70.037  1.00  0.00     1.354 C  
HETATM   14  C   UNL     1      -7.125  12.685  68.879  1.00  0.00    -0.069 C  
HETATM   15  C   UNL     1      -5.828  11.865  69.044  1.00  0.00    -0.059 C  
HETATM   16  C   UNL     1      -6.114  10.617  68.201  1.00  0.00    -0.050 C  
HETATM   17  C   UNL     1      -5.190   9.671  67.989  1.00  0.00    -0.040 C  
HETATM   18  C   UNL     1      -7.608  10.557  67.799  1.00  0.00    -0.088 C  
HETATM   19  C   UNL     1      -7.883  11.214  66.426  1.00  0.00    -0.136 C  
HETATM   20  C   UNL     1      -7.069  13.418  67.504  1.00  0.00    -0.154 C  
HETATM   21  C   UNL     1      -8.107  11.492  68.876  1.00  0.00    -0.035 C  
HETATM   22  C   UNL     1      -8.074  12.762  66.515  1.00  0.00     0.395 C  
ENDROOT
BRANCH  18  23
HETATM   23  O   UNL     1      -8.040   9.204  67.927  1.00  0.00    -0.104 OA 
BRANCH  23  24
HETATM   24  C   UNL     1      -8.398   8.587  69.178  1.00  0.00    -0.120 C  
HETATM   25  O   UNL     1      -7.232   8.056  69.824  1.00  0.00    -0.062 OA 
HETATM   26  C   UNL     1      -7.500   7.620  71.170  1.00  0.00    -0.078 C  
HETATM   27  C   UNL     1      -8.428   6.416  71.111  1.00  0.00    -0.124 C  
HETATM   28  H   UNL     1     -11.196   5.734  69.688  1.00  0.00     0.000 HD 
HETATM   29  C   UNL     1      -9.749   6.778  70.438  1.00  0.00    -0.175 C  
HETATM   30  H   UNL     1      -9.292   5.119  72.369  1.00  0.00     0.000 HD 
HETATM   31  O   UNL     1      -8.714   5.871  72.405  1.00  0.00    -0.127 OA 
HETATM   32  O   UNL     1     -10.373   5.508  70.107  1.00  0.00    -0.237 OA 
HETATM   33  C   UNL     1      -9.608   7.600  69.150  1.00  0.00    -0.155 C  
BRANCH  26  34
HETATM   34  C   UNL     1      -6.174   7.239  71.840  1.00  0.00    -0.040 C  
HETATM   35  H   UNL     1      -5.247   7.652  73.520  1.00  0.00     0.000 HD 
HETATM   36  O   UNL     1      -6.068   7.888  73.105  1.00  0.00    -0.059 OA 
ENDBRANCH  26  34
BRANCH  33  37
HETATM   37  O   UNL     1     -10.790   8.368  68.816  1.00  0.00    -0.102 OA 
BRANCH  37  38
HETATM   38  C   UNL     1     -11.017   8.788  67.458  1.00  0.00     0.147 C  
HETATM   39  O   UNL     1     -10.005   8.251  66.628  1.00  0.00    -0.247 OA 
HETATM   40  C   UNL     1      -9.964   8.669  65.267  1.00  0.00     1.097 C  
HETATM   41  C   UNL     1     -10.082  10.185  65.071  1.00  0.00    -0.235 C  
HETATM   42  H   UNL     1     -12.641  11.631  67.767  1.00  0.00     0.000 HD 
HETATM   43  O   UNL     1     -12.506  10.695  67.858  1.00  0.00     0.742 OA 
HETATM   44  O   UNL     1     -10.266  10.482  63.682  1.00  0.00    -0.464 OA 
HETATM   45  C   UNL     1     -11.262  10.736  65.851  1.00  0.00     0.327 C  
HETATM   46  H   UNL     1     -12.013  12.524  66.267  1.00  0.00     0.000 HD 
HETATM   47  O   UNL     1     -11.275  12.178  65.778  1.00  0.00    -0.314 OA 
HETATM   48  H   UNL     1     -10.339  11.422  63.560  1.00  0.00     0.000 HD 
HETATM   49  C   UNL     1     -11.236  10.307  67.310  1.00  0.00    -0.011 C  
BRANCH  40  50
HETATM   50  C   UNL     1      -8.606   8.197  64.711  1.00  0.00     0.027 C  
HETATM   51  O   UNL     1      -8.533   8.311  63.287  1.00  0.00    -0.380 OA 
HETATM   52  H   UNL     1      -7.696   8.019  62.945  1.00  0.00     0.000 HD 
ENDBRANCH  40  50
ENDBRANCH  37  38
ENDBRANCH  33  37
ENDBRANCH  23  24
ENDBRANCH  18  23
TORSDOF 6
ENDMDL
MODEL      165
REMARK 921   NORMALIZED FREE ENERGY PREDICTED BY IDOCK:    1.51 KCAL/MOL
REMARK 922        TOTAL FREE ENERGY PREDICTED BY IDOCK:    0.06 KCAL/MOL
REMARK 923 INTER-LIGAND FREE ENERGY PREDICTED BY IDOCK:   -0.36 KCAL/MOL
REMARK 924 INTRA-LIGAND FREE ENERGY PREDICTED BY IDOCK:    0.42 KCAL/MOL
REMARK 927      BINDING AFFINITY PREDICTED BY RF-SCORE:    0.00 PKD
ROOT
HETATM    1  C   UNL     1      -9.231  15.114  69.595  1.00  0.00    -0.082 C  
HETATM    2  C   UNL     1     -10.712  14.675  69.266  1.00  0.00    -0.254 C  
HETATM    3  C   UNL     1     -11.429  15.889  68.681  1.00  0.00    -0.391 C  
HETATM    4  C   UNL     1     -12.910  15.609  68.518  1.00  0.00     1.564 C  
HETATM    5  C   UNL     1     -13.626  15.464  69.840  1.00  0.00     1.092 C  
HETATM    6  C   UNL     1     -12.891  14.731  71.011  1.00  0.00    -0.415 C  
HETATM    7  C   UNL     1     -11.348  14.351  70.687  1.00  0.00    -0.080 C  
HETATM    8  C   UNL     1     -13.686  13.484  71.492  1.00  0.00    -0.172 C  
HETATM    9  C   UNL     1     -13.217  15.706  72.207  1.00  0.00    -0.472 C  
HETATM   10  O   UNL     1     -14.381  15.969  72.531  1.00  0.00    -0.365 OA 
HETATM   11  O   UNL     1     -12.226  16.279  72.891  1.00  0.00    -0.493 OA 
HETATM   12  C   UNL     1     -10.788  13.007  71.196  1.00  0.00     4.142 C  
HETATM   13  C   UNL     1     -10.794  11.881  70.183  1.00  0.00     0.825 C  
HETATM   14  C   UNL     1     -10.221  12.099  68.777  1.00  0.00    -0.133 C  
HETATM   15  C   UNL     1      -8.737  11.773  68.507  1.00  0.00    -0.118 C  
HETATM   16  C   UNL     1      -8.759  11.307  67.047  1.00  0.00    -0.152 C  
HETATM   17  C   UNL     1      -7.639  11.016  66.373  1.00  0.00    -0.135 C  
HETATM   18  C   UNL     1     -10.212  11.083  66.563  1.00  0.00    -0.234 C  
HETATM   19  C   UNL     1     -10.815  12.337  65.888  1.00  0.00    -0.306 C  
HETATM   20  C   UNL     1     -10.529  13.504  68.177  1.00  0.00    -0.249 C  
HETATM   21  C   UNL     1     -10.826  10.950  67.939  1.00  0.00    -0.295 C  
HETATM   22  C   UNL     1     -11.419  13.353  66.910  1.00  0.00    -0.376 C  
ENDROOT
BRANCH  18  23
HETATM   23  O   UNL     1     -10.233   9.894  65.777  1.00  0.00    -0.265 OA 
BRANCH  23  24
HETATM   24  C   UNL     1      -9.515   8.692  66.112  1.00  0.00    -0.240 C  
HETATM   25  O   UNL     1      -8.519   8.412  65.117  1.00  0.00    -0.168 OA 
HETATM   26  C   UNL     1      -7.636   7.346  65.510  1.00  0.00    -0.094 C  
HETATM   27  C   UNL     1      -8.432   6.052  65.561  1.00  0.00    -0.151 C  
HETATM   28  H   UNL     1     -11.162   5.101  66.903  1.00  0.00     0.000 HD 
HETATM   29  C   UNL     1      -9.567   6.149  66.576  1.00  0.00    -0.151 C  
HETATM   30  H   UNL     1      -8.122   4.107  65.925  1.00  0.00     0.000 HD 
HETATM   31  O   UNL     1      -7.625   4.915  65.893  1.00  0.00    -0.087 OA 
HETATM   32  O   UNL     1     -10.455   5.040  66.270  1.00  0.00    -0.276 OA 
HETATM   33  C   UNL     1     -10.376   7.451  66.510  1.00  0.00    -0.038 C  
BRANCH  26  34
HETATM   34  C   UNL     1      -6.505   7.236  64.480  1.00  0.00    -0.040 C  
HETATM   35  H   UNL     1      -4.752   8.069  64.181  1.00  0.00     0.000 HD 
HETATM   36  O   UNL     1      -5.452   8.137  64.819  1.00  0.00    -0.039 OA 
ENDBRANCH  26  34
BRANCH  33  37
HETATM   37  O   UNL     1     -11.063   7.775  67.744  1.00  0.00     0.012 OA 
BRANCH  37  38
HETATM   38  C   UNL     1     -10.338   8.366  68.838  1.00  0.00    -0.215 C  
HETATM   39  O   UNL     1      -9.008   7.885  68.831  1.00  0.00    -0.141 OA 
HETATM   40  C   UNL     1      -8.164   8.236  69.923  1.00  0.00    -0.123 C  
HETATM   41  C   UNL     1      -8.805   8.043  71.302  1.00  0.00    -0.139 C  
HETATM   42  H   UNL     1     -12.665   9.022  71.069  1.00  0.00     0.000 HD 
HETATM   43  O   UNL     1     -12.219   9.096  70.233  1.00  0.00     0.091 OA 
HETATM   44  O   UNL     1      -7.979   8.636  72.310  1.00  0.00    -0.301 OA 
HETATM   45  C   UNL     1     -10.177   8.689  71.350  1.00  0.00    -0.254 C  
HETATM   46  H   UNL     1     -11.691   8.779  72.628  1.00  0.00     0.000 HD 
HETATM   47  O   UNL     1     -10.832   8.375  72.599  1.00  0.00    -0.342 OA 
HETATM   48  H   UNL     1      -8.376   8.516  73.165  1.00  0.00     0.000 HD 
HETATM   49  C   UNL     1     -11.062   8.245  70.195  1.00  0.00    -0.189 C  
BRANCH  40  50
HETATM   50  C   UNL     1      -6.921   7.330  69.818  1.00  0.00    -0.057 C  
HETATM   51  O   UNL     1      -6.769   6.482  70.959  1.00  0.00    -0.052 OA 
HETATM   52  H   UNL     1      -6.003   5.923  70.893  1.00  0.00     0.000 HD 
ENDBRANCH  40  50
ENDBRANCH  37  38
ENDBRANCH  33  37
ENDBRANCH  23  24
ENDBRANCH  18  23
TORSDOF 6
ENDMDL
MODEL      166
REMARK 921   NORMALIZED FREE ENERGY PREDICTED BY IDOCK:    1.82 KCAL/MOL
REMARK 922        TOTAL FREE ENERGY PREDICTED BY IDOCK:    0.48 KCAL/MOL
REMARK 923 INTER-LIGAND FREE ENERGY PREDICTED BY IDOCK:   -2.29 KCAL/MOL
REMARK 924 INTRA-LIGAND FREE ENERGY PREDICTED BY IDOCK:    2.77 KCAL/MOL
REMARK 927      BINDING AFFINITY PREDICTED BY RF-SCORE:    0.00 PKD
ROOT
HETATM    1  C   UNL     1      -8.279  11.044  69.927  1.00  0.00     0.815 C  
HETATM    2  C   UNL     1      -9.590  10.955  69.051  1.00  0.00    -0.170 C  
HETATM    3  C   UNL     1      -9.483  12.021  67.962  1.00  0.00    -0.199 C  
HETATM    4  C   UNL     1     -10.785  12.134  67.195  1.00  0.00    -0.267 C  
HETATM    5  C   UNL     1     -11.910  12.695  68.033  1.00  0.00    -0.376 C  
HETATM    6  C   UNL     1     -12.008  12.265  69.535  1.00  0.00    -0.333 C  
HETATM    7  C   UNL     1     -10.756  11.370  70.049  1.00  0.00     0.382 C  
HETATM    8  C   UNL     1     -13.361  11.562  69.841  1.00  0.00     1.479 C  
HETATM    9  C   UNL     1     -12.296  13.659  70.212  1.00  0.00    -0.322 C  
HETATM   10  O   UNL     1     -13.278  14.342  69.898  1.00  0.00     0.207 OA 
HETATM   11  O   UNL     1     -11.466  14.136  71.140  1.00  0.00    -0.028 OA 
HETATM   12  C   UNL     1     -11.021  10.207  71.026  1.00  0.00    -0.146 C  
HETATM   13  C   UNL     1     -11.139   8.840  70.385  1.00  0.00    -0.261 C  
HETATM   14  C   UNL     1     -10.074   8.354  69.392  1.00  0.00    -0.198 C  
HETATM   15  C   UNL     1      -8.869   7.545  69.914  1.00  0.00    -0.141 C  
HETATM   16  C   UNL     1      -8.569   6.603  68.742  1.00  0.00    -0.122 C  
HETATM   17  C   UNL     1      -7.512   5.780  68.740  1.00  0.00    -0.085 C  
HETATM   18  C   UNL     1      -9.712   6.641  67.700  1.00  0.00    -0.124 C  
HETATM   19  C   UNL     1      -9.462   7.676  66.578  1.00  0.00    -0.250 C  
HETATM   20  C   UNL     1      -9.540   9.467  68.440  1.00  0.00    -0.157 C  
HETATM   21  C   UNL     1     -10.765   7.201  68.629  1.00  0.00    -0.198 C  
HETATM   22  C   UNL     1      -9.905   9.122  66.968  1.00  0.00    -0.267 C  
ENDROOT
BRANCH  18  23
HETATM   23  O   UNL     1      -9.947   5.305  67.259  1.00  0.00    -0.149 OA 
BRANCH  23  24
HETATM   24  C   UNL     1      -8.904   4.372  66.924  1.00  0.00    -0.114 C  
HETATM   25  O   UNL     1      -8.617   3.521  68.044  1.00  0.00    -0.091 OA 
HETATM   26  C   UNL     1      -7.736   2.436  67.698  1.00  0.00    -0.060 C  
HETATM   27  C   UNL     1      -6.371   3.013  67.357  1.00  0.00    -0.036 C  
HETATM   28  H   UNL     1      -5.277   5.315  65.445  1.00  0.00     0.000 HD 
HETATM   29  C   UNL     1      -6.463   3.968  66.171  1.00  0.00    -0.037 C  
HETATM   30  H   UNL     1      -4.550   2.362  66.836  1.00  0.00     0.000 HD 
HETATM   31  O   UNL     1      -5.402   2.002  67.049  1.00  0.00    -0.015 OA 
HETATM   32  O   UNL     1      -5.219   4.720  66.183  1.00  0.00    -0.008 OA 
HETATM   33  C   UNL     1      -7.631   4.962  66.238  1.00  0.00    -0.087 C  
BRANCH  26  34
HETATM   34  C   UNL     1      -7.629   1.485  68.897  1.00  0.00    -0.042 C  
HETATM   35  H   UNL     1      -6.995   1.583  70.752  1.00  0.00     0.000 HD 
HETATM   36  O   UNL     1      -7.061   2.172  70.009  1.00  0.00    -0.033 OA 
ENDBRANCH  26  34
BRANCH  33  37
HETATM   37  O   UNL     1      -8.032   5.479  64.946  1.00  0.00    -0.101 OA 
BRANCH  37  38
HETATM   38  C   UNL     1      -7.368   6.630  64.392  1.00  0.00    -0.087 C  
HETATM   39  O   UNL     1      -6.619   7.270  65.407  1.00  0.00    -0.046 OA 
HETATM   40  C   UNL     1      -6.004   8.518  65.099  1.00  0.00    -0.048 C  
HETATM   41  C   UNL     1      -6.925   9.516  64.389  1.00  0.00    -0.107 C  
HETATM   42  H   UNL     1      -9.285   7.516  61.871  1.00  0.00     0.000 HD 
HETATM   43  O   UNL     1      -8.708   6.943  62.362  1.00  0.00     0.100 OA 
HETATM   44  O   UNL     1      -6.162  10.632  63.918  1.00  0.00    -0.352 OA 
HETATM   45  C   UNL     1      -7.618   8.860  63.209  1.00  0.00    -0.109 C  
HETATM   46  H   UNL     1      -9.025   9.353  61.901  1.00  0.00     0.000 HD 
HETATM   47  O   UNL     1      -8.592   9.763  62.640  1.00  0.00    -0.158 OA 
HETATM   48  H   UNL     1      -6.733  11.251  63.478  1.00  0.00     0.000 HD 
HETATM   49  C   UNL     1      -8.305   7.560  63.596  1.00  0.00     0.169 C  
BRANCH  40  50
HETATM   50  C   UNL     1      -5.553   9.121  66.444  1.00  0.00    -0.052 C  
HETATM   51  O   UNL     1      -6.401  10.190  66.871  1.00  0.00    -0.066 OA 
HETATM   52  H   UNL     1      -6.122  10.562  67.700  1.00  0.00     0.000 HD 
ENDBRANCH  40  50
ENDBRANCH  37  38
ENDBRANCH  33  37
ENDBRANCH  23  24
ENDBRANCH  18  23
TORSDOF 6
ENDMDL
MODEL      167
REMARK 921   NORMALIZED FREE ENERGY PREDICTED BY IDOCK:    1.88 KCAL/MOL
REMARK 922        TOTAL FREE ENERGY PREDICTED BY IDOCK:    0.55 KCAL/MOL
REMARK 923 INTER-LIGAND FREE ENERGY PREDICTED BY IDOCK:   -1.29 KCAL/MOL
REMARK 924 INTRA-LIGAND FREE ENERGY PREDICTED BY IDOCK:    1.84 KCAL/MOL
REMARK 927      BINDING AFFINITY PREDICTED BY RF-SCORE:    0.00 PKD
ROOT
HETATM    1  C   UNL     1     -13.218  12.685  68.234  1.00  0.00     4.174 C  
HETATM    2  C   UNL     1     -12.310  12.574  69.522  1.00  0.00     0.009 C  
HETATM    3  C   UNL     1     -13.082  11.756  70.555  1.00  0.00     0.319 C  
HETATM    4  C   UNL     1     -12.364  11.767  71.890  1.00  0.00     0.410 C  
HETATM    5  C   UNL     1     -12.366  13.128  72.544  1.00  0.00     0.825 C  
HETATM    6  C   UNL     1     -12.194  14.392  71.638  1.00  0.00    -0.385 C  
HETATM    7  C   UNL     1     -12.194  14.071  70.048  1.00  0.00    -0.414 C  
HETATM    8  C   UNL     1     -10.939  15.217  72.042  1.00  0.00     0.054 C  
HETATM    9  C   UNL     1     -13.308  15.330  72.242  1.00  0.00    -0.428 C  
HETATM   10  O   UNL     1     -13.306  15.656  73.435  1.00  0.00    -0.518 OA 
HETATM   11  O   UNL     1     -14.293  15.783  71.465  1.00  0.00    -0.456 OA 
HETATM   12  C   UNL     1     -11.239  14.857  69.127  1.00  0.00    -0.293 C  
HETATM   13  C   UNL     1      -9.937  14.155  68.799  1.00  0.00    -0.184 C  
HETATM   14  C   UNL     1      -9.941  12.703  68.302  1.00  0.00    -0.229 C  
HETATM   15  C   UNL     1      -9.989  12.425  66.786  1.00  0.00    -0.234 C  
HETATM   16  C   UNL     1      -9.179  11.129  66.660  1.00  0.00    -0.188 C  
HETATM   17  C   UNL     1      -9.054  10.474  65.498  1.00  0.00    -0.214 C  
HETATM   18  C   UNL     1      -8.439  10.813  67.983  1.00  0.00    -0.124 C  
HETATM   19  C   UNL     1      -9.256   9.892  68.917  1.00  0.00    -0.160 C  
HETATM   20  C   UNL     1     -11.001  11.797  69.000  1.00  0.00    -0.276 C  
HETATM   21  C   UNL     1      -8.494  12.216  68.542  1.00  0.00    -0.083 C  
HETATM   22  C   UNL     1     -10.287  10.669  69.798  1.00  0.00    -0.146 C  
ENDROOT
BRANCH  18  23
HETATM   23  O   UNL     1      -7.133  10.347  67.652  1.00  0.00    -0.083 OA 
BRANCH  23  24
HETATM   24  C   UNL     1      -6.793   8.960  67.472  1.00  0.00    -0.071 C  
HETATM   25  O   UNL     1      -6.327   8.730  66.134  1.00  0.00    -0.061 OA 
HETATM   26  C   UNL     1      -5.777   7.411  65.963  1.00  0.00    -0.036 C  
HETATM   27  C   UNL     1      -6.900   6.397  66.104  1.00  0.00    -0.057 C  
HETATM   28  H   UNL     1      -9.204   5.822  68.230  1.00  0.00     0.000 HD 
HETATM   29  C   UNL     1      -7.545   6.486  67.484  1.00  0.00    -0.105 C  
HETATM   30  H   UNL     1      -7.163   4.415  65.984  1.00  0.00     0.000 HD 
HETATM   31  O   UNL     1      -6.461   5.048  65.897  1.00  0.00    -0.038 OA 
HETATM   32  O   UNL     1      -8.802   5.766  67.370  1.00  0.00    -0.109 OA 
HETATM   33  C   UNL     1      -7.845   7.913  67.961  1.00  0.00    -0.127 C  
BRANCH  26  34
HETATM   34  C   UNL     1      -5.144   7.316  64.569  1.00  0.00    -0.029 C  
HETATM   35  H   UNL     1      -5.437   8.126  62.805  1.00  0.00     0.000 HD 
HETATM   36  O   UNL     1      -5.828   8.184  63.668  1.00  0.00    -0.064 OA 
ENDBRANCH  26  34
BRANCH  33  37
HETATM   37  O   UNL     1      -7.947   8.038  69.401  1.00  0.00    -0.111 OA 
BRANCH  37  38
HETATM   38  C   UNL     1      -8.416   6.929  70.189  1.00  0.00    -0.140 C  
HETATM   39  O   UNL     1      -9.523   7.343  70.967  1.00  0.00    -0.158 OA 
HETATM   40  C   UNL     1     -10.043   6.431  71.929  1.00  0.00    -0.183 C  
HETATM   41  C   UNL     1      -8.978   5.767  72.808  1.00  0.00    -0.127 C  
HETATM   42  H   UNL     1      -5.745   5.051  70.583  1.00  0.00     0.000 HD 
HETATM   43  O   UNL     1      -6.433   5.489  70.096  1.00  0.00    -0.032 OA 
HETATM   44  O   UNL     1      -9.567   4.708  73.571  1.00  0.00    -0.123 OA 
HETATM   45  C   UNL     1      -7.860   5.194  71.955  1.00  0.00    -0.111 C  
HETATM   46  H   UNL     1      -6.094   4.346  72.264  1.00  0.00     0.000 HD 
HETATM   47  O   UNL     1      -6.794   4.704  72.797  1.00  0.00    -0.060 OA 
HETATM   48  H   UNL     1      -8.907   4.296  74.116  1.00  0.00     0.000 HD 
HETATM   49  C   UNL     1      -7.300   6.218  70.981  1.00  0.00    -0.084 C  
BRANCH  40  50
HETATM   50  C   UNL     1     -10.996   7.246  72.826  1.00  0.00    -0.323 C  
HETATM   51  O   UNL     1     -10.723   7.061  74.217  1.00  0.00    -0.523 OA 
HETATM   52  H   UNL     1     -11.310   7.563  74.770  1.00  0.00     0.000 HD 
ENDBRANCH  40  50
ENDBRANCH  37  38
ENDBRANCH  33  37
ENDBRANCH  23  24
ENDBRANCH  18  23
TORSDOF 6
ENDMDL
MODEL      168
REMARK 921   NORMALIZED FREE ENERGY PREDICTED BY IDOCK:    2.61 KCAL/MOL
REMARK 922        TOTAL FREE ENERGY PREDICTED BY IDOCK:    1.54 KCAL/MOL
REMARK 923 INTER-LIGAND FREE ENERGY PREDICTED BY IDOCK:    0.93 KCAL/MOL
REMARK 924 INTRA-LIGAND FREE ENERGY PREDICTED BY IDOCK:    0.60 KCAL/MOL
REMARK 927      BINDING AFFINITY PREDICTED BY RF-SCORE:    0.00 PKD
ROOT
HETATM    1  C   UNL     1      -8.342  16.146  67.083  1.00  0.00    -0.225 C  
HETATM    2  C   UNL     1      -9.467  15.096  67.437  1.00  0.00    -0.204 C  
HETATM    3  C   UNL     1     -10.726  15.501  66.674  1.00  0.00    -0.306 C  
HETATM    4  C   UNL     1     -11.909  14.659  67.108  1.00  0.00    -0.367 C  
HETATM    5  C   UNL     1     -12.334  14.936  68.531  1.00  0.00     0.059 C  
HETATM    6  C   UNL     1     -11.226  15.206  69.602  1.00  0.00    -0.288 C  
HETATM    7  C   UNL     1      -9.727  15.310  68.991  1.00  0.00    -0.234 C  
HETATM    8  C   UNL     1     -11.287  14.169  70.760  1.00  0.00     0.145 C  
HETATM    9  C   UNL     1     -11.848  16.447  70.350  1.00  0.00     0.193 C  
HETATM   10  O   UNL     1     -12.960  16.388  70.890  1.00  0.00     0.462 OA 
HETATM   11  O   UNL     1     -11.181  17.599  70.403  1.00  0.00     1.178 OA 
HETATM   12  C   UNL     1      -8.552  14.707  69.787  1.00  0.00     0.424 C  
HETATM   13  C   UNL     1      -8.131  13.317  69.361  1.00  0.00     0.811 C  
HETATM   14  C   UNL     1      -7.874  13.002  67.881  1.00  0.00    -0.149 C  
HETATM   15  C   UNL     1      -6.448  13.155  67.314  1.00  0.00     0.065 C  
HETATM   16  C   UNL     1      -6.396  12.057  66.245  1.00  0.00     0.811 C  
HETATM   17  C   UNL     1      -5.346  11.905  65.427  1.00  0.00     1.969 C  
HETATM   18  C   UNL     1      -7.614  11.110  66.371  1.00  0.00    -0.109 C  
HETATM   19  C   UNL     1      -8.801  11.544  65.480  1.00  0.00     0.036 C  
HETATM   20  C   UNL     1      -8.866  13.701  66.903  1.00  0.00    -0.201 C  
HETATM   21  C   UNL     1      -7.949  11.461  67.802  1.00  0.00    -0.119 C  
HETATM   22  C   UNL     1      -9.704  12.630  66.148  1.00  0.00    -0.253 C  
ENDROOT
BRANCH  18  23
HETATM   23  O   UNL     1      -7.153   9.776  66.169  1.00  0.00    -0.093 OA 
BRANCH  23  24
HETATM   24  C   UNL     1      -7.635   8.636  66.905  1.00  0.00    -0.084 C  
HETATM   25  O   UNL     1      -6.602   7.646  67.024  1.00  0.00    -0.058 OA 
HETATM   26  C   UNL     1      -6.962   6.585  67.928  1.00  0.00    -0.079 C  
HETATM   27  C   UNL     1      -8.111   5.798  67.317  1.00  0.00    -0.102 C  
HETATM   28  H   UNL     1     -10.950   6.510  66.058  1.00  0.00     0.000 HD 
HETATM   29  C   UNL     1      -9.328   6.692  67.099  1.00  0.00    -0.134 C  
HETATM   30  H   UNL     1      -9.225   4.189  67.739  1.00  0.00     0.000 HD 
HETATM   31  O   UNL     1      -8.508   4.680  68.121  1.00  0.00    -0.100 OA 
HETATM   32  O   UNL     1     -10.192   5.953  66.194  1.00  0.00    -0.070 OA 
HETATM   33  C   UNL     1      -9.017   8.056  66.468  1.00  0.00    -0.157 C  
BRANCH  26  34
HETATM   34  C   UNL     1      -5.742   5.677  68.132  1.00  0.00    -0.012 C  
HETATM   35  H   UNL     1      -5.349   3.757  68.010  1.00  0.00     0.000 HD 
HETATM   36  O   UNL     1      -6.104   4.320  67.884  1.00  0.00    -0.029 OA 
ENDBRANCH  26  34
BRANCH  33  37
HETATM   37  O   UNL     1     -10.020   9.066  66.740  1.00  0.00    -0.216 OA 
BRANCH  37  38
HETATM   38  C   UNL     1     -10.172   9.589  68.072  1.00  0.00    -0.201 C  
HETATM   39  O   UNL     1      -9.615   8.677  68.998  1.00  0.00    -0.159 OA 
HETATM   40  C   UNL     1      -9.796   8.940  70.387  1.00  0.00    -0.189 C  
HETATM   41  C   UNL     1     -11.233   9.303  70.777  1.00  0.00    -0.288 C  
HETATM   42  H   UNL     1     -12.831  11.515  67.868  1.00  0.00     0.000 HD 
HETATM   43  O   UNL     1     -11.945  11.236  67.669  1.00  0.00    -0.634 OA 
HETATM   44  O   UNL     1     -11.266   9.772  72.130  1.00  0.00     0.256 OA 
HETATM   45  C   UNL     1     -11.777  10.389  69.868  1.00  0.00    -0.264 C  
HETATM   46  H   UNL     1     -13.516  11.298  69.578  1.00  0.00     0.000 HD 
HETATM   47  O   UNL     1     -13.175  10.618  70.148  1.00  0.00    -0.093 OA 
HETATM   48  H   UNL     1     -12.156   9.998  72.372  1.00  0.00     0.000 HD 
HETATM   49  C   UNL     1     -11.611  10.043  68.396  1.00  0.00     0.221 C  
BRANCH  40  50
HETATM   50  C   UNL     1      -9.387   7.651  71.127  1.00  0.00    -0.154 C  
HETATM   51  O   UNL     1      -8.699   7.922  72.351  1.00  0.00    -0.125 OA 
HETATM   52  H   UNL     1      -8.447   7.127  72.807  1.00  0.00     0.000 HD 
ENDBRANCH  40  50
ENDBRANCH  37  38
ENDBRANCH  33  37
ENDBRANCH  23  24
ENDBRANCH  18  23
TORSDOF 6
ENDMDL
MODEL      169
REMARK 921   NORMALIZED FREE ENERGY PREDICTED BY IDOCK:    3.36 KCAL/MOL
REMARK 922        TOTAL FREE ENERGY PREDICTED BY IDOCK:    2.55 KCAL/MOL
REMARK 923 INTER-LIGAND FREE ENERGY PREDICTED BY IDOCK:    2.83 KCAL/MOL
REMARK 924 INTRA-LIGAND FREE ENERGY PREDICTED BY IDOCK:   -0.28 KCAL/MOL
REMARK 927      BINDING AFFINITY PREDICTED BY RF-SCORE:    0.00 PKD
ROOT
HETATM    1  C   UNL     1      -9.061  15.996  67.832  1.00  0.00    -0.187 C  
HETATM    2  C   UNL     1     -10.016  14.741  67.915  1.00  0.00    -0.213 C  
HETATM    3  C   UNL     1     -11.207  15.011  66.998  1.00  0.00    -0.328 C  
HETATM    4  C   UNL     1     -12.267  13.942  67.168  1.00  0.00    -0.353 C  
HETATM    5  C   UNL     1     -12.933  13.988  68.523  1.00  0.00     1.794 C  
HETATM    6  C   UNL     1     -12.056  14.320  69.775  1.00  0.00    -0.401 C  
HETATM    7  C   UNL     1     -10.529  14.739  69.421  1.00  0.00    -0.210 C  
HETATM    8  C   UNL     1     -12.092  13.169  70.820  1.00  0.00    -0.290 C  
HETATM    9  C   UNL     1     -12.992  15.351  70.514  1.00  0.00    -0.332 C  
HETATM   10  O   UNL     1     -14.140  15.050  70.864  1.00  0.00    -0.291 OA 
HETATM   11  O   UNL     1     -12.559  16.586  70.767  1.00  0.00     0.507 OA 
HETATM   12  C   UNL     1      -9.389  14.257  70.341  1.00  0.00     2.204 C  
HETATM   13  C   UNL     1      -8.667  13.010  69.875  1.00  0.00     2.848 C  
HETATM   14  C   UNL     1      -8.150  12.906  68.434  1.00  0.00    -0.130 C  
HETATM   15  C   UNL     1      -6.709  13.355  68.114  1.00  0.00    -0.117 C  
HETATM   16  C   UNL     1      -6.308  12.404  66.981  1.00  0.00     0.011 C  
HETATM   17  C   UNL     1      -5.142  12.518  66.331  1.00  0.00     1.160 C  
HETATM   18  C   UNL     1      -7.340  11.259  66.833  1.00  0.00    -0.145 C  
HETATM   19  C   UNL     1      -8.447  11.584  65.804  1.00  0.00     0.130 C  
HETATM   20  C   UNL     1      -9.104  13.532  67.371  1.00  0.00    -0.219 C  
HETATM   21  C   UNL     1      -7.933  11.391  68.217  1.00  0.00    -0.136 C  
HETATM   22  C   UNL     1      -9.618  12.425  66.406  1.00  0.00    -0.249 C  
ENDROOT
BRANCH  18  23
HETATM   23  O   UNL     1      -6.621  10.050  66.599  1.00  0.00    -0.069 OA 
BRANCH  23  24
HETATM   24  C   UNL     1      -6.984   8.774  67.157  1.00  0.00    -0.071 C  
HETATM   25  O   UNL     1      -6.791   8.780  68.580  1.00  0.00    -0.062 OA 
HETATM   26  C   UNL     1      -7.337   7.607  69.212  1.00  0.00    -0.088 C  
HETATM   27  C   UNL     1      -6.528   6.398  68.768  1.00  0.00    -0.046 C  
HETATM   28  H   UNL     1      -5.567   5.192  65.980  1.00  0.00     0.000 HD 
HETATM   29  C   UNL     1      -6.600   6.219  67.255  1.00  0.00    -0.058 C  
HETATM   30  H   UNL     1      -6.457   4.427  69.112  1.00  0.00     0.000 HD 
HETATM   31  O   UNL     1      -6.963   5.181  69.389  1.00  0.00    -0.052 OA 
HETATM   32  O   UNL     1      -5.522   5.303  66.923  1.00  0.00    -0.011 OA 
HETATM   33  C   UNL     1      -6.405   7.510  66.447  1.00  0.00    -0.045 C  
BRANCH  26  34
HETATM   34  C   UNL     1      -7.249   7.780  70.733  1.00  0.00    -0.057 C  
HETATM   35  H   UNL     1      -7.674   9.178  72.044  1.00  0.00     0.000 HD 
HETATM   36  O   UNL     1      -7.729   9.071  71.102  1.00  0.00    -0.133 OA 
ENDBRANCH  26  34
BRANCH  33  37
HETATM   37  O   UNL     1      -6.977   7.457  65.117  1.00  0.00    -0.056 OA 
BRANCH  37  38
HETATM   38  C   UNL     1      -7.891   6.401  64.767  1.00  0.00    -0.111 C  
HETATM   39  O   UNL     1      -8.781   6.178  65.844  1.00  0.00    -0.150 OA 
HETATM   40  C   UNL     1      -9.672   5.070  65.756  1.00  0.00    -0.141 C  
HETATM   41  C   UNL     1      -9.008   3.760  65.318  1.00  0.00    -0.133 C  
HETATM   42  H   UNL     1      -6.213   4.588  62.594  1.00  0.00     0.000 HD 
HETATM   43  O   UNL     1      -6.643   5.369  62.925  1.00  0.00    -0.025 OA 
HETATM   44  O   UNL     1     -10.010   2.777  65.035  1.00  0.00    -0.363 OA 
HETATM   45  C   UNL     1      -8.167   3.976  64.073  1.00  0.00    -0.092 C  
HETATM   46  H   UNL     1      -6.904   2.909  62.978  1.00  0.00     0.000 HD 
HETATM   47  O   UNL     1      -7.430   2.774  63.756  1.00  0.00    -0.063 OA 
HETATM   48  H   UNL     1      -9.599   1.965  64.764  1.00  0.00     0.000 HD 
HETATM   49  C   UNL     1      -7.194   5.134  64.231  1.00  0.00    -0.054 C  
BRANCH  40  50
HETATM   50  C   UNL     1     -10.268   4.882  67.165  1.00  0.00    -0.162 C  
HETATM   51  O   UNL     1      -9.542   3.923  67.938  1.00  0.00    -0.178 OA 
HETATM   52  H   UNL     1      -9.910   3.808  68.807  1.00  0.00     0.000 HD 
ENDBRANCH  40  50
ENDBRANCH  37  38
ENDBRANCH  33  37
ENDBRANCH  23  24
ENDBRANCH  18  23
TORSDOF 6
ENDMDL
MODEL      170
REMARK 921   NORMALIZED FREE ENERGY PREDICTED BY IDOCK:    4.04 KCAL/MOL
REMARK 922        TOTAL FREE ENERGY PREDICTED BY IDOCK:    3.48 KCAL/MOL
REMARK 923 INTER-LIGAND FREE ENERGY PREDICTED BY IDOCK:    3.81 KCAL/MOL
REMARK 924 INTRA-LIGAND FREE ENERGY PREDICTED BY IDOCK:   -0.33 KCAL/MOL
REMARK 927      BINDING AFFINITY PREDICTED BY RF-SCORE:    0.00 PKD
ROOT
HETATM    1  C   UNL     1      -6.805   9.316  71.848  1.00  0.00     0.225 C  
HETATM    2  C   UNL     1      -7.618   9.647  70.534  1.00  0.00    -0.151 C  
HETATM    3  C   UNL     1      -9.071   9.249  70.784  1.00  0.00    -0.306 C  
HETATM    4  C   UNL     1      -9.880   9.353  69.507  1.00  0.00    -0.192 C  
HETATM    5  C   UNL     1      -9.477   8.328  68.473  1.00  0.00    -0.149 C  
HETATM    6  C   UNL     1      -7.959   7.977  68.323  1.00  0.00    -0.128 C  
HETATM    7  C   UNL     1      -7.007   8.668  69.440  1.00  0.00    -0.053 C  
HETATM    8  C   UNL     1      -7.444   8.277  66.887  1.00  0.00    -0.088 C  
HETATM    9  C   UNL     1      -8.037   6.405  68.233  1.00  0.00    -0.113 C  
HETATM   10  O   UNL     1      -8.697   5.837  67.354  1.00  0.00    -0.110 OA 
HETATM   11  O   UNL     1      -7.393   5.651  69.125  1.00  0.00    -0.074 OA 
HETATM   12  C   UNL     1      -5.616   9.185  69.020  1.00  0.00    -0.036 C  
HETATM   13  C   UNL     1      -5.545  10.666  68.712  1.00  0.00    -0.040 C  
HETATM   14  C   UNL     1      -6.123  11.692  69.695  1.00  0.00    -0.117 C  
HETATM   15  C   UNL     1      -5.207  12.299  70.778  1.00  0.00    -0.149 C  
HETATM   16  C   UNL     1      -5.777  13.713  70.941  1.00  0.00    -0.197 C  
HETATM   17  C   UNL     1      -5.325  14.562  71.873  1.00  0.00    -0.132 C  
HETATM   18  C   UNL     1      -6.784  14.033  69.810  1.00  0.00    -0.038 C  
HETATM   19  C   UNL     1      -8.242  13.695  70.197  1.00  0.00     2.466 C  
HETATM   20  C   UNL     1      -7.451  11.240  70.375  1.00  0.00     1.718 C  
HETATM   21  C   UNL     1      -6.296  12.973  68.849  1.00  0.00    -0.093 C  
HETATM   22  C   UNL     1      -8.608  12.194  69.960  1.00  0.00     3.188 C  
ENDROOT
BRANCH  18  23
HETATM   23  O   UNL     1      -6.557  15.377  69.391  1.00  0.00    -0.133 OA 
BRANCH  23  24
HETATM   24  C   UNL     1      -6.826  15.863  68.062  1.00  0.00    -0.125 C  
HETATM   25  O   UNL     1      -6.086  17.068  67.813  1.00  0.00    -0.126 OA 
HETATM   26  C   UNL     1      -6.153  17.477  66.435  1.00  0.00    -0.224 C  
HETATM   27  C   UNL     1      -7.582  17.892  66.122  1.00  0.00    -0.260 C  
HETATM   28  H   UNL     1     -10.470  16.603  66.512  1.00  0.00     0.000 HD 
HETATM   29  C   UNL     1      -8.546  16.729  66.337  1.00  0.00    -0.303 C  
HETATM   30  H   UNL     1      -8.634  18.628  64.585  1.00  0.00     0.000 HD 
HETATM   31  O   UNL     1      -7.741  18.370  64.780  1.00  0.00     1.467 OA 
HETATM   32  O   UNL     1      -9.870  17.327  66.378  1.00  0.00    -0.276 OA 
HETATM   33  C   UNL     1      -8.327  15.946  67.639  1.00  0.00    -0.152 C  
BRANCH  26  34
HETATM   34  C   UNL     1      -5.197  18.658  66.223  1.00  0.00    -0.143 C  
HETATM   35  H   UNL     1      -5.321  20.617  66.204  1.00  0.00     0.000 HD 
HETATM   36  O   UNL     1      -5.913  19.886  66.335  1.00  0.00    -0.168 OA 
ENDBRANCH  26  34
BRANCH  33  37
HETATM   37  O   UNL     1      -8.845  14.593  67.601  1.00  0.00    -0.169 OA 
BRANCH  37  38
HETATM   38  C   UNL     1      -9.276  14.022  66.352  1.00  0.00    -0.162 C  
HETATM   39  O   UNL     1     -10.586  14.471  66.061  1.00  0.00    -0.290 OA 
HETATM   40  C   UNL     1     -11.254  13.903  64.938  1.00  0.00    -0.356 C  
HETATM   41  C   UNL     1     -11.173  12.374  64.865  1.00  0.00    -0.311 C  
HETATM   42  H   UNL     1      -7.571  11.218  66.130  1.00  0.00     0.000 HD 
HETATM   43  O   UNL     1      -7.689  12.160  66.179  1.00  0.00     0.387 OA 
HETATM   44  O   UNL     1     -11.663  11.921  63.598  1.00  0.00    -0.445 OA 
HETATM   45  C   UNL     1      -9.740  11.904  65.033  1.00  0.00    -0.156 C  
HETATM   46  H   UNL     1      -8.798  10.169  65.217  1.00  0.00     0.000 HD 
HETATM   47  O   UNL     1      -9.695  10.463  65.111  1.00  0.00    -0.243 OA 
HETATM   48  H   UNL     1     -11.613  10.973  63.552  1.00  0.00     0.000 HD 
HETATM   49  C   UNL     1      -9.084  12.494  66.273  1.00  0.00    -0.069 C  
BRANCH  40  50
HETATM   50  C   UNL     1     -12.732  14.321  65.058  1.00  0.00    -0.280 C  
HETATM   51  O   UNL     1     -12.911  15.733  64.920  1.00  0.00     0.914 OA 
HETATM   52  H   UNL     1     -13.823  15.990  64.994  1.00  0.00     0.000 HD 
ENDBRANCH  40  50
ENDBRANCH  37  38
ENDBRANCH  33  37
ENDBRANCH  23  24
ENDBRANCH  18  23
TORSDOF 6
ENDMDL
MODEL      171
REMARK 921   NORMALIZED FREE ENERGY PREDICTED BY IDOCK:    4.27 KCAL/MOL
REMARK 922        TOTAL FREE ENERGY PREDICTED BY IDOCK:    3.79 KCAL/MOL
REMARK 923 INTER-LIGAND FREE ENERGY PREDICTED BY IDOCK:    0.22 KCAL/MOL
REMARK 924 INTRA-LIGAND FREE ENERGY PREDICTED BY IDOCK:    3.56 KCAL/MOL
REMARK 927      BINDING AFFINITY PREDICTED BY RF-SCORE:    0.00 PKD
ROOT
HETATM    1  C   UNL     1      -8.140  14.440  65.175  1.00  0.00     6.424 C  
HETATM    2  C   UNL     1      -9.192  14.855  66.278  1.00  0.00    -0.301 C  
HETATM    3  C   UNL     1     -10.108  15.910  65.661  1.00  0.00    -0.388 C  
HETATM    4  C   UNL     1     -11.024  16.503  66.712  1.00  0.00     0.046 C  
HETATM    5  C   UNL     1     -10.283  17.331  67.734  1.00  0.00    -0.332 C  
HETATM    6  C   UNL     1      -8.878  16.839  68.217  1.00  0.00    -0.228 C  
HETATM    7  C   UNL     1      -8.318  15.547  67.412  1.00  0.00    -0.202 C  
HETATM    8  C   UNL     1      -8.854  16.595  69.752  1.00  0.00     0.799 C  
HETATM    9  C   UNL     1      -8.070  18.193  68.171  1.00  0.00    -0.281 C  
HETATM   10  O   UNL     1      -8.424  19.182  68.824  1.00  0.00    -0.362 OA 
HETATM   11  O   UNL     1      -6.983  18.297  67.406  1.00  0.00    -0.195 OA 
HETATM   12  C   UNL     1      -7.547  14.460  68.188  1.00  0.00    -0.128 C  
HETATM   13  C   UNL     1      -8.371  13.262  68.611  1.00  0.00     0.004 C  
HETATM   14  C   UNL     1      -9.263  12.536  67.595  1.00  0.00    -0.190 C  
HETATM   15  C   UNL     1      -8.691  11.338  66.809  1.00  0.00    -0.166 C  
HETATM   16  C   UNL     1      -9.923  10.447  66.619  1.00  0.00    -0.262 C  
HETATM   17  C   UNL     1      -9.888   9.326  65.885  1.00  0.00    -0.335 C  
HETATM   18  C   UNL     1     -11.099  10.939  67.497  1.00  0.00    -0.310 C  
HETATM   19  C   UNL     1     -12.031  11.921  66.750  1.00  0.00     0.012 C  
HETATM   20  C   UNL     1      -9.979  13.485  66.588  1.00  0.00    -0.282 C  
HETATM   21  C   UNL     1     -10.258  11.737  68.467  1.00  0.00    -0.215 C  
HETATM   22  C   UNL     1     -11.520  13.397  66.783  1.00  0.00    -0.376 C  
ENDROOT
BRANCH  18  23
HETATM   23  O   UNL     1     -11.738   9.793  68.055  1.00  0.00     0.196 OA 
BRANCH  23  24
HETATM   24  C   UNL     1     -11.290   9.119  69.246  1.00  0.00     0.261 C  
HETATM   25  O   UNL     1     -11.455   7.700  69.108  1.00  0.00     0.299 OA 
HETATM   26  C   UNL     1     -10.829   6.969  70.178  1.00  0.00    -0.256 C  
HETATM   27  C   UNL     1     -11.575   7.269  71.469  1.00  0.00    -0.275 C  
HETATM   28  H   UNL     1     -12.520   9.897  73.002  1.00  0.00     0.000 HD 
HETATM   29  C   UNL     1     -11.523   8.758  71.795  1.00  0.00    -0.342 C  
HETATM   30  H   UNL     1     -11.525   6.729  73.397  1.00  0.00     0.000 HD 
HETATM   31  O   UNL     1     -11.059   6.541  72.591  1.00  0.00    -0.243 OA 
HETATM   32  O   UNL     1     -12.553   8.969  72.799  1.00  0.00    -0.275 OA 
HETATM   33  C   UNL     1     -11.809   9.685  70.606  1.00  0.00    -0.256 C  
BRANCH  26  34
HETATM   34  C   UNL     1     -10.898   5.470  69.859  1.00  0.00    -0.228 C  
HETATM   35  H   UNL     1     -10.188   4.265  68.481  1.00  0.00     0.000 HD 
HETATM   36  O   UNL     1     -10.146   5.193  68.679  1.00  0.00    -0.172 OA 
ENDBRANCH  26  34
BRANCH  33  37
HETATM   37  O   UNL     1     -11.261  11.018  70.761  1.00  0.00     0.018 OA 
BRANCH  37  38
HETATM   38  C   UNL     1     -12.139  12.158  70.790  1.00  0.00    -0.181 C  
HETATM   39  O   UNL     1     -11.436  13.300  70.341  1.00  0.00    -0.040 OA 
HETATM   40  C   UNL     1     -12.086  14.565  70.435  1.00  0.00    -0.322 C  
HETATM   41  C   UNL     1     -12.751  14.833  71.790  1.00  0.00    -0.328 C  
HETATM   42  H   UNL     1     -14.314  11.423  73.146  1.00  0.00     0.000 HD 
HETATM   43  O   UNL     1     -13.862  11.312  72.317  1.00  0.00     0.012 OA 
HETATM   44  O   UNL     1     -13.565  16.008  71.708  1.00  0.00    -0.323 OA 
HETATM   45  C   UNL     1     -13.622  13.660  72.200  1.00  0.00    -0.538 C  
HETATM   46  H   UNL     1     -14.668  13.123  73.797  1.00  0.00     0.000 HD 
HETATM   47  O   UNL     1     -14.123  13.858  73.540  1.00  0.00     1.287 OA 
HETATM   48  H   UNL     1     -13.977  16.174  72.548  1.00  0.00     0.000 HD 
HETATM   49  C   UNL     1     -12.872  12.338  72.136  1.00  0.00    -0.047 C  
BRANCH  40  50
HETATM   50  C   UNL     1     -10.997  15.629  70.193  1.00  0.00    -0.339 C  
HETATM   51  O   UNL     1     -11.237  16.830  70.931  1.00  0.00    -0.417 OA 
HETATM   52  H   UNL     1     -10.565  17.485  70.781  1.00  0.00     0.000 HD 
ENDBRANCH  40  50
ENDBRANCH  37  38
ENDBRANCH  33  37
ENDBRANCH  23  24
ENDBRANCH  18  23
TORSDOF 6
ENDMDL
MODEL      172
REMARK 921   NORMALIZED FREE ENERGY PREDICTED BY IDOCK:    4.56 KCAL/MOL
REMARK 922        TOTAL FREE ENERGY PREDICTED BY IDOCK:    4.17 KCAL/MOL
REMARK 923 INTER-LIGAND FREE ENERGY PREDICTED BY IDOCK:    4.91 KCAL/MOL
REMARK 924 INTRA-LIGAND FREE ENERGY PREDICTED BY IDOCK:   -0.74 KCAL/MOL
REMARK 927      BINDING AFFINITY PREDICTED BY RF-SCORE:    0.00 PKD
ROOT
HETATM    1  C   UNL     1     -12.484  13.996  64.065  1.00  0.00    -0.237 C  
HETATM    2  C   UNL     1     -11.878  14.206  65.509  1.00  0.00    -0.364 C  
HETATM    3  C   UNL     1     -13.035  14.561  66.441  1.00  0.00     0.800 C  
HETATM    4  C   UNL     1     -12.516  14.969  67.805  1.00  0.00     0.625 C  
HETATM    5  C   UNL     1     -11.761  16.277  67.777  1.00  0.00     0.278 C  
HETATM    6  C   UNL     1     -10.839  16.580  66.549  1.00  0.00    -0.046 C  
HETATM    7  C   UNL     1     -10.942  15.484  65.358  1.00  0.00    -0.365 C  
HETATM    8  C   UNL     1      -9.362  16.796  66.984  1.00  0.00    -0.244 C  
HETATM    9  C   UNL     1     -11.232  18.080  66.261  1.00  0.00     0.858 C  
HETATM   10  O   UNL     1     -11.104  18.960  67.120  1.00  0.00    -0.321 OA 
HETATM   11  O   UNL     1     -11.727  18.424  65.072  1.00  0.00     1.444 OA 
HETATM   12  C   UNL     1      -9.662  15.084  64.598  1.00  0.00     1.023 C  
HETATM   13  C   UNL     1      -8.994  13.814  65.082  1.00  0.00     1.824 C  
HETATM   14  C   UNL     1      -9.814  12.531  65.278  1.00  0.00    -0.157 C  
HETATM   15  C   UNL     1      -9.935  11.527  64.114  1.00  0.00    -0.327 C  
HETATM   16  C   UNL     1     -10.024  10.182  64.843  1.00  0.00    -0.358 C  
HETATM   17  C   UNL     1     -10.241   9.030  64.194  1.00  0.00     3.448 C  
HETATM   18  C   UNL     1      -9.675  10.345  66.342  1.00  0.00    -0.201 C  
HETATM   19  C   UNL     1     -10.924  10.594  67.220  1.00  0.00    -0.348 C  
HETATM   20  C   UNL     1     -11.238  12.773  65.865  1.00  0.00    -0.334 C  
HETATM   21  C   UNL     1      -8.934  11.655  66.198  1.00  0.00    -0.180 C  
HETATM   22  C   UNL     1     -11.356  12.095  67.260  1.00  0.00    -0.398 C  
ENDROOT
BRANCH  18  23
HETATM   23  O   UNL     1      -8.867   9.235  66.727  1.00  0.00    -0.125 OA 
BRANCH  23  24
HETATM   24  C   UNL     1      -8.571   8.889  68.093  1.00  0.00    -0.130 C  
HETATM   25  O   UNL     1      -7.686   9.859  68.672  1.00  0.00    -0.078 OA 
HETATM   26  C   UNL     1      -7.527   9.678  70.091  1.00  0.00    -0.153 C  
HETATM   27  C   UNL     1      -6.793   8.368  70.333  1.00  0.00    -0.037 C  
HETATM   28  H   UNL     1      -7.133   5.350  69.371  1.00  0.00     0.000 HD 
HETATM   29  C   UNL     1      -7.582   7.190  69.772  1.00  0.00    -0.103 C  
HETATM   30  H   UNL     1      -6.079   7.305  71.872  1.00  0.00     0.000 HD 
HETATM   31  O   UNL     1      -6.537   8.122  71.721  1.00  0.00    -0.048 OA 
HETATM   32  O   UNL     1      -6.641   6.084  69.721  1.00  0.00    -0.043 OA 
HETATM   33  C   UNL     1      -8.149   7.410  68.363  1.00  0.00    -0.125 C  
BRANCH  26  34
HETATM   34  C   UNL     1      -6.717  10.854  70.652  1.00  0.00     0.508 C  
HETATM   35  H   UNL     1      -6.712  12.808  70.464  1.00  0.00     0.000 HD 
HETATM   36  O   UNL     1      -7.213  12.080  70.117  1.00  0.00     0.540 OA 
ENDBRANCH  26  34
BRANCH  33  37
HETATM   37  O   UNL     1      -9.288   6.569  68.054  1.00  0.00    -0.113 OA 
BRANCH  37  38
HETATM   38  C   UNL     1     -10.014   5.921  69.115  1.00  0.00    -0.165 C  
HETATM   39  O   UNL     1     -10.106   6.798  70.221  1.00  0.00    -0.178 OA 
HETATM   40  C   UNL     1     -10.661   6.292  71.432  1.00  0.00    -0.237 C  
HETATM   41  C   UNL     1     -10.099   4.931  71.861  1.00  0.00    -0.199 C  
HETATM   42  H   UNL     1      -9.475   2.717  68.603  1.00  0.00     0.000 HD 
HETATM   43  O   UNL     1      -9.799   3.585  68.396  1.00  0.00    -0.057 OA 
HETATM   44  O   UNL     1     -10.875   4.405  72.943  1.00  0.00    -0.203 OA 
HETATM   45  C   UNL     1     -10.137   3.948  70.706  1.00  0.00     0.091 C  
HETATM   46  H   UNL     1      -9.495   2.104  70.354  1.00  0.00     0.000 HD 
HETATM   47  O   UNL     1      -9.472   2.720  71.077  1.00  0.00    -0.137 OA 
HETATM   48  H   UNL     1     -10.527   3.561  73.210  1.00  0.00     0.000 HD 
HETATM   49  C   UNL     1      -9.487   4.510  69.451  1.00  0.00    -0.174 C  
BRANCH  40  50
HETATM   50  C   UNL     1     -10.339   7.332  72.522  1.00  0.00    -0.218 C  
HETATM   51  O   UNL     1      -9.100   7.062  73.183  1.00  0.00    -0.129 OA 
HETATM   52  H   UNL     1      -8.902   7.704  73.855  1.00  0.00     0.000 HD 
ENDBRANCH  40  50
ENDBRANCH  37  38
ENDBRANCH  33  37
ENDBRANCH  23  24
ENDBRANCH  18  23
TORSDOF 6
ENDMDL
MODEL      173
REMARK 921   NORMALIZED FREE ENERGY PREDICTED BY IDOCK:    4.68 KCAL/MOL
REMARK 922        TOTAL FREE ENERGY PREDICTED BY IDOCK:    4.34 KCAL/MOL
REMARK 923 INTER-LIGAND FREE ENERGY PREDICTED BY IDOCK:    4.68 KCAL/MOL
REMARK 924 INTRA-LIGAND FREE ENERGY PREDICTED BY IDOCK:   -0.35 KCAL/MOL
REMARK 927      BINDING AFFINITY PREDICTED BY RF-SCORE:    0.00 PKD
ROOT
HETATM    1  C   UNL     1      -8.613  15.471  66.369  1.00  0.00    -0.292 C  
HETATM    2  C   UNL     1      -9.478  14.953  67.585  1.00  0.00    -0.199 C  
HETATM    3  C   UNL     1     -10.935  15.302  67.289  1.00  0.00    -0.327 C  
HETATM    4  C   UNL     1     -11.809  15.013  68.493  1.00  0.00    -0.319 C  
HETATM    5  C   UNL     1     -11.525  15.934  69.657  1.00  0.00    -0.346 C  
HETATM    6  C   UNL     1     -10.042  16.343  69.940  1.00  0.00     0.048 C  
HETATM    7  C   UNL     1      -8.989  15.833  68.817  1.00  0.00    -0.214 C  
HETATM    8  C   UNL     1      -9.592  15.910  71.365  1.00  0.00     3.389 C  
HETATM    9  C   UNL     1     -10.216  17.889  70.197  1.00  0.00     1.144 C  
HETATM   10  O   UNL     1     -10.956  18.319  71.090  1.00  0.00     1.898 OA 
HETATM   11  O   UNL     1      -9.566  18.770  69.436  1.00  0.00    -0.083 OA 
HETATM   12  C   UNL     1      -7.597  15.343  69.264  1.00  0.00    -0.216 C  
HETATM   13  C   UNL     1      -7.457  13.843  69.412  1.00  0.00     0.190 C  
HETATM   14  C   UNL     1      -7.918  12.906  68.287  1.00  0.00    -0.151 C  
HETATM   15  C   UNL     1      -6.909  12.473  67.204  1.00  0.00    -0.058 C  
HETATM   16  C   UNL     1      -7.385  11.059  66.852  1.00  0.00    -0.133 C  
HETATM   17  C   UNL     1      -6.832  10.345  65.862  1.00  0.00    -0.131 C  
HETATM   18  C   UNL     1      -8.435  10.562  67.875  1.00  0.00    -0.119 C  
HETATM   19  C   UNL     1      -9.886  10.867  67.436  1.00  0.00    -0.199 C  
HETATM   20  C   UNL     1      -9.229  13.363  67.579  1.00  0.00    -0.219 C  
HETATM   21  C   UNL     1      -8.064  11.530  68.975  1.00  0.00     0.037 C  
HETATM   22  C   UNL     1     -10.350  12.310  67.813  1.00  0.00    -0.216 C  
ENDROOT
BRANCH  18  23
HETATM   23  O   UNL     1      -8.155   9.193  68.158  1.00  0.00    -0.103 OA 
BRANCH  23  24
HETATM   24  C   UNL     1      -9.128   8.259  68.663  1.00  0.00    -0.140 C  
HETATM   25  O   UNL     1      -9.884   7.693  67.582  1.00  0.00    -0.149 OA 
HETATM   26  C   UNL     1     -10.720   6.602  68.010  1.00  0.00    -0.265 C  
HETATM   27  C   UNL     1     -11.803   7.153  68.925  1.00  0.00     1.036 C  
HETATM   28  H   UNL     1     -11.881   9.023  71.503  1.00  0.00     0.000 HD 
HETATM   29  C   UNL     1     -11.192   7.816  70.155  1.00  0.00    -0.159 C  
HETATM   30  H   UNL     1     -13.401   6.491  69.934  1.00  0.00     0.000 HD 
HETATM   31  O   UNL     1     -12.725   6.147  69.363  1.00  0.00     2.696 OA 
HETATM   32  O   UNL     1     -12.261   8.610  70.737  1.00  0.00    -0.174 OA 
HETATM   33  C   UNL     1     -10.005   8.743  69.861  1.00  0.00    -0.187 C  
BRANCH  26  34
HETATM   34  C   UNL     1     -11.348   5.947  66.774  1.00  0.00     0.356 C  
HETATM   35  H   UNL     1     -10.952   4.422  65.602  1.00  0.00     0.000 HD 
HETATM   36  O   UNL     1     -10.563   4.828  66.368  1.00  0.00    -0.284 OA 
ENDBRANCH  26  34
BRANCH  33  37
HETATM   37  O   UNL     1      -9.124   8.940  70.995  1.00  0.00    -0.201 OA 
BRANCH  37  38
HETATM   38  C   UNL     1      -8.382   7.830  71.532  1.00  0.00    -0.109 C  
HETATM   39  O   UNL     1      -8.262   6.826  70.542  1.00  0.00    -0.114 OA 
HETATM   40  C   UNL     1      -7.687   5.579  70.921  1.00  0.00    -0.092 C  
HETATM   41  C   UNL     1      -8.249   4.996  72.223  1.00  0.00    -0.120 C  
HETATM   42  H   UNL     1      -8.953   7.986  74.767  1.00  0.00     0.000 HD 
HETATM   43  O   UNL     1      -8.627   8.291  73.929  1.00  0.00    -0.244 OA 
HETATM   44  O   UNL     1      -7.456   3.879  72.638  1.00  0.00    -0.061 OA 
HETATM   45  C   UNL     1      -8.241   6.040  73.325  1.00  0.00    -0.115 C  
HETATM   46  H   UNL     1      -8.902   6.180  75.189  1.00  0.00     0.000 HD 
HETATM   47  O   UNL     1      -8.907   5.527  74.499  1.00  0.00    -0.116 OA 
HETATM   48  H   UNL     1      -7.804   3.517  73.444  1.00  0.00     0.000 HD 
HETATM   49  C   UNL     1      -8.911   7.335  72.893  1.00  0.00    -0.134 C  
BRANCH  40  50
HETATM   50  C   UNL     1      -7.980   4.600  69.767  1.00  0.00    -0.065 C  
HETATM   51  O   UNL     1      -8.783   3.493  70.184  1.00  0.00    -0.059 OA 
HETATM   52  H   UNL     1      -8.963   2.890  69.472  1.00  0.00     0.000 HD 
ENDBRANCH  40  50
ENDBRANCH  37  38
ENDBRANCH  33  37
ENDBRANCH  23  24
ENDBRANCH  18  23
TORSDOF 6
ENDMDL
MODEL      174
REMARK 921   NORMALIZED FREE ENERGY PREDICTED BY IDOCK:    4.93 KCAL/MOL
REMARK 922        TOTAL FREE ENERGY PREDICTED BY IDOCK:    4.67 KCAL/MOL
REMARK 923 INTER-LIGAND FREE ENERGY PREDICTED BY IDOCK:    0.35 KCAL/MOL
REMARK 924 INTRA-LIGAND FREE ENERGY PREDICTED BY IDOCK:    4.33 KCAL/MOL
REMARK 927      BINDING AFFINITY PREDICTED BY RF-SCORE:    0.00 PKD
ROOT
HETATM    1  C   UNL     1     -11.242   8.053  66.279  1.00  0.00     2.599 C  
HETATM    2  C   UNL     1      -9.947   8.524  67.051  1.00  0.00    -0.318 C  
HETATM    3  C   UNL     1      -8.745   7.883  66.360  1.00  0.00    -0.170 C  
HETATM    4  C   UNL     1      -7.478   8.127  67.155  1.00  0.00    -0.089 C  
HETATM    5  C   UNL     1      -7.469   7.398  68.478  1.00  0.00    -0.105 C  
HETATM    6  C   UNL     1      -8.805   7.302  69.287  1.00  0.00    -0.136 C  
HETATM    7  C   UNL     1     -10.098   7.880  68.498  1.00  0.00    -0.216 C  
HETATM    8  C   UNL     1      -8.670   7.953  70.693  1.00  0.00    -0.135 C  
HETATM    9  C   UNL     1      -8.771   5.785  69.716  1.00  0.00    -0.127 C  
HETATM   10  O   UNL     1      -7.836   5.318  70.378  1.00  0.00    -0.073 OA 
HETATM   11  O   UNL     1      -9.759   4.966  69.355  1.00  0.00    -0.156 OA 
HETATM   12  C   UNL     1     -11.168   8.662  69.288  1.00  0.00     0.242 C  
HETATM   13  C   UNL     1     -11.037  10.169  69.232  1.00  0.00    -0.270 C  
HETATM   14  C   UNL     1     -10.867  10.885  67.886  1.00  0.00    -0.295 C  
HETATM   15  C   UNL     1     -12.117  11.384  67.133  1.00  0.00     0.701 C  
HETATM   16  C   UNL     1     -11.599  12.642  66.426  1.00  0.00    -0.441 C  
HETATM   17  C   UNL     1     -12.353  13.342  65.568  1.00  0.00    -0.533 C  
HETATM   18  C   UNL     1     -10.202  13.038  66.962  1.00  0.00    -0.245 C  
HETATM   19  C   UNL     1      -9.050  12.427  66.133  1.00  0.00    -0.044 C  
HETATM   20  C   UNL     1      -9.958  10.124  66.874  1.00  0.00    -0.259 C  
HETATM   21  C   UNL     1     -10.301  12.273  68.262  1.00  0.00    -0.227 C  
HETATM   22  C   UNL     1      -8.690  10.969  66.563  1.00  0.00    -0.169 C  
ENDROOT
BRANCH  18  23
HETATM   23  O   UNL     1     -10.173  14.457  67.099  1.00  0.00    -0.254 OA 
BRANCH  23  24
HETATM   24  C   UNL     1      -9.024  15.201  67.548  1.00  0.00    -0.180 C  
HETATM   25  O   UNL     1      -8.514  16.020  66.486  1.00  0.00    -0.257 OA 
HETATM   26  C   UNL     1      -7.502  16.938  66.938  1.00  0.00    -0.219 C  
HETATM   27  C   UNL     1      -6.279  16.139  67.361  1.00  0.00    -0.166 C  
HETATM   28  H   UNL     1      -5.729  13.644  69.265  1.00  0.00     0.000 HD 
HETATM   29  C   UNL     1      -6.620  15.183  68.500  1.00  0.00    -0.099 C  
HETATM   30  H   UNL     1      -4.426  16.473  68.044  1.00  0.00     0.000 HD 
HETATM   31  O   UNL     1      -5.190  16.971  67.780  1.00  0.00    -0.108 OA 
HETATM   32  O   UNL     1      -5.516  14.240  68.555  1.00  0.00    -0.086 OA 
HETATM   33  C   UNL     1      -7.923  14.394  68.307  1.00  0.00    -0.140 C  
BRANCH  26  34
HETATM   34  C   UNL     1      -7.147  17.888  65.788  1.00  0.00    -0.180 C  
HETATM   35  H   UNL     1      -7.917  19.497  64.968  1.00  0.00     0.000 HD 
HETATM   36  O   UNL     1      -8.137  18.909  65.681  1.00  0.00    -0.419 OA 
ENDBRANCH  26  34
BRANCH  33  37
HETATM   37  O   UNL     1      -8.506  13.918  69.545  1.00  0.00     0.513 OA 
BRANCH  37  38
HETATM   38  C   UNL     1      -9.462  14.731  70.250  1.00  0.00     0.900 C  
HETATM   39  O   UNL     1     -10.577  13.937  70.607  1.00  0.00     1.122 OA 
HETATM   40  C   UNL     1     -11.704  14.589  71.184  1.00  0.00    -0.233 C  
HETATM   41  C   UNL     1     -12.151  15.852  70.440  1.00  0.00    -0.287 C  
HETATM   42  H   UNL     1      -8.915  17.767  69.108  1.00  0.00     0.000 HD 
HETATM   43  O   UNL     1      -8.701  16.958  69.557  1.00  0.00     0.116 OA 
HETATM   44  O   UNL     1     -13.127  16.555  71.217  1.00  0.00     0.300 OA 
HETATM   45  C   UNL     1     -10.970  16.771  70.187  1.00  0.00     0.036 C  
HETATM   46  H   UNL     1     -10.635  18.458  69.199  1.00  0.00     0.000 HD 
HETATM   47  O   UNL     1     -11.374  17.883  69.358  1.00  0.00     1.389 OA 
HETATM   48  H   UNL     1     -13.404  17.338  70.756  1.00  0.00     0.000 HD 
HETATM   49  C   UNL     1      -9.811  16.045  69.521  1.00  0.00    -0.235 C  
BRANCH  40  50
HETATM   50  C   UNL     1     -12.854  13.562  71.163  1.00  0.00    -0.309 C  
HETATM   51  O   UNL     1     -13.059  12.949  72.438  1.00  0.00    -0.390 OA 
HETATM   52  H   UNL     1     -13.768  12.316  72.424  1.00  0.00     0.000 HD 
ENDBRANCH  40  50
ENDBRANCH  37  38
ENDBRANCH  33  37
ENDBRANCH  23  24
ENDBRANCH  18  23
TORSDOF 6
ENDMDL
MODEL      175
REMARK 921   NORMALIZED FREE ENERGY PREDICTED BY IDOCK:    4.97 KCAL/MOL
REMARK 922        TOTAL FREE ENERGY PREDICTED BY IDOCK:    4.72 KCAL/MOL
REMARK 923 INTER-LIGAND FREE ENERGY PREDICTED BY IDOCK:   -0.77 KCAL/MOL
REMARK 924 INTRA-LIGAND FREE ENERGY PREDICTED BY IDOCK:    5.49 KCAL/MOL
REMARK 927      BINDING AFFINITY PREDICTED BY RF-SCORE:    0.00 PKD
ROOT
HETATM    1  C   UNL     1      -9.553   4.037  68.041  1.00  0.00    -0.195 C  
HETATM    2  C   UNL     1      -9.747   4.843  66.696  1.00  0.00    -0.197 C  
HETATM    3  C   UNL     1     -11.004   4.303  66.018  1.00  0.00     0.898 C  
HETATM    4  C   UNL     1     -11.155   4.887  64.628  1.00  0.00     0.828 C  
HETATM    5  C   UNL     1     -10.088   4.407  63.673  1.00  0.00     0.107 C  
HETATM    6  C   UNL     1      -8.629   4.229  64.212  1.00  0.00    -0.121 C  
HETATM    7  C   UNL     1      -8.486   4.440  65.814  1.00  0.00    -0.114 C  
HETATM    8  C   UNL     1      -7.621   5.124  63.438  1.00  0.00    -0.064 C  
HETATM    9  C   UNL     1      -8.258   2.835  63.575  1.00  0.00    -0.085 C  
HETATM   10  O   UNL     1      -8.288   2.651  62.352  1.00  0.00    -0.071 OA 
HETATM   11  O   UNL     1      -7.914   1.812  64.359  1.00  0.00    -0.067 OA 
HETATM   12  C   UNL     1      -7.235   5.155  66.364  1.00  0.00    -0.077 C  
HETATM   13  C   UNL     1      -7.411   6.631  66.652  1.00  0.00    -0.079 C  
HETATM   14  C   UNL     1      -8.606   7.124  67.478  1.00  0.00    -0.122 C  
HETATM   15  C   UNL     1      -8.458   7.272  69.006  1.00  0.00    -0.129 C  
HETATM   16  C   UNL     1      -9.377   8.459  69.317  1.00  0.00    -0.154 C  
HETATM   17  C   UNL     1      -9.621   8.865  70.570  1.00  0.00    -0.242 C  
HETATM   18  C   UNL     1      -9.817   9.168  68.014  1.00  0.00    -0.168 C  
HETATM   19  C   UNL     1     -11.155   8.626  67.462  1.00  0.00     0.333 C  
HETATM   20  C   UNL     1      -9.936   6.364  67.187  1.00  0.00    -0.197 C  
HETATM   21  C   UNL     1      -8.700   8.631  67.148  1.00  0.00    -0.134 C  
HETATM   22  C   UNL     1     -10.984   7.344  66.586  1.00  0.00     0.345 C  
ENDROOT
BRANCH  18  23
HETATM   23  O   UNL     1      -9.775  10.575  68.246  1.00  0.00    -0.147 OA 
BRANCH  23  24
HETATM   24  C   UNL     1      -9.617  11.559  67.208  1.00  0.00    -0.172 C  
HETATM   25  O   UNL     1     -10.692  12.509  67.253  1.00  0.00    -0.228 OA 
HETATM   26  C   UNL     1     -10.471  13.630  66.378  1.00  0.00    -0.288 C  
HETATM   27  C   UNL     1     -10.520  13.138  64.940  1.00  0.00    -0.351 C  
HETATM   28  H   UNL     1      -9.139  10.794  63.281  1.00  0.00     0.000 HD 
HETATM   29  C   UNL     1      -9.437  12.094  64.684  1.00  0.00     0.182 C  
HETATM   30  H   UNL     1     -10.394  13.888  63.087  1.00  0.00     0.000 HD 
HETATM   31  O   UNL     1     -10.363  14.196  63.985  1.00  0.00     0.162 OA 
HETATM   32  O   UNL     1      -9.814  11.444  63.440  1.00  0.00    -0.321 OA 
HETATM   33  C   UNL     1      -9.312  11.020  65.774  1.00  0.00    -0.211 C  
BRANCH  26  34
HETATM   34  C   UNL     1     -11.571  14.672  66.623  1.00  0.00    -0.350 C  
HETATM   35  H   UNL     1     -11.708  16.438  67.468  1.00  0.00     0.000 HD 
HETATM   36  O   UNL     1     -11.028  15.793  67.317  1.00  0.00    -0.316 OA 
ENDBRANCH  26  34
BRANCH  33  37
HETATM   37  O   UNL     1      -8.012  10.381  65.816  1.00  0.00    -0.142 OA 
BRANCH  37  38
HETATM   38  C   UNL     1      -7.001  10.865  66.719  1.00  0.00    -0.126 C  
HETATM   39  O   UNL     1      -6.772   9.897  67.725  1.00  0.00    -0.070 OA 
HETATM   40  C   UNL     1      -5.910  10.246  68.805  1.00  0.00    -0.041 C  
HETATM   41  C   UNL     1      -6.200  11.618  69.424  1.00  0.00    -0.100 C  
HETATM   42  H   UNL     1      -7.258  14.138  66.518  1.00  0.00     0.000 HD 
HETATM   43  O   UNL     1      -7.092  13.260  66.197  1.00  0.00     1.894 OA 
HETATM   44  O   UNL     1      -5.150  11.975  70.330  1.00  0.00    -0.078 OA 
HETATM   45  C   UNL     1      -6.301  12.682  68.346  1.00  0.00    -0.069 C  
HETATM   46  H   UNL     1      -6.783  14.603  68.250  1.00  0.00     0.000 HD 
HETATM   47  O   UNL     1      -6.719  13.937  68.925  1.00  0.00    -0.095 OA 
HETATM   48  H   UNL     1      -5.329  12.825  70.714  1.00  0.00     0.000 HD 
HETATM   49  C   UNL     1      -7.271  12.290  67.242  1.00  0.00    -0.138 C  
BRANCH  40  50
HETATM   50  C   UNL     1      -6.105   9.160  69.881  1.00  0.00    -0.038 C  
HETATM   51  O   UNL     1      -5.310   7.998  69.632  1.00  0.00    -0.023 OA 
HETATM   52  H   UNL     1      -5.431   7.329  70.295  1.00  0.00     0.000 HD 
ENDBRANCH  40  50
ENDBRANCH  37  38
ENDBRANCH  33  37
ENDBRANCH  23  24
ENDBRANCH  18  23
TORSDOF 6
ENDMDL
MODEL      176
REMARK 921   NORMALIZED FREE ENERGY PREDICTED BY IDOCK:    5.08 KCAL/MOL
REMARK 922        TOTAL FREE ENERGY PREDICTED BY IDOCK:    4.88 KCAL/MOL
REMARK 923 INTER-LIGAND FREE ENERGY PREDICTED BY IDOCK:    5.78 KCAL/MOL
REMARK 924 INTRA-LIGAND FREE ENERGY PREDICTED BY IDOCK:   -0.90 KCAL/MOL
REMARK 927      BINDING AFFINITY PREDICTED BY RF-SCORE:    0.00 PKD
ROOT
HETATM    1  C   UNL     1      -9.139  16.323  68.424  1.00  0.00    -0.203 C  
HETATM    2  C   UNL     1     -10.052  15.035  68.473  1.00  0.00    -0.225 C  
HETATM    3  C   UNL     1     -11.263  15.298  67.581  1.00  0.00    -0.320 C  
HETATM    4  C   UNL     1     -12.285  14.189  67.724  1.00  0.00    -0.208 C  
HETATM    5  C   UNL     1     -12.934  14.165  69.088  1.00  0.00     1.174 C  
HETATM    6  C   UNL     1     -12.052  14.481  70.340  1.00  0.00    -0.389 C  
HETATM    7  C   UNL     1     -10.545  14.962  69.983  1.00  0.00    -0.113 C  
HETATM    8  C   UNL     1     -12.037  13.293  71.343  1.00  0.00     0.200 C  
HETATM    9  C   UNL     1     -13.012  15.454  71.127  1.00  0.00    -0.479 C  
HETATM   10  O   UNL     1     -14.144  15.103  71.480  1.00  0.00    -0.463 OA 
HETATM   11  O   UNL     1     -12.615  16.693  71.419  1.00  0.00     0.591 OA 
HETATM   12  C   UNL     1      -9.378  14.486  70.873  1.00  0.00     2.937 C  
HETATM   13  C   UNL     1      -8.622  13.281  70.353  1.00  0.00     4.796 C  
HETATM   14  C   UNL     1      -8.120  13.245  68.903  1.00  0.00     0.171 C  
HETATM   15  C   UNL     1      -6.699  13.752  68.583  1.00  0.00    -0.099 C  
HETATM   16  C   UNL     1      -6.282  12.856  67.411  1.00  0.00    -0.109 C  
HETATM   17  C   UNL     1      -5.129  13.031  66.752  1.00  0.00     1.025 C  
HETATM   18  C   UNL     1      -7.278  11.684  67.235  1.00  0.00    -0.137 C  
HETATM   19  C   UNL     1      -8.408  12.008  66.231  1.00  0.00     0.141 C  
HETATM   20  C   UNL     1      -9.107  13.876  67.875  1.00  0.00    -0.194 C  
HETATM   21  C   UNL     1      -7.857  11.747  68.630  1.00  0.00    -0.117 C  
HETATM   22  C   UNL     1      -9.598  12.788  66.877  1.00  0.00    -0.235 C  
ENDROOT
BRANCH  18  23
HETATM   23  O   UNL     1      -6.523  10.509  66.948  1.00  0.00    -0.071 OA 
BRANCH  23  24
HETATM   24  C   UNL     1      -6.665   9.266  67.661  1.00  0.00    -0.068 C  
HETATM   25  O   UNL     1      -6.000   9.340  68.931  1.00  0.00    -0.043 OA 
HETATM   26  C   UNL     1      -6.289   8.206  69.769  1.00  0.00    -0.036 C  
HETATM   27  C   UNL     1      -5.669   6.969  69.139  1.00  0.00    -0.018 C  
HETATM   28  H   UNL     1      -5.702   5.615  66.255  1.00  0.00     0.000 HD 
HETATM   29  C   UNL     1      -6.249   6.715  67.751  1.00  0.00    -0.035 C  
HETATM   30  H   UNL     1      -5.469   5.017  69.537  1.00  0.00     0.000 HD 
HETATM   31  O   UNL     1      -5.856   5.789  69.931  1.00  0.00    -0.021 OA 
HETATM   32  O   UNL     1      -5.340   5.773  67.119  1.00  0.00    -0.005 OA 
HETATM   33  C   UNL     1      -6.351   7.961  66.861  1.00  0.00    -0.055 C  
BRANCH  26  34
HETATM   34  C   UNL     1      -5.690   8.454  71.160  1.00  0.00    -0.034 C  
HETATM   35  H   UNL     1      -6.319   9.135  72.890  1.00  0.00     0.000 HD 
HETATM   36  O   UNL     1      -6.689   8.981  72.029  1.00  0.00    -0.251 OA 
ENDBRANCH  26  34
BRANCH  33  37
HETATM   37  O   UNL     1      -7.340   7.847  65.809  1.00  0.00    -0.073 OA 
BRANCH  37  38
HETATM   38  C   UNL     1      -8.727   7.652  66.142  1.00  0.00    -0.156 C  
HETATM   39  O   UNL     1      -9.073   8.504  67.216  1.00  0.00    -0.131 OA 
HETATM   40  C   UNL     1     -10.367   8.357  67.796  1.00  0.00    -0.235 C  
HETATM   41  C   UNL     1     -10.759   6.907  68.102  1.00  0.00    -0.205 C  
HETATM   42  H   UNL     1      -9.338   4.558  65.208  1.00  0.00     0.000 HD 
HETATM   43  O   UNL     1      -9.101   5.470  65.086  1.00  0.00    -0.092 OA 
HETATM   44  O   UNL     1     -12.145   6.843  68.456  1.00  0.00     0.551 OA 
HETATM   45  C   UNL     1     -10.520   6.021  66.893  1.00  0.00    -0.280 C  
HETATM   46  H   UNL     1     -10.602   4.083  66.481  1.00  0.00     0.000 HD 
HETATM   47  O   UNL     1     -10.752   4.638  67.237  1.00  0.00     0.104 OA 
HETATM   48  H   UNL     1     -12.388   5.944  68.646  1.00  0.00     0.000 HD 
HETATM   49  C   UNL     1      -9.111   6.171  66.341  1.00  0.00    -0.148 C  
BRANCH  40  50
HETATM   50  C   UNL     1     -10.343   9.157  69.113  1.00  0.00    -0.212 C  
HETATM   51  O   UNL     1     -11.553   9.889  69.327  1.00  0.00    -0.451 OA 
HETATM   52  H   UNL     1     -11.538  10.382  70.139  1.00  0.00     0.000 HD 
ENDBRANCH  40  50
ENDBRANCH  37  38
ENDBRANCH  33  37
ENDBRANCH  23  24
ENDBRANCH  18  23
TORSDOF 6
ENDMDL
MODEL      177
REMARK 921   NORMALIZED FREE ENERGY PREDICTED BY IDOCK:    5.54 KCAL/MOL
REMARK 922        TOTAL FREE ENERGY PREDICTED BY IDOCK:    5.50 KCAL/MOL
REMARK 923 INTER-LIGAND FREE ENERGY PREDICTED BY IDOCK:    0.66 KCAL/MOL
REMARK 924 INTRA-LIGAND FREE ENERGY PREDICTED BY IDOCK:    4.85 KCAL/MOL
REMARK 927      BINDING AFFINITY PREDICTED BY RF-SCORE:    0.00 PKD
ROOT
HETATM    1  C   UNL     1     -11.534  17.569  66.185  1.00  0.00     1.503 C  
HETATM    2  C   UNL     1     -10.889  16.969  67.496  1.00  0.00    -0.203 C  
HETATM    3  C   UNL     1     -11.457  17.747  68.681  1.00  0.00     1.321 C  
HETATM    4  C   UNL     1     -10.743  17.365  69.963  1.00  0.00     0.642 C  
HETATM    5  C   UNL     1      -9.303  17.818  69.988  1.00  0.00     1.716 C  
HETATM    6  C   UNL     1      -8.472  17.738  68.664  1.00  0.00    -0.271 C  
HETATM    7  C   UNL     1      -9.342  17.313  67.363  1.00  0.00    -0.236 C  
HETATM    8  C   UNL     1      -7.225  16.823  68.827  1.00  0.00    -0.217 C  
HETATM    9  C   UNL     1      -7.752  19.141  68.693  1.00  0.00    -0.352 C  
HETATM   10  O   UNL     1      -7.025  19.477  69.635  1.00  0.00    -0.310 OA 
HETATM   11  O   UNL     1      -7.930  20.004  67.693  1.00  0.00    -0.290 OA 
HETATM   12  C   UNL     1      -8.706  16.379  66.312  1.00  0.00    -0.369 C  
HETATM   13  C   UNL     1      -9.061  14.913  66.454  1.00  0.00    -0.293 C  
HETATM   14  C   UNL     1     -10.525  14.480  66.609  1.00  0.00    -0.274 C  
HETATM   15  C   UNL     1     -11.344  14.125  65.350  1.00  0.00    -0.322 C  
HETATM   16  C   UNL     1     -12.292  13.038  65.867  1.00  0.00    -0.432 C  
HETATM   17  C   UNL     1     -13.261  12.513  65.104  1.00  0.00     0.863 C  
HETATM   18  C   UNL     1     -11.864  12.559  67.275  1.00  0.00    -0.311 C  
HETATM   19  C   UNL     1     -12.573  13.334  68.409  1.00  0.00     0.698 C  
HETATM   20  C   UNL     1     -11.379  15.436  67.495  1.00  0.00    -0.269 C  
HETATM   21  C   UNL     1     -10.438  13.051  67.191  1.00  0.00    -0.243 C  
HETATM   22  C   UNL     1     -11.869  14.683  68.765  1.00  0.00    -0.348 C  
ENDROOT
BRANCH  18  23
HETATM   23  O   UNL     1     -12.011  11.141  67.318  1.00  0.00    -0.452 OA 
BRANCH  23  24
HETATM   24  C   UNL     1     -11.504  10.309  68.378  1.00  0.00    -0.091 C  
HETATM   25  O   UNL     1     -11.740  10.927  69.652  1.00  0.00    -0.275 OA 
HETATM   26  C   UNL     1     -11.445  10.045  70.752  1.00  0.00    -0.356 C  
HETATM   27  C   UNL     1      -9.947   9.788  70.777  1.00  0.00    -0.081 C  
HETATM   28  H   UNL     1      -7.753   8.867  68.657  1.00  0.00     0.000 HD 
HETATM   29  C   UNL     1      -9.485   9.128  69.481  1.00  0.00    -0.168 C  
HETATM   30  H   UNL     1      -8.608   8.798  71.890  1.00  0.00     0.000 HD 
HETATM   31  O   UNL     1      -9.543   8.959  71.874  1.00  0.00    -0.298 OA 
HETATM   32  O   UNL     1      -8.040   9.277  69.465  1.00  0.00    -0.098 OA 
HETATM   33  C   UNL     1     -10.052   9.760  68.202  1.00  0.00    -0.165 C  
BRANCH  26  34
HETATM   34  C   UNL     1     -11.893  10.717  72.056  1.00  0.00     1.200 C  
HETATM   35  H   UNL     1     -12.792  10.171  73.714  1.00  0.00     0.000 HD 
HETATM   36  O   UNL     1     -12.515   9.755  72.906  1.00  0.00     0.500 OA 
ENDBRANCH  26  34
BRANCH  33  37
HETATM   37  O   UNL     1     -10.060   8.866  67.062  1.00  0.00    -0.213 OA 
BRANCH  37  38
HETATM   38  C   UNL     1      -8.844   8.213  66.651  1.00  0.00    -0.143 C  
HETATM   39  O   UNL     1      -8.979   7.775  65.313  1.00  0.00     0.021 OA 
HETATM   40  C   UNL     1      -7.938   6.973  64.763  1.00  0.00    -0.122 C  
HETATM   41  C   UNL     1      -7.484   5.823  65.669  1.00  0.00    -0.077 C  
HETATM   42  H   UNL     1      -7.571   7.067  69.459  1.00  0.00     0.000 HD 
HETATM   43  O   UNL     1      -7.869   7.732  68.850  1.00  0.00    -0.117 OA 
HETATM   44  O   UNL     1      -6.294   5.229  65.141  1.00  0.00    -0.033 OA 
HETATM   45  C   UNL     1      -7.200   6.327  67.073  1.00  0.00    -0.075 C  
HETATM   46  H   UNL     1      -6.740   5.532  68.830  1.00  0.00     0.000 HD 
HETATM   47  O   UNL     1      -6.918   5.216  67.952  1.00  0.00    -0.059 OA 
HETATM   48  H   UNL     1      -6.012   4.516  65.703  1.00  0.00     0.000 HD 
HETATM   49  C   UNL     1      -8.359   7.133  67.639  1.00  0.00    -0.117 C  
BRANCH  40  50
HETATM   50  C   UNL     1      -8.492   6.386  63.450  1.00  0.00     0.256 C  
HETATM   51  O   UNL     1      -8.674   7.384  62.443  1.00  0.00    -0.382 OA 
HETATM   52  H   UNL     1      -9.016   7.022  61.634  1.00  0.00     0.000 HD 
ENDBRANCH  40  50
ENDBRANCH  37  38
ENDBRANCH  33  37
ENDBRANCH  23  24
ENDBRANCH  18  23
TORSDOF 6
ENDMDL
MODEL      178
REMARK 921   NORMALIZED FREE ENERGY PREDICTED BY IDOCK:    6.30 KCAL/MOL
REMARK 922        TOTAL FREE ENERGY PREDICTED BY IDOCK:    6.53 KCAL/MOL
REMARK 923 INTER-LIGAND FREE ENERGY PREDICTED BY IDOCK:    0.48 KCAL/MOL
REMARK 924 INTRA-LIGAND FREE ENERGY PREDICTED BY IDOCK:    6.05 KCAL/MOL
REMARK 927      BINDING AFFINITY PREDICTED BY RF-SCORE:    0.00 PKD
ROOT
HETATM    1  C   UNL     1     -12.101   8.276  68.649  1.00  0.00     3.068 C  
HETATM    2  C   UNL     1     -10.620   8.172  68.109  1.00  0.00    -0.168 C  
HETATM    3  C   UNL     1     -10.523   6.889  67.288  1.00  0.00    -0.357 C  
HETATM    4  C   UNL     1      -9.086   6.612  66.895  1.00  0.00    -0.144 C  
HETATM    5  C   UNL     1      -8.214   6.261  68.077  1.00  0.00    -0.115 C  
HETATM    6  C   UNL     1      -8.446   7.018  69.426  1.00  0.00    -0.133 C  
HETATM    7  C   UNL     1      -9.737   7.999  69.421  1.00  0.00    -0.170 C  
HETATM    8  C   UNL     1      -7.168   7.779  69.882  1.00  0.00    -0.067 C  
HETATM    9  C   UNL     1      -8.389   5.813  70.442  1.00  0.00    -0.121 C  
HETATM   10  O   UNL     1      -7.395   5.082  70.527  1.00  0.00    -0.058 OA 
HETATM   11  O   UNL     1      -9.433   5.552  71.229  1.00  0.00    -0.145 OA 
HETATM   12  C   UNL     1      -9.650   9.353  70.153  1.00  0.00    -0.275 C  
HETATM   13  C   UNL     1      -9.322  10.542  69.273  1.00  0.00    -0.177 C  
HETATM   14  C   UNL     1     -10.104  10.786  67.976  1.00  0.00    -0.198 C  
HETATM   15  C   UNL     1     -11.356  11.686  68.007  1.00  0.00    -0.366 C  
HETATM   16  C   UNL     1     -11.332  12.338  66.620  1.00  0.00    -0.398 C  
HETATM   17  C   UNL     1     -12.318  13.134  66.187  1.00  0.00    -0.385 C  
HETATM   18  C   UNL     1      -9.981  12.073  65.912  1.00  0.00    -0.236 C  
HETATM   19  C   UNL     1     -10.015  10.811  65.019  1.00  0.00    -0.361 C  
HETATM   20  C   UNL     1     -10.456   9.485  67.193  1.00  0.00    -0.322 C  
HETATM   21  C   UNL     1      -9.201  11.741  67.163  1.00  0.00    -0.179 C  
HETATM   22  C   UNL     1      -9.744   9.492  65.810  1.00  0.00    -0.357 C  
ENDROOT
BRANCH  18  23
HETATM   23  O   UNL     1      -9.587  13.277  65.257  1.00  0.00    -0.025 OA 
BRANCH  23  24
HETATM   24  C   UNL     1      -9.713  14.588  65.837  1.00  0.00    -0.293 C  
HETATM   25  O   UNL     1     -10.221  15.516  64.866  1.00  0.00    -0.374 OA 
HETATM   26  C   UNL     1     -10.565  16.786  65.449  1.00  0.00    -0.203 C  
HETATM   27  C   UNL     1      -9.287  17.463  65.922  1.00  0.00     0.040 C  
HETATM   28  H   UNL     1      -6.792  16.627  67.718  1.00  0.00     0.000 HD 
HETATM   29  C   UNL     1      -8.579  16.615  66.974  1.00  0.00    -0.195 C  
HETATM   30  H   UNL     1      -8.722  19.188  66.767  1.00  0.00     0.000 HD 
HETATM   31  O   UNL     1      -9.519  18.766  66.472  1.00  0.00    -0.318 OA 
HETATM   32  O   UNL     1      -7.233  17.156  67.063  1.00  0.00    -0.154 OA 
HETATM   33  C   UNL     1      -8.480  15.122  66.633  1.00  0.00    -0.195 C  
BRANCH  26  34
HETATM   34  C   UNL     1     -11.261  17.645  64.386  1.00  0.00     2.465 C  
HETATM   35  H   UNL     1     -11.334  19.546  63.902  1.00  0.00     0.000 HD 
HETATM   36  O   UNL     1     -10.903  19.015  64.560  1.00  0.00     0.568 OA 
ENDBRANCH  26  34
BRANCH  33  37
HETATM   37  O   UNL     1      -8.308  14.269  67.792  1.00  0.00    -0.148 OA 
BRANCH  37  38
HETATM   38  C   UNL     1      -8.914  14.629  69.047  1.00  0.00    -0.093 C  
HETATM   39  O   UNL     1      -9.956  13.719  69.341  1.00  0.00     0.210 OA 
HETATM   40  C   UNL     1     -10.781  13.988  70.470  1.00  0.00     1.076 C  
HETATM   41  C   UNL     1     -11.281  15.434  70.554  1.00  0.00    -0.333 C  
HETATM   42  H   UNL     1      -8.388  17.867  69.282  1.00  0.00     0.000 HD 
HETATM   43  O   UNL     1      -8.144  16.951  69.226  1.00  0.00    -0.142 OA 
HETATM   44  O   UNL     1     -11.897  15.663  71.827  1.00  0.00    -0.356 OA 
HETATM   45  C   UNL     1     -10.131  16.410  70.383  1.00  0.00     0.768 C  
HETATM   46  H   UNL     1      -9.914  18.373  70.208  1.00  0.00     0.000 HD 
HETATM   47  O   UNL     1     -10.633  17.763  70.315  1.00  0.00     0.632 OA 
HETATM   48  H   UNL     1     -12.207  16.559  71.879  1.00  0.00     0.000 HD 
HETATM   49  C   UNL     1      -9.311  16.117  69.137  1.00  0.00    -0.238 C  
BRANCH  40  50
HETATM   50  C   UNL     1     -11.994  13.045  70.354  1.00  0.00    -0.258 C  
HETATM   51  O   UNL     1     -12.678  12.882  71.599  1.00  0.00    -0.289 OA 
HETATM   52  H   UNL     1     -13.426  12.300  71.527  1.00  0.00     0.000 HD 
ENDBRANCH  40  50
ENDBRANCH  37  38
ENDBRANCH  33  37
ENDBRANCH  23  24
ENDBRANCH  18  23
TORSDOF 6
ENDMDL
MODEL      179
REMARK 921   NORMALIZED FREE ENERGY PREDICTED BY IDOCK:    6.40 KCAL/MOL
REMARK 922        TOTAL FREE ENERGY PREDICTED BY IDOCK:    6.66 KCAL/MOL
REMARK 923 INTER-LIGAND FREE ENERGY PREDICTED BY IDOCK:    3.64 KCAL/MOL
REMARK 924 INTRA-LIGAND FREE ENERGY PREDICTED BY IDOCK:    3.02 KCAL/MOL
REMARK 927      BINDING AFFINITY PREDICTED BY RF-SCORE:    0.00 PKD
ROOT
HETATM    1  C   UNL     1     -13.771  12.725  68.690  1.00  0.00     7.416 C  
HETATM    2  C   UNL     1     -12.630  12.755  69.783  1.00  0.00     0.227 C  
HETATM    3  C   UNL     1     -13.153  12.008  71.008  1.00  0.00    -0.022 C  
HETATM    4  C   UNL     1     -12.196  12.157  72.174  1.00  0.00     1.360 C  
HETATM    5  C   UNL     1     -12.136  13.570  72.704  1.00  0.00     1.139 C  
HETATM    6  C   UNL     1     -12.198  14.754  71.683  1.00  0.00    -0.413 C  
HETATM    7  C   UNL     1     -12.486  14.295  70.155  1.00  0.00    -0.393 C  
HETATM    8  C   UNL     1     -10.929  15.649  71.769  1.00  0.00     0.012 C  
HETATM    9  C   UNL     1     -13.220  15.708  72.414  1.00  0.00    -0.474 C  
HETATM   10  O   UNL     1     -13.006  16.137  73.554  1.00  0.00    -0.536 OA 
HETATM   11  O   UNL     1     -14.354  16.062  71.808  1.00  0.00    -0.197 OA 
HETATM   12  C   UNL     1     -11.761  15.025  69.006  1.00  0.00    -0.351 C  
HETATM   13  C   UNL     1     -10.514  14.337  68.489  1.00  0.00    -0.253 C  
HETATM   14  C   UNL     1     -10.545  12.848  68.121  1.00  0.00    -0.249 C  
HETATM   15  C   UNL     1     -10.868  12.435  66.670  1.00  0.00    -0.281 C  
HETATM   16  C   UNL     1     -10.038  11.159  66.495  1.00  0.00    -0.265 C  
HETATM   17  C   UNL     1     -10.106  10.409  65.387  1.00  0.00    -0.354 C  
HETATM   18  C   UNL     1      -9.046  10.983  67.670  1.00  0.00    -0.145 C  
HETATM   19  C   UNL     1      -9.627  10.123  68.816  1.00  0.00    -0.170 C  
HETATM   20  C   UNL     1     -11.410  11.975  69.081  1.00  0.00    -0.338 C  
HETATM   21  C   UNL     1      -9.058  12.427  68.115  1.00  0.00    -0.200 C  
HETATM   22  C   UNL     1     -10.506  10.943  69.814  1.00  0.00    -0.056 C  
ENDROOT
BRANCH  18  23
HETATM   23  O   UNL     1      -7.806  10.529  67.132  1.00  0.00    -0.109 OA 
BRANCH  23  24
HETATM   24  C   UNL     1      -7.524   9.156  66.803  1.00  0.00    -0.087 C  
HETATM   25  O   UNL     1      -6.756   9.080  65.593  1.00  0.00    -0.070 OA 
HETATM   26  C   UNL     1      -6.269   7.751  65.334  1.00  0.00    -0.038 C  
HETATM   27  C   UNL     1      -7.456   6.850  65.033  1.00  0.00    -0.096 C  
HETATM   28  H   UNL     1     -10.248   6.211  66.430  1.00  0.00     0.000 HD 
HETATM   29  C   UNL     1      -8.416   6.800  66.218  1.00  0.00    -0.131 C  
HETATM   30  H   UNL     1      -7.811   4.947  64.520  1.00  0.00     0.000 HD 
HETATM   31  O   UNL     1      -7.069   5.509  64.708  1.00  0.00    -0.052 OA 
HETATM   32  O   UNL     1      -9.650   6.242  65.692  1.00  0.00     0.142 OA 
HETATM   33  C   UNL     1      -8.731   8.165  66.847  1.00  0.00    -0.129 C  
BRANCH  26  34
HETATM   34  C   UNL     1      -5.317   7.799  64.132  1.00  0.00    -0.033 C  
HETATM   35  H   UNL     1      -5.224   8.746  62.415  1.00  0.00     0.000 HD 
HETATM   36  O   UNL     1      -5.813   8.717  63.160  1.00  0.00    -0.076 OA 
ENDBRANCH  26  34
BRANCH  33  37
HETATM   37  O   UNL     1      -9.179   8.084  68.222  1.00  0.00    -0.135 OA 
BRANCH  37  38
HETATM   38  C   UNL     1      -8.494   7.226  69.154  1.00  0.00    -0.133 C  
HETATM   39  O   UNL     1      -7.325   6.714  68.544  1.00  0.00    -0.083 OA 
HETATM   40  C   UNL     1      -6.581   5.725  69.249  1.00  0.00    -0.054 C  
HETATM   41  C   UNL     1      -7.434   4.591  69.831  1.00  0.00    -0.050 C  
HETATM   42  H   UNL     1     -10.887   6.117  71.118  1.00  0.00     0.000 HD 
HETATM   43  O   UNL     1     -10.326   6.772  70.720  1.00  0.00    -0.201 OA 
HETATM   44  O   UNL     1      -6.639   3.786  70.708  1.00  0.00    -0.030 OA 
HETATM   45  C   UNL     1      -8.610   5.151  70.609  1.00  0.00    -0.119 C  
HETATM   46  H   UNL     1     -10.222   4.431  71.513  1.00  0.00     0.000 HD 
HETATM   47  O   UNL     1      -9.486   4.080  71.026  1.00  0.00    -0.136 OA 
HETATM   48  H   UNL     1      -7.167   3.083  71.069  1.00  0.00     0.000 HD 
HETATM   49  C   UNL     1      -9.406   6.163  69.799  1.00  0.00    -0.151 C  
BRANCH  40  50
HETATM   50  C   UNL     1      -5.583   5.130  68.236  1.00  0.00    -0.016 C  
HETATM   51  O   UNL     1      -6.179   4.127  67.410  1.00  0.00    -0.034 OA 
HETATM   52  H   UNL     1      -5.564   3.761  66.786  1.00  0.00     0.000 HD 
ENDBRANCH  40  50
ENDBRANCH  37  38
ENDBRANCH  33  37
ENDBRANCH  23  24
ENDBRANCH  18  23
TORSDOF 6
ENDMDL
MODEL      180
REMARK 921   NORMALIZED FREE ENERGY PREDICTED BY IDOCK:    6.61 KCAL/MOL
REMARK 922        TOTAL FREE ENERGY PREDICTED BY IDOCK:    6.94 KCAL/MOL
REMARK 923 INTER-LIGAND FREE ENERGY PREDICTED BY IDOCK:    3.85 KCAL/MOL
REMARK 924 INTRA-LIGAND FREE ENERGY PREDICTED BY IDOCK:    3.08 KCAL/MOL
REMARK 927      BINDING AFFINITY PREDICTED BY RF-SCORE:    0.00 PKD
ROOT
HETATM    1  C   UNL     1      -8.791   3.865  70.169  1.00  0.00    -0.138 C  
HETATM    2  C   UNL     1      -9.156   4.768  71.413  1.00  0.00    -0.174 C  
HETATM    3  C   UNL     1      -8.610   4.073  72.658  1.00  0.00    -0.103 C  
HETATM    4  C   UNL     1      -9.086   4.774  73.914  1.00  0.00    -0.112 C  
HETATM    5  C   UNL     1     -10.573   4.631  74.137  1.00  0.00    -0.348 C  
HETATM    6  C   UNL     1     -11.522   4.685  72.894  1.00  0.00    -0.166 C  
HETATM    7  C   UNL     1     -10.745   4.730  71.470  1.00  0.00     0.018 C  
HETATM    8  C   UNL     1     -12.548   5.848  73.008  1.00  0.00     0.929 C  
HETATM    9  C   UNL     1     -12.483   3.477  73.216  1.00  0.00     0.930 C  
HETATM   10  O   UNL     1     -13.146   3.436  74.259  1.00  0.00     2.990 OA 
HETATM   11  O   UNL     1     -12.587   2.459  72.361  1.00  0.00     2.182 OA 
HETATM   12  C   UNL     1     -11.312   5.611  70.338  1.00  0.00     0.081 C  
HETATM   13  C   UNL     1     -10.676   6.978  70.204  1.00  0.00    -0.265 C  
HETATM   14  C   UNL     1      -9.149   7.123  70.159  1.00  0.00    -0.152 C  
HETATM   15  C   UNL     1      -8.430   7.117  68.795  1.00  0.00    -0.126 C  
HETATM   16  C   UNL     1      -7.241   8.053  69.041  1.00  0.00    -0.078 C  
HETATM   17  C   UNL     1      -6.287   8.253  68.122  1.00  0.00    -0.055 C  
HETATM   18  C   UNL     1      -7.405   8.809  70.381  1.00  0.00    -0.063 C  
HETATM   19  C   UNL     1      -6.727   8.079  71.564  1.00  0.00    -0.053 C  
HETATM   20  C   UNL     1      -8.391   6.153  71.116  1.00  0.00    -0.124 C  
HETATM   21  C   UNL     1      -8.899   8.609  70.502  1.00  0.00    -0.182 C  
HETATM   22  C   UNL     1      -7.625   6.968  72.197  1.00  0.00    -0.091 C  
ENDROOT
BRANCH  18  23
HETATM   23  O   UNL     1      -6.992  10.158  70.176  1.00  0.00    -0.128 OA 
BRANCH  23  24
HETATM   24  C   UNL     1      -7.706  11.105  69.359  1.00  0.00     0.034 C  
HETATM   25  O   UNL     1      -8.443  10.422  68.334  1.00  0.00    -0.115 OA 
HETATM   26  C   UNL     1      -9.338  11.300  67.626  1.00  0.00    -0.160 C  
HETATM   27  C   UNL     1      -8.509  12.299  66.834  1.00  0.00    -0.159 C  
HETATM   28  H   UNL     1      -6.098  14.281  67.474  1.00  0.00     0.000 HD 
HETATM   29  C   UNL     1      -7.632  13.135  67.760  1.00  0.00    -0.155 C  
HETATM   30  H   UNL     1      -8.795  13.812  65.553  1.00  0.00     0.000 HD 
HETATM   31  O   UNL     1      -9.313  13.188  66.048  1.00  0.00    -0.153 OA 
HETATM   32  O   UNL     1      -6.644  13.760  66.897  1.00  0.00     0.182 OA 
HETATM   33  C   UNL     1      -6.893  12.333  68.840  1.00  0.00    -0.096 C  
BRANCH  26  34
HETATM   34  C   UNL     1     -10.208  10.461  66.681  1.00  0.00    -0.234 C  
HETATM   35  H   UNL     1     -12.125  10.161  66.387  1.00  0.00     0.000 HD 
HETATM   36  O   UNL     1     -11.587  10.680  66.971  1.00  0.00    -0.254 OA 
ENDBRANCH  26  34
BRANCH  33  37
HETATM   37  O   UNL     1      -6.511  13.122  69.994  1.00  0.00    -0.057 OA 
BRANCH  37  38
HETATM   38  C   UNL     1      -6.856  14.518  70.058  1.00  0.00    -0.070 C  
HETATM   39  O   UNL     1      -7.012  15.021  68.746  1.00  0.00    -0.099 OA 
HETATM   40  C   UNL     1      -7.210  16.423  68.586  1.00  0.00    -0.178 C  
HETATM   41  C   UNL     1      -6.237  17.292  69.391  1.00  0.00    -0.245 C  
HETATM   42  H   UNL     1      -5.545  15.528  72.901  1.00  0.00     0.000 HD 
HETATM   43  O   UNL     1      -6.123  15.019  72.345  1.00  0.00     0.691 OA 
HETATM   44  O   UNL     1      -6.659  18.660  69.351  1.00  0.00    -0.269 OA 
HETATM   45  C   UNL     1      -6.183  16.837  70.838  1.00  0.00     1.154 C  
HETATM   46  H   UNL     1      -5.123  17.279  72.455  1.00  0.00     0.000 HD 
HETATM   47  O   UNL     1      -5.157  17.564  71.549  1.00  0.00    -0.474 OA 
HETATM   48  H   UNL     1      -6.056  19.199  69.849  1.00  0.00     0.000 HD 
HETATM   49  C   UNL     1      -5.917  15.345  70.961  1.00  0.00     0.269 C  
BRANCH  40  50
HETATM   50  C   UNL     1      -7.020  16.718  67.085  1.00  0.00    -0.191 C  
HETATM   51  O   UNL     1      -5.650  16.639  66.685  1.00  0.00    -0.339 OA 
HETATM   52  H   UNL     1      -5.533  16.821  65.759  1.00  0.00     0.000 HD 
ENDBRANCH  40  50
ENDBRANCH  37  38
ENDBRANCH  33  37
ENDBRANCH  23  24
ENDBRANCH  18  23
TORSDOF 6
ENDMDL
MODEL      181
REMARK 921   NORMALIZED FREE ENERGY PREDICTED BY IDOCK:    7.45 KCAL/MOL
REMARK 922        TOTAL FREE ENERGY PREDICTED BY IDOCK:    8.08 KCAL/MOL
REMARK 923 INTER-LIGAND FREE ENERGY PREDICTED BY IDOCK:    5.89 KCAL/MOL
REMARK 924 INTRA-LIGAND FREE ENERGY PREDICTED BY IDOCK:    2.19 KCAL/MOL
REMARK 927      BINDING AFFINITY PREDICTED BY RF-SCORE:    0.00 PKD
ROOT
HETATM    1  C   UNL     1     -14.165  13.591  69.831  1.00  0.00     5.149 C  
HETATM    2  C   UNL     1     -12.785  13.791  70.574  1.00  0.00    -0.293 C  
HETATM    3  C   UNL     1     -12.838  12.971  71.862  1.00  0.00    -0.316 C  
HETATM    4  C   UNL     1     -11.630  13.260  72.729  1.00  0.00     4.185 C  
HETATM    5  C   UNL     1     -11.631  14.665  73.285  1.00  0.00     0.258 C  
HETATM    6  C   UNL     1     -12.141  15.828  72.371  1.00  0.00    -0.588 C  
HETATM    7  C   UNL     1     -12.768  15.334  70.959  1.00  0.00    -0.487 C  
HETATM    8  C   UNL     1     -11.040  16.904  72.148  1.00  0.00     1.238 C  
HETATM    9  C   UNL     1     -13.050  16.615  73.392  1.00  0.00     0.317 C  
HETATM   10  O   UNL     1     -12.596  17.070  74.448  1.00  0.00    -0.520 OA 
HETATM   11  O   UNL     1     -14.345  16.795  73.132  1.00  0.00     0.526 OA 
HETATM   12  C   UNL     1     -12.499  16.167  69.689  1.00  0.00     0.506 C  
HETATM   13  C   UNL     1     -11.357  15.676  68.825  1.00  0.00    -0.351 C  
HETATM   14  C   UNL     1     -11.272  14.200  68.415  1.00  0.00    -0.289 C  
HETATM   15  C   UNL     1     -11.918  13.747  67.089  1.00  0.00    -0.442 C  
HETATM   16  C   UNL     1     -10.992  12.610  66.641  1.00  0.00    -0.292 C  
HETATM   17  C   UNL     1     -11.252  11.861  65.561  1.00  0.00    -0.353 C  
HETATM   18  C   UNL     1      -9.701  12.583  67.494  1.00  0.00    -0.196 C  
HETATM   19  C   UNL     1      -9.815  11.643  68.717  1.00  0.00    -0.129 C  
HETATM   20  C   UNL     1     -11.705  13.205  69.535  1.00  0.00    -0.382 C  
HETATM   21  C   UNL     1      -9.799  14.009  67.988  1.00  0.00    -0.228 C  
HETATM   22  C   UNL     1     -10.495  12.319  69.950  1.00  0.00     1.165 C  
ENDROOT
BRANCH  18  23
HETATM   23  O   UNL     1      -8.605  12.322  66.621  1.00  0.00    -0.179 OA 
BRANCH  23  24
HETATM   24  C   UNL     1      -8.081  11.008  66.354  1.00  0.00    -0.166 C  
HETATM   25  O   UNL     1      -7.563  10.939  65.017  1.00  0.00     0.085 OA 
HETATM   26  C   UNL     1      -6.840   9.719  64.771  1.00  0.00    -0.122 C  
HETATM   27  C   UNL     1      -7.822   8.559  64.810  1.00  0.00    -0.125 C  
HETATM   28  H   UNL     1     -10.068   7.535  66.825  1.00  0.00     0.000 HD 
HETATM   29  C   UNL     1      -8.498   8.463  66.174  1.00  0.00    -0.131 C  
HETATM   30  H   UNL     1      -7.817   6.574  64.546  1.00  0.00     0.000 HD 
HETATM   31  O   UNL     1      -7.204   7.298  64.522  1.00  0.00    -0.062 OA 
HETATM   32  O   UNL     1      -9.647   7.595  65.975  1.00  0.00    -0.070 OA 
HETATM   33  C   UNL     1      -8.994   9.801  66.740  1.00  0.00    -0.138 C  
BRANCH  26  34
HETATM   34  C   UNL     1      -6.175   9.809  63.392  1.00  0.00    -0.113 C  
HETATM   35  H   UNL     1      -4.753  10.871  62.553  1.00  0.00     0.000 HD 
HETATM   36  O   UNL     1      -5.165  10.816  63.407  1.00  0.00    -0.169 OA 
ENDBRANCH  26  34
BRANCH  33  37
HETATM   37  O   UNL     1      -9.138   9.807  68.182  1.00  0.00    -0.126 OA 
BRANCH  37  38
HETATM   38  C   UNL     1      -8.529   8.769  68.971  1.00  0.00    -0.130 C  
HETATM   39  O   UNL     1      -9.540   8.006  69.601  1.00  0.00    -0.167 OA 
HETATM   40  C   UNL     1      -9.142   7.019  70.547  1.00  0.00    -0.156 C  
HETATM   41  C   UNL     1      -8.111   7.507  71.571  1.00  0.00    -0.099 C  
HETATM   42  H   UNL     1      -5.578   9.995  69.752  1.00  0.00     0.000 HD 
HETATM   43  O   UNL     1      -6.260   9.679  69.171  1.00  0.00    -0.041 OA 
HETATM   44  O   UNL     1      -7.605   6.396  72.320  1.00  0.00    -0.095 OA 
HETATM   45  C   UNL     1      -6.952   8.199  70.876  1.00  0.00    -0.043 C  
HETATM   46  H   UNL     1      -5.339   9.216  71.419  1.00  0.00     0.000 HD 
HETATM   47  O   UNL     1      -6.064   8.783  71.854  1.00  0.00    -0.063 OA 
HETATM   48  H   UNL     1      -6.966   6.698  72.955  1.00  0.00     0.000 HD 
HETATM   49  C   UNL     1      -7.422   9.280  69.916  1.00  0.00    -0.085 C  
BRANCH  40  50
HETATM   50  C   UNL     1     -10.423   6.593  71.292  1.00  0.00    -0.215 C  
HETATM   51  O   UNL     1     -10.239   6.550  72.709  1.00  0.00    -0.177 OA 
HETATM   52  H   UNL     1     -11.029   6.287  73.167  1.00  0.00     0.000 HD 
ENDBRANCH  40  50
ENDBRANCH  37  38
ENDBRANCH  33  37
ENDBRANCH  23  24
ENDBRANCH  18  23
TORSDOF 6
ENDMDL
MODEL      182
REMARK 921   NORMALIZED FREE ENERGY PREDICTED BY IDOCK:    8.26 KCAL/MOL
REMARK 922        TOTAL FREE ENERGY PREDICTED BY IDOCK:    9.17 KCAL/MOL
REMARK 923 INTER-LIGAND FREE ENERGY PREDICTED BY IDOCK:    0.23 KCAL/MOL
REMARK 924 INTRA-LIGAND FREE ENERGY PREDICTED BY IDOCK:    8.95 KCAL/MOL
REMARK 927      BINDING AFFINITY PREDICTED BY RF-SCORE:    0.00 PKD
ROOT
HETATM    1  C   UNL     1     -10.984   7.915  70.498  1.00  0.00    -0.250 C  
HETATM    2  C   UNL     1      -9.722   8.078  69.561  1.00  0.00    -0.170 C  
HETATM    3  C   UNL     1      -9.794   6.978  68.503  1.00  0.00    -0.147 C  
HETATM    4  C   UNL     1      -8.522   6.943  67.682  1.00  0.00    -0.122 C  
HETATM    5  C   UNL     1      -7.322   6.492  68.481  1.00  0.00    -0.087 C  
HETATM    6  C   UNL     1      -7.193   6.968  69.966  1.00  0.00    -0.079 C  
HETATM    7  C   UNL     1      -8.485   7.779  70.515  1.00  0.00    -0.127 C  
HETATM    8  C   UNL     1      -5.885   7.778  70.194  1.00  0.00    -0.023 C  
HETATM    9  C   UNL     1      -6.769   5.618  70.662  1.00  0.00    -0.048 C  
HETATM   10  O   UNL     1      -5.752   5.003  70.321  1.00  0.00    -0.015 OA 
HETATM   11  O   UNL     1      -7.519   5.105  71.638  1.00  0.00    -0.089 OA 
HETATM   12  C   UNL     1      -8.268   8.985  71.452  1.00  0.00    -0.113 C  
HETATM   13  C   UNL     1      -8.283  10.339  70.773  1.00  0.00     1.343 C  
HETATM   14  C   UNL     1      -9.424  10.716  69.819  1.00  0.00     0.188 C  
HETATM   15  C   UNL     1     -10.664  11.447  70.375  1.00  0.00     1.091 C  
HETATM   16  C   UNL     1     -11.086  12.331  69.196  1.00  0.00    -0.261 C  
HETATM   17  C   UNL     1     -12.201  13.072  69.222  1.00  0.00    -0.138 C  
HETATM   18  C   UNL     1      -9.989  12.351  68.104  1.00  0.00    -0.215 C  
HETATM   19  C   UNL     1     -10.207  11.271  67.020  1.00  0.00    -0.250 C  
HETATM   20  C   UNL     1      -9.912   9.541  68.918  1.00  0.00    -0.187 C  
HETATM   21  C   UNL     1      -8.857  11.897  68.998  1.00  0.00     0.296 C  
HETATM   22  C   UNL     1      -9.638   9.873  67.423  1.00  0.00    -0.185 C  
ENDROOT
BRANCH  18  23
HETATM   23  O   UNL     1      -9.876  13.688  67.622  1.00  0.00    -0.219 OA 
BRANCH  23  24
HETATM   24  C   UNL     1      -9.841  14.851  68.470  1.00  0.00    -0.217 C  
HETATM   25  O   UNL     1     -11.083  14.990  69.177  1.00  0.00    -0.244 OA 
HETATM   26  C   UNL     1     -11.024  16.009  70.193  1.00  0.00    -0.367 C  
HETATM   27  C   UNL     1     -10.873  17.361  69.513  1.00  0.00     0.371 C  
HETATM   28  H   UNL     1      -8.944  18.600  67.300  1.00  0.00     0.000 HD 
HETATM   29  C   UNL     1      -9.591  17.415  68.688  1.00  0.00    -0.295 C  
HETATM   30  H   UNL     1     -10.765  19.296  70.018  1.00  0.00     0.000 HD 
HETATM   31  O   UNL     1     -10.859  18.452  70.443  1.00  0.00     1.481 OA 
HETATM   32  O   UNL     1      -9.743  18.566  67.814  1.00  0.00    -0.289 OA 
HETATM   33  C   UNL     1      -9.335  16.177  67.818  1.00  0.00    -0.211 C  
BRANCH  26  34
HETATM   34  C   UNL     1     -12.321  15.965  71.011  1.00  0.00    -0.356 C  
HETATM   35  H   UNL     1     -13.883  14.785  71.159  1.00  0.00     0.000 HD 
HETATM   36  O   UNL     1     -13.080  14.812  70.653  1.00  0.00    -0.356 OA 
ENDBRANCH  26  34
BRANCH  33  37
HETATM   37  O   UNL     1      -7.941  15.987  67.470  1.00  0.00    -0.130 OA 
BRANCH  37  38
HETATM   38  C   UNL     1      -7.084  17.127  67.280  1.00  0.00    -0.165 C  
HETATM   39  O   UNL     1      -7.734  18.286  67.766  1.00  0.00    -0.229 OA 
HETATM   40  C   UNL     1      -7.113  19.547  67.537  1.00  0.00    -0.216 C  
HETATM   41  C   UNL     1      -6.628  19.758  66.098  1.00  0.00    -0.216 C  
HETATM   42  H   UNL     1      -5.221  16.298  64.699  1.00  0.00     0.000 HD 
HETATM   43  O   UNL     1      -5.562  16.222  65.583  1.00  0.00     1.922 OA 
HETATM   44  O   UNL     1      -5.820  20.938  66.024  1.00  0.00    -0.211 OA 
HETATM   45  C   UNL     1      -5.806  18.571  65.630  1.00  0.00    -0.208 C  
HETATM   46  H   UNL     1      -4.967  17.970  63.936  1.00  0.00     0.000 HD 
HETATM   47  O   UNL     1      -5.481  18.713  64.229  1.00  0.00    -0.200 OA 
HETATM   48  H   UNL     1      -5.520  21.069  65.133  1.00  0.00     0.000 HD 
HETATM   49  C   UNL     1      -6.530  17.251  65.845  1.00  0.00     0.112 C  
BRANCH  40  50
HETATM   50  C   UNL     1      -8.171  20.617  67.870  1.00  0.00     0.040 C  
HETATM   51  O   UNL     1      -9.080  20.185  68.886  1.00  0.00     0.019 OA 
HETATM   52  H   UNL     1      -9.732  20.844  69.091  1.00  0.00     0.000 HD 
ENDBRANCH  40  50
ENDBRANCH  37  38
ENDBRANCH  33  37
ENDBRANCH  23  24
ENDBRANCH  18  23
TORSDOF 6
ENDMDL
MODEL      183
REMARK 921   NORMALIZED FREE ENERGY PREDICTED BY IDOCK:    9.88 KCAL/MOL
REMARK 922        TOTAL FREE ENERGY PREDICTED BY IDOCK:   11.36 KCAL/MOL
REMARK 923 INTER-LIGAND FREE ENERGY PREDICTED BY IDOCK:   11.22 KCAL/MOL
REMARK 924 INTRA-LIGAND FREE ENERGY PREDICTED BY IDOCK:    0.13 KCAL/MOL
REMARK 927      BINDING AFFINITY PREDICTED BY RF-SCORE:    0.00 PKD
ROOT
HETATM    1  C   UNL     1      -9.516  14.291  63.691  1.00  0.00     6.409 C  
HETATM    2  C   UNL     1     -10.348  13.575  64.828  1.00  0.00    -0.405 C  
HETATM    3  C   UNL     1     -11.809  13.565  64.385  1.00  0.00    -0.455 C  
HETATM    4  C   UNL     1     -12.703  13.070  65.504  1.00  0.00    -0.291 C  
HETATM    5  C   UNL     1     -12.765  14.029  66.670  1.00  0.00     0.056 C  
HETATM    6  C   UNL     1     -11.458  14.781  67.088  1.00  0.00    -0.375 C  
HETATM    7  C   UNL     1     -10.208  14.543  66.082  1.00  0.00    -0.317 C  
HETATM    8  C   UNL     1     -11.061  14.464  68.558  1.00  0.00    -0.270 C  
HETATM    9  C   UNL     1     -12.022  16.239  67.295  1.00  0.00     1.077 C  
HETATM   10  O   UNL     1     -12.928  16.476  68.103  1.00  0.00     2.193 OA 
HETATM   11  O   UNL     1     -11.530  17.253  66.582  1.00  0.00     0.698 OA 
HETATM   12  C   UNL     1      -8.790  14.401  66.673  1.00  0.00    -0.188 C  
HETATM   13  C   UNL     1      -8.311  12.977  66.864  1.00  0.00    -0.033 C  
HETATM   14  C   UNL     1      -8.420  11.961  65.719  1.00  0.00     0.387 C  
HETATM   15  C   UNL     1      -7.234  11.787  64.748  1.00  0.00     2.813 C  
HETATM   16  C   UNL     1      -7.321  10.302  64.381  1.00  0.00    -0.075 C  
HETATM   17  C   UNL     1      -6.518   9.744  63.464  1.00  0.00    -0.117 C  
HETATM   18  C   UNL     1      -8.317   9.563  65.307  1.00  0.00    -0.139 C  
HETATM   19  C   UNL     1      -9.747   9.512  64.724  1.00  0.00     0.015 C  
HETATM   20  C   UNL     1      -9.726  12.092  64.878  1.00  0.00    -0.128 C  
HETATM   21  C   UNL     1      -8.300  10.588  66.419  1.00  0.00    -0.145 C  
HETATM   22  C   UNL     1     -10.579  10.800  65.024  1.00  0.00    -0.243 C  
ENDROOT
BRANCH  18  23
HETATM   23  O   UNL     1      -7.747   8.300  65.644  1.00  0.00    -0.086 OA 
BRANCH  23  24
HETATM   24  C   UNL     1      -8.465   7.241  66.303  1.00  0.00    -0.134 C  
HETATM   25  O   UNL     1      -8.918   6.274  65.344  1.00  0.00    -0.054 OA 
HETATM   26  C   UNL     1      -9.455   5.092  65.968  1.00  0.00    -0.160 C  
HETATM   27  C   UNL     1     -10.737   5.469  66.694  1.00  0.00    -0.261 C  
HETATM   28  H   UNL     1     -11.599   7.708  68.792  1.00  0.00     0.000 HD 
HETATM   29  C   UNL     1     -10.466   6.515  67.772  1.00  0.00    -0.227 C  
HETATM   30  H   UNL     1     -12.180   4.580  67.760  1.00  0.00     0.000 HD 
HETATM   31  O   UNL     1     -11.380   4.344  67.307  1.00  0.00     2.477 OA 
HETATM   32  O   UNL     1     -11.768   7.056  68.120  1.00  0.00     0.514 OA 
HETATM   33  C   UNL     1      -9.561   7.673  67.329  1.00  0.00    -0.157 C  
BRANCH  26  34
HETATM   34  C   UNL     1      -9.744   4.048  64.882  1.00  0.00    -0.193 C  
HETATM   35  H   UNL     1      -9.893   2.094  64.777  1.00  0.00     0.000 HD 
HETATM   36  O   UNL     1      -9.714   2.740  65.449  1.00  0.00     0.007 OA 
ENDBRANCH  26  34
BRANCH  33  37
HETATM   37  O   UNL     1      -8.892   8.343  68.425  1.00  0.00    -0.139 OA 
BRANCH  37  38
HETATM   38  C   UNL     1      -7.845   7.671  69.149  1.00  0.00    -0.118 C  
HETATM   39  O   UNL     1      -7.504   6.476  68.474  1.00  0.00    -0.085 OA 
HETATM   40  C   UNL     1      -6.588   5.588  69.107  1.00  0.00    -0.047 C  
HETATM   41  C   UNL     1      -6.898   5.309  70.582  1.00  0.00    -0.051 C  
HETATM   42  H   UNL     1      -8.269   8.660  72.257  1.00  0.00     0.000 HD 
HETATM   43  O   UNL     1      -8.084   8.765  71.332  1.00  0.00    -0.142 OA 
HETATM   44  O   UNL     1      -5.807   4.606  71.185  1.00  0.00    -0.015 OA 
HETATM   45  C   UNL     1      -7.122   6.607  71.337  1.00  0.00    -0.076 C  
HETATM   46  H   UNL     1      -7.699   7.141  73.157  1.00  0.00     0.000 HD 
HETATM   47  O   UNL     1      -7.559   6.329  72.685  1.00  0.00    -0.098 OA 
HETATM   48  H   UNL     1      -5.999   4.433  72.099  1.00  0.00     0.000 HD 
HETATM   49  C   UNL     1      -8.146   7.500  70.653  1.00  0.00    -0.109 C  
BRANCH  40  50
HETATM   50  C   UNL     1      -6.658   4.263  68.323  1.00  0.00    -0.046 C  
HETATM   51  O   UNL     1      -7.216   3.200  69.099  1.00  0.00    -0.047 OA 
HETATM   52  H   UNL     1      -7.259   2.383  68.616  1.00  0.00     0.000 HD 
ENDBRANCH  40  50
ENDBRANCH  37  38
ENDBRANCH  33  37
ENDBRANCH  23  24
ENDBRANCH  18  23
TORSDOF 6
ENDMDL
MODEL      184
REMARK 921   NORMALIZED FREE ENERGY PREDICTED BY IDOCK:   10.80 KCAL/MOL
REMARK 922        TOTAL FREE ENERGY PREDICTED BY IDOCK:   12.60 KCAL/MOL
REMARK 923 INTER-LIGAND FREE ENERGY PREDICTED BY IDOCK:    3.97 KCAL/MOL
REMARK 924 INTRA-LIGAND FREE ENERGY PREDICTED BY IDOCK:    8.63 KCAL/MOL
REMARK 927      BINDING AFFINITY PREDICTED BY RF-SCORE:    0.00 PKD
ROOT
HETATM    1  C   UNL     1      -8.750  11.304  70.940  1.00  0.00     5.987 C  
HETATM    2  C   UNL     1      -7.931  11.297  69.589  1.00  0.00     0.494 C  
HETATM    3  C   UNL     1      -6.451  11.391  69.952  1.00  0.00    -0.118 C  
HETATM    4  C   UNL     1      -5.607  11.585  68.708  1.00  0.00    -0.042 C  
HETATM    5  C   UNL     1      -5.827  12.930  68.057  1.00  0.00    -0.107 C  
HETATM    6  C   UNL     1      -7.277  13.517  68.027  1.00  0.00    -0.125 C  
HETATM    7  C   UNL     1      -8.360  12.647  68.866  1.00  0.00     0.270 C  
HETATM    8  C   UNL     1      -7.765  13.762  66.571  1.00  0.00     1.232 C  
HETATM    9  C   UNL     1      -6.990  15.010  68.444  1.00  0.00    -0.109 C  
HETATM   10  O   UNL     1      -6.224  15.730  67.792  1.00  0.00    -0.129 OA 
HETATM   11  O   UNL     1      -7.568  15.524  69.530  1.00  0.00    -0.215 OA 
HETATM   12  C   UNL     1      -9.787  12.487  68.303  1.00  0.00    -0.227 C  
HETATM   13  C   UNL     1     -10.039  11.205  67.539  1.00  0.00    -0.210 C  
HETATM   14  C   UNL     1      -9.643   9.850  68.142  1.00  0.00    -0.153 C  
HETATM   15  C   UNL     1     -10.677   9.065  68.975  1.00  0.00    -0.163 C  
HETATM   16  C   UNL     1     -10.306   7.608  68.678  1.00  0.00    -0.220 C  
HETATM   17  C   UNL     1     -10.906   6.578  69.290  1.00  0.00    -0.361 C  
HETATM   18  C   UNL     1      -9.301   7.526  67.503  1.00  0.00    -0.138 C  
HETATM   19  C   UNL     1      -7.830   7.519  67.977  1.00  0.00    -0.121 C  
HETATM   20  C   UNL     1      -8.298   9.875  68.930  1.00  0.00    -0.124 C  
HETATM   21  C   UNL     1      -9.604   8.892  66.931  1.00  0.00    -0.248 C  
HETATM   22  C   UNL     1      -7.260   8.951  68.231  1.00  0.00    -0.079 C  
ENDROOT
BRANCH  18  23
HETATM   23  O   UNL     1      -9.684   6.428  66.676  1.00  0.00    -0.156 OA 
BRANCH  23  24
HETATM   24  C   UNL     1      -8.760   5.464  66.138  1.00  0.00    -0.129 C  
HETATM   25  O   UNL     1      -9.457   4.276  65.736  1.00  0.00    -0.150 OA 
HETATM   26  C   UNL     1      -8.616   3.369  64.999  1.00  0.00    -0.107 C  
HETATM   27  C   UNL     1      -7.549   2.830  65.938  1.00  0.00    -0.073 C  
HETATM   28  H   UNL     1      -5.444   4.094  67.969  1.00  0.00     0.000 HD 
HETATM   29  C   UNL     1      -6.686   3.960  66.490  1.00  0.00    -0.046 C  
HETATM   30  H   UNL     1      -6.022   1.534  65.895  1.00  0.00     0.000 HD 
HETATM   31  O   UNL     1      -6.688   1.871  65.309  1.00  0.00    -0.029 OA 
HETATM   32  O   UNL     1      -5.980   3.389  67.625  1.00  0.00    -0.026 OA 
HETATM   33  C   UNL     1      -7.472   5.187  66.976  1.00  0.00    -0.087 C  
BRANCH  26  34
HETATM   34  C   UNL     1      -9.481   2.222  64.459  1.00  0.00    -0.123 C  
HETATM   35  H   UNL     1     -10.780   0.943  65.185  1.00  0.00     0.000 HD 
HETATM   36  O   UNL     1     -10.245   1.653  65.520  1.00  0.00     0.859 OA 
ENDBRANCH  26  34
BRANCH  33  37
HETATM   37  O   UNL     1      -6.693   6.408  66.995  1.00  0.00    -0.056 OA 
BRANCH  37  38
HETATM   38  C   UNL     1      -6.189   6.961  65.764  1.00  0.00    -0.039 C  
HETATM   39  O   UNL     1      -5.734   8.280  65.996  1.00  0.00    -0.041 OA 
HETATM   40  C   UNL     1      -5.332   9.056  64.871  1.00  0.00    -0.042 C  
HETATM   41  C   UNL     1      -6.316   9.018  63.696  1.00  0.00    -0.089 C  
HETATM   42  H   UNL     1      -7.854   5.347  63.431  1.00  0.00     0.000 HD 
HETATM   43  O   UNL     1      -7.254   5.439  64.162  1.00  0.00    -0.048 OA 
HETATM   44  O   UNL     1      -5.722   9.626  62.544  1.00  0.00    -0.088 OA 
HETATM   45  C   UNL     1      -6.689   7.586  63.357  1.00  0.00    -0.058 C  
HETATM   46  H   UNL     1      -7.960   6.673  62.138  1.00  0.00     0.000 HD 
HETATM   47  O   UNL     1      -7.726   7.568  62.350  1.00  0.00    -0.104 OA 
HETATM   48  H   UNL     1      -6.331   9.603  61.816  1.00  0.00     0.000 HD 
HETATM   49  C   UNL     1      -7.162   6.812  64.577  1.00  0.00    -0.072 C  
BRANCH  40  50
HETATM   50  C   UNL     1      -5.207  10.509  65.371  1.00  0.00    -0.114 C  
HETATM   51  O   UNL     1      -5.524  11.463  64.355  1.00  0.00    -0.312 OA 
HETATM   52  H   UNL     1      -5.446  12.358  64.663  1.00  0.00     0.000 HD 
ENDBRANCH  40  50
ENDBRANCH  37  38
ENDBRANCH  33  37
ENDBRANCH  23  24
ENDBRANCH  18  23
TORSDOF 6
ENDMDL
MODEL      185
REMARK 921   NORMALIZED FREE ENERGY PREDICTED BY IDOCK:   13.02 KCAL/MOL
REMARK 922        TOTAL FREE ENERGY PREDICTED BY IDOCK:   15.61 KCAL/MOL
REMARK 923 INTER-LIGAND FREE ENERGY PREDICTED BY IDOCK:   11.30 KCAL/MOL
REMARK 924 INTRA-LIGAND FREE ENERGY PREDICTED BY IDOCK:    4.31 KCAL/MOL
REMARK 927      BINDING AFFINITY PREDICTED BY RF-SCORE:    0.00 PKD
ROOT
HETATM    1  C   UNL     1     -11.935   9.161  66.904  1.00  0.00     5.237 C  
HETATM    2  C   UNL     1     -10.598   8.885  67.698  1.00  0.00    -0.292 C  
HETATM    3  C   UNL     1     -10.149   7.466  67.354  1.00  0.00    -0.274 C  
HETATM    4  C   UNL     1      -8.978   7.051  68.222  1.00  0.00    -0.128 C  
HETATM    5  C   UNL     1      -9.357   6.886  69.675  1.00  0.00    -0.145 C  
HETATM    6  C   UNL     1     -10.379   7.894  70.299  1.00  0.00    -0.212 C  
HETATM    7  C   UNL     1     -11.036   8.918  69.226  1.00  0.00    -0.026 C  
HETATM    8  C   UNL     1      -9.761   8.663  71.501  1.00  0.00    -0.333 C  
HETATM    9  C   UNL     1     -11.310   6.901  71.095  1.00  0.00    -0.290 C  
HETATM   10  O   UNL     1     -10.860   6.151  71.970  1.00  0.00    -0.227 OA 
HETATM   11  O   UNL     1     -12.614   6.845  70.825  1.00  0.00    -0.324 OA 
HETATM   12  C   UNL     1     -11.287  10.381  69.647  1.00  0.00    -0.333 C  
HETATM   13  C   UNL     1     -10.213  11.364  69.233  1.00  0.00    -0.007 C  
HETATM   14  C   UNL     1      -9.707  11.398  67.784  1.00  0.00    -0.184 C  
HETATM   15  C   UNL     1     -10.380  12.348  66.772  1.00  0.00    -0.239 C  
HETATM   16  C   UNL     1      -9.218  12.725  65.847  1.00  0.00     0.102 C  
HETATM   17  C   UNL     1      -9.392  13.473  64.749  1.00  0.00     1.087 C  
HETATM   18  C   UNL     1      -7.867  12.265  66.446  1.00  0.00     0.418 C  
HETATM   19  C   UNL     1      -7.444  10.861  65.956  1.00  0.00    -0.086 C  
HETATM   20  C   UNL     1      -9.579   9.991  67.124  1.00  0.00    -0.202 C  
HETATM   21  C   UNL     1      -8.353  12.138  67.872  1.00  0.00    -0.161 C  
HETATM   22  C   UNL     1      -8.090   9.703  66.782  1.00  0.00    -0.113 C  
ENDROOT
BRANCH  18  23
HETATM   23  O   UNL     1      -6.914  13.303  66.225  1.00  0.00     1.548 OA 
BRANCH  23  24
HETATM   24  C   UNL     1      -7.078  14.659  66.682  1.00  0.00     1.541 C  
HETATM   25  O   UNL     1      -6.025  15.488  66.170  1.00  0.00     2.005 OA 
HETATM   26  C   UNL     1      -6.257  16.887  66.420  1.00  0.00     0.022 C  
HETATM   27  C   UNL     1      -6.176  17.130  67.919  1.00  0.00    -0.141 C  
HETATM   28  H   UNL     1      -7.478  15.825  70.518  1.00  0.00     0.000 HD 
HETATM   29  C   UNL     1      -7.231  16.316  68.662  1.00  0.00    -0.166 C  
HETATM   30  H   UNL     1      -6.290  18.662  69.204  1.00  0.00     0.000 HD 
HETATM   31  O   UNL     1      -6.341  18.510  68.268  1.00  0.00    -0.196 OA 
HETATM   32  O   UNL     1      -6.821  16.332  70.056  1.00  0.00    -0.018 OA 
HETATM   33  C   UNL     1      -7.349  14.854  68.208  1.00  0.00    -0.109 C  
BRANCH  26  34
HETATM   34  C   UNL     1      -5.185  17.704  65.688  1.00  0.00    -0.053 C  
HETATM   35  H   UNL     1      -5.107  18.895  64.129  1.00  0.00     0.000 HD 
HETATM   36  O   UNL     1      -5.771  18.389  64.583  1.00  0.00    -0.158 OA 
ENDBRANCH  26  34
BRANCH  33  37
HETATM   37  O   UNL     1      -8.635  14.254  68.503  1.00  0.00    -0.173 OA 
BRANCH  37  38
HETATM   38  C   UNL     1      -9.837  15.039  68.399  1.00  0.00    -0.222 C  
HETATM   39  O   UNL     1     -10.022  15.434  67.054  1.00  0.00    -0.233 OA 
HETATM   40  C   UNL     1     -11.079  16.345  66.763  1.00  0.00     0.135 C  
HETATM   41  C   UNL     1     -11.141  17.556  67.700  1.00  0.00     0.047 C  
HETATM   42  H   UNL     1     -10.168  16.379  71.385  1.00  0.00     0.000 HD 
HETATM   43  O   UNL     1     -10.120  15.672  70.752  1.00  0.00     0.163 OA 
HETATM   44  O   UNL     1     -12.357  18.279  67.481  1.00  0.00     2.833 OA 
HETATM   45  C   UNL     1     -11.087  17.115  69.151  1.00  0.00     0.199 C  
HETATM   46  H   UNL     1     -10.963  17.991  70.926  1.00  0.00     0.000 HD 
HETATM   47  O   UNL     1     -10.997  18.267  70.018  1.00  0.00     1.355 OA 
HETATM   48  H   UNL     1     -12.396  19.031  68.061  1.00  0.00     0.000 HD 
HETATM   49  C   UNL     1      -9.914  16.187  69.426  1.00  0.00    -0.243 C  
BRANCH  40  50
HETATM   50  C   UNL     1     -10.840  16.838  65.323  1.00  0.00    -0.138 C  
HETATM   51  O   UNL     1      -9.869  16.048  64.631  1.00  0.00     0.033 OA 
HETATM   52  H   UNL     1      -9.722  16.353  63.744  1.00  0.00     0.000 HD 
ENDBRANCH  40  50
ENDBRANCH  37  38
ENDBRANCH  33  37
ENDBRANCH  23  24
ENDBRANCH  18  23
TORSDOF 6
ENDMDL
MODEL      186
REMARK 921   NORMALIZED FREE ENERGY PREDICTED BY IDOCK:   13.07 KCAL/MOL
REMARK 922        TOTAL FREE ENERGY PREDICTED BY IDOCK:   15.67 KCAL/MOL
REMARK 923 INTER-LIGAND FREE ENERGY PREDICTED BY IDOCK:   15.24 KCAL/MOL
REMARK 924 INTRA-LIGAND FREE ENERGY PREDICTED BY IDOCK:    0.43 KCAL/MOL
REMARK 927      BINDING AFFINITY PREDICTED BY RF-SCORE:    0.00 PKD
ROOT
HETATM    1  C   UNL     1     -13.661  11.804  66.014  1.00  0.00     8.932 C  
HETATM    2  C   UNL     1     -12.236  12.422  66.297  1.00  0.00    -0.062 C  
HETATM    3  C   UNL     1     -12.409  13.496  67.369  1.00  0.00    -0.131 C  
HETATM    4  C   UNL     1     -11.122  14.273  67.560  1.00  0.00    -0.309 C  
HETATM    5  C   UNL     1     -10.767  15.121  66.361  1.00  0.00    -0.317 C  
HETATM    6  C   UNL     1     -11.040  14.545  64.933  1.00  0.00    -0.401 C  
HETATM    7  C   UNL     1     -11.839  13.133  64.931  1.00  0.00    -0.399 C  
HETATM    8  C   UNL     1      -9.733  14.449  64.095  1.00  0.00     2.665 C  
HETATM    9  C   UNL     1     -11.686  15.804  64.236  1.00  0.00    -0.162 C  
HETATM   10  O   UNL     1     -11.083  16.881  64.154  1.00  0.00    -1.032 OA 
HETATM   11  O   UNL     1     -12.916  15.729  63.726  1.00  0.00    -0.382 OA 
HETATM   12  C   UNL     1     -11.452  12.057  63.896  1.00  0.00    -0.518 C  
HETATM   13  C   UNL     1     -10.503  10.990  64.399  1.00  0.00    -0.422 C  
HETATM   14  C   UNL     1     -10.786  10.259  65.718  1.00  0.00     0.188 C  
HETATM   15  C   UNL     1     -11.588   8.942  65.694  1.00  0.00     6.634 C  
HETATM   16  C   UNL     1     -10.978   8.158  66.861  1.00  0.00     0.252 C  
HETATM   17  C   UNL     1     -11.462   6.974  67.259  1.00  0.00     0.385 C  
HETATM   18  C   UNL     1      -9.685   8.844  67.367  1.00  0.00    -0.176 C  
HETATM   19  C   UNL     1      -9.949   9.834  68.524  1.00  0.00    -0.177 C  
HETATM   20  C   UNL     1     -11.378  11.171  66.835  1.00  0.00    -0.168 C  
HETATM   21  C   UNL     1      -9.423   9.647  66.113  1.00  0.00    -0.274 C  
HETATM   22  C   UNL     1     -10.387  11.251  68.032  1.00  0.00    -0.204 C  
ENDROOT
BRANCH  18  23
HETATM   23  O   UNL     1      -8.727   7.823  67.640  1.00  0.00    -0.125 OA 
BRANCH  23  24
HETATM   24  C   UNL     1      -8.378   7.379  68.964  1.00  0.00    -0.126 C  
HETATM   25  O   UNL     1      -9.230   6.297  69.369  1.00  0.00    -0.137 OA 
HETATM   26  C   UNL     1      -8.788   5.679  70.591  1.00  0.00    -0.138 C  
HETATM   27  C   UNL     1      -8.954   6.678  71.726  1.00  0.00    -0.140 C  
HETATM   28  H   UNL     1      -8.114   9.708  72.241  1.00  0.00     0.000 HD 
HETATM   29  C   UNL     1      -8.117   7.929  71.477  1.00  0.00    -0.108 C  
HETATM   30  H   UNL     1      -8.694   6.759  73.710  1.00  0.00     0.000 HD 
HETATM   31  O   UNL     1      -8.590   6.135  73.001  1.00  0.00    -0.119 OA 
HETATM   32  O   UNL     1      -8.635   8.928  72.396  1.00  0.00    -0.399 OA 
HETATM   33  C   UNL     1      -8.208   8.488  70.051  1.00  0.00    -0.121 C  
BRANCH  26  34
HETATM   34  C   UNL     1      -9.642   4.431  70.850  1.00  0.00    -0.185 C  
HETATM   35  H   UNL     1     -11.539   4.031  71.155  1.00  0.00     0.000 HD 
HETATM   36  O   UNL     1     -11.011   4.803  70.995  1.00  0.00     0.189 OA 
ENDBRANCH  26  34
BRANCH  33  37
HETATM   37  O   UNL     1      -7.071   9.302  69.670  1.00  0.00    -0.056 OA 
BRANCH  37  38
HETATM   38  C   UNL     1      -7.078  10.717  69.930  1.00  0.00    -0.093 C  
HETATM   39  O   UNL     1      -6.749  11.412  68.743  1.00  0.00    -0.061 OA 
HETATM   40  C   UNL     1      -6.557  12.822  68.825  1.00  0.00    -0.090 C  
HETATM   41  C   UNL     1      -5.661  13.269  69.984  1.00  0.00    -0.117 C  
HETATM   42  H   UNL     1      -6.384  10.936  73.138  1.00  0.00     0.000 HD 
HETATM   43  O   UNL     1      -6.894  10.688  72.376  1.00  0.00     2.426 OA 
HETATM   44  O   UNL     1      -5.719  14.693  70.123  1.00  0.00    -0.110 OA 
HETATM   45  C   UNL     1      -6.110  12.631  71.286  1.00  0.00     0.968 C  
HETATM   46  H   UNL     1      -5.453  12.541  73.155  1.00  0.00     0.000 HD 
HETATM   47  O   UNL     1      -5.173  12.941  72.341  1.00  0.00    -0.371 OA 
HETATM   48  H   UNL     1      -5.163  14.971  70.841  1.00  0.00     0.000 HD 
HETATM   49  C   UNL     1      -6.250  11.121  71.167  1.00  0.00     0.704 C  
BRANCH  40  50
HETATM   50  C   UNL     1      -5.904  13.246  67.495  1.00  0.00    -0.042 C  
HETATM   51  O   UNL     1      -5.564  12.126  66.674  1.00  0.00    -0.430 OA 
HETATM   52  H   UNL     1      -5.161  12.388  65.854  1.00  0.00     0.000 HD 
ENDBRANCH  40  50
ENDBRANCH  37  38
ENDBRANCH  33  37
ENDBRANCH  23  24
ENDBRANCH  18  23
TORSDOF 6
ENDMDL
MODEL      187
REMARK 921   NORMALIZED FREE ENERGY PREDICTED BY IDOCK:   13.76 KCAL/MOL
REMARK 922        TOTAL FREE ENERGY PREDICTED BY IDOCK:   16.60 KCAL/MOL
REMARK 923 INTER-LIGAND FREE ENERGY PREDICTED BY IDOCK:   -1.10 KCAL/MOL
REMARK 924 INTRA-LIGAND FREE ENERGY PREDICTED BY IDOCK:   17.69 KCAL/MOL
REMARK 927      BINDING AFFINITY PREDICTED BY RF-SCORE:    0.00 PKD
ROOT
HETATM    1  C   UNL     1     -10.123   8.349  67.891  1.00  0.00    -0.254 C  
HETATM    2  C   UNL     1      -8.661   8.228  68.478  1.00  0.00    -0.133 C  
HETATM    3  C   UNL     1      -7.986   7.049  67.781  1.00  0.00    -0.114 C  
HETATM    4  C   UNL     1      -6.648   6.744  68.424  1.00  0.00    -0.059 C  
HETATM    5  C   UNL     1      -6.784   6.206  69.829  1.00  0.00    -0.052 C  
HETATM    6  C   UNL     1      -7.893   6.806  70.754  1.00  0.00    -0.101 C  
HETATM    7  C   UNL     1      -8.884   7.850  70.006  1.00  0.00    -0.141 C  
HETATM    8  C   UNL     1      -7.285   7.436  72.040  1.00  0.00    -0.067 C  
HETATM    9  C   UNL     1      -8.486   5.487  71.383  1.00  0.00    -0.127 C  
HETATM   10  O   UNL     1      -7.778   4.698  72.020  1.00  0.00    -0.086 OA 
HETATM   11  O   UNL     1      -9.776   5.192  71.224  1.00  0.00    -0.155 OA 
HETATM   12  C   UNL     1      -9.366   9.101  70.770  1.00  0.00    -0.325 C  
HETATM   13  C   UNL     1      -8.580  10.366  70.497  1.00  0.00     1.201 C  
HETATM   14  C   UNL     1      -8.295  10.807  69.055  1.00  0.00    -0.138 C  
HETATM   15  C   UNL     1      -9.278  11.764  68.350  1.00  0.00    -0.175 C  
HETATM   16  C   UNL     1      -8.354  12.576  67.436  1.00  0.00    -0.182 C  
HETATM   17  C   UNL     1      -8.824  13.472  66.557  1.00  0.00     0.005 C  
HETATM   18  C   UNL     1      -6.869  12.323  67.792  1.00  0.00    -0.109 C  
HETATM   19  C   UNL     1      -6.242  11.182  66.958  1.00  0.00    -0.093 C  
HETATM   20  C   UNL     1      -7.976   9.631  68.083  1.00  0.00    -0.100 C  
HETATM   21  C   UNL     1      -7.120  11.802  69.188  1.00  0.00    -0.071 C  
HETATM   22  C   UNL     1      -6.520   9.764  67.552  1.00  0.00    -0.068 C  
ENDROOT
BRANCH  18  23
HETATM   23  O   UNL     1      -6.185  13.574  67.729  1.00  0.00    -0.139 OA 
BRANCH  23  24
HETATM   24  C   UNL     1      -6.801  14.844  68.011  1.00  0.00    -0.137 C  
HETATM   25  O   UNL     1      -6.245  15.414  69.205  1.00  0.00    -0.103 OA 
HETATM   26  C   UNL     1      -6.671  16.774  69.413  1.00  0.00    -0.226 C  
HETATM   27  C   UNL     1      -8.163  16.773  69.706  1.00  0.00     0.926 C  
HETATM   28  H   UNL     1     -10.758  15.528  68.338  1.00  0.00     0.000 HD 
HETATM   29  C   UNL     1      -8.948  16.186  68.537  1.00  0.00    -0.204 C  
HETATM   30  H   UNL     1      -9.607  18.082  70.165  1.00  0.00     0.000 HD 
HETATM   31  O   UNL     1      -8.676  18.083  69.982  1.00  0.00     1.452 OA 
HETATM   32  O   UNL     1     -10.269  15.894  69.066  1.00  0.00    -0.204 OA 
HETATM   33  C   UNL     1      -8.362  14.892  67.956  1.00  0.00    -0.147 C  
BRANCH  26  34
HETATM   34  C   UNL     1      -5.895  17.358  70.600  1.00  0.00     0.203 C  
HETATM   35  H   UNL     1      -5.322  19.136  71.202  1.00  0.00     0.000 HD 
HETATM   36  O   UNL     1      -5.803  18.775  70.467  1.00  0.00    -0.202 OA 
ENDBRANCH  26  34
BRANCH  33  37
HETATM   37  O   UNL     1      -8.758  14.634  66.586  1.00  0.00    -0.237 OA 
BRANCH  37  38
HETATM   38  C   UNL     1     -10.146  14.710  66.212  1.00  0.00    -0.294 C  
HETATM   39  O   UNL     1     -10.547  13.474  65.655  1.00  0.00    -0.273 OA 
HETATM   40  C   UNL     1     -11.850  13.389  65.084  1.00  0.00    -0.350 C  
HETATM   41  C   UNL     1     -12.203  14.549  64.147  1.00  0.00    -0.342 C  
HETATM   42  H   UNL     1     -10.633  17.908  65.617  1.00  0.00     0.000 HD 
HETATM   43  O   UNL     1     -10.423  17.147  66.144  1.00  0.00    -0.332 OA 
HETATM   44  O   UNL     1     -13.595  14.499  63.814  1.00  0.00     1.644 OA 
HETATM   45  C   UNL     1     -11.905  15.882  64.808  1.00  0.00     0.066 C  
HETATM   46  H   UNL     1     -11.914  17.793  64.280  1.00  0.00     0.000 HD 
HETATM   47  O   UNL     1     -12.101  16.959  63.866  1.00  0.00    -0.062 OA 
HETATM   48  H   UNL     1     -13.815  15.218  63.232  1.00  0.00     0.000 HD 
HETATM   49  C   UNL     1     -10.488  15.947  65.355  1.00  0.00    -0.405 C  
BRANCH  40  50
HETATM   50  C   UNL     1     -11.886  12.071  64.285  1.00  0.00    -0.346 C  
HETATM   51  O   UNL     1     -11.216  11.006  64.962  1.00  0.00    -0.039 OA 
HETATM   52  H   UNL     1     -11.238  10.194  64.469  1.00  0.00     0.000 HD 
ENDBRANCH  40  50
ENDBRANCH  37  38
ENDBRANCH  33  37
ENDBRANCH  23  24
ENDBRANCH  18  23
TORSDOF 6
ENDMDL
MODEL      188
REMARK 921   NORMALIZED FREE ENERGY PREDICTED BY IDOCK:   14.15 KCAL/MOL
REMARK 922        TOTAL FREE ENERGY PREDICTED BY IDOCK:   17.13 KCAL/MOL
REMARK 923 INTER-LIGAND FREE ENERGY PREDICTED BY IDOCK:   15.65 KCAL/MOL
REMARK 924 INTRA-LIGAND FREE ENERGY PREDICTED BY IDOCK:    1.48 KCAL/MOL
REMARK 927      BINDING AFFINITY PREDICTED BY RF-SCORE:    0.00 PKD
ROOT
HETATM    1  C   UNL     1     -10.331   3.304  70.027  1.00  0.00     1.391 C  
HETATM    2  C   UNL     1     -10.356   4.738  70.688  1.00  0.00    -0.184 C  
HETATM    3  C   UNL     1      -9.839   4.591  72.118  1.00  0.00    -0.237 C  
HETATM    4  C   UNL     1     -10.014   5.886  72.885  1.00  0.00    -0.189 C  
HETATM    5  C   UNL     1     -11.463   6.225  73.139  1.00  0.00     0.085 C  
HETATM    6  C   UNL     1     -12.508   5.923  72.015  1.00  0.00     0.257 C  
HETATM    7  C   UNL     1     -11.900   5.115  70.746  1.00  0.00     2.523 C  
HETATM    8  C   UNL     1     -13.243   7.214  71.555  1.00  0.00    -0.419 C  
HETATM    9  C   UNL     1     -13.665   5.273  72.867  1.00  0.00     2.222 C  
HETATM   10  O   UNL     1     -14.204   5.881  73.799  1.00  0.00     4.551 OA 
HETATM   11  O   UNL     1     -14.078   4.034  72.599  1.00  0.00     2.155 OA 
HETATM   12  C   UNL     1     -12.385   5.477  69.328  1.00  0.00     5.910 C  
HETATM   13  C   UNL     1     -11.489   6.428  68.563  1.00  0.00     0.016 C  
HETATM   14  C   UNL     1      -9.980   6.164  68.464  1.00  0.00    -0.173 C  
HETATM   15  C   UNL     1      -9.432   5.353  67.272  1.00  0.00    -0.128 C  
HETATM   16  C   UNL     1      -8.051   5.979  67.051  1.00  0.00    -0.106 C  
HETATM   17  C   UNL     1      -7.182   5.494  66.154  1.00  0.00    -0.077 C  
HETATM   18  C   UNL     1      -7.902   7.284  67.869  1.00  0.00    -0.118 C  
HETATM   19  C   UNL     1      -7.271   7.047  69.260  1.00  0.00    -0.086 C  
HETATM   20  C   UNL     1      -9.349   5.597  69.772  1.00  0.00    -0.176 C  
HETATM   21  C   UNL     1      -9.381   7.530  68.060  1.00  0.00    -0.142 C  
HETATM   22  C   UNL     1      -8.313   6.609  70.339  1.00  0.00    -0.127 C  
ENDROOT
BRANCH  18  23
HETATM   23  O   UNL     1      -7.234   8.240  67.048  1.00  0.00    -0.081 OA 
BRANCH  23  24
HETATM   24  C   UNL     1      -7.249   9.660  67.288  1.00  0.00    -0.087 C  
HETATM   25  O   UNL     1      -6.414   9.986  68.409  1.00  0.00    -0.053 OA 
HETATM   26  C   UNL     1      -6.227  11.405  68.559  1.00  0.00    -0.046 C  
HETATM   27  C   UNL     1      -7.559  12.031  68.941  1.00  0.00    -0.016 C  
HETATM   28  H   UNL     1     -10.537  11.929  67.812  1.00  0.00     0.000 HD 
HETATM   29  C   UNL     1      -8.607  11.785  67.860  1.00  0.00    -0.156 C  
HETATM   30  H   UNL     1      -8.297  13.833  69.406  1.00  0.00     0.000 HD 
HETATM   31  O   UNL     1      -7.465  13.443  69.168  1.00  0.00     0.001 OA 
HETATM   32  O   UNL     1      -9.884  12.082  68.485  1.00  0.00    -0.209 OA 
HETATM   33  C   UNL     1      -8.652  10.347  67.325  1.00  0.00    -0.126 C  
BRANCH  26  34
HETATM   34  C   UNL     1      -5.186  11.652  69.659  1.00  0.00    -0.059 C  
HETATM   35  H   UNL     1      -5.154  12.472  71.442  1.00  0.00     0.000 HD 
HETATM   36  O   UNL     1      -5.798  12.319  70.761  1.00  0.00    -0.284 OA 
ENDBRANCH  26  34
BRANCH  33  37
HETATM   37  O   UNL     1      -9.228  10.235  66.000  1.00  0.00    -0.154 OA 
BRANCH  37  38
HETATM   38  C   UNL     1      -9.406  11.411  65.191  1.00  0.00    -0.152 C  
HETATM   39  O   UNL     1      -8.814  12.519  65.840  1.00  0.00     0.135 OA 
HETATM   40  C   UNL     1      -9.010  13.811  65.272  1.00  0.00     1.603 C  
HETATM   41  C   UNL     1     -10.462  14.116  64.888  1.00  0.00    -0.438 C  
HETATM   42  H   UNL     1     -12.142  10.785  63.476  1.00  0.00     0.000 HD 
HETATM   43  O   UNL     1     -11.245  10.650  63.757  1.00  0.00     0.520 OA 
HETATM   44  O   UNL     1     -10.519  15.324  64.121  1.00  0.00    -0.241 OA 
HETATM   45  C   UNL     1     -11.048  12.984  64.065  1.00  0.00    -0.395 C  
HETATM   46  H   UNL     1     -12.823  12.504  63.321  1.00  0.00     0.000 HD 
HETATM   47  O   UNL     1     -12.456  13.213  63.835  1.00  0.00    -0.626 OA 
HETATM   48  H   UNL     1     -11.419  15.514  63.883  1.00  0.00     0.000 HD 
HETATM   49  C   UNL     1     -10.863  11.631  64.735  1.00  0.00    -0.308 C  
BRANCH  40  50
HETATM   50  C   UNL     1      -8.550  14.826  66.337  1.00  0.00     0.077 C  
HETATM   51  O   UNL     1      -9.450  14.896  67.446  1.00  0.00    -0.201 OA 
HETATM   52  H   UNL     1      -9.166  15.521  68.102  1.00  0.00     0.000 HD 
ENDBRANCH  40  50
ENDBRANCH  37  38
ENDBRANCH  33  37
ENDBRANCH  23  24
ENDBRANCH  18  23
TORSDOF 6
ENDMDL
MODEL      189
REMARK 921   NORMALIZED FREE ENERGY PREDICTED BY IDOCK:   15.03 KCAL/MOL
REMARK 922        TOTAL FREE ENERGY PREDICTED BY IDOCK:   18.32 KCAL/MOL
REMARK 923 INTER-LIGAND FREE ENERGY PREDICTED BY IDOCK:   12.05 KCAL/MOL
REMARK 924 INTRA-LIGAND FREE ENERGY PREDICTED BY IDOCK:    6.26 KCAL/MOL
REMARK 927      BINDING AFFINITY PREDICTED BY RF-SCORE:    0.00 PKD
ROOT
HETATM    1  C   UNL     1     -11.826   7.967  65.804  1.00  0.00     8.509 C  
HETATM    2  C   UNL     1     -10.452   8.092  66.574  1.00  0.00    -0.022 C  
HETATM    3  C   UNL     1      -9.352   7.623  65.624  1.00  0.00     0.209 C  
HETATM    4  C   UNL     1      -8.025   7.527  66.349  1.00  0.00    -0.107 C  
HETATM    5  C   UNL     1      -8.000   6.424  67.381  1.00  0.00    -0.116 C  
HETATM    6  C   UNL     1      -9.290   6.167  68.229  1.00  0.00    -0.116 C  
HETATM    7  C   UNL     1     -10.573   7.042  67.763  1.00  0.00    -0.298 C  
HETATM    8  C   UNL     1      -9.017   6.340  69.750  1.00  0.00    -0.140 C  
HETATM    9  C   UNL     1      -9.360   4.593  68.170  1.00  0.00    -0.135 C  
HETATM   10  O   UNL     1      -8.431   3.886  68.580  1.00  0.00    -0.087 OA 
HETATM   11  O   UNL     1     -10.434   3.990  67.660  1.00  0.00     0.438 OA 
HETATM   12  C   UNL     1     -11.524   7.606  68.839  1.00  0.00     0.695 C  
HETATM   13  C   UNL     1     -11.268   9.045  69.235  1.00  0.00     0.151 C  
HETATM   14  C   UNL     1     -11.116  10.131  68.161  1.00  0.00    -0.290 C  
HETATM   15  C   UNL     1     -12.361  10.917  67.702  1.00  0.00     1.866 C  
HETATM   16  C   UNL     1     -11.780  12.297  67.372  1.00  0.00    -0.405 C  
HETATM   17  C   UNL     1     -12.522  13.274  66.833  1.00  0.00    -0.045 C  
HETATM   18  C   UNL     1     -10.326  12.418  67.887  1.00  0.00    -0.210 C  
HETATM   19  C   UNL     1      -9.280  12.023  66.819  1.00  0.00    -0.201 C  
HETATM   20  C   UNL     1     -10.337   9.665  66.894  1.00  0.00    -0.307 C  
HETATM   21  C   UNL     1     -10.414  11.295  68.896  1.00  0.00    -0.232 C  
HETATM   22  C   UNL     1      -9.022  10.483  66.753  1.00  0.00    -0.149 C  
ENDROOT
BRANCH  18  23
HETATM   23  O   UNL     1     -10.167  13.719  68.448  1.00  0.00    -0.238 OA 
BRANCH  23  24
HETATM   24  C   UNL     1      -9.017  14.136  69.207  1.00  0.00     0.369 C  
HETATM   25  O   UNL     1      -8.542  15.406  68.736  1.00  0.00    -0.164 OA 
HETATM   26  C   UNL     1      -7.530  15.965  69.593  1.00  0.00    -0.056 C  
HETATM   27  C   UNL     1      -6.289  15.091  69.510  1.00  0.00    -0.131 C  
HETATM   28  H   UNL     1      -5.665  11.979  69.788  1.00  0.00     0.000 HD 
HETATM   29  C   UNL     1      -6.592  13.669  69.971  1.00  0.00     0.081 C  
HETATM   30  H   UNL     1      -4.424  15.052  70.240  1.00  0.00     0.000 HD 
HETATM   31  O   UNL     1      -5.199  15.597  70.292  1.00  0.00    -0.122 OA 
HETATM   32  O   UNL     1      -5.476  12.865  69.501  1.00  0.00    -0.076 OA 
HETATM   33  C   UNL     1      -7.889  13.074  69.405  1.00  0.00     0.722 C  
BRANCH  26  34
HETATM   34  C   UNL     1      -7.213  17.389  69.119  1.00  0.00    -0.175 C  
HETATM   35  H   UNL     1      -8.034  19.166  69.268  1.00  0.00     0.000 HD 
HETATM   36  O   UNL     1      -8.231  18.284  69.562  1.00  0.00     0.312 OA 
ENDBRANCH  26  34
BRANCH  33  37
HETATM   37  O   UNL     1      -8.438  12.001  70.209  1.00  0.00     2.832 OA 
BRANCH  37  38
HETATM   38  C   UNL     1      -8.087  10.634  69.921  1.00  0.00     0.286 C  
HETATM   39  O   UNL     1      -7.985   9.913  71.133  1.00  0.00    -0.046 OA 
HETATM   40  C   UNL     1      -7.502   8.574  71.076  1.00  0.00    -0.080 C  
HETATM   41  C   UNL     1      -6.237   8.396  70.228  1.00  0.00    -0.034 C  
HETATM   42  H   UNL     1      -6.464  10.817  67.066  1.00  0.00     0.000 HD 
HETATM   43  O   UNL     1      -7.212  10.904  67.645  1.00  0.00    -0.089 OA 
HETATM   44  O   UNL     1      -5.968   7.003  70.041  1.00  0.00    -0.023 OA 
HETATM   45  C   UNL     1      -6.407   9.050  68.869  1.00  0.00    -0.044 C  
HETATM   46  H   UNL     1      -5.269   9.416  67.287  1.00  0.00     0.000 HD 
HETATM   47  O   UNL     1      -5.163   9.007  68.137  1.00  0.00    -0.034 OA 
HETATM   48  H   UNL     1      -5.184   6.892  69.516  1.00  0.00     0.000 HD 
HETATM   49  C   UNL     1      -6.873  10.494  68.980  1.00  0.00    -0.068 C  
BRANCH  40  50
HETATM   50  C   UNL     1      -7.192   8.164  72.529  1.00  0.00    -0.101 C  
HETATM   51  O   UNL     1      -7.127   6.745  72.692  1.00  0.00    -0.077 OA 
HETATM   52  H   UNL     1      -6.936   6.493  73.588  1.00  0.00     0.000 HD 
ENDBRANCH  40  50
ENDBRANCH  37  38
ENDBRANCH  33  37
ENDBRANCH  23  24
ENDBRANCH  18  23
TORSDOF 6
ENDMDL
MODEL      190
REMARK 921   NORMALIZED FREE ENERGY PREDICTED BY IDOCK:   16.25 KCAL/MOL
REMARK 922        TOTAL FREE ENERGY PREDICTED BY IDOCK:   19.96 KCAL/MOL
REMARK 923 INTER-LIGAND FREE ENERGY PREDICTED BY IDOCK:   15.26 KCAL/MOL
REMARK 924 INTRA-LIGAND FREE ENERGY PREDICTED BY IDOCK:    4.70 KCAL/MOL
REMARK 927      BINDING AFFINITY PREDICTED BY RF-SCORE:    0.00 PKD
ROOT
HETATM    1  C   UNL     1     -10.962   8.095  70.716  1.00  0.00    -0.261 C  
HETATM    2  C   UNL     1      -9.648   8.246  69.852  1.00  0.00    -0.171 C  
HETATM    3  C   UNL     1      -9.636   7.106  68.836  1.00  0.00    -0.142 C  
HETATM    4  C   UNL     1      -8.314   7.063  68.096  1.00  0.00    -0.123 C  
HETATM    5  C   UNL     1      -7.159   6.665  68.984  1.00  0.00    -0.089 C  
HETATM    6  C   UNL     1      -7.130   7.200  70.454  1.00  0.00    -0.066 C  
HETATM    7  C   UNL     1      -8.467   8.007  70.891  1.00  0.00    -0.126 C  
HETATM    8  C   UNL     1      -5.853   8.043  70.731  1.00  0.00    -0.033 C  
HETATM    9  C   UNL     1      -6.729   5.885  71.228  1.00  0.00    -0.061 C  
HETATM   10  O   UNL     1      -5.682   5.277  70.973  1.00  0.00    -0.015 OA 
HETATM   11  O   UNL     1      -7.529   5.396  72.175  1.00  0.00    -0.090 OA 
HETATM   12  C   UNL     1      -8.328   9.252  71.792  1.00  0.00     0.460 C  
HETATM   13  C   UNL     1      -8.324  10.578  71.061  1.00  0.00     2.991 C  
HETATM   14  C   UNL     1      -9.410  10.897  70.024  1.00  0.00     0.990 C  
HETATM   15  C   UNL     1     -10.693  11.625  70.475  1.00  0.00     1.795 C  
HETATM   16  C   UNL     1     -11.056  12.456  69.239  1.00  0.00    -0.209 C  
HETATM   17  C   UNL     1     -12.183  13.176  69.167  1.00  0.00    -0.137 C  
HETATM   18  C   UNL     1      -9.894  12.455  68.216  1.00  0.00    -0.224 C  
HETATM   19  C   UNL     1     -10.027  11.330  67.164  1.00  0.00    -0.219 C  
HETATM   20  C   UNL     1      -9.821   9.680  69.142  1.00  0.00    -0.189 C  
HETATM   21  C   UNL     1      -8.812  12.056  69.195  1.00  0.00     0.527 C  
HETATM   22  C   UNL     1      -9.461   9.959  67.655  1.00  0.00    -0.167 C  
ENDROOT
BRANCH  18  23
HETATM   23  O   UNL     1      -9.773  13.775  67.690  1.00  0.00    -0.217 OA 
BRANCH  23  24
HETATM   24  C   UNL     1      -9.679  14.961  68.501  1.00  0.00    -0.215 C  
HETATM   25  O   UNL     1     -10.859  15.111  69.305  1.00  0.00    -0.233 OA 
HETATM   26  C   UNL     1     -10.726  16.157  70.284  1.00  0.00    -0.232 C  
HETATM   27  C   UNL     1     -10.644  17.491  69.558  1.00  0.00     0.210 C  
HETATM   28  H   UNL     1      -8.917  18.683  67.160  1.00  0.00     0.000 HD 
HETATM   29  C   UNL     1      -9.435  17.532  68.628  1.00  0.00    -0.278 C  
HETATM   30  H   UNL     1     -10.513  19.440  70.000  1.00  0.00     0.000 HD 
HETATM   31  O   UNL     1     -10.564  18.607  70.454  1.00  0.00     1.209 OA 
HETATM   32  O   UNL     1      -9.670  18.657  67.740  1.00  0.00    -0.298 OA 
HETATM   33  C   UNL     1      -9.241  16.272  67.774  1.00  0.00    -0.203 C  
BRANCH  26  34
HETATM   34  C   UNL     1     -11.951  16.127  71.208  1.00  0.00    -0.353 C  
HETATM   35  H   UNL     1     -13.479  14.936  71.522  1.00  0.00     0.000 HD 
HETATM   36  O   UNL     1     -12.721  14.955  70.950  1.00  0.00    -0.316 OA 
ENDBRANCH  26  34
BRANCH  33  37
HETATM   37  O   UNL     1      -7.879  16.082  67.316  1.00  0.00    -0.149 OA 
BRANCH  37  38
HETATM   38  C   UNL     1      -7.580  15.056  66.351  1.00  0.00     1.249 C  
HETATM   39  O   UNL     1      -8.783  14.607  65.759  1.00  0.00     0.462 OA 
HETATM   40  C   UNL     1      -8.719  13.487  64.882  1.00  0.00     3.277 C  
HETATM   41  C   UNL     1      -7.905  12.307  65.425  1.00  0.00     2.375 C  
HETATM   42  H   UNL     1      -4.776  13.731  67.447  1.00  0.00     0.000 HD 
HETATM   43  O   UNL     1      -5.335  14.420  67.108  1.00  0.00    -0.085 OA 
HETATM   44  O   UNL     1      -7.705  11.337  64.391  1.00  0.00     0.088 OA 
HETATM   45  C   UNL     1      -6.552  12.775  65.928  1.00  0.00     4.085 C  
HETATM   46  H   UNL     1      -5.009  11.978  66.885  1.00  0.00     0.000 HD 
HETATM   47  O   UNL     1      -5.856  11.685  66.570  1.00  0.00    -0.146 OA 
HETATM   48  H   UNL     1      -7.201  10.605  64.727  1.00  0.00     0.000 HD 
HETATM   49  C   UNL     1      -6.673  13.937  66.902  1.00  0.00     1.252 C  
BRANCH  40  50
HETATM   50  C   UNL     1     -10.174  13.030  64.657  1.00  0.00    -0.302 C  
HETATM   51  O   UNL     1     -11.108  14.105  64.787  1.00  0.00    -0.358 OA 
HETATM   52  H   UNL     1     -12.004  13.823  64.648  1.00  0.00     0.000 HD 
ENDBRANCH  40  50
ENDBRANCH  37  38
ENDBRANCH  33  37
ENDBRANCH  23  24
ENDBRANCH  18  23
TORSDOF 6
ENDMDL
MODEL      191
REMARK 921   NORMALIZED FREE ENERGY PREDICTED BY IDOCK:   17.55 KCAL/MOL
REMARK 922        TOTAL FREE ENERGY PREDICTED BY IDOCK:   21.72 KCAL/MOL
REMARK 923 INTER-LIGAND FREE ENERGY PREDICTED BY IDOCK:   18.48 KCAL/MOL
REMARK 924 INTRA-LIGAND FREE ENERGY PREDICTED BY IDOCK:    3.24 KCAL/MOL
REMARK 927      BINDING AFFINITY PREDICTED BY RF-SCORE:    0.00 PKD
ROOT
HETATM    1  C   UNL     1     -12.147   8.332  68.578  1.00  0.00     3.279 C  
HETATM    2  C   UNL     1     -10.625   8.651  68.855  1.00  0.00    -0.166 C  
HETATM    3  C   UNL     1      -9.836   7.367  68.605  1.00  0.00    -0.165 C  
HETATM    4  C   UNL     1      -8.393   7.534  69.035  1.00  0.00    -0.129 C  
HETATM    5  C   UNL     1      -8.241   7.676  70.531  1.00  0.00    -0.121 C  
HETATM    6  C   UNL     1      -9.313   8.503  71.315  1.00  0.00    -0.261 C  
HETATM    7  C   UNL     1     -10.571   8.981  70.410  1.00  0.00    -0.258 C  
HETATM    8  C   UNL     1      -8.672   9.707  72.062  1.00  0.00     2.042 C  
HETATM    9  C   UNL     1      -9.561   7.553  72.549  1.00  0.00    -0.165 C  
HETATM   10  O   UNL     1      -8.641   7.219  73.306  1.00  0.00    -0.124 OA 
HETATM   11  O   UNL     1     -10.783   7.077  72.792  1.00  0.00    -0.236 OA 
HETATM   12  C   UNL     1     -11.176  10.380  70.649  1.00  0.00    -0.358 C  
HETATM   13  C   UNL     1     -10.683  11.464  69.714  1.00  0.00     0.085 C  
HETATM   14  C   UNL     1     -10.676  11.236  68.196  1.00  0.00    -0.244 C  
HETATM   15  C   UNL     1     -11.905  11.658  67.364  1.00  0.00    -0.170 C  
HETATM   16  C   UNL     1     -11.276  12.066  66.027  1.00  0.00    -0.385 C  
HETATM   17  C   UNL     1     -12.017  12.411  64.965  1.00  0.00    -0.458 C  
HETATM   18  C   UNL     1      -9.737  12.167  66.152  1.00  0.00    -0.240 C  
HETATM   19  C   UNL     1      -9.021  10.849  65.775  1.00  0.00    -0.208 C  
HETATM   20  C   UNL     1     -10.272   9.791  67.774  1.00  0.00    -0.254 C  
HETATM   21  C   UNL     1      -9.701  12.307  67.656  1.00  0.00    -0.194 C  
HETATM   22  C   UNL     1      -8.949   9.830  66.958  1.00  0.00    -0.152 C  
ENDROOT
BRANCH  18  23
HETATM   23  O   UNL     1      -9.314  13.321  65.429  1.00  0.00     0.163 OA 
BRANCH  23  24
HETATM   24  C   UNL     1      -9.964  14.604  65.506  1.00  0.00    -0.352 C  
HETATM   25  O   UNL     1     -11.279  14.531  64.936  1.00  0.00    -0.354 OA 
HETATM   26  C   UNL     1     -12.048  15.724  65.178  1.00  0.00     0.612 C  
HETATM   27  C   UNL     1     -11.413  16.873  64.410  1.00  0.00     0.695 C  
HETATM   28  H   UNL     1      -8.480  18.088  64.133  1.00  0.00     0.000 HD 
HETATM   29  C   UNL     1      -9.979  17.110  64.872  1.00  0.00     1.679 C  
HETATM   30  H   UNL     1     -11.744  18.817  64.064  1.00  0.00     0.000 HD 
HETATM   31  O   UNL     1     -12.140  18.100  64.544  1.00  0.00     3.400 OA 
HETATM   32  O   UNL     1      -9.374  17.940  63.844  1.00  0.00     8.662 OA 
HETATM   33  C   UNL     1      -9.135  15.837  65.026  1.00  0.00     1.925 C  
BRANCH  26  34
HETATM   34  C   UNL     1     -13.486  15.491  64.696  1.00  0.00     2.205 C  
HETATM   35  H   UNL     1     -14.547  13.979  64.034  1.00  0.00     0.000 HD 
HETATM   36  O   UNL     1     -13.657  14.123  64.332  1.00  0.00     1.017 OA 
ENDBRANCH  26  34
BRANCH  33  37
HETATM   37  O   UNL     1      -8.012  15.987  65.930  1.00  0.00     0.203 OA 
BRANCH  37  38
HETATM   38  C   UNL     1      -7.991  17.068  66.880  1.00  0.00    -0.222 C  
HETATM   39  O   UNL     1      -7.708  18.278  66.204  1.00  0.00    -0.335 OA 
HETATM   40  C   UNL     1      -7.496  19.448  66.988  1.00  0.00    -0.222 C  
HETATM   41  C   UNL     1      -6.543  19.250  68.172  1.00  0.00    -0.237 C  
HETATM   42  H   UNL     1      -7.151  15.620  69.711  1.00  0.00     0.000 HD 
HETATM   43  O   UNL     1      -7.698  15.791  68.953  1.00  0.00    -0.157 OA 
HETATM   44  O   UNL     1      -6.578  20.400  69.023  1.00  0.00    -0.280 OA 
HETATM   45  C   UNL     1      -6.941  18.028  68.980  1.00  0.00    -0.248 C  
HETATM   46  H   UNL     1      -6.202  17.001  70.507  1.00  0.00     0.000 HD 
HETATM   47  O   UNL     1      -5.953  17.765  70.001  1.00  0.00    -0.249 OA 
HETATM   48  H   UNL     1      -5.987  20.278  69.757  1.00  0.00     0.000 HD 
HETATM   49  C   UNL     1      -7.103  16.792  68.110  1.00  0.00    -0.159 C  
BRANCH  40  50
HETATM   50  C   UNL     1      -6.899  20.503  66.036  1.00  0.00    -0.212 C  
HETATM   51  O   UNL     1      -5.725  20.032  65.370  1.00  0.00    -0.168 OA 
HETATM   52  H   UNL     1      -5.357  20.683  64.784  1.00  0.00     0.000 HD 
ENDBRANCH  40  50
ENDBRANCH  37  38
ENDBRANCH  33  37
ENDBRANCH  23  24
ENDBRANCH  18  23
TORSDOF 6
ENDMDL
MODEL      192
REMARK 921   NORMALIZED FREE ENERGY PREDICTED BY IDOCK:   17.97 KCAL/MOL
REMARK 922        TOTAL FREE ENERGY PREDICTED BY IDOCK:   22.29 KCAL/MOL
REMARK 923 INTER-LIGAND FREE ENERGY PREDICTED BY IDOCK:   11.23 KCAL/MOL
REMARK 924 INTRA-LIGAND FREE ENERGY PREDICTED BY IDOCK:   11.06 KCAL/MOL
REMARK 927      BINDING AFFINITY PREDICTED BY RF-SCORE:    0.00 PKD
ROOT
HETATM    1  C   UNL     1      -8.748  17.452  69.023  1.00  0.00    -0.054 C  
HETATM    2  C   UNL     1      -9.780  16.275  69.239  1.00  0.00    -0.238 C  
HETATM    3  C   UNL     1     -11.127  16.744  68.696  1.00  0.00    -0.247 C  
HETATM    4  C   UNL     1     -12.218  15.749  69.040  1.00  0.00    -0.050 C  
HETATM    5  C   UNL     1     -12.511  15.691  70.520  1.00  0.00    -0.440 C  
HETATM    6  C   UNL     1     -11.316  15.806  71.523  1.00  0.00    -0.424 C  
HETATM    7  C   UNL     1      -9.893  16.140  70.820  1.00  0.00     1.602 C  
HETATM    8  C   UNL     1     -11.209  14.548  72.431  1.00  0.00     1.094 C  
HETATM    9  C   UNL     1     -11.920  16.816  72.573  1.00  0.00     0.040 C  
HETATM   10  O   UNL     1     -12.967  16.569  73.182  1.00  0.00    -0.236 OA 
HETATM   11  O   UNL     1     -11.307  17.975  72.814  1.00  0.00     1.193 OA 
HETATM   12  C   UNL     1      -8.615  15.466  71.362  1.00  0.00     4.141 C  
HETATM   13  C   UNL     1      -8.172  14.228  70.610  1.00  0.00     2.667 C  
HETATM   14  C   UNL     1      -8.049  14.250  69.081  1.00  0.00     0.074 C  
HETATM   15  C   UNL     1      -6.697  14.617  68.437  1.00  0.00    -0.100 C  
HETATM   16  C   UNL     1      -6.699  13.775  67.156  1.00  0.00     0.462 C  
HETATM   17  C   UNL     1      -5.730  13.870  66.236  1.00  0.00     4.780 C  
HETATM   18  C   UNL     1      -7.850  12.740  67.181  1.00  0.00    -0.092 C  
HETATM   19  C   UNL     1      -9.141  13.268  66.512  1.00  0.00    -0.130 C  
HETATM   20  C   UNL     1      -9.168  15.068  68.367  1.00  0.00    -0.193 C  
HETATM   21  C   UNL     1      -8.057  12.758  68.678  1.00  0.00    -0.007 C  
HETATM   22  C   UNL     1     -10.024  14.125  67.475  1.00  0.00    -0.236 C  
ENDROOT
BRANCH  18  23
HETATM   23  O   UNL     1      -7.347  11.513  66.657  1.00  0.00    -0.133 OA 
BRANCH  23  24
HETATM   24  C   UNL     1      -7.263  10.289  67.410  1.00  0.00    -0.092 C  
HETATM   25  O   UNL     1      -6.689  10.537  68.702  1.00  0.00    -0.052 OA 
HETATM   26  C   UNL     1      -6.776   9.392  69.570  1.00  0.00    -0.048 C  
HETATM   27  C   UNL     1      -5.885   8.293  69.013  1.00  0.00    -0.039 C  
HETATM   28  H   UNL     1      -5.501   6.880  66.183  1.00  0.00     0.000 HD 
HETATM   29  C   UNL     1      -6.334   7.885  67.613  1.00  0.00    -0.052 C  
HETATM   30  H   UNL     1      -5.305   6.438  69.493  1.00  0.00     0.000 HD 
HETATM   31  O   UNL     1      -5.862   7.123  69.841  1.00  0.00    -0.023 OA 
HETATM   32  O   UNL     1      -5.221   7.134  67.055  1.00  0.00    -0.019 OA 
HETATM   33  C   UNL     1      -6.649   9.056  66.673  1.00  0.00    -0.068 C  
BRANCH  26  34
HETATM   34  C   UNL     1      -6.308   9.799  70.973  1.00  0.00    -0.038 C  
HETATM   35  H   UNL     1      -6.247  11.444  72.042  1.00  0.00     0.000 HD 
HETATM   36  O   UNL     1      -6.537  11.192  71.174  1.00  0.00     0.276 OA 
ENDBRANCH  26  34
BRANCH  33  37
HETATM   37  O   UNL     1      -7.542   8.708  65.587  1.00  0.00    -0.083 OA 
BRANCH  37  38
HETATM   38  C   UNL     1      -8.855   9.294  65.519  1.00  0.00    -0.187 C  
HETATM   39  O   UNL     1      -8.751  10.621  65.042  1.00  0.00    -0.184 OA 
HETATM   40  C   UNL     1      -9.926  11.426  65.041  1.00  0.00    -0.266 C  
HETATM   41  C   UNL     1     -10.722  11.379  66.350  1.00  0.00    -0.275 C  
HETATM   42  H   UNL     1     -10.566   7.672  67.813  1.00  0.00     0.000 HD 
HETATM   43  O   UNL     1     -10.065   7.769  67.011  1.00  0.00    -0.218 OA 
HETATM   44  O   UNL     1     -11.989  12.023  66.172  1.00  0.00    -0.581 OA 
HETATM   45  C   UNL     1     -10.958   9.944  66.782  1.00  0.00     0.080 C  
HETATM   46  H   UNL     1     -11.724   9.015  68.358  1.00  0.00     0.000 HD 
HETATM   47  O   UNL     1     -11.577   9.913  68.087  1.00  0.00    -0.051 OA 
HETATM   48  H   UNL     1     -12.483  11.994  66.983  1.00  0.00     0.000 HD 
HETATM   49  C   UNL     1      -9.669   9.137  66.820  1.00  0.00    -0.210 C  
BRANCH  40  50
HETATM   50  C   UNL     1      -9.458  12.874  64.792  1.00  0.00     0.461 C  
HETATM   51  O   UNL     1     -10.262  13.545  63.818  1.00  0.00    -0.581 OA 
HETATM   52  H   UNL     1      -9.973  14.437  63.664  1.00  0.00     0.000 HD 
ENDBRANCH  40  50
ENDBRANCH  37  38
ENDBRANCH  33  37
ENDBRANCH  23  24
ENDBRANCH  18  23
TORSDOF 6
ENDMDL
MODEL      193
REMARK 921   NORMALIZED FREE ENERGY PREDICTED BY IDOCK:   19.53 KCAL/MOL
REMARK 922        TOTAL FREE ENERGY PREDICTED BY IDOCK:   24.39 KCAL/MOL
REMARK 923 INTER-LIGAND FREE ENERGY PREDICTED BY IDOCK:   20.10 KCAL/MOL
REMARK 924 INTRA-LIGAND FREE ENERGY PREDICTED BY IDOCK:    4.30 KCAL/MOL
REMARK 927      BINDING AFFINITY PREDICTED BY RF-SCORE:    0.00 PKD
ROOT
HETATM    1  C   UNL     1      -9.952  17.297  65.197  1.00  0.00     0.926 C  
HETATM    2  C   UNL     1      -9.608  16.683  66.611  1.00  0.00    -0.280 C  
HETATM    3  C   UNL     1     -10.606  17.259  67.613  1.00  0.00    -0.350 C  
HETATM    4  C   UNL     1     -10.225  16.871  69.028  1.00  0.00    -0.308 C  
HETATM    5  C   UNL     1      -8.945  17.526  69.490  1.00  0.00     0.636 C  
HETATM    6  C   UNL     1      -7.777  17.688  68.463  1.00  0.00    -0.281 C  
HETATM    7  C   UNL     1      -8.165  17.259  66.947  1.00  0.00    -0.256 C  
HETATM    8  C   UNL     1      -6.491  16.954  68.939  1.00  0.00    -0.186 C  
HETATM    9  C   UNL     1      -7.337  19.172  68.762  1.00  0.00    -0.337 C  
HETATM   10  O   UNL     1      -6.967  19.525  69.888  1.00  0.00    -0.206 OA 
HETATM   11  O   UNL     1      -7.368  20.087  67.792  1.00  0.00    -0.277 OA 
HETATM   12  C   UNL     1      -7.116  16.527  66.086  1.00  0.00     0.372 C  
HETATM   13  C   UNL     1      -7.247  15.018  66.054  1.00  0.00     3.829 C  
HETATM   14  C   UNL     1      -8.603  14.364  65.757  1.00  0.00     1.429 C  
HETATM   15  C   UNL     1      -8.967  14.008  64.301  1.00  0.00     5.079 C  
HETATM   16  C   UNL     1      -9.829  12.752  64.471  1.00  0.00    -0.052 C  
HETATM   17  C   UNL     1     -10.444  12.162  63.437  1.00  0.00    -0.450 C  
HETATM   18  C   UNL     1      -9.738  12.215  65.920  1.00  0.00    -0.239 C  
HETATM   19  C   UNL     1     -10.854  12.773  66.833  1.00  0.00    -0.278 C  
HETATM   20  C   UNL     1      -9.817  15.101  66.399  1.00  0.00    -0.300 C  
HETATM   21  C   UNL     1      -8.447  12.916  66.275  1.00  0.00     0.489 C  
HETATM   22  C   UNL     1     -10.510  14.172  67.437  1.00  0.00    -0.271 C  
ENDROOT
BRANCH  18  23
HETATM   23  O   UNL     1      -9.653  10.793  65.855  1.00  0.00    -0.190 OA 
BRANCH  23  24
HETATM   24  C   UNL     1      -9.491   9.942  67.005  1.00  0.00    -0.160 C  
HETATM   25  O   UNL     1     -10.717   9.252  67.292  1.00  0.00    -0.268 OA 
HETATM   26  C   UNL     1     -10.551   8.234  68.295  1.00  0.00    -0.103 C  
HETATM   27  C   UNL     1     -10.229   8.908  69.620  1.00  0.00    -0.206 C  
HETATM   28  H   UNL     1      -8.133  11.090  70.620  1.00  0.00     0.000 HD 
HETATM   29  C   UNL     1      -8.938   9.715  69.520  1.00  0.00    -0.194 C  
HETATM   30  H   UNL     1      -9.896   8.397  71.527  1.00  0.00     0.000 HD 
HETATM   31  O   UNL     1     -10.098   7.976  70.700  1.00  0.00    -0.193 OA 
HETATM   32  O   UNL     1      -8.938  10.588  70.682  1.00  0.00     0.838 OA 
HETATM   33  C   UNL     1      -8.820  10.583  68.260  1.00  0.00    -0.139 C  
BRANCH  26  34
HETATM   34  C   UNL     1     -11.856   7.434  68.408  1.00  0.00     1.747 C  
HETATM   35  H   UNL     1     -12.875   6.190  67.283  1.00  0.00     0.000 HD 
HETATM   36  O   UNL     1     -12.067   6.684  67.213  1.00  0.00     1.453 OA 
ENDBRANCH  26  34
BRANCH  33  37
HETATM   37  O   UNL     1      -7.454  10.912  67.904  1.00  0.00    -0.087 OA 
BRANCH  37  38
HETATM   38  C   UNL     1      -6.539  11.379  68.913  1.00  0.00    -0.071 C  
HETATM   39  O   UNL     1      -6.966  10.918  70.180  1.00  0.00    -0.174 OA 
HETATM   40  C   UNL     1      -6.277  11.395  71.332  1.00  0.00     1.359 C  
HETATM   41  C   UNL     1      -6.056  12.912  71.351  1.00  0.00     0.996 C  
HETATM   42  H   UNL     1      -5.291  14.141  67.634  1.00  0.00     0.000 HD 
HETATM   43  O   UNL     1      -5.465  13.208  67.680  1.00  0.00    -0.187 OA 
HETATM   44  O   UNL     1      -5.163  13.260  72.414  1.00  0.00    -0.334 OA 
HETATM   45  C   UNL     1      -5.460  13.382  70.036  1.00  0.00    -0.105 C  
HETATM   46  H   UNL     1      -5.022  15.120  69.186  1.00  0.00     0.000 HD 
HETATM   47  O   UNL     1      -5.394  14.825  70.009  1.00  0.00    -0.095 OA 
HETATM   48  H   UNL     1      -5.026  14.200  72.427  1.00  0.00     0.000 HD 
HETATM   49  C   UNL     1      -6.258  12.894  68.837  1.00  0.00    -0.085 C  
BRANCH  40  50
HETATM   50  C   UNL     1      -7.141  11.001  72.546  1.00  0.00     7.044 C  
HETATM   51  O   UNL     1      -7.112   9.594  72.801  1.00  0.00     0.556 OA 
HETATM   52  H   UNL     1      -7.645   9.352  73.549  1.00  0.00     0.000 HD 
ENDBRANCH  40  50
ENDBRANCH  37  38
ENDBRANCH  33  37
ENDBRANCH  23  24
ENDBRANCH  18  23
TORSDOF 6
ENDMDL
MODEL      194
REMARK 921   NORMALIZED FREE ENERGY PREDICTED BY IDOCK:   19.83 KCAL/MOL
REMARK 922        TOTAL FREE ENERGY PREDICTED BY IDOCK:   24.81 KCAL/MOL
REMARK 923 INTER-LIGAND FREE ENERGY PREDICTED BY IDOCK:   21.11 KCAL/MOL
REMARK 924 INTRA-LIGAND FREE ENERGY PREDICTED BY IDOCK:    3.69 KCAL/MOL
REMARK 927      BINDING AFFINITY PREDICTED BY RF-SCORE:    0.00 PKD
ROOT
HETATM    1  C   UNL     1     -12.279   7.096  67.807  1.00  0.00     3.847 C  
HETATM    2  C   UNL     1     -11.431   7.456  69.090  1.00  0.00     0.385 C  
HETATM    3  C   UNL     1     -10.483   6.288  69.353  1.00  0.00    -0.298 C  
HETATM    4  C   UNL     1      -9.770   6.467  70.678  1.00  0.00    -0.194 C  
HETATM    5  C   UNL     1     -10.699   6.353  71.863  1.00  0.00    -0.262 C  
HETATM    6  C   UNL     1     -12.136   6.960  71.746  1.00  0.00    -0.385 C  
HETATM    7  C   UNL     1     -12.503   7.510  70.265  1.00  0.00     0.447 C  
HETATM    8  C   UNL     1     -12.386   8.051  72.825  1.00  0.00    -0.065 C  
HETATM    9  C   UNL     1     -12.991   5.793  72.375  1.00  0.00     0.731 C  
HETATM   10  O   UNL     1     -12.790   5.390  73.526  1.00  0.00     1.349 OA 
HETATM   11  O   UNL     1     -13.951   5.206  71.659  1.00  0.00     3.375 OA 
HETATM   12  C   UNL     1     -13.332   8.804  70.132  1.00  0.00     1.839 C  
HETATM   13  C   UNL     1     -12.527  10.064  69.897  1.00  0.00     0.174 C  
HETATM   14  C   UNL     1     -11.455  10.108  68.800  1.00  0.00    -0.110 C  
HETATM   15  C   UNL     1     -11.840  10.592  67.387  1.00  0.00     1.045 C  
HETATM   16  C   UNL     1     -10.552  11.268  66.904  1.00  0.00    -0.300 C  
HETATM   17  C   UNL     1     -10.420  11.748  65.661  1.00  0.00    -0.308 C  
HETATM   18  C   UNL     1      -9.552  11.441  68.072  1.00  0.00    -0.183 C  
HETATM   19  C   UNL     1      -8.563  10.258  68.192  1.00  0.00    -0.119 C  
HETATM   20  C   UNL     1     -10.637   8.788  68.660  1.00  0.00    -0.174 C  
HETATM   21  C   UNL     1     -10.570  11.316  69.183  1.00  0.00    -0.222 C  
HETATM   22  C   UNL     1      -9.143   9.054  69.001  1.00  0.00    -0.143 C  
ENDROOT
BRANCH  18  23
HETATM   23  O   UNL     1      -8.952  12.729  67.947  1.00  0.00    -0.170 OA 
BRANCH  23  24
HETATM   24  C   UNL     1      -9.642  13.896  67.461  1.00  0.00    -0.229 C  
HETATM   25  O   UNL     1     -11.042  13.620  67.308  1.00  0.00    -0.283 OA 
HETATM   26  C   UNL     1     -11.808  14.807  67.029  1.00  0.00    -0.271 C  
HETATM   27  C   UNL     1     -11.416  15.322  65.653  1.00  0.00    -0.123 C  
HETATM   28  H   UNL     1      -8.683  16.000  64.162  1.00  0.00     0.000 HD 
HETATM   29  C   UNL     1      -9.932  15.672  65.604  1.00  0.00    -0.354 C  
HETATM   30  H   UNL     1     -11.922  16.799  64.399  1.00  0.00     0.000 HD 
HETATM   31  O   UNL     1     -12.167  16.478  65.258  1.00  0.00     1.352 OA 
HETATM   32  O   UNL     1      -9.608  15.782  64.192  1.00  0.00     2.131 OA 
HETATM   33  C   UNL     1      -9.005  14.623  66.234  1.00  0.00    -0.077 C  
BRANCH  26  34
HETATM   34  C   UNL     1     -13.300  14.450  67.060  1.00  0.00     3.331 C  
HETATM   35  H   UNL     1     -14.557  13.446  65.936  1.00  0.00     0.000 HD 
HETATM   36  O   UNL     1     -13.633  13.666  65.917  1.00  0.00    -0.015 OA 
ENDBRANCH  26  34
BRANCH  33  37
HETATM   37  O   UNL     1      -7.726  15.155  66.659  1.00  0.00    -0.004 OA 
BRANCH  37  38
HETATM   38  C   UNL     1      -7.481  15.416  68.053  1.00  0.00    -0.129 C  
HETATM   39  O   UNL     1      -6.676  14.383  68.587  1.00  0.00    -0.081 OA 
HETATM   40  C   UNL     1      -6.442  14.376  69.992  1.00  0.00    -0.146 C  
HETATM   41  C   UNL     1      -7.702  14.578  70.842  1.00  0.00     2.169 C  
HETATM   42  H   UNL     1     -10.085  17.190  68.997  1.00  0.00     0.000 HD 
HETATM   43  O   UNL     1      -9.297  17.004  68.501  1.00  0.00    -0.250 OA 
HETATM   44  O   UNL     1      -7.337  14.789  72.210  1.00  0.00     1.810 OA 
HETATM   45  C   UNL     1      -8.490  15.780  70.353  1.00  0.00     1.491 C  
HETATM   46  H   UNL     1     -10.238  16.624  70.757  1.00  0.00     0.000 HD 
HETATM   47  O   UNL     1      -9.745  15.872  71.062  1.00  0.00     1.301 OA 
HETATM   48  H   UNL     1      -8.118  14.914  72.737  1.00  0.00     0.000 HD 
HETATM   49  C   UNL     1      -8.762  15.718  68.858  1.00  0.00    -0.217 C  
BRANCH  40  50
HETATM   50  C   UNL     1      -5.832  12.999  70.322  1.00  0.00    -0.157 C  
HETATM   51  O   UNL     1      -5.616  12.821  71.724  1.00  0.00    -0.396 OA 
HETATM   52  H   UNL     1      -5.240  11.972  71.926  1.00  0.00     0.000 HD 
ENDBRANCH  40  50
ENDBRANCH  37  38
ENDBRANCH  33  37
ENDBRANCH  23  24
ENDBRANCH  18  23
TORSDOF 6
ENDMDL
MODEL      195
REMARK 921   NORMALIZED FREE ENERGY PREDICTED BY IDOCK:   20.15 KCAL/MOL
REMARK 922        TOTAL FREE ENERGY PREDICTED BY IDOCK:   25.24 KCAL/MOL
REMARK 923 INTER-LIGAND FREE ENERGY PREDICTED BY IDOCK:   26.26 KCAL/MOL
REMARK 924 INTRA-LIGAND FREE ENERGY PREDICTED BY IDOCK:   -1.02 KCAL/MOL
REMARK 927      BINDING AFFINITY PREDICTED BY RF-SCORE:    0.00 PKD
ROOT
HETATM    1  C   UNL     1      -9.264  14.041  72.415  1.00  0.00    10.216 C  
HETATM    2  C   UNL     1     -10.345  14.214  71.276  1.00  0.00     3.254 C  
HETATM    3  C   UNL     1     -10.101  15.570  70.617  1.00  0.00     0.390 C  
HETATM    4  C   UNL     1     -11.214  15.900  69.644  1.00  0.00    -0.331 C  
HETATM    5  C   UNL     1     -12.536  16.151  70.330  1.00  0.00     0.418 C  
HETATM    6  C   UNL     1     -12.914  15.269  71.566  1.00  0.00    -0.488 C  
HETATM    7  C   UNL     1     -11.730  14.276  72.057  1.00  0.00     0.403 C  
HETATM    8  C   UNL     1     -14.236  14.485  71.325  1.00  0.00    -0.311 C  
HETATM    9  C   UNL     1     -13.460  16.374  72.550  1.00  0.00     0.621 C  
HETATM   10  O   UNL     1     -14.407  17.107  72.241  1.00  0.00     3.920 OA 
HETATM   11  O   UNL     1     -12.891  16.546  73.743  1.00  0.00    -0.564 OA 
HETATM   12  C   UNL     1     -12.096  12.860  72.547  1.00  0.00     2.128 C  
HETATM   13  C   UNL     1     -11.956  11.763  71.512  1.00  0.00     0.762 C  
HETATM   14  C   UNL     1     -10.666  11.631  70.691  1.00  0.00     2.182 C  
HETATM   15  C   UNL     1      -9.535  10.716  71.204  1.00  0.00     3.860 C  
HETATM   16  C   UNL     1      -8.912  10.196  69.904  1.00  0.00    -0.103 C  
HETATM   17  C   UNL     1      -7.812   9.431  69.894  1.00  0.00    -0.126 C  
HETATM   18  C   UNL     1      -9.805  10.544  68.689  1.00  0.00    -0.178 C  
HETATM   19  C   UNL     1      -9.412  11.883  68.023  1.00  0.00    -0.197 C  
HETATM   20  C   UNL     1     -10.039  12.995  70.271  1.00  0.00     3.165 C  
HETATM   21  C   UNL     1     -11.076  10.768  69.477  1.00  0.00    -0.334 C  
HETATM   22  C   UNL     1     -10.051  13.127  68.721  1.00  0.00    -0.072 C  
ENDROOT
BRANCH  18  23
HETATM   23  O   UNL     1      -9.825   9.412  67.822  1.00  0.00    -0.157 OA 
BRANCH  23  24
HETATM   24  C   UNL     1      -8.976   9.264  66.669  1.00  0.00    -0.140 C  
HETATM   25  O   UNL     1      -9.300  10.254  65.681  1.00  0.00    -0.169 OA 
HETATM   26  C   UNL     1      -8.346  10.287  64.604  1.00  0.00    -0.169 C  
HETATM   27  C   UNL     1      -8.454   8.986  63.823  1.00  0.00    -0.159 C  
HETATM   28  H   UNL     1      -8.448   5.883  64.544  1.00  0.00     0.000 HD 
HETATM   29  C   UNL     1      -8.147   7.788  64.715  1.00  0.00    -0.131 C  
HETATM   30  H   UNL     1      -7.644   8.132  62.203  1.00  0.00     0.000 HD 
HETATM   31  O   UNL     1      -7.576   8.944  62.690  1.00  0.00    -0.104 OA 
HETATM   32  O   UNL     1      -8.639   6.629  63.988  1.00  0.00     0.204 OA 
HETATM   33  C   UNL     1      -8.827   7.821  66.091  1.00  0.00    -0.162 C  
BRANCH  26  34
HETATM   34  C   UNL     1      -8.665  11.482  63.697  1.00  0.00     0.455 C  
HETATM   35  H   UNL     1     -10.164  12.722  63.436  1.00  0.00     0.000 HD 
HETATM   36  O   UNL     1      -9.966  11.982  63.997  1.00  0.00    -0.311 OA 
ENDBRANCH  26  34
BRANCH  33  37
HETATM   37  O   UNL     1      -8.157   7.017  67.093  1.00  0.00    -0.115 OA 
BRANCH  37  38
HETATM   38  C   UNL     1      -8.881   5.988  67.792  1.00  0.00    -0.106 C  
HETATM   39  O   UNL     1      -8.907   6.291  69.173  1.00  0.00    -0.128 OA 
HETATM   40  C   UNL     1      -9.450   5.319  70.062  1.00  0.00    -0.160 C  
HETATM   41  C   UNL     1      -8.935   3.894  69.826  1.00  0.00    -0.103 C  
HETATM   42  H   UNL     1      -8.493   3.323  65.903  1.00  0.00     0.000 HD 
HETATM   43  O   UNL     1      -8.786   4.202  66.113  1.00  0.00    -0.112 OA 
HETATM   44  O   UNL     1      -9.703   2.966  70.600  1.00  0.00    -0.148 OA 
HETATM   45  C   UNL     1      -9.046   3.520  68.359  1.00  0.00    -0.149 C  
HETATM   46  H   UNL     1      -8.493   2.004  67.207  1.00  0.00     0.000 HD 
HETATM   47  O   UNL     1      -8.424   2.237  68.125  1.00  0.00    -0.065 OA 
HETATM   48  H   UNL     1      -9.385   2.082  70.454  1.00  0.00     0.000 HD 
HETATM   49  C   UNL     1      -8.407   4.560  67.452  1.00  0.00    -0.104 C  
BRANCH  40  50
HETATM   50  C   UNL     1      -9.055   5.764  71.483  1.00  0.00    -0.140 C  
HETATM   51  O   UNL     1     -10.192   6.088  72.287  1.00  0.00    -0.183 OA 
HETATM   52  H   UNL     1      -9.948   6.363  73.163  1.00  0.00     0.000 HD 
ENDBRANCH  40  50
ENDBRANCH  37  38
ENDBRANCH  33  37
ENDBRANCH  23  24
ENDBRANCH  18  23
TORSDOF 6
ENDMDL
MODEL      196
REMARK 921   NORMALIZED FREE ENERGY PREDICTED BY IDOCK:   21.47 KCAL/MOL
REMARK 922        TOTAL FREE ENERGY PREDICTED BY IDOCK:   27.01 KCAL/MOL
REMARK 923 INTER-LIGAND FREE ENERGY PREDICTED BY IDOCK:   24.34 KCAL/MOL
REMARK 924 INTRA-LIGAND FREE ENERGY PREDICTED BY IDOCK:    2.67 KCAL/MOL
REMARK 927      BINDING AFFINITY PREDICTED BY RF-SCORE:    0.00 PKD
ROOT
HETATM    1  C   UNL     1     -12.147   8.332  68.578  1.00  0.00     3.279 C  
HETATM    2  C   UNL     1     -10.625   8.651  68.855  1.00  0.00    -0.166 C  
HETATM    3  C   UNL     1      -9.836   7.367  68.605  1.00  0.00    -0.165 C  
HETATM    4  C   UNL     1      -8.393   7.534  69.035  1.00  0.00    -0.129 C  
HETATM    5  C   UNL     1      -8.241   7.676  70.531  1.00  0.00    -0.121 C  
HETATM    6  C   UNL     1      -9.313   8.503  71.315  1.00  0.00    -0.261 C  
HETATM    7  C   UNL     1     -10.571   8.981  70.410  1.00  0.00    -0.258 C  
HETATM    8  C   UNL     1      -8.672   9.707  72.062  1.00  0.00     2.042 C  
HETATM    9  C   UNL     1      -9.561   7.553  72.549  1.00  0.00    -0.165 C  
HETATM   10  O   UNL     1      -8.641   7.219  73.306  1.00  0.00    -0.124 OA 
HETATM   11  O   UNL     1     -10.783   7.077  72.792  1.00  0.00    -0.236 OA 
HETATM   12  C   UNL     1     -11.176  10.380  70.649  1.00  0.00    -0.358 C  
HETATM   13  C   UNL     1     -10.683  11.464  69.714  1.00  0.00     0.085 C  
HETATM   14  C   UNL     1     -10.676  11.236  68.196  1.00  0.00    -0.244 C  
HETATM   15  C   UNL     1     -11.905  11.658  67.364  1.00  0.00    -0.170 C  
HETATM   16  C   UNL     1     -11.276  12.066  66.027  1.00  0.00    -0.385 C  
HETATM   17  C   UNL     1     -12.017  12.411  64.965  1.00  0.00    -0.458 C  
HETATM   18  C   UNL     1      -9.737  12.167  66.152  1.00  0.00    -0.240 C  
HETATM   19  C   UNL     1      -9.021  10.849  65.775  1.00  0.00    -0.208 C  
HETATM   20  C   UNL     1     -10.272   9.791  67.774  1.00  0.00    -0.254 C  
HETATM   21  C   UNL     1      -9.701  12.307  67.656  1.00  0.00    -0.194 C  
HETATM   22  C   UNL     1      -8.949   9.830  66.958  1.00  0.00    -0.152 C  
ENDROOT
BRANCH  18  23
HETATM   23  O   UNL     1      -9.314  13.321  65.429  1.00  0.00     0.163 OA 
BRANCH  23  24
HETATM   24  C   UNL     1      -9.964  14.604  65.506  1.00  0.00    -0.352 C  
HETATM   25  O   UNL     1     -11.279  14.531  64.936  1.00  0.00    -0.354 OA 
HETATM   26  C   UNL     1     -12.048  15.724  65.178  1.00  0.00     0.612 C  
HETATM   27  C   UNL     1     -11.413  16.873  64.410  1.00  0.00     0.695 C  
HETATM   28  H   UNL     1      -8.480  18.088  64.133  1.00  0.00     0.000 HD 
HETATM   29  C   UNL     1      -9.979  17.110  64.872  1.00  0.00     1.679 C  
HETATM   30  H   UNL     1     -11.744  18.817  64.064  1.00  0.00     0.000 HD 
HETATM   31  O   UNL     1     -12.140  18.100  64.544  1.00  0.00     3.400 OA 
HETATM   32  O   UNL     1      -9.374  17.940  63.844  1.00  0.00     8.662 OA 
HETATM   33  C   UNL     1      -9.135  15.837  65.026  1.00  0.00     1.925 C  
BRANCH  26  34
HETATM   34  C   UNL     1     -13.486  15.491  64.696  1.00  0.00     2.205 C  
HETATM   35  H   UNL     1     -14.547  13.979  64.034  1.00  0.00     0.000 HD 
HETATM   36  O   UNL     1     -13.657  14.123  64.332  1.00  0.00     1.017 OA 
ENDBRANCH  26  34
BRANCH  33  37
HETATM   37  O   UNL     1      -8.012  15.987  65.930  1.00  0.00     0.203 OA 
BRANCH  37  38
HETATM   38  C   UNL     1      -7.980  15.249  67.166  1.00  0.00    -0.218 C  
HETATM   39  O   UNL     1      -8.892  15.828  68.079  1.00  0.00    -0.174 OA 
HETATM   40  C   UNL     1      -8.904  15.336  69.416  1.00  0.00    -0.220 C  
HETATM   41  C   UNL     1      -7.515  15.196  70.048  1.00  0.00     0.076 C  
HETATM   42  H   UNL     1      -4.949  13.974  67.249  1.00  0.00     0.000 HD 
HETATM   43  O   UNL     1      -5.826  14.104  66.907  1.00  0.00     0.415 OA 
HETATM   44  O   UNL     1      -7.613  14.483  71.286  1.00  0.00     1.240 OA 
HETATM   45  C   UNL     1      -6.577  14.444  69.121  1.00  0.00    -0.112 C  
HETATM   46  H   UNL     1      -4.650  13.978  69.080  1.00  0.00     0.000 HD 
HETATM   47  O   UNL     1      -5.237  14.448  69.660  1.00  0.00    -0.091 OA 
HETATM   48  H   UNL     1      -6.752  14.397  71.678  1.00  0.00     0.000 HD 
HETATM   49  C   UNL     1      -6.557  15.037  67.721  1.00  0.00    -0.169 C  
BRANCH  40  50
HETATM   50  C   UNL     1      -9.730  16.343  70.240  1.00  0.00     1.033 C  
HETATM   51  O   UNL     1      -9.236  17.679  70.119  1.00  0.00     1.583 OA 
HETATM   52  H   UNL     1      -9.745  18.299  70.628  1.00  0.00     0.000 HD 
ENDBRANCH  40  50
ENDBRANCH  37  38
ENDBRANCH  33  37
ENDBRANCH  23  24
ENDBRANCH  18  23
TORSDOF 6
ENDMDL
MODEL      197
REMARK 921   NORMALIZED FREE ENERGY PREDICTED BY IDOCK:   25.57 KCAL/MOL
REMARK 922        TOTAL FREE ENERGY PREDICTED BY IDOCK:   32.55 KCAL/MOL
REMARK 923 INTER-LIGAND FREE ENERGY PREDICTED BY IDOCK:    4.69 KCAL/MOL
REMARK 924 INTRA-LIGAND FREE ENERGY PREDICTED BY IDOCK:   27.86 KCAL/MOL
REMARK 927      BINDING AFFINITY PREDICTED BY RF-SCORE:    0.00 PKD
ROOT
HETATM    1  C   UNL     1      -7.935   5.732  66.153  1.00  0.00    -0.102 C  
HETATM    2  C   UNL     1      -8.039   6.587  67.477  1.00  0.00    -0.121 C  
HETATM    3  C   UNL     1      -6.940   6.103  68.421  1.00  0.00    -0.080 C  
HETATM    4  C   UNL     1      -7.093   6.736  69.789  1.00  0.00    -0.068 C  
HETATM    5  C   UNL     1      -8.326   6.261  70.520  1.00  0.00    -0.129 C  
HETATM    6  C   UNL     1      -9.637   6.027  69.698  1.00  0.00    -0.177 C  
HETATM    7  C   UNL     1      -9.448   6.181  68.094  1.00  0.00    -0.113 C  
HETATM    8  C   UNL     1     -10.801   6.921  70.212  1.00  0.00    -0.294 C  
HETATM    9  C   UNL     1     -10.106   4.645  70.296  1.00  0.00    -0.206 C  
HETATM   10  O   UNL     1     -10.328   4.503  71.505  1.00  0.00    -0.163 OA 
HETATM   11  O   UNL     1     -10.262   3.589  69.497  1.00  0.00     0.454 OA 
HETATM   12  C   UNL     1     -10.570   6.844  67.270  1.00  0.00    -0.393 C  
HETATM   13  C   UNL     1     -10.366   8.314  66.970  1.00  0.00    -0.393 C  
HETATM   14  C   UNL     1      -9.034   8.811  66.390  1.00  0.00    -0.194 C  
HETATM   15  C   UNL     1      -8.865   8.903  64.860  1.00  0.00    -0.161 C  
HETATM   16  C   UNL     1      -7.924  10.103  64.702  1.00  0.00    -0.145 C  
HETATM   17  C   UNL     1      -7.433  10.474  63.512  1.00  0.00     0.048 C  
HETATM   18  C   UNL     1      -7.777  10.867  66.040  1.00  0.00    -0.107 C  
HETATM   19  C   UNL     1      -6.573  10.378  66.877  1.00  0.00    -0.078 C  
HETATM   20  C   UNL     1      -7.781   8.095  66.979  1.00  0.00    -0.096 C  
HETATM   21  C   UNL     1      -9.039  10.330  66.676  1.00  0.00    -0.163 C  
HETATM   22  C   UNL     1      -6.899   9.121  67.746  1.00  0.00    -0.076 C  
ENDROOT
BRANCH  18  23
HETATM   23  O   UNL     1      -7.796  12.263  65.751  1.00  0.00     0.992 OA 
BRANCH  23  24
HETATM   24  C   UNL     1      -8.654  13.212  66.411  1.00  0.00     0.312 C  
HETATM   25  O   UNL     1      -9.608  13.751  65.484  1.00  0.00    -0.120 OA 
HETATM   26  C   UNL     1     -10.621  14.540  66.135  1.00  0.00    -0.306 C  
HETATM   27  C   UNL     1      -9.967  15.789  66.706  1.00  0.00    -0.252 C  
HETATM   28  H   UNL     1      -7.441  16.404  68.548  1.00  0.00     0.000 HD 
HETATM   29  C   UNL     1      -8.895  15.424  67.728  1.00  0.00    -0.168 C  
HETATM   30  H   UNL     1     -10.499  17.451  67.688  1.00  0.00     0.000 HD 
HETATM   31  O   UNL     1     -10.907  16.672  67.332  1.00  0.00    -0.287 OA 
HETATM   32  O   UNL     1      -8.108  16.632  67.911  1.00  0.00    -0.167 OA 
HETATM   33  C   UNL     1      -7.953  14.293  67.294  1.00  0.00    -0.168 C  
BRANCH  26  34
HETATM   34  C   UNL     1     -11.689  14.922  65.103  1.00  0.00    -0.295 C  
HETATM   35  H   UNL     1     -11.797  16.058  63.506  1.00  0.00     0.000 HD 
HETATM   36  O   UNL     1     -11.136  15.822  64.145  1.00  0.00    -0.269 OA 
ENDBRANCH  26  34
BRANCH  33  37
HETATM   37  O   UNL     1      -7.316  13.607  68.399  1.00  0.00    -0.100 OA 
BRANCH  37  38
HETATM   38  C   UNL     1      -8.115  12.899  69.365  1.00  0.00     0.940 C  
HETATM   39  O   UNL     1      -8.282  11.560  68.942  1.00  0.00    -0.116 OA 
HETATM   40  C   UNL     1      -9.168  10.729  69.686  1.00  0.00     0.273 C  
HETATM   41  C   UNL     1     -10.523  11.374  69.998  1.00  0.00     0.768 C  
HETATM   42  H   UNL     1      -9.955  15.251  70.745  1.00  0.00     0.000 HD 
HETATM   43  O   UNL     1      -9.150  14.802  70.517  1.00  0.00     0.966 OA 
HETATM   44  O   UNL     1     -11.242  10.565  70.936  1.00  0.00    -0.355 OA 
HETATM   45  C   UNL     1     -10.334  12.759  70.589  1.00  0.00     4.388 C  
HETATM   46  H   UNL     1     -11.494  14.280  71.110  1.00  0.00     0.000 HD 
HETATM   47  O   UNL     1     -11.612  13.414  70.741  1.00  0.00     0.026 OA 
HETATM   48  H   UNL     1     -12.082  10.964  71.130  1.00  0.00     0.000 HD 
HETATM   49  C   UNL     1      -9.424  13.628  69.735  1.00  0.00     1.659 C  
BRANCH  40  50
HETATM   50  C   UNL     1      -9.399   9.468  68.829  1.00  0.00    -0.146 C  
HETATM   51  O   UNL     1      -8.708   9.526  67.579  1.00  0.00    -0.125 OA 
HETATM   52  H   UNL     1      -8.851   8.749  67.052  1.00  0.00     0.000 HD 
ENDBRANCH  40  50
ENDBRANCH  37  38
ENDBRANCH  33  37
ENDBRANCH  23  24
ENDBRANCH  18  23
TORSDOF 6
ENDMDL
MODEL      198
REMARK 921   NORMALIZED FREE ENERGY PREDICTED BY IDOCK:   26.38 KCAL/MOL
REMARK 922        TOTAL FREE ENERGY PREDICTED BY IDOCK:   33.65 KCAL/MOL
REMARK 923 INTER-LIGAND FREE ENERGY PREDICTED BY IDOCK:   27.28 KCAL/MOL
REMARK 924 INTRA-LIGAND FREE ENERGY PREDICTED BY IDOCK:    6.36 KCAL/MOL
REMARK 927      BINDING AFFINITY PREDICTED BY RF-SCORE:    0.00 PKD
ROOT
HETATM    1  C   UNL     1      -9.264  14.041  72.415  1.00  0.00    10.216 C  
HETATM    2  C   UNL     1     -10.345  14.220  71.277  1.00  0.00     2.805 C  
HETATM    3  C   UNL     1     -10.088  15.571  70.612  1.00  0.00     0.390 C  
HETATM    4  C   UNL     1     -11.200  15.908  69.639  1.00  0.00    -0.331 C  
HETATM    5  C   UNL     1     -12.519  16.175  70.327  1.00  0.00     0.302 C  
HETATM    6  C   UNL     1     -12.904  15.301  71.567  1.00  0.00    -0.469 C  
HETATM    7  C   UNL     1     -11.728  14.299  72.060  1.00  0.00     0.403 C  
HETATM    8  C   UNL     1     -14.233  14.530  71.331  1.00  0.00    -0.416 C  
HETATM    9  C   UNL     1     -13.437  16.415  72.547  1.00  0.00     0.621 C  
HETATM   10  O   UNL     1     -14.377  17.156  72.237  1.00  0.00     3.920 OA 
HETATM   11  O   UNL     1     -12.864  16.587  73.739  1.00  0.00    -0.564 OA 
HETATM   12  C   UNL     1     -12.107  12.888  72.556  1.00  0.00     2.128 C  
HETATM   13  C   UNL     1     -11.979  11.786  71.525  1.00  0.00     0.762 C  
HETATM   14  C   UNL     1     -10.692  11.638  70.703  1.00  0.00     2.182 C  
HETATM   15  C   UNL     1      -9.569  10.714  71.218  1.00  0.00     4.235 C  
HETATM   16  C   UNL     1      -8.953  10.184  69.918  1.00  0.00    -0.103 C  
HETATM   17  C   UNL     1      -7.861   9.408  69.910  1.00  0.00    -0.126 C  
HETATM   18  C   UNL     1      -9.845  10.535  68.703  1.00  0.00    -0.178 C  
HETATM   19  C   UNL     1      -9.439  11.868  68.032  1.00  0.00    -0.197 C  
HETATM   20  C   UNL     1     -10.052  12.994  70.276  1.00  0.00     3.165 C  
HETATM   21  C   UNL     1     -11.112  10.774  69.492  1.00  0.00    -0.334 C  
HETATM   22  C   UNL     1     -10.065  13.120  68.726  1.00  0.00    -0.072 C  
ENDROOT
BRANCH  18  23
HETATM   23  O   UNL     1      -9.877   9.400  67.841  1.00  0.00    -0.154 OA 
BRANCH  23  24
HETATM   24  C   UNL     1      -9.031   9.240  66.687  1.00  0.00    -0.140 C  
HETATM   25  O   UNL     1      -7.922   8.382  66.997  1.00  0.00    -0.098 OA 
HETATM   26  C   UNL     1      -7.166   8.020  65.827  1.00  0.00    -0.071 C  
HETATM   27  C   UNL     1      -6.484   9.267  65.286  1.00  0.00    -0.069 C  
HETATM   28  H   UNL     1      -7.402  12.221  64.522  1.00  0.00     0.000 HD 
HETATM   29  C   UNL     1      -7.512  10.325  64.898  1.00  0.00    -0.114 C  
HETATM   30  H   UNL     1      -5.233   9.777  63.808  1.00  0.00     0.000 HD 
HETATM   31  O   UNL     1      -5.659   8.998  64.146  1.00  0.00    -0.066 OA 
HETATM   32  O   UNL     1      -6.761  11.562  64.764  1.00  0.00     1.250 OA 
HETATM   33  C   UNL     1      -8.627  10.545  65.930  1.00  0.00    -0.164 C  
BRANCH  26  34
HETATM   34  C   UNL     1      -6.121   6.968  66.221  1.00  0.00    -0.035 C  
HETATM   35  H   UNL     1      -6.066   5.345  67.323  1.00  0.00     0.000 HD 
HETATM   36  O   UNL     1      -6.713   5.996  67.079  1.00  0.00    -0.054 OA 
ENDBRANCH  26  34
BRANCH  33  37
HETATM   37  O   UNL     1      -9.836  11.116  65.370  1.00  0.00    -0.217 OA 
BRANCH  37  38
HETATM   38  C   UNL     1     -10.303  12.399  65.825  1.00  0.00    -0.263 C  
HETATM   39  O   UNL     1     -11.510  12.719  65.159  1.00  0.00    -0.302 OA 
HETATM   40  C   UNL     1     -12.060  14.018  65.359  1.00  0.00    -0.401 C  
HETATM   41  C   UNL     1     -11.045  15.159  65.226  1.00  0.00    -0.383 C  
HETATM   42  H   UNL     1      -7.560  13.959  66.751  1.00  0.00     0.000 HD 
HETATM   43  O   UNL     1      -8.224  13.281  66.782  1.00  0.00    -0.028 OA 
HETATM   44  O   UNL     1     -11.632  16.387  65.670  1.00  0.00     0.449 OA 
HETATM   45  C   UNL     1      -9.809  14.877  66.060  1.00  0.00    -0.318 C  
HETATM   46  H   UNL     1      -8.028  15.705  66.333  1.00  0.00     0.000 HD 
HETATM   47  O   UNL     1      -8.801  15.882  65.812  1.00  0.00    -0.252 OA 
HETATM   48  H   UNL     1     -11.004  17.095  65.587  1.00  0.00     0.000 HD 
HETATM   49  C   UNL     1      -9.225  13.502  65.775  1.00  0.00     0.318 C  
BRANCH  40  50
HETATM   50  C   UNL     1     -13.154  14.194  64.288  1.00  0.00     0.892 C  
HETATM   51  O   UNL     1     -12.747  13.697  63.010  1.00  0.00    -0.835 OA 
HETATM   52  H   UNL     1     -13.422  13.806  62.350  1.00  0.00     0.000 HD 
ENDBRANCH  40  50
ENDBRANCH  37  38
ENDBRANCH  33  37
ENDBRANCH  23  24
ENDBRANCH  18  23
TORSDOF 6
ENDMDL
MODEL      199
REMARK 921   NORMALIZED FREE ENERGY PREDICTED BY IDOCK:   27.74 KCAL/MOL
REMARK 922        TOTAL FREE ENERGY PREDICTED BY IDOCK:   35.49 KCAL/MOL
REMARK 923 INTER-LIGAND FREE ENERGY PREDICTED BY IDOCK:   21.10 KCAL/MOL
REMARK 924 INTRA-LIGAND FREE ENERGY PREDICTED BY IDOCK:   14.39 KCAL/MOL
REMARK 927      BINDING AFFINITY PREDICTED BY RF-SCORE:    0.00 PKD
ROOT
HETATM    1  C   UNL     1      -6.782   9.898  66.715  1.00  0.00    -0.079 C  
HETATM    2  C   UNL     1      -8.223   9.267  66.572  1.00  0.00    -0.107 C  
HETATM    3  C   UNL     1      -8.330   8.136  67.592  1.00  0.00    -0.127 C  
HETATM    4  C   UNL     1      -9.610   7.352  67.389  1.00  0.00    -0.184 C  
HETATM    5  C   UNL     1      -9.620   6.572  66.095  1.00  0.00    -0.028 C  
HETATM    6  C   UNL     1      -8.981   7.225  64.825  1.00  0.00     0.662 C  
HETATM    7  C   UNL     1      -8.230   8.633  65.113  1.00  0.00    -0.152 C  
HETATM    8  C   UNL     1     -10.017   7.369  63.674  1.00  0.00     6.014 C  
HETATM    9  C   UNL     1      -8.156   6.005  64.261  1.00  0.00    -0.109 C  
HETATM   10  O   UNL     1      -8.701   4.935  63.964  1.00  0.00    -0.143 OA 
HETATM   11  O   UNL     1      -6.836   6.106  64.105  1.00  0.00    -0.040 OA 
HETATM   12  C   UNL     1      -8.339   9.765  64.071  1.00  0.00    -0.169 C  
HETATM   13  C   UNL     1      -9.403  10.804  64.358  1.00  0.00    -0.279 C  
HETATM   14  C   UNL     1      -9.493  11.462  65.741  1.00  0.00    -0.256 C  
HETATM   15  C   UNL     1      -8.730  12.777  66.003  1.00  0.00     0.489 C  
HETATM   16  C   UNL     1      -9.642  13.496  67.004  1.00  0.00    -0.248 C  
HETATM   17  C   UNL     1      -9.297  14.656  67.579  1.00  0.00    -0.195 C  
HETATM   18  C   UNL     1     -11.013  12.786  67.107  1.00  0.00    -0.263 C  
HETATM   19  C   UNL     1     -11.057  11.733  68.238  1.00  0.00    -0.291 C  
HETATM   20  C   UNL     1      -9.210  10.489  66.926  1.00  0.00    -0.173 C  
HETATM   21  C   UNL     1     -10.920  12.054  65.788  1.00  0.00    -0.351 C  
HETATM   22  C   UNL     1     -10.484  10.345  67.807  1.00  0.00    -0.268 C  
ENDROOT
BRANCH  18  23
HETATM   23  O   UNL     1     -12.023  13.792  67.167  1.00  0.00    -0.385 OA 
BRANCH  23  24
HETATM   24  C   UNL     1     -11.808  15.172  66.818  1.00  0.00     0.026 C  
HETATM   25  O   UNL     1     -12.111  15.389  65.432  1.00  0.00     0.148 OA 
HETATM   26  C   UNL     1     -12.118  16.786  65.085  1.00  0.00     2.334 C  
HETATM   27  C   UNL     1     -10.699  17.321  65.205  1.00  0.00     0.064 C  
HETATM   28  H   UNL     1      -8.417  17.260  67.427  1.00  0.00     0.000 HD 
HETATM   29  C   UNL     1     -10.179  17.172  66.631  1.00  0.00    -0.319 C  
HETATM   30  H   UNL     1      -9.705  19.032  64.900  1.00  0.00     0.000 HD 
HETATM   31  O   UNL     1     -10.591  18.699  64.825  1.00  0.00     0.253 OA 
HETATM   32  O   UNL     1      -8.741  17.353  66.539  1.00  0.00    -0.241 OA 
HETATM   33  C   UNL     1     -10.455  15.806  67.275  1.00  0.00    -0.308 C  
BRANCH  26  34
HETATM   34  C   UNL     1     -12.624  16.934  63.644  1.00  0.00     5.919 C  
HETATM   35  H   UNL     1     -14.355  17.175  62.751  1.00  0.00     0.000 HD 
HETATM   36  O   UNL     1     -14.042  17.084  63.643  1.00  0.00     5.694 OA 
ENDBRANCH  26  34
BRANCH  33  37
HETATM   37  O   UNL     1     -10.453  15.832  68.724  1.00  0.00    -0.215 OA 
BRANCH  37  38
HETATM   38  C   UNL     1      -9.542  16.697  69.427  1.00  0.00    -0.057 C  
HETATM   39  O   UNL     1     -10.247  17.823  69.911  1.00  0.00     0.221 OA 
HETATM   40  C   UNL     1      -9.496  18.875  70.510  1.00  0.00     2.280 C  
HETATM   41  C   UNL     1      -8.265  19.308  69.705  1.00  0.00     0.614 C  
HETATM   42  H   UNL     1      -6.627  16.077  68.034  1.00  0.00     0.000 HD 
HETATM   43  O   UNL     1      -7.414  15.874  68.526  1.00  0.00    -0.129 OA 
HETATM   44  O   UNL     1      -7.457  20.192  70.490  1.00  0.00     0.360 OA 
HETATM   45  C   UNL     1      -7.432  18.102  69.311  1.00  0.00     0.025 C  
HETATM   46  H   UNL     1      -5.839  17.750  68.183  1.00  0.00     0.000 HD 
HETATM   47  O   UNL     1      -6.360  18.504  68.431  1.00  0.00    -0.203 OA 
HETATM   48  H   UNL     1      -6.694  20.460  69.991  1.00  0.00     0.000 HD 
HETATM   49  C   UNL     1      -8.265  17.028  68.628  1.00  0.00    -0.261 C  
BRANCH  40  50
HETATM   50  C   UNL     1     -10.456  20.074  70.637  1.00  0.00     1.748 C  
HETATM   51  O   UNL     1     -10.846  20.595  69.364  1.00  0.00    -0.171 OA 
HETATM   52  H   UNL     1     -11.439  21.334  69.443  1.00  0.00     0.000 HD 
ENDBRANCH  40  50
ENDBRANCH  37  38
ENDBRANCH  33  37
ENDBRANCH  23  24
ENDBRANCH  18  23
TORSDOF 6
ENDMDL
MODEL      200
REMARK 921   NORMALIZED FREE ENERGY PREDICTED BY IDOCK:   30.54 KCAL/MOL
REMARK 922        TOTAL FREE ENERGY PREDICTED BY IDOCK:   39.27 KCAL/MOL
REMARK 923 INTER-LIGAND FREE ENERGY PREDICTED BY IDOCK:   38.80 KCAL/MOL
REMARK 924 INTRA-LIGAND FREE ENERGY PREDICTED BY IDOCK:    0.46 KCAL/MOL
REMARK 927      BINDING AFFINITY PREDICTED BY RF-SCORE:    0.00 PKD
ROOT
HETATM    1  C   UNL     1     -13.006  14.615  63.202  1.00  0.00     2.465 C  
HETATM    2  C   UNL     1     -12.526  14.570  64.706  1.00  0.00    -0.333 C  
HETATM    3  C   UNL     1     -13.774  14.485  65.582  1.00  0.00     2.026 C  
HETATM    4  C   UNL     1     -13.412  14.634  67.046  1.00  0.00     4.240 C  
HETATM    5  C   UNL     1     -12.916  16.019  67.388  1.00  0.00     3.651 C  
HETATM    6  C   UNL     1     -12.006  16.763  66.355  1.00  0.00     2.354 C  
HETATM    7  C   UNL     1     -11.841  15.986  64.941  1.00  0.00     0.261 C  
HETATM    8  C   UNL     1     -10.620  17.116  66.965  1.00  0.00    -0.227 C  
HETATM    9  C   UNL     1     -12.659  18.198  66.381  1.00  0.00     7.481 C  
HETATM   10  O   UNL     1     -12.743  18.853  67.427  1.00  0.00     3.935 OA 
HETATM   11  O   UNL     1     -13.149  18.730  65.261  1.00  0.00    11.475 OA 
HETATM   12  C   UNL     1     -10.470  16.007  64.233  1.00  0.00     1.356 C  
HETATM   13  C   UNL     1      -9.601  14.790  64.475  1.00  0.00     1.790 C  
HETATM   14  C   UNL     1     -10.175  13.378  64.295  1.00  0.00    -0.137 C  
HETATM   15  C   UNL     1     -10.045  12.680  62.926  1.00  0.00     1.568 C  
HETATM   16  C   UNL     1      -9.915  11.203  63.316  1.00  0.00    -0.419 C  
HETATM   17  C   UNL     1      -9.878  10.223  62.404  1.00  0.00     0.108 C  
HETATM   18  C   UNL     1      -9.681  11.057  64.839  1.00  0.00    -0.254 C  
HETATM   19  C   UNL     1     -10.997  10.869  65.629  1.00  0.00    -0.032 C  
HETATM   20  C   UNL     1     -11.646  13.224  64.785  1.00  0.00    -0.364 C  
HETATM   21  C   UNL     1      -9.193  12.469  65.069  1.00  0.00     0.554 C  
HETATM   22  C   UNL     1     -11.706  12.219  65.970  1.00  0.00    -0.451 C  
ENDROOT
BRANCH  18  23
HETATM   23  O   UNL     1      -8.699  10.041  65.035  1.00  0.00    -0.151 OA 
BRANCH  23  24
HETATM   24  C   UNL     1      -8.677   9.148  66.164  1.00  0.00    -0.148 C  
HETATM   25  O   UNL     1      -8.617   9.894  67.389  1.00  0.00    -0.124 OA 
HETATM   26  C   UNL     1      -8.806   9.061  68.548  1.00  0.00    -0.134 C  
HETATM   27  C   UNL     1      -7.615   8.124  68.669  1.00  0.00    -0.103 C  
HETATM   28  H   UNL     1      -6.082   6.118  66.725  1.00  0.00     0.000 HD 
HETATM   29  C   UNL     1      -7.496   7.232  67.437  1.00  0.00    -0.096 C  
HETATM   30  H   UNL     1      -6.940   6.700  69.905  1.00  0.00     0.000 HD 
HETATM   31  O   UNL     1      -7.684   7.286  69.830  1.00  0.00    -0.102 OA 
HETATM   32  O   UNL     1      -6.156   6.673  67.493  1.00  0.00    -0.028 OA 
HETATM   33  C   UNL     1      -7.662   7.963  66.098  1.00  0.00    -0.091 C  
BRANCH  26  34
HETATM   34  C   UNL     1      -8.908   9.958  69.789  1.00  0.00    -0.211 C  
HETATM   35  H   UNL     1     -10.193  11.247  70.524  1.00  0.00     0.000 HD 
HETATM   36  O   UNL     1     -10.130  10.692  69.756  1.00  0.00    -0.162 OA 
ENDBRANCH  26  34
BRANCH  33  37
HETATM   37  O   UNL     1      -8.071   7.099  65.008  1.00  0.00    -0.125 OA 
BRANCH  37  38
HETATM   38  C   UNL     1      -8.163   5.677  65.212  1.00  0.00    -0.134 C  
HETATM   39  O   UNL     1      -8.533   5.421  66.553  1.00  0.00    -0.112 OA 
HETATM   40  C   UNL     1      -8.535   4.068  66.999  1.00  0.00    -0.100 C  
HETATM   41  C   UNL     1      -7.277   3.278  66.621  1.00  0.00    -0.066 C  
HETATM   42  H   UNL     1      -6.091   4.421  62.987  1.00  0.00     0.000 HD 
HETATM   43  O   UNL     1      -6.856   4.899  63.288  1.00  0.00    -0.036 OA 
HETATM   44  O   UNL     1      -7.472   1.888  66.902  1.00  0.00    -0.058 OA 
HETATM   45  C   UNL     1      -6.966   3.441  65.144  1.00  0.00    -0.053 C  
HETATM   46  H   UNL     1      -5.507   2.919  63.906  1.00  0.00     0.000 HD 
HETATM   47  O   UNL     1      -5.702   2.817  64.830  1.00  0.00    -0.013 OA 
HETATM   48  H   UNL     1      -6.692   1.398  66.668  1.00  0.00     0.000 HD 
HETATM   49  C   UNL     1      -6.922   4.902  64.724  1.00  0.00    -0.050 C  
BRANCH  40  50
HETATM   50  C   UNL     1      -8.649   4.120  68.535  1.00  0.00    -0.094 C  
HETATM   51  O   UNL     1      -7.469   3.640  69.185  1.00  0.00    -0.052 OA 
HETATM   52  H   UNL     1      -7.540   3.672  70.132  1.00  0.00     0.000 HD 
ENDBRANCH  40  50
ENDBRANCH  37  38
ENDBRANCH  33  37
ENDBRANCH  23  24
ENDBRANCH  18  23
TORSDOF 6
ENDMDL
MODEL      201
REMARK 921   NORMALIZED FREE ENERGY PREDICTED BY IDOCK:   31.91 KCAL/MOL
REMARK 922        TOTAL FREE ENERGY PREDICTED BY IDOCK:   41.12 KCAL/MOL
REMARK 923 INTER-LIGAND FREE ENERGY PREDICTED BY IDOCK:   22.10 KCAL/MOL
REMARK 924 INTRA-LIGAND FREE ENERGY PREDICTED BY IDOCK:   19.03 KCAL/MOL
REMARK 927      BINDING AFFINITY PREDICTED BY RF-SCORE:    0.00 PKD
ROOT
HETATM    1  C   UNL     1      -8.626  11.895  70.957  1.00  0.00     9.395 C  
HETATM    2  C   UNL     1      -9.683  12.195  69.822  1.00  0.00     1.823 C  
HETATM    3  C   UNL     1      -9.265  13.496  69.140  1.00  0.00     0.513 C  
HETATM    4  C   UNL     1     -10.332  13.957  68.168  1.00  0.00    -0.247 C  
HETATM    5  C   UNL     1     -11.603  14.392  68.858  1.00  0.00    -0.340 C  
HETATM    6  C   UNL     1     -12.086  13.587  70.109  1.00  0.00    -0.425 C  
HETATM    7  C   UNL     1     -11.041  12.452  70.609  1.00  0.00     1.769 C  
HETATM    8  C   UNL     1     -13.503  12.984  69.888  1.00  0.00     2.150 C  
HETATM    9  C   UNL     1     -12.472  14.769  71.079  1.00  0.00    -0.330 C  
HETATM   10  O   UNL     1     -13.316  15.617  70.764  1.00  0.00    -0.535 OA 
HETATM   11  O   UNL     1     -11.876  14.882  72.266  1.00  0.00    -0.347 OA 
HETATM   12  C   UNL     1     -11.589  11.105  71.123  1.00  0.00     0.442 C  
HETATM   13  C   UNL     1     -11.604   9.985  70.104  1.00  0.00    -0.320 C  
HETATM   14  C   UNL     1     -10.350   9.669  69.279  1.00  0.00    -0.223 C  
HETATM   15  C   UNL     1      -9.347   8.619  69.800  1.00  0.00    -0.165 C  
HETATM   16  C   UNL     1      -8.809   8.002  68.504  1.00  0.00    -0.134 C  
HETATM   17  C   UNL     1      -7.821   7.097  68.500  1.00  0.00    -0.122 C  
HETATM   18  C   UNL     1      -9.657   8.448  67.289  1.00  0.00    -0.165 C  
HETATM   19  C   UNL     1      -9.093   9.712  66.600  1.00  0.00    -0.176 C  
HETATM   20  C   UNL     1      -9.550  10.931  68.834  1.00  0.00    -0.192 C  
HETATM   21  C   UNL     1     -10.881   8.850  68.080  1.00  0.00    -0.062 C  
HETATM   22  C   UNL     1      -9.556  11.040  67.282  1.00  0.00    -0.183 C  
ENDROOT
BRANCH  18  23
HETATM   23  O   UNL     1      -9.834   7.316  66.440  1.00  0.00    -0.156 OA 
BRANCH  23  24
HETATM   24  C   UNL     1      -8.765   6.667  65.728  1.00  0.00    -0.116 C  
HETATM   25  O   UNL     1      -9.138   5.325  65.382  1.00  0.00    -0.160 OA 
HETATM   26  C   UNL     1      -8.194   4.705  64.489  1.00  0.00    -0.111 C  
HETATM   27  C   UNL     1      -6.883   4.507  65.234  1.00  0.00    -0.057 C  
HETATM   28  H   UNL     1      -4.950   6.340  66.983  1.00  0.00     0.000 HD 
HETATM   29  C   UNL     1      -6.314   5.843  65.701  1.00  0.00    -0.042 C  
HETATM   30  H   UNL     1      -5.071   3.720  64.907  1.00  0.00     0.000 HD 
HETATM   31  O   UNL     1      -5.889   3.844  64.442  1.00  0.00    -0.014 OA 
HETATM   32  O   UNL     1      -5.305   5.507  66.692  1.00  0.00    -0.008 OA 
HETATM   33  C   UNL     1      -7.338   6.784  66.352  1.00  0.00    -0.073 C  
BRANCH  26  34
HETATM   34  C   UNL     1      -8.758   3.354  64.034  1.00  0.00    -0.089 C  
HETATM   35  H   UNL     1      -8.477   2.114  62.538  1.00  0.00     0.000 HD 
HETATM   36  O   UNL     1      -8.127   2.951  62.820  1.00  0.00    -0.070 OA 
ENDBRANCH  26  34
BRANCH  33  37
HETATM   37  O   UNL     1      -6.956   8.181  66.309  1.00  0.00    -0.061 OA 
BRANCH  37  38
HETATM   38  C   UNL     1      -7.778   9.131  65.606  1.00  0.00    -0.094 C  
HETATM   39  O   UNL     1      -8.778   8.438  64.884  1.00  0.00    -0.134 OA 
HETATM   40  C   UNL     1      -9.607   9.189  64.002  1.00  0.00     1.039 C  
HETATM   41  C   UNL     1      -8.843  10.153  63.087  1.00  0.00    -0.228 C  
HETATM   42  H   UNL     1      -5.785  11.703  65.126  1.00  0.00     0.000 HD 
HETATM   43  O   UNL     1      -6.282  11.074  65.637  1.00  0.00    -0.075 OA 
HETATM   44  O   UNL     1      -9.764  11.019  62.415  1.00  0.00    -0.566 OA 
HETATM   45  C   UNL     1      -7.872  10.998  63.891  1.00  0.00     0.570 C  
HETATM   46  H   UNL     1      -6.446  12.322  63.507  1.00  0.00     0.000 HD 
HETATM   47  O   UNL     1      -7.054  11.794  63.005  1.00  0.00     1.565 OA 
HETATM   48  H   UNL     1      -9.291  11.616  61.847  1.00  0.00     0.000 HD 
HETATM   49  C   UNL     1      -6.972  10.151  64.777  1.00  0.00    -0.126 C  
BRANCH  40  50
HETATM   50  C   UNL     1     -10.355   8.161  63.131  1.00  0.00     8.044 C  
HETATM   51  O   UNL     1      -9.493   7.126  62.650  1.00  0.00     0.930 OA 
HETATM   52  H   UNL     1      -9.955   6.492  62.114  1.00  0.00     0.000 HD 
ENDBRANCH  40  50
ENDBRANCH  37  38
ENDBRANCH  33  37
ENDBRANCH  23  24
ENDBRANCH  18  23
TORSDOF 6
ENDMDL
MODEL      202
REMARK 921   NORMALIZED FREE ENERGY PREDICTED BY IDOCK:   34.83 KCAL/MOL
REMARK 922        TOTAL FREE ENERGY PREDICTED BY IDOCK:   45.06 KCAL/MOL
REMARK 923 INTER-LIGAND FREE ENERGY PREDICTED BY IDOCK:   41.85 KCAL/MOL
REMARK 924 INTRA-LIGAND FREE ENERGY PREDICTED BY IDOCK:    3.22 KCAL/MOL
REMARK 927      BINDING AFFINITY PREDICTED BY RF-SCORE:    0.00 PKD
ROOT
HETATM    1  C   UNL     1      -8.158  14.358  72.024  1.00  0.00     6.118 C  
HETATM    2  C   UNL     1      -9.318  14.407  70.954  1.00  0.00     3.319 C  
HETATM    3  C   UNL     1      -9.144  15.695  70.151  1.00  0.00     0.557 C  
HETATM    4  C   UNL     1     -10.328  15.916  69.232  1.00  0.00    -0.249 C  
HETATM    5  C   UNL     1     -11.603  16.218  69.983  1.00  0.00    -0.143 C  
HETATM    6  C   UNL     1     -11.879  15.457  71.322  1.00  0.00    -0.437 C  
HETATM    7  C   UNL     1     -10.646  14.530  71.821  1.00  0.00     2.195 C  
HETATM    8  C   UNL     1     -13.201  14.640  71.252  1.00  0.00    -0.432 C  
HETATM    9  C   UNL     1     -12.375  16.647  72.230  1.00  0.00     0.334 C  
HETATM   10  O   UNL     1     -13.354  17.336  71.920  1.00  0.00     4.901 OA 
HETATM   11  O   UNL     1     -11.727  16.941  73.358  1.00  0.00    -0.263 OA 
HETATM   12  C   UNL     1     -10.952  13.164  72.470  1.00  0.00     7.866 C  
HETATM   13  C   UNL     1     -10.865  11.974  71.539  1.00  0.00     5.910 C  
HETATM   14  C   UNL     1      -9.633  11.776  70.645  1.00  0.00     5.574 C  
HETATM   15  C   UNL     1      -8.453  10.928  71.163  1.00  0.00     5.379 C  
HETATM   16  C   UNL     1      -7.912  10.291  69.878  1.00  0.00    -0.092 C  
HETATM   17  C   UNL     1      -6.803   9.540  69.865  1.00  0.00    -0.067 C  
HETATM   18  C   UNL     1      -8.894  10.509  68.702  1.00  0.00    -0.147 C  
HETATM   19  C   UNL     1      -8.571  11.780  67.884  1.00  0.00    -0.156 C  
HETATM   20  C   UNL     1      -9.061  13.099  70.052  1.00  0.00     3.305 C  
HETATM   21  C   UNL     1     -10.111  10.794  69.552  1.00  0.00    -0.117 C  
HETATM   22  C   UNL     1      -9.182  13.079  68.501  1.00  0.00    -0.062 C  
ENDROOT
BRANCH  18  23
HETATM   23  O   UNL     1      -8.954   9.297  67.952  1.00  0.00    -0.128 OA 
BRANCH  23  24
HETATM   24  C   UNL     1      -8.644   7.999  68.491  1.00  0.00    -0.128 C  
HETATM   25  O   UNL     1      -9.058   7.916  69.863  1.00  0.00    -0.145 OA 
HETATM   26  C   UNL     1      -8.966   6.578  70.385  1.00  0.00    -0.152 C  
HETATM   27  C   UNL     1      -7.498   6.187  70.454  1.00  0.00    -0.090 C  
HETATM   28  H   UNL     1      -5.027   6.225  68.443  1.00  0.00     0.000 HD 
HETATM   29  C   UNL     1      -6.858   6.220  69.070  1.00  0.00    -0.066 C  
HETATM   30  H   UNL     1      -6.380   4.639  71.058  1.00  0.00     0.000 HD 
HETATM   31  O   UNL     1      -7.296   4.883  71.015  1.00  0.00    -0.057 OA 
HETATM   32  O   UNL     1      -5.425   6.205  69.306  1.00  0.00    -0.011 OA 
HETATM   33  C   UNL     1      -7.199   7.463  68.236  1.00  0.00    -0.090 C  
BRANCH  26  34
HETATM   34  C   UNL     1      -9.593   6.549  71.784  1.00  0.00    -0.152 C  
HETATM   35  H   UNL     1     -11.135   5.694  72.646  1.00  0.00     0.000 HD 
HETATM   36  O   UNL     1     -10.747   5.712  71.780  1.00  0.00    -0.234 OA 
ENDBRANCH  26  34
BRANCH  33  37
HETATM   37  O   UNL     1      -7.054   7.265  66.807  1.00  0.00    -0.077 OA 
BRANCH  37  38
HETATM   38  C   UNL     1      -6.285   8.197  66.026  1.00  0.00    -0.045 C  
HETATM   39  O   UNL     1      -6.042   9.361  66.792  1.00  0.00    -0.061 OA 
HETATM   40  C   UNL     1      -5.421  10.469  66.148  1.00  0.00    -0.080 C  
HETATM   41  C   UNL     1      -6.032  10.830  64.789  1.00  0.00     0.083 C  
HETATM   42  H   UNL     1      -7.074   7.465  62.917  1.00  0.00     0.000 HD 
HETATM   43  O   UNL     1      -6.712   7.304  63.781  1.00  0.00    -0.050 OA 
HETATM   44  O   UNL     1      -5.204  11.789  64.122  1.00  0.00     0.472 OA 
HETATM   45  C   UNL     1      -6.157   9.597  63.913  1.00  0.00    -0.102 C  
HETATM   46  H   UNL     1      -6.946   9.149  62.149  1.00  0.00     0.000 HD 
HETATM   47  O   UNL     1      -6.867   9.920  62.697  1.00  0.00    -0.109 OA 
HETATM   48  H   UNL     1      -5.582  12.013  63.280  1.00  0.00     0.000 HD 
HETATM   49  C   UNL     1      -6.872   8.458  64.623  1.00  0.00    -0.069 C  
BRANCH  40  50
HETATM   50  C   UNL     1      -5.581  11.669  67.102  1.00  0.00    -0.111 C  
HETATM   51  O   UNL     1      -5.290  11.326  68.459  1.00  0.00    -0.044 OA 
HETATM   52  H   UNL     1      -5.388  12.065  69.048  1.00  0.00     0.000 HD 
ENDBRANCH  40  50
ENDBRANCH  37  38
ENDBRANCH  33  37
ENDBRANCH  23  24
ENDBRANCH  18  23
TORSDOF 6
ENDMDL
MODEL      203
REMARK 921   NORMALIZED FREE ENERGY PREDICTED BY IDOCK:   37.26 KCAL/MOL
REMARK 922        TOTAL FREE ENERGY PREDICTED BY IDOCK:   48.35 KCAL/MOL
REMARK 923 INTER-LIGAND FREE ENERGY PREDICTED BY IDOCK:   19.26 KCAL/MOL
REMARK 924 INTRA-LIGAND FREE ENERGY PREDICTED BY IDOCK:   29.09 KCAL/MOL
REMARK 927      BINDING AFFINITY PREDICTED BY RF-SCORE:    0.00 PKD
ROOT
HETATM    1  C   UNL     1      -7.151   9.145  69.968  1.00  0.00    -0.060 C  
HETATM    2  C   UNL     1      -7.854   9.673  68.655  1.00  0.00    -0.081 C  
HETATM    3  C   UNL     1      -9.351   9.415  68.805  1.00  0.00    -0.146 C  
HETATM    4  C   UNL     1     -10.078   9.715  67.509  1.00  0.00    -0.247 C  
HETATM    5  C   UNL     1      -9.730   8.743  66.405  1.00  0.00    -0.335 C  
HETATM    6  C   UNL     1      -8.251   8.244  66.290  1.00  0.00    -0.112 C  
HETATM    7  C   UNL     1      -7.292   8.729  67.504  1.00  0.00    -0.081 C  
HETATM    8  C   UNL     1      -7.632   8.607  64.910  1.00  0.00    -0.100 C  
HETATM    9  C   UNL     1      -8.488   6.703  66.055  1.00  0.00    -0.142 C  
HETATM   10  O   UNL     1      -9.156   6.287  65.100  1.00  0.00     0.127 OA 
HETATM   11  O   UNL     1      -7.974   5.811  66.902  1.00  0.00    -0.101 OA 
HETATM   12  C   UNL     1      -5.835   9.126  67.193  1.00  0.00    -0.046 C  
HETATM   13  C   UNL     1      -5.593  10.612  67.024  1.00  0.00    -0.045 C  
HETATM   14  C   UNL     1      -6.112  11.607  68.070  1.00  0.00    -0.047 C  
HETATM   15  C   UNL     1      -5.196  12.016  69.242  1.00  0.00    -0.056 C  
HETATM   16  C   UNL     1      -5.623  13.465  69.506  1.00  0.00    -0.093 C  
HETATM   17  C   UNL     1      -5.134  14.178  70.530  1.00  0.00    -0.102 C  
HETATM   18  C   UNL     1      -6.530  13.988  68.367  1.00  0.00    -0.103 C  
HETATM   19  C   UNL     1      -8.034  13.778  68.658  1.00  0.00    -0.095 C  
HETATM   20  C   UNL     1      -7.514  11.246  68.648  1.00  0.00    -0.118 C  
HETATM   21  C   UNL     1      -6.105  12.967  67.336  1.00  0.00    -0.097 C  
HETATM   22  C   UNL     1      -8.541  12.352  68.271  1.00  0.00    -0.172 C  
ENDROOT
BRANCH  18  23
HETATM   23  O   UNL     1      -6.143  15.330  68.080  1.00  0.00    -0.111 OA 
BRANCH  23  24
HETATM   24  C   UNL     1      -7.048  16.349  67.617  1.00  0.00    -0.135 C  
HETATM   25  O   UNL     1      -6.362  17.274  66.760  1.00  0.00    -0.163 OA 
HETATM   26  C   UNL     1      -7.262  18.184  66.102  1.00  0.00    -0.281 C  
HETATM   27  C   UNL     1      -7.879  19.095  67.152  1.00  0.00    -0.250 C  
HETATM   28  H   UNL     1      -9.362  18.687  69.942  1.00  0.00     0.000 HD 
HETATM   29  C   UNL     1      -8.663  18.287  68.182  1.00  0.00    -0.281 C  
HETATM   30  H   UNL     1      -9.141  20.648  67.242  1.00  0.00     0.000 HD 
HETATM   31  O   UNL     1      -8.756  20.079  66.587  1.00  0.00    -0.322 OA 
HETATM   32  O   UNL     1      -8.874  19.190  69.301  1.00  0.00    -0.166 OA 
HETATM   33  C   UNL     1      -7.941  17.035  68.699  1.00  0.00    -0.258 C  
BRANCH  26  34
HETATM   34  C   UNL     1      -6.470  19.009  65.079  1.00  0.00    -0.190 C  
HETATM   35  H   UNL     1      -4.654  19.737  64.923  1.00  0.00     0.000 HD 
HETATM   36  O   UNL     1      -5.144  19.226  65.556  1.00  0.00    -0.147 OA 
ENDBRANCH  26  34
BRANCH  33  37
HETATM   37  O   UNL     1      -8.833  16.026  69.232  1.00  0.00    -0.248 OA 
BRANCH  37  38
HETATM   38  C   UNL     1      -8.458  15.278  70.403  1.00  0.00     1.128 C  
HETATM   39  O   UNL     1      -7.294  15.851  70.969  1.00  0.00     2.013 OA 
HETATM   40  C   UNL     1      -6.673  15.168  72.054  1.00  0.00     2.093 C  
HETATM   41  C   UNL     1      -6.485  13.664  71.828  1.00  0.00     1.696 C  
HETATM   42  H   UNL     1      -9.644  12.264  69.835  1.00  0.00     0.000 HD 
HETATM   43  O   UNL     1      -9.692  13.201  69.981  1.00  0.00     2.034 OA 
HETATM   44  O   UNL     1      -6.076  13.036  73.047  1.00  0.00     0.731 OA 
HETATM   45  C   UNL     1      -7.780  13.027  71.358  1.00  0.00     8.291 C  
HETATM   46  H   UNL     1      -8.366  11.246  70.712  1.00  0.00     0.000 HD 
HETATM   47  O   UNL     1      -7.555  11.644  71.007  1.00  0.00     3.461 OA 
HETATM   48  H   UNL     1      -5.959  12.103  72.907  1.00  0.00     0.000 HD 
HETATM   49  C   UNL     1      -8.379  13.756  70.165  1.00  0.00     2.425 C  
BRANCH  40  50
HETATM   50  C   UNL     1      -5.290  15.823  72.241  1.00  0.00     0.495 C  
HETATM   51  O   UNL     1      -5.270  17.185  71.808  1.00  0.00    -0.304 OA 
HETATM   52  H   UNL     1      -4.417  17.588  71.923  1.00  0.00     0.000 HD 
ENDBRANCH  40  50
ENDBRANCH  37  38
ENDBRANCH  33  37
ENDBRANCH  23  24
ENDBRANCH  18  23
TORSDOF 6
ENDMDL
MODEL      204
REMARK 921   NORMALIZED FREE ENERGY PREDICTED BY IDOCK:   37.33 KCAL/MOL
REMARK 922        TOTAL FREE ENERGY PREDICTED BY IDOCK:   48.44 KCAL/MOL
REMARK 923 INTER-LIGAND FREE ENERGY PREDICTED BY IDOCK:   31.54 KCAL/MOL
REMARK 924 INTRA-LIGAND FREE ENERGY PREDICTED BY IDOCK:   16.90 KCAL/MOL
REMARK 927      BINDING AFFINITY PREDICTED BY RF-SCORE:    0.00 PKD
ROOT
HETATM    1  C   UNL     1      -5.741  14.462  67.527  1.00  0.00     0.145 C  
HETATM    2  C   UNL     1      -7.270  14.420  67.132  1.00  0.00     0.163 C  
HETATM    3  C   UNL     1      -7.471  15.403  65.981  1.00  0.00     2.465 C  
HETATM    4  C   UNL     1      -8.944  15.569  65.669  1.00  0.00     0.260 C  
HETATM    5  C   UNL     1      -9.701  16.267  66.775  1.00  0.00    -0.253 C  
HETATM    6  C   UNL     1      -9.323  15.942  68.258  1.00  0.00    -0.194 C  
HETATM    7  C   UNL     1      -8.021  14.987  68.415  1.00  0.00    -0.131 C  
HETATM    8  C   UNL     1     -10.535  15.368  69.045  1.00  0.00    -0.249 C  
HETATM    9  C   UNL     1      -9.299  17.395  68.871  1.00  0.00    -0.183 C  
HETATM   10  O   UNL     1     -10.292  18.131  68.834  1.00  0.00    -0.356 OA 
HETATM   11  O   UNL     1      -8.186  17.864  69.437  1.00  0.00     0.165 OA 
HETATM   12  C   UNL     1      -8.011  13.912  69.521  1.00  0.00     0.572 C  
HETATM   13  C   UNL     1      -8.405  12.521  69.071  1.00  0.00     0.408 C  
HETATM   14  C   UNL     1      -7.752  11.891  67.833  1.00  0.00    -0.131 C  
HETATM   15  C   UNL     1      -6.487  11.025  68.004  1.00  0.00    -0.057 C  
HETATM   16  C   UNL     1      -6.638   9.991  66.883  1.00  0.00    -0.071 C  
HETATM   17  C   UNL     1      -5.686   9.089  66.609  1.00  0.00    -0.047 C  
HETATM   18  C   UNL     1      -8.057  10.052  66.267  1.00  0.00    -0.117 C  
HETATM   19  C   UNL     1      -8.135  10.990  65.041  1.00  0.00     0.245 C  
HETATM   20  C   UNL     1      -7.502  12.897  66.668  1.00  0.00     0.698 C  
HETATM   21  C   UNL     1      -8.715  10.750  67.435  1.00  0.00    -0.126 C  
HETATM   22  C   UNL     1      -8.348  12.489  65.428  1.00  0.00     1.854 C  
ENDROOT
BRANCH  18  23
HETATM   23  O   UNL     1      -8.494   8.713  66.042  1.00  0.00    -0.126 OA 
BRANCH  23  24
HETATM   24  C   UNL     1      -9.266   7.947  66.985  1.00  0.00    -0.148 C  
HETATM   25  O   UNL     1      -8.472   7.626  68.136  1.00  0.00    -0.123 OA 
HETATM   26  C   UNL     1      -9.254   7.048  69.198  1.00  0.00    -0.138 C  
HETATM   27  C   UNL     1      -9.752   5.685  68.744  1.00  0.00    -0.137 C  
HETATM   28  H   UNL     1     -11.270   4.545  66.184  1.00  0.00     0.000 HD 
HETATM   29  C   UNL     1     -10.628   5.811  67.501  1.00  0.00    -0.253 C  
HETATM   30  H   UNL     1     -10.812   4.150  69.474  1.00  0.00     0.000 HD 
HETATM   31  O   UNL     1     -10.501   5.001  69.757  1.00  0.00    -0.263 OA 
HETATM   32  O   UNL     1     -10.724   4.466  66.958  1.00  0.00     0.287 OA 
HETATM   33  C   UNL     1     -10.066   6.734  66.411  1.00  0.00     0.022 C  
BRANCH  26  34
HETATM   34  C   UNL     1      -8.368   6.904  70.442  1.00  0.00    -0.130 C  
HETATM   35  H   UNL     1      -8.322   5.774  72.046  1.00  0.00     0.000 HD 
HETATM   36  O   UNL     1      -8.871   5.863  71.276  1.00  0.00    -0.135 OA 
ENDBRANCH  26  34
BRANCH  33  37
HETATM   37  O   UNL     1     -11.076   7.262  65.516  1.00  0.00     3.760 OA 
BRANCH  37  38
HETATM   38  C   UNL     1     -10.713   8.226  64.510  1.00  0.00     8.335 C  
HETATM   39  O   UNL     1      -9.312   8.199  64.321  1.00  0.00     1.053 OA 
HETATM   40  C   UNL     1      -8.733   9.185  63.471  1.00  0.00    -0.128 C  
HETATM   41  C   UNL     1      -9.219  10.613  63.741  1.00  0.00    -0.254 C  
HETATM   42  H   UNL     1     -13.092  10.491  64.690  1.00  0.00     0.000 HD 
HETATM   43  O   UNL     1     -12.726   9.627  64.537  1.00  0.00    10.291 OA 
HETATM   44  O   UNL     1      -8.767  11.486  62.699  1.00  0.00    -0.576 OA 
HETATM   45  C   UNL     1     -10.735  10.661  63.798  1.00  0.00     0.314 C  
HETATM   46  H   UNL     1     -12.124  12.007  64.235  1.00  0.00     0.000 HD 
HETATM   47  O   UNL     1     -11.176  11.977  64.199  1.00  0.00    -0.325 OA 
HETATM   48  H   UNL     1      -9.068  12.371  62.866  1.00  0.00     0.000 HD 
HETATM   49  C   UNL     1     -11.306   9.628  64.757  1.00  0.00     5.359 C  
BRANCH  40  50
HETATM   50  C   UNL     1      -7.211   9.121  63.710  1.00  0.00    -0.096 C  
HETATM   51  O   UNL     1      -6.479   9.904  62.763  1.00  0.00    -0.108 OA 
HETATM   52  H   UNL     1      -5.541   9.864  62.911  1.00  0.00     0.000 HD 
ENDBRANCH  40  50
ENDBRANCH  37  38
ENDBRANCH  33  37
ENDBRANCH  23  24
ENDBRANCH  18  23
TORSDOF 6
ENDMDL
MODEL      205
REMARK 921   NORMALIZED FREE ENERGY PREDICTED BY IDOCK:   37.89 KCAL/MOL
REMARK 922        TOTAL FREE ENERGY PREDICTED BY IDOCK:   49.19 KCAL/MOL
REMARK 923 INTER-LIGAND FREE ENERGY PREDICTED BY IDOCK:   34.41 KCAL/MOL
REMARK 924 INTRA-LIGAND FREE ENERGY PREDICTED BY IDOCK:   14.78 KCAL/MOL
REMARK 927      BINDING AFFINITY PREDICTED BY RF-SCORE:    0.00 PKD
ROOT
HETATM    1  C   UNL     1      -9.322   9.522  68.229  1.00  0.00    -0.139 C  
HETATM    2  C   UNL     1      -7.811   9.657  68.669  1.00  0.00    -0.081 C  
HETATM    3  C   UNL     1      -7.035   8.531  67.989  1.00  0.00    -0.074 C  
HETATM    4  C   UNL     1      -5.613   8.471  68.510  1.00  0.00    -0.037 C  
HETATM    5  C   UNL     1      -5.538   8.036  69.955  1.00  0.00    -0.023 C  
HETATM    6  C   UNL     1      -6.634   8.549  70.946  1.00  0.00    -0.044 C  
HETATM    7  C   UNL     1      -7.833   9.378  70.235  1.00  0.00    -0.165 C  
HETATM    8  C   UNL     1      -6.011   9.361  72.117  1.00  0.00     0.085 C  
HETATM    9  C   UNL     1      -6.965   7.216  71.721  1.00  0.00    -0.064 C  
HETATM   10  O   UNL     1      -6.093   6.589  72.334  1.00  0.00    -0.041 OA 
HETATM   11  O   UNL     1      -8.206   6.730  71.716  1.00  0.00    -0.106 OA 
HETATM   12  C   UNL     1      -8.423  10.607  70.958  1.00  0.00     3.610 C  
HETATM   13  C   UNL     1      -7.861  11.943  70.520  1.00  0.00     4.128 C  
HETATM   14  C   UNL     1      -7.779  12.300  69.030  1.00  0.00     0.152 C  
HETATM   15  C   UNL     1      -8.953  13.048  68.366  1.00  0.00    -0.126 C  
HETATM   16  C   UNL     1      -8.247  13.904  67.308  1.00  0.00    -0.176 C  
HETATM   17  C   UNL     1      -8.924  14.649  66.424  1.00  0.00    -0.191 C  
HETATM   18  C   UNL     1      -6.715  13.893  67.526  1.00  0.00    -0.114 C  
HETATM   19  C   UNL     1      -6.005  12.786  66.712  1.00  0.00     0.889 C  
HETATM   20  C   UNL     1      -7.380  11.104  68.112  1.00  0.00    -0.087 C  
HETATM   21  C   UNL     1      -6.756  13.458  68.973  1.00  0.00    -0.108 C  
HETATM   22  C   UNL     1      -6.015  11.397  67.427  1.00  0.00    -0.073 C  
ENDROOT
BRANCH  18  23
HETATM   23  O   UNL     1      -6.233  15.217  67.309  1.00  0.00    -0.321 OA 
BRANCH  23  24
HETATM   24  C   UNL     1      -7.000  16.407  67.569  1.00  0.00    -0.148 C  
HETATM   25  O   UNL     1      -6.516  17.065  68.749  1.00  0.00    -0.164 OA 
HETATM   26  C   UNL     1      -7.106  18.365  68.934  1.00  0.00    -0.276 C  
HETATM   27  C   UNL     1      -8.586  18.186  69.233  1.00  0.00     0.291 C  
HETATM   28  H   UNL     1     -11.010  16.605  67.900  1.00  0.00     0.000 HD 
HETATM   29  C   UNL     1      -9.295  17.485  68.079  1.00  0.00    -0.272 C  
HETATM   30  H   UNL     1     -10.179  19.316  69.675  1.00  0.00     0.000 HD 
HETATM   31  O   UNL     1      -9.255  19.428  69.488  1.00  0.00    -0.081 OA 
HETATM   32  O   UNL     1     -10.569  17.043  68.620  1.00  0.00    -0.336 OA 
HETATM   33  C   UNL     1      -8.554  16.262  67.520  1.00  0.00    -0.177 C  
BRANCH  26  34
HETATM   34  C   UNL     1      -6.405  19.063  70.107  1.00  0.00    -0.033 C  
HETATM   35  H   UNL     1      -4.883  18.695  71.291  1.00  0.00     0.000 HD 
HETATM   36  O   UNL     1      -5.317  18.263  70.565  1.00  0.00    -0.239 OA 
ENDBRANCH  26  34
BRANCH  33  37
HETATM   37  O   UNL     1      -8.919  15.931  66.157  1.00  0.00    -0.317 OA 
BRANCH  37  38
HETATM   38  C   UNL     1     -10.103  16.501  65.570  1.00  0.00    -0.174 C  
HETATM   39  O   UNL     1     -10.302  17.802  66.089  1.00  0.00    -0.372 OA 
HETATM   40  C   UNL     1     -11.505  18.483  65.745  1.00  0.00     1.774 C  
HETATM   41  C   UNL     1     -12.773  17.636  65.898  1.00  0.00     8.612 C  
HETATM   42  H   UNL     1     -11.950  13.887  64.812  1.00  0.00     0.000 HD 
HETATM   43  O   UNL     1     -11.190  14.455  64.764  1.00  0.00    -0.366 OA 
HETATM   44  O   UNL     1     -13.888  18.319  65.313  1.00  0.00    15.058 OA 
HETATM   45  C   UNL     1     -12.606  16.292  65.212  1.00  0.00     2.644 C  
HETATM   46  H   UNL     1     -13.641  14.607  65.059  1.00  0.00     0.000 HD 
HETATM   47  O   UNL     1     -13.746  15.448  65.487  1.00  0.00     1.525 OA 
HETATM   48  H   UNL     1     -14.674  17.794  65.408  1.00  0.00     0.000 HD 
HETATM   49  C   UNL     1     -11.337  15.578  65.649  1.00  0.00    -0.063 C  
BRANCH  40  50
HETATM   50  C   UNL     1     -11.599  19.698  66.688  1.00  0.00     1.047 C  
HETATM   51  O   UNL     1     -10.332  20.332  66.886  1.00  0.00    -0.415 OA 
HETATM   52  H   UNL     1     -10.390  21.081  67.468  1.00  0.00     0.000 HD 
ENDBRANCH  40  50
ENDBRANCH  37  38
ENDBRANCH  33  37
ENDBRANCH  23  24
ENDBRANCH  18  23
TORSDOF 6
ENDMDL
MODEL      206
REMARK 921   NORMALIZED FREE ENERGY PREDICTED BY IDOCK:   38.08 KCAL/MOL
REMARK 922        TOTAL FREE ENERGY PREDICTED BY IDOCK:   49.45 KCAL/MOL
REMARK 923 INTER-LIGAND FREE ENERGY PREDICTED BY IDOCK:   37.69 KCAL/MOL
REMARK 924 INTRA-LIGAND FREE ENERGY PREDICTED BY IDOCK:   11.76 KCAL/MOL
REMARK 927      BINDING AFFINITY PREDICTED BY RF-SCORE:    0.00 PKD
ROOT
HETATM    1  C   UNL     1      -8.359   7.698  73.647  1.00  0.00    -0.230 C  
HETATM    2  C   UNL     1      -9.830   7.942  73.124  1.00  0.00    -0.357 C  
HETATM    3  C   UNL     1     -10.716   8.172  74.346  1.00  0.00     4.591 C  
HETATM    4  C   UNL     1     -12.177   8.221  73.945  1.00  0.00     4.521 C  
HETATM    5  C   UNL     1     -12.696   6.887  73.463  1.00  0.00     3.303 C  
HETATM    6  C   UNL     1     -11.754   5.989  72.594  1.00  0.00    -0.221 C  
HETATM    7  C   UNL     1     -10.242   6.559  72.455  1.00  0.00    -0.202 C  
HETATM    8  C   UNL     1     -12.372   5.696  71.197  1.00  0.00     1.582 C  
HETATM    9  C   UNL     1     -11.997   4.585  73.269  1.00  0.00     0.164 C  
HETATM   10  O   UNL     1     -13.125   4.083  73.334  1.00  0.00     0.630 OA 
HETATM   11  O   UNL     1     -10.975   3.912  73.799  1.00  0.00    -0.232 OA 
HETATM   12  C   UNL     1      -9.509   6.413  71.106  1.00  0.00    -0.177 C  
HETATM   13  C   UNL     1      -9.557   7.633  70.211  1.00  0.00    -0.172 C  
HETATM   14  C   UNL     1      -9.197   9.018  70.766  1.00  0.00    -0.299 C  
HETATM   15  C   UNL     1      -7.741   9.517  70.663  1.00  0.00    -0.151 C  
HETATM   16  C   UNL     1      -7.918  11.030  70.499  1.00  0.00     2.414 C  
HETATM   17  C   UNL     1      -6.878  11.873  70.472  1.00  0.00     1.395 C  
HETATM   18  C   UNL     1      -9.400  11.382  70.220  1.00  0.00     2.916 C  
HETATM   19  C   UNL     1     -10.189  11.704  71.511  1.00  0.00     8.606 C  
HETATM   20  C   UNL     1      -9.698   9.268  72.221  1.00  0.00     0.745 C  
HETATM   21  C   UNL     1      -9.811  10.006  69.749  1.00  0.00    -0.270 C  
HETATM   22  C   UNL     1     -10.733  10.429  72.231  1.00  0.00     4.610 C  
ENDROOT
BRANCH  18  23
HETATM   23  O   UNL     1      -9.427  12.396  69.217  1.00  0.00     0.459 OA 
BRANCH  23  24
HETATM   24  C   UNL     1      -9.848  12.174  67.859  1.00  0.00    -0.199 C  
HETATM   25  O   UNL     1     -10.305  13.402  67.272  1.00  0.00    -0.242 OA 
HETATM   26  C   UNL     1     -10.536  13.280  65.856  1.00  0.00    -0.281 C  
HETATM   27  C   UNL     1     -11.716  12.345  65.638  1.00  0.00    -0.414 C  
HETATM   28  H   UNL     1     -12.537   9.434  66.638  1.00  0.00     0.000 HD 
HETATM   29  C   UNL     1     -11.427  10.961  66.209  1.00  0.00     0.536 C  
HETATM   30  H   UNL     1     -12.798  11.617  64.118  1.00  0.00     0.000 HD 
HETATM   31  O   UNL     1     -12.061  12.201  64.254  1.00  0.00    -0.386 OA 
HETATM   32  O   UNL     1     -12.717  10.296  66.282  1.00  0.00     6.198 OA 
HETATM   33  C   UNL     1     -10.803  10.963  67.612  1.00  0.00    -0.266 C  
BRANCH  26  34
HETATM   34  C   UNL     1     -10.844  14.670  65.285  1.00  0.00    -0.377 C  
HETATM   35  H   UNL     1      -9.864  16.075  64.327  1.00  0.00     0.000 HD 
HETATM   36  O   UNL     1      -9.673  15.215  64.681  1.00  0.00     0.070 OA 
ENDBRANCH  26  34
BRANCH  33  37
HETATM   37  O   UNL     1     -10.066   9.756  67.924  1.00  0.00    -0.157 OA 
BRANCH  37  38
HETATM   38  C   UNL     1      -8.665   9.665  67.608  1.00  0.00    -0.126 C  
HETATM   39  O   UNL     1      -8.404  10.399  66.427  1.00  0.00    -0.132 OA 
HETATM   40  C   UNL     1      -7.099  10.314  65.862  1.00  0.00    -0.131 C  
HETATM   41  C   UNL     1      -6.554   8.886  65.747  1.00  0.00    -0.064 C  
HETATM   42  H   UNL     1      -7.735   6.804  68.938  1.00  0.00     0.000 HD 
HETATM   43  O   UNL     1      -8.067   7.694  68.940  1.00  0.00    -0.123 OA 
HETATM   44  O   UNL     1      -5.167   8.922  65.393  1.00  0.00    -0.037 OA 
HETATM   45  C   UNL     1      -6.705   8.148  67.065  1.00  0.00    -0.065 C  
HETATM   46  H   UNL     1      -6.421   6.301  67.729  1.00  0.00     0.000 HD 
HETATM   47  O   UNL     1      -6.326   6.763  66.905  1.00  0.00    -0.038 OA 
HETATM   48  H   UNL     1      -4.829   8.037  65.321  1.00  0.00     0.000 HD 
HETATM   49  C   UNL     1      -8.125   8.220  67.604  1.00  0.00    -0.126 C  
BRANCH  40  50
HETATM   50  C   UNL     1      -7.200  10.926  64.450  1.00  0.00     0.555 C  
HETATM   51  O   UNL     1      -6.569  10.111  63.459  1.00  0.00    -0.133 OA 
HETATM   52  H   UNL     1      -6.632  10.489  62.589  1.00  0.00     0.000 HD 
ENDBRANCH  40  50
ENDBRANCH  37  38
ENDBRANCH  33  37
ENDBRANCH  23  24
ENDBRANCH  18  23
TORSDOF 6
ENDMDL
MODEL      207
REMARK 921   NORMALIZED FREE ENERGY PREDICTED BY IDOCK:   38.67 KCAL/MOL
REMARK 922        TOTAL FREE ENERGY PREDICTED BY IDOCK:   50.24 KCAL/MOL
REMARK 923 INTER-LIGAND FREE ENERGY PREDICTED BY IDOCK:   46.40 KCAL/MOL
REMARK 924 INTRA-LIGAND FREE ENERGY PREDICTED BY IDOCK:    3.85 KCAL/MOL
REMARK 927      BINDING AFFINITY PREDICTED BY RF-SCORE:    0.00 PKD
ROOT
HETATM    1  C   UNL     1      -9.004  16.873  65.767  1.00  0.00     0.096 C  
HETATM    2  C   UNL     1      -9.785  15.776  66.594  1.00  0.00    -0.266 C  
HETATM    3  C   UNL     1     -11.257  15.867  66.197  1.00  0.00     0.091 C  
HETATM    4  C   UNL     1     -12.106  14.982  67.086  1.00  0.00     0.105 C  
HETATM    5  C   UNL     1     -12.165  15.470  68.514  1.00  0.00     0.111 C  
HETATM    6  C   UNL     1     -10.870  16.077  69.149  1.00  0.00    -0.281 C  
HETATM    7  C   UNL     1      -9.640  16.250  68.106  1.00  0.00    -0.219 C  
HETATM    8  C   UNL     1     -10.426  15.282  70.410  1.00  0.00    -0.168 C  
HETATM    9  C   UNL     1     -11.470  17.350  69.861  1.00  0.00     1.833 C  
HETATM   10  O   UNL     1     -12.362  17.257  70.713  1.00  0.00     3.047 OA 
HETATM   11  O   UNL     1     -11.027  18.566  69.540  1.00  0.00     1.140 OA 
HETATM   12  C   UNL     1      -8.204  15.963  68.589  1.00  0.00    -0.182 C  
HETATM   13  C   UNL     1      -7.679  14.580  68.264  1.00  0.00    -0.126 C  
HETATM   14  C   UNL     1      -7.788  14.023  66.838  1.00  0.00     0.267 C  
HETATM   15  C   UNL     1      -6.624  14.242  65.851  1.00  0.00     7.133 C  
HETATM   16  C   UNL     1      -6.677  12.976  64.988  1.00  0.00    10.110 C  
HETATM   17  C   UNL     1      -5.882  12.803  63.924  1.00  0.00    10.593 C  
HETATM   18  C   UNL     1      -7.626  11.925  65.613  1.00  0.00     1.317 C  
HETATM   19  C   UNL     1      -9.070  12.028  65.069  1.00  0.00     0.388 C  
HETATM   20  C   UNL     1      -9.119  14.392  66.114  1.00  0.00    -0.043 C  
HETATM   21  C   UNL     1      -7.610  12.498  67.012  1.00  0.00    -0.020 C  
HETATM   22  C   UNL     1      -9.931  13.100  65.812  1.00  0.00    -0.260 C  
ENDROOT
BRANCH  18  23
HETATM   23  O   UNL     1      -7.011  10.646  65.479  1.00  0.00    -0.128 OA 
BRANCH  23  24
HETATM   24  C   UNL     1      -7.732   9.399  65.493  1.00  0.00    -0.099 C  
HETATM   25  O   UNL     1      -7.247   8.531  64.457  1.00  0.00    -0.083 OA 
HETATM   26  C   UNL     1      -7.784   7.200  64.562  1.00  0.00    -0.113 C  
HETATM   27  C   UNL     1      -9.277   7.257  64.280  1.00  0.00     1.774 C  
HETATM   28  H   UNL     1     -11.736   8.985  65.337  1.00  0.00     0.000 HD 
HETATM   29  C   UNL     1      -9.989   8.154  65.288  1.00  0.00     1.705 C  
HETATM   30  H   UNL     1     -10.830   6.001  64.130  1.00  0.00     0.000 HD 
HETATM   31  O   UNL     1      -9.898   5.965  64.307  1.00  0.00     1.532 OA 
HETATM   32  O   UNL     1     -11.293   8.426  64.709  1.00  0.00     8.821 OA 
HETATM   33  C   UNL     1      -9.290   9.493  65.560  1.00  0.00    -0.255 C  
BRANCH  26  34
HETATM   34  C   UNL     1      -7.081   6.302  63.536  1.00  0.00    -0.053 C  
HETATM   35  H   UNL     1      -5.565   5.055  63.523  1.00  0.00     0.000 HD 
HETATM   36  O   UNL     1      -6.000   5.611  64.158  1.00  0.00    -0.023 OA 
ENDBRANCH  26  34
BRANCH  33  37
HETATM   37  O   UNL     1      -9.636  10.083  66.837  1.00  0.00    -0.164 OA 
BRANCH  37  38
HETATM   38  C   UNL     1      -8.744   9.949  67.958  1.00  0.00    -0.125 C  
HETATM   39  O   UNL     1      -7.635   9.156  67.581  1.00  0.00    -0.085 OA 
HETATM   40  C   UNL     1      -6.706   8.780  68.593  1.00  0.00    -0.059 C  
HETATM   41  C   UNL     1      -7.353   8.238  69.872  1.00  0.00    -0.064 C  
HETATM   42  H   UNL     1     -10.706  10.282  70.577  1.00  0.00     0.000 HD 
HETATM   43  O   UNL     1     -10.272  10.557  69.778  1.00  0.00    -0.213 OA 
HETATM   44  O   UNL     1      -6.366   8.111  70.901  1.00  0.00    -0.036 OA 
HETATM   45  C   UNL     1      -8.448   9.171  70.355  1.00  0.00    -0.199 C  
HETATM   46  H   UNL     1      -9.834   9.164  71.774  1.00  0.00     0.000 HD 
HETATM   47  O   UNL     1      -9.149   8.580  71.472  1.00  0.00    -0.174 OA 
HETATM   48  H   UNL     1      -6.767   7.775  71.695  1.00  0.00     0.000 HD 
HETATM   49  C   UNL     1      -9.446   9.503  69.256  1.00  0.00    -0.169 C  
BRANCH  40  50
HETATM   50  C   UNL     1      -5.818   7.680  67.977  1.00  0.00    -0.039 C  
HETATM   51  O   UNL     1      -5.921   6.440  68.682  1.00  0.00    -0.019 OA 
HETATM   52  H   UNL     1      -5.374   5.763  68.302  1.00  0.00     0.000 HD 
ENDBRANCH  40  50
ENDBRANCH  37  38
ENDBRANCH  33  37
ENDBRANCH  23  24
ENDBRANCH  18  23
TORSDOF 6
ENDMDL
MODEL      208
REMARK 921   NORMALIZED FREE ENERGY PREDICTED BY IDOCK:   41.47 KCAL/MOL
REMARK 922        TOTAL FREE ENERGY PREDICTED BY IDOCK:   54.03 KCAL/MOL
REMARK 923 INTER-LIGAND FREE ENERGY PREDICTED BY IDOCK:   40.82 KCAL/MOL
REMARK 924 INTRA-LIGAND FREE ENERGY PREDICTED BY IDOCK:   13.21 KCAL/MOL
REMARK 927      BINDING AFFINITY PREDICTED BY RF-SCORE:    0.00 PKD
ROOT
HETATM    1  C   UNL     1      -6.303   5.080  69.133  1.00  0.00    -0.031 C  
HETATM    2  C   UNL     1      -7.137   6.165  69.922  1.00  0.00    -0.072 C  
HETATM    3  C   UNL     1      -6.579   6.226  71.342  1.00  0.00    -0.054 C  
HETATM    4  C   UNL     1      -7.448   7.103  72.220  1.00  0.00    -0.084 C  
HETATM    5  C   UNL     1      -8.812   6.507  72.475  1.00  0.00    -0.132 C  
HETATM    6  C   UNL     1      -9.525   5.748  71.307  1.00  0.00    -0.179 C  
HETATM    7  C   UNL     1      -8.607   5.561  69.983  1.00  0.00    -0.120 C  
HETATM    8  C   UNL     1     -10.892   6.400  70.952  1.00  0.00    -0.316 C  
HETATM    9  C   UNL     1     -10.052   4.475  72.074  1.00  0.00    -0.196 C  
HETATM   10  O   UNL     1     -10.810   4.570  73.046  1.00  0.00    -0.218 OA 
HETATM   11  O   UNL     1      -9.673   3.256  71.686  1.00  0.00    -0.151 OA 
HETATM   12  C   UNL     1      -9.264   5.690  68.594  1.00  0.00    -0.134 C  
HETATM   13  C   UNL     1      -9.121   7.048  67.937  1.00  0.00    -0.127 C  
HETATM   14  C   UNL     1      -7.747   7.725  67.845  1.00  0.00    -0.122 C  
HETATM   15  C   UNL     1      -6.874   7.493  66.595  1.00  0.00    -0.066 C  
HETATM   16  C   UNL     1      -6.128   8.825  66.459  1.00  0.00    -0.057 C  
HETATM   17  C   UNL     1      -5.173   9.019  65.539  1.00  0.00    -0.037 C  
HETATM   18  C   UNL     1      -6.739   9.895  67.395  1.00  0.00    -0.074 C  
HETATM   19  C   UNL     1      -6.037   9.954  68.772  1.00  0.00    -0.041 C  
HETATM   20  C   UNL     1      -6.856   7.526  69.108  1.00  0.00    -0.056 C  
HETATM   21  C   UNL     1      -8.075   9.212  67.578  1.00  0.00    -0.104 C  
HETATM   22  C   UNL     1      -6.586   8.899  69.786  1.00  0.00    -0.041 C  
ENDROOT
BRANCH  18  23
HETATM   23  O   UNL     1      -6.786  11.127  66.679  1.00  0.00    -0.122 OA 
BRANCH  23  24
HETATM   24  C   UNL     1      -7.750  12.167  66.926  1.00  0.00    -0.049 C  
HETATM   25  O   UNL     1      -8.680  12.255  65.835  1.00  0.00     0.118 OA 
HETATM   26  C   UNL     1      -9.785  13.130  66.126  1.00  0.00    -0.248 C  
HETATM   27  C   UNL     1      -9.261  14.553  66.234  1.00  0.00    -0.198 C  
HETATM   28  H   UNL     1      -6.907  16.005  67.817  1.00  0.00     0.000 HD 
HETATM   29  C   UNL     1      -8.232  14.671  67.354  1.00  0.00    -0.201 C  
HETATM   30  H   UNL     1      -9.972  16.400  66.536  1.00  0.00     0.000 HD 
HETATM   31  O   UNL     1     -10.299  15.512  66.469  1.00  0.00    -0.272 OA 
HETATM   32  O   UNL     1      -7.548  15.931  67.119  1.00  0.00    -0.177 OA 
HETATM   33  C   UNL     1      -7.186  13.549  67.386  1.00  0.00    -0.098 C  
BRANCH  26  34
HETATM   34  C   UNL     1     -10.811  13.024  64.990  1.00  0.00    -0.308 C  
HETATM   35  H   UNL     1     -11.870  11.604  64.143  1.00  0.00     0.000 HD 
HETATM   36  O   UNL     1     -11.235  11.670  64.847  1.00  0.00    -0.290 OA 
ENDBRANCH  26  34
BRANCH  33  37
HETATM   37  O   UNL     1      -6.573  13.359  68.685  1.00  0.00    -0.078 OA 
BRANCH  37  38
HETATM   38  C   UNL     1      -7.146  12.429  69.622  1.00  0.00     0.366 C  
HETATM   39  O   UNL     1      -7.886  11.451  68.917  1.00  0.00    -0.138 OA 
HETATM   40  C   UNL     1      -8.656  10.522  69.674  1.00  0.00     0.043 C  
HETATM   41  C   UNL     1      -9.509  11.160  70.776  1.00  0.00     4.388 C  
HETATM   42  H   UNL     1      -7.468  14.186  72.384  1.00  0.00     0.000 HD 
HETATM   43  O   UNL     1      -6.998  13.767  71.673  1.00  0.00     1.438 OA 
HETATM   44  O   UNL     1     -10.055  10.140  71.620  1.00  0.00     0.575 OA 
HETATM   45  C   UNL     1      -8.672  12.101  71.623  1.00  0.00    16.466 C  
HETATM   46  H   UNL     1      -8.991  13.397  73.090  1.00  0.00     0.000 HD 
HETATM   47  O   UNL     1      -9.514  12.807  72.561  1.00  0.00    17.071 OA 
HETATM   48  H   UNL     1     -10.584  10.535  72.303  1.00  0.00     0.000 HD 
HETATM   49  C   UNL     1      -7.910  13.109  70.777  1.00  0.00     5.303 C  
BRANCH  40  50
HETATM   50  C   UNL     1      -9.586   9.813  68.669  1.00  0.00    -0.151 C  
HETATM   51  O   UNL     1     -10.787  10.550  68.426  1.00  0.00    -0.206 OA 
HETATM   52  H   UNL     1     -11.360  10.113  67.807  1.00  0.00     0.000 HD 
ENDBRANCH  40  50
ENDBRANCH  37  38
ENDBRANCH  33  37
ENDBRANCH  23  24
ENDBRANCH  18  23
TORSDOF 6
ENDMDL
MODEL      209
REMARK 921   NORMALIZED FREE ENERGY PREDICTED BY IDOCK:   42.68 KCAL/MOL
REMARK 922        TOTAL FREE ENERGY PREDICTED BY IDOCK:   55.67 KCAL/MOL
REMARK 923 INTER-LIGAND FREE ENERGY PREDICTED BY IDOCK:   52.78 KCAL/MOL
REMARK 924 INTRA-LIGAND FREE ENERGY PREDICTED BY IDOCK:    2.89 KCAL/MOL
REMARK 927      BINDING AFFINITY PREDICTED BY RF-SCORE:    0.00 PKD
ROOT
HETATM    1  C   UNL     1     -10.905   8.247  70.804  1.00  0.00    -0.252 C  
HETATM    2  C   UNL     1      -9.467   8.726  70.359  1.00  0.00    -0.206 C  
HETATM    3  C   UNL     1      -9.101   7.956  69.093  1.00  0.00    -0.145 C  
HETATM    4  C   UNL     1      -7.658   8.213  68.709  1.00  0.00    -0.105 C  
HETATM    5  C   UNL     1      -6.676   7.624  69.695  1.00  0.00    -0.040 C  
HETATM    6  C   UNL     1      -7.024   7.682  71.219  1.00  0.00    -0.050 C  
HETATM    7  C   UNL     1      -8.513   8.244  71.536  1.00  0.00    -0.179 C  
HETATM    8  C   UNL     1      -5.948   8.467  72.022  1.00  0.00    -0.054 C  
HETATM    9  C   UNL     1      -6.637   6.217  71.656  1.00  0.00    -0.055 C  
HETATM   10  O   UNL     1      -5.494   5.773  71.495  1.00  0.00    -0.019 OA 
HETATM   11  O   UNL     1      -7.554   5.418  72.203  1.00  0.00    -0.095 OA 
HETATM   12  C   UNL     1      -8.721   9.157  72.762  1.00  0.00     1.170 C  
HETATM   13  C   UNL     1      -8.726  10.642  72.465  1.00  0.00    11.124 C  
HETATM   14  C   UNL     1      -9.598  11.206  71.336  1.00  0.00     7.759 C  
HETATM   15  C   UNL     1     -11.028  11.690  71.656  1.00  0.00     5.156 C  
HETATM   16  C   UNL     1     -11.220  12.840  70.660  1.00  0.00     1.378 C  
HETATM   17  C   UNL     1     -12.386  13.486  70.532  1.00  0.00    -0.412 C  
HETATM   18  C   UNL     1      -9.877  13.215  69.989  1.00  0.00     2.608 C  
HETATM   19  C   UNL     1      -9.645  12.463  68.658  1.00  0.00    -0.036 C  
HETATM   20  C   UNL     1      -9.662  10.298  70.070  1.00  0.00    -0.030 C  
HETATM   21  C   UNL     1      -8.986  12.594  71.040  1.00  0.00    11.408 C  
HETATM   22  C   UNL     1      -9.032  11.039  68.856  1.00  0.00    -0.123 C  
ENDROOT
BRANCH  18  23
HETATM   23  O   UNL     1      -9.811  14.637  69.907  1.00  0.00     0.156 OA 
BRANCH  23  24
HETATM   24  C   UNL     1     -10.134  15.523  70.995  1.00  0.00     0.976 C  
HETATM   25  O   UNL     1     -11.465  15.267  71.468  1.00  0.00    -0.355 OA 
HETATM   26  C   UNL     1     -11.760  15.975  72.686  1.00  0.00    -0.408 C  
HETATM   27  C   UNL     1     -11.793  17.465  72.383  1.00  0.00     1.694 C  
HETATM   28  H   UNL     1      -9.866  19.542  70.927  1.00  0.00     0.000 HD 
HETATM   29  C   UNL     1     -10.446  17.943  71.851  1.00  0.00     4.028 C  
HETATM   30  H   UNL     1     -12.155  19.187  73.339  1.00  0.00     0.000 HD 
HETATM   31  O   UNL     1     -12.134  18.257  73.528  1.00  0.00     1.993 OA 
HETATM   32  O   UNL     1     -10.705  19.244  71.259  1.00  0.00     2.004 OA 
HETATM   33  C   UNL     1      -9.822  17.038  70.779  1.00  0.00     2.915 C  
BRANCH  26  34
HETATM   34  C   UNL     1     -13.123  15.507  73.212  1.00  0.00    -0.543 C  
HETATM   35  H   UNL     1     -14.413  14.089  72.788  1.00  0.00     0.000 HD 
HETATM   36  O   UNL     1     -13.569  14.379  72.462  1.00  0.00    -0.435 OA 
ENDBRANCH  26  34
BRANCH  33  37
HETATM   37  O   UNL     1      -8.384  17.175  70.665  1.00  0.00     3.591 OA 
BRANCH  37  38
HETATM   38  C   UNL     1      -7.821  18.047  69.668  1.00  0.00     0.736 C  
HETATM   39  O   UNL     1      -8.850  18.834  69.101  1.00  0.00    -0.154 OA 
HETATM   40  C   UNL     1      -8.524  19.661  67.988  1.00  0.00    -0.312 C  
HETATM   41  C   UNL     1      -7.713  18.955  66.895  1.00  0.00    -0.239 C  
HETATM   42  H   UNL     1      -5.147  16.439  68.627  1.00  0.00     0.000 HD 
HETATM   43  O   UNL     1      -5.699  16.888  69.257  1.00  0.00    -0.147 OA 
HETATM   44  O   UNL     1      -7.239  19.914  65.944  1.00  0.00    -0.281 OA 
HETATM   45  C   UNL     1      -6.523  18.229  67.496  1.00  0.00    -0.190 C  
HETATM   46  H   UNL     1      -5.109  16.994  66.857  1.00  0.00     0.000 HD 
HETATM   47  O   UNL     1      -5.853  17.448  66.482  1.00  0.00    -0.177 OA 
HETATM   48  H   UNL     1      -6.736  19.477  65.267  1.00  0.00     0.000 HD 
HETATM   49  C   UNL     1      -6.926  17.319  68.645  1.00  0.00    -0.220 C  
BRANCH  40  50
HETATM   50  C   UNL     1      -9.865  20.131  67.391  1.00  0.00    -0.434 C  
HETATM   51  O   UNL     1     -10.903  20.198  68.371  1.00  0.00    -0.221 OA 
HETATM   52  H   UNL     1     -11.729  20.488  68.003  1.00  0.00     0.000 HD 
ENDBRANCH  40  50
ENDBRANCH  37  38
ENDBRANCH  33  37
ENDBRANCH  23  24
ENDBRANCH  18  23
TORSDOF 6
ENDMDL
MODEL      210
REMARK 921   NORMALIZED FREE ENERGY PREDICTED BY IDOCK:   45.18 KCAL/MOL
REMARK 922        TOTAL FREE ENERGY PREDICTED BY IDOCK:   59.05 KCAL/MOL
REMARK 923 INTER-LIGAND FREE ENERGY PREDICTED BY IDOCK:   50.06 KCAL/MOL
REMARK 924 INTRA-LIGAND FREE ENERGY PREDICTED BY IDOCK:    8.99 KCAL/MOL
REMARK 927      BINDING AFFINITY PREDICTED BY RF-SCORE:    0.00 PKD
ROOT
HETATM    1  C   UNL     1      -6.322   9.416  73.731  1.00  0.00     0.436 C  
HETATM    2  C   UNL     1      -7.301   9.309  72.496  1.00  0.00     0.792 C  
HETATM    3  C   UNL     1      -8.592   8.662  72.993  1.00  0.00     0.039 C  
HETATM    4  C   UNL     1      -9.512   8.345  71.831  1.00  0.00    -0.323 C  
HETATM    5  C   UNL     1      -8.972   7.254  70.937  1.00  0.00    -0.150 C  
HETATM    6  C   UNL     1      -7.434   7.217  70.652  1.00  0.00    -0.079 C  
HETATM    7  C   UNL     1      -6.576   8.295  71.509  1.00  0.00    -0.058 C  
HETATM    8  C   UNL     1      -7.131   7.343  69.132  1.00  0.00    -0.079 C  
HETATM    9  C   UNL     1      -7.147   5.677  70.832  1.00  0.00    -0.070 C  
HETATM   10  O   UNL     1      -7.729   4.825  70.151  1.00  0.00    -0.057 OA 
HETATM   11  O   UNL     1      -6.268   5.263  71.745  1.00  0.00    -0.028 OA 
HETATM   12  C   UNL     1      -5.388   9.011  70.834  1.00  0.00    -0.029 C  
HETATM   13  C   UNL     1      -5.694  10.386  70.280  1.00  0.00    -0.074 C  
HETATM   14  C   UNL     1      -6.409  11.431  71.148  1.00  0.00     1.177 C  
HETATM   15  C   UNL     1      -5.570  12.415  71.990  1.00  0.00     0.697 C  
HETATM   16  C   UNL     1      -6.439  13.677  71.989  1.00  0.00     1.950 C  
HETATM   17  C   UNL     1      -6.120  14.765  72.703  1.00  0.00     0.723 C  
HETATM   18  C   UNL     1      -7.589  13.553  70.960  1.00  0.00     4.476 C  
HETATM   19  C   UNL     1      -8.887  12.988  71.582  1.00  0.00    16.565 C  
HETATM   20  C   UNL     1      -7.529  10.841  72.057  1.00  0.00     6.059 C  
HETATM   21  C   UNL     1      -6.951  12.461  70.131  1.00  0.00     0.950 C  
HETATM   22  C   UNL     1      -8.909  11.427  71.643  1.00  0.00    12.188 C  
ENDROOT
BRANCH  18  23
HETATM   23  O   UNL     1      -7.722  14.810  70.300  1.00  0.00     0.256 OA 
BRANCH  23  24
HETATM   24  C   UNL     1      -7.151  15.109  69.013  1.00  0.00    -0.140 C  
HETATM   25  O   UNL     1      -7.251  16.515  68.738  1.00  0.00    -0.172 OA 
HETATM   26  C   UNL     1      -6.510  16.898  67.565  1.00  0.00    -0.146 C  
HETATM   27  C   UNL     1      -7.172  16.271  66.348  1.00  0.00     0.149 C  
HETATM   28  H   UNL     1      -8.136  13.347  65.526  1.00  0.00     0.000 HD 
HETATM   29  C   UNL     1      -7.174  14.749  66.452  1.00  0.00     2.242 C  
HETATM   30  H   UNL     1      -6.949  16.247  64.358  1.00  0.00     0.000 HD 
HETATM   31  O   UNL     1      -6.536  16.639  65.118  1.00  0.00     2.313 OA 
HETATM   32  O   UNL     1      -8.135  14.295  65.461  1.00  0.00     2.764 OA 
HETATM   33  C   UNL     1      -7.596  14.201  67.823  1.00  0.00    -0.166 C  
BRANCH  26  34
HETATM   34  C   UNL     1      -6.523  18.428  67.450  1.00  0.00    -0.190 C  
HETATM   35  H   UNL     1      -5.482  19.928  68.171  1.00  0.00     0.000 HD 
HETATM   36  O   UNL     1      -5.474  18.981  68.242  1.00  0.00    -0.187 OA 
ENDBRANCH  26  34
BRANCH  33  37
HETATM   37  O   UNL     1      -7.109  12.862  68.091  1.00  0.00    -0.085 OA 
BRANCH  37  38
HETATM   38  C   UNL     1      -7.894  11.720  67.703  1.00  0.00    -0.138 C  
HETATM   39  O   UNL     1      -8.926  11.519  68.649  1.00  0.00    -0.170 OA 
HETATM   40  C   UNL     1      -9.726  10.347  68.527  1.00  0.00    -0.168 C  
HETATM   41  C   UNL     1      -8.926   9.057  68.312  1.00  0.00    -0.133 C  
HETATM   42  H   UNL     1      -5.795   9.866  65.977  1.00  0.00     0.000 HD 
HETATM   43  O   UNL     1      -6.315  10.638  66.168  1.00  0.00    -0.107 OA 
HETATM   44  O   UNL     1      -9.812   7.986  67.970  1.00  0.00    -0.156 OA 
HETATM   45  C   UNL     1      -7.915   9.234  67.193  1.00  0.00    -0.106 C  
HETATM   46  H   UNL     1      -6.436   8.178  66.399  1.00  0.00     0.000 HD 
HETATM   47  O   UNL     1      -7.069   8.067  67.099  1.00  0.00    -0.079 OA 
HETATM   48  H   UNL     1      -9.317   7.186  67.837  1.00  0.00     0.000 HD 
HETATM   49  C   UNL     1      -7.048  10.467  67.393  1.00  0.00    -0.090 C  
BRANCH  40  50
HETATM   50  C   UNL     1     -10.522  10.228  69.841  1.00  0.00    -0.256 C  
HETATM   51  O   UNL     1     -11.879  10.654  69.696  1.00  0.00    -0.279 OA 
HETATM   52  H   UNL     1     -12.369  10.581  70.506  1.00  0.00     0.000 HD 
ENDBRANCH  40  50
ENDBRANCH  37  38
ENDBRANCH  33  37
ENDBRANCH  23  24
ENDBRANCH  18  23
TORSDOF 6
ENDMDL
MODEL      211
REMARK 921   NORMALIZED FREE ENERGY PREDICTED BY IDOCK:   45.52 KCAL/MOL
REMARK 922        TOTAL FREE ENERGY PREDICTED BY IDOCK:   59.50 KCAL/MOL
REMARK 923 INTER-LIGAND FREE ENERGY PREDICTED BY IDOCK:   34.06 KCAL/MOL
REMARK 924 INTRA-LIGAND FREE ENERGY PREDICTED BY IDOCK:   25.44 KCAL/MOL
REMARK 927      BINDING AFFINITY PREDICTED BY RF-SCORE:    0.00 PKD
ROOT
HETATM    1  C   UNL     1      -8.340   9.241  68.087  1.00  0.00    -0.120 C  
HETATM    2  C   UNL     1      -8.364  10.406  67.021  1.00  0.00    -0.127 C  
HETATM    3  C   UNL     1      -9.309   9.979  65.900  1.00  0.00    -0.236 C  
HETATM    4  C   UNL     1      -9.239  10.955  64.742  1.00  0.00    -0.227 C  
HETATM    5  C   UNL     1      -7.911  10.918  64.025  1.00  0.00     0.402 C  
HETATM    6  C   UNL     1      -6.609  10.734  64.874  1.00  0.00     0.208 C  
HETATM    7  C   UNL     1      -6.881  10.440  66.445  1.00  0.00    -0.112 C  
HETATM    8  C   UNL     1      -5.633  11.930  64.690  1.00  0.00     3.476 C  
HETATM    9  C   UNL     1      -5.850   9.661  64.003  1.00  0.00    -0.093 C  
HETATM   10  O   UNL     1      -5.561   9.873  62.819  1.00  0.00    -0.089 OA 
HETATM   11  O   UNL     1      -5.512   8.486  64.534  1.00  0.00    -0.046 OA 
HETATM   12  C   UNL     1      -5.946  11.072  67.497  1.00  0.00    -0.046 C  
HETATM   13  C   UNL     1      -6.454  12.353  68.124  1.00  0.00    -0.072 C  
HETATM   14  C   UNL     1      -7.878  12.429  68.691  1.00  0.00    -0.049 C  
HETATM   15  C   UNL     1      -8.116  12.099  70.179  1.00  0.00     3.165 C  
HETATM   16  C   UNL     1      -9.285  13.022  70.541  1.00  0.00     6.243 C  
HETATM   17  C   UNL     1      -9.883  12.982  71.739  1.00  0.00    13.325 C  
HETATM   18  C   UNL     1      -9.536  14.058  69.418  1.00  0.00     0.492 C  
HETATM   19  C   UNL     1     -10.587  13.579  68.390  1.00  0.00    -0.258 C  
HETATM   20  C   UNL     1      -8.939  11.664  67.844  1.00  0.00    -0.170 C  
HETATM   21  C   UNL     1      -8.170  13.944  68.780  1.00  0.00    -0.028 C  
HETATM   22  C   UNL     1      -9.983  12.667  67.274  1.00  0.00    -0.212 C  
ENDROOT
BRANCH  18  23
HETATM   23  O   UNL     1      -9.810  15.314  70.035  1.00  0.00    -0.215 OA 
BRANCH  23  24
HETATM   24  C   UNL     1      -9.363  16.581  69.518  1.00  0.00     0.094 C  
HETATM   25  O   UNL     1      -9.469  17.597  70.527  1.00  0.00     2.482 OA 
HETATM   26  C   UNL     1      -8.839  18.829  70.132  1.00  0.00     1.889 C  
HETATM   27  C   UNL     1      -9.626  19.425  68.975  1.00  0.00    -0.370 C  
HETATM   28  H   UNL     1     -10.708  18.371  66.169  1.00  0.00     0.000 HD 
HETATM   29  C   UNL     1      -9.640  18.476  67.780  1.00  0.00    -0.290 C  
HETATM   30  H   UNL     1      -9.598  21.060  67.819  1.00  0.00     0.000 HD 
HETATM   31  O   UNL     1      -9.107  20.689  68.542  1.00  0.00     0.357 OA 
HETATM   32  O   UNL     1     -10.699  18.963  66.913  1.00  0.00    -0.421 OA 
HETATM   33  C   UNL     1      -9.935  17.010  68.129  1.00  0.00    -0.287 C  
BRANCH  26  34
HETATM   34  C   UNL     1      -8.841  19.790  71.328  1.00  0.00     2.793 C  
HETATM   35  H   UNL     1      -7.896  21.429  71.851  1.00  0.00     0.000 HD 
HETATM   36  O   UNL     1      -7.894  20.834  71.111  1.00  0.00     1.041 OA 
ENDBRANCH  26  34
BRANCH  33  37
HETATM   37  O   UNL     1      -9.444  16.066  67.145  1.00  0.00    -0.213 OA 
BRANCH  37  38
HETATM   38  C   UNL     1     -10.368  15.389  66.274  1.00  0.00    -0.294 C  
HETATM   39  O   UNL     1      -9.857  14.109  65.956  1.00  0.00    -0.304 OA 
HETATM   40  C   UNL     1     -10.553  13.333  64.984  1.00  0.00    -0.346 C  
HETATM   41  C   UNL     1     -10.923  14.104  63.711  1.00  0.00     0.891 C  
HETATM   42  H   UNL     1     -11.924  17.832  64.715  1.00  0.00     0.000 HD 
HETATM   43  O   UNL     1     -11.657  17.312  65.464  1.00  0.00     0.795 OA 
HETATM   44  O   UNL     1     -11.811  13.319  62.908  1.00  0.00    -0.742 OA 
HETATM   45  C   UNL     1     -11.604  15.415  64.058  1.00  0.00     0.110 C  
HETATM   46  H   UNL     1     -12.239  17.018  63.078  1.00  0.00     0.000 HD 
HETATM   47  O   UNL     1     -11.813  16.197  62.861  1.00  0.00     2.239 OA 
HETATM   48  H   UNL     1     -12.040  13.796  62.119  1.00  0.00     0.000 HD 
HETATM   49  C   UNL     1     -10.800  16.233  65.057  1.00  0.00    -0.320 C  
BRANCH  40  50
HETATM   50  C   UNL     1      -9.615  12.169  64.609  1.00  0.00     0.066 C  
HETATM   51  O   UNL     1     -10.334  10.976  64.282  1.00  0.00    -0.322 OA 
HETATM   52  H   UNL     1      -9.755  10.259  64.051  1.00  0.00     0.000 HD 
ENDBRANCH  40  50
ENDBRANCH  37  38
ENDBRANCH  33  37
ENDBRANCH  23  24
ENDBRANCH  18  23
TORSDOF 6
ENDMDL
MODEL      212
REMARK 921   NORMALIZED FREE ENERGY PREDICTED BY IDOCK:   47.02 KCAL/MOL
REMARK 922        TOTAL FREE ENERGY PREDICTED BY IDOCK:   61.53 KCAL/MOL
REMARK 923 INTER-LIGAND FREE ENERGY PREDICTED BY IDOCK:   55.97 KCAL/MOL
REMARK 924 INTRA-LIGAND FREE ENERGY PREDICTED BY IDOCK:    5.56 KCAL/MOL
REMARK 927      BINDING AFFINITY PREDICTED BY RF-SCORE:    0.00 PKD
ROOT
HETATM    1  C   UNL     1     -12.391   8.942  66.940  1.00  0.00     8.800 C  
HETATM    2  C   UNL     1     -11.310   8.670  68.060  1.00  0.00     0.837 C  
HETATM    3  C   UNL     1     -10.860   7.218  67.917  1.00  0.00    -0.184 C  
HETATM    4  C   UNL     1      -9.967   6.819  69.074  1.00  0.00    -0.161 C  
HETATM    5  C   UNL     1     -10.706   6.760  70.390  1.00  0.00    -0.281 C  
HETATM    6  C   UNL     1     -11.800   7.841  70.680  1.00  0.00    -0.142 C  
HETATM    7  C   UNL     1     -12.115   8.817  69.424  1.00  0.00     1.598 C  
HETATM    8  C   UNL     1     -11.466   8.663  71.957  1.00  0.00    -0.437 C  
HETATM    9  C   UNL     1     -12.948   6.933  71.267  1.00  0.00    -0.244 C  
HETATM   10  O   UNL     1     -12.770   6.226  72.266  1.00  0.00    -0.172 OA 
HETATM   11  O   UNL     1     -14.144   6.905  70.678  1.00  0.00     0.509 OA 
HETATM   12  C   UNL     1     -12.390  10.311  69.689  1.00  0.00     0.043 C  
HETATM   13  C   UNL     1     -11.199  11.228  69.509  1.00  0.00    -0.337 C  
HETATM   14  C   UNL     1     -10.346  11.152  68.235  1.00  0.00    -0.198 C  
HETATM   15  C   UNL     1     -10.696  12.058  67.037  1.00  0.00    -0.280 C  
HETATM   16  C   UNL     1      -9.321  12.335  66.417  1.00  0.00    -0.219 C  
HETATM   17  C   UNL     1      -9.178  13.017  65.273  1.00  0.00     0.642 C  
HETATM   18  C   UNL     1      -8.188  11.867  67.362  1.00  0.00    -0.164 C  
HETATM   19  C   UNL     1      -7.727  10.421  67.070  1.00  0.00    -0.105 C  
HETATM   20  C   UNL     1     -10.127   9.702  67.705  1.00  0.00    -0.241 C  
HETATM   21  C   UNL     1      -9.022  11.848  68.623  1.00  0.00    -0.044 C  
HETATM   22  C   UNL     1      -8.615   9.341  67.766  1.00  0.00    -0.117 C  
ENDROOT
BRANCH  18  23
HETATM   23  O   UNL     1      -7.161  12.856  67.335  1.00  0.00    -0.153 OA 
BRANCH  23  24
HETATM   24  C   UNL     1      -7.403  14.273  67.406  1.00  0.00    -0.128 C  
HETATM   25  O   UNL     1      -6.733  14.948  66.331  1.00  0.00     1.289 OA 
HETATM   26  C   UNL     1      -7.113  16.333  66.232  1.00  0.00     0.493 C  
HETATM   27  C   UNL     1      -6.596  17.065  67.460  1.00  0.00    -0.146 C  
HETATM   28  H   UNL     1      -6.743  16.622  70.612  1.00  0.00     0.000 HD 
HETATM   29  C   UNL     1      -7.196  16.482  68.735  1.00  0.00    -0.197 C  
HETATM   30  H   UNL     1      -6.556  18.927  68.196  1.00  0.00     0.000 HD 
HETATM   31  O   UNL     1      -6.879  18.470  67.429  1.00  0.00    -0.200 OA 
HETATM   32  O   UNL     1      -6.369  16.986  69.818  1.00  0.00    -0.234 OA 
HETATM   33  C   UNL     1      -7.197  14.948  68.800  1.00  0.00    -0.123 C  
BRANCH  26  34
HETATM   34  C   UNL     1      -6.494  16.924  64.959  1.00  0.00     3.916 C  
HETATM   35  H   UNL     1      -7.106  17.397  63.154  1.00  0.00     0.000 HD 
HETATM   36  O   UNL     1      -7.489  17.031  63.942  1.00  0.00     9.219 OA 
ENDBRANCH  26  34
BRANCH  33  37
HETATM   37  O   UNL     1      -8.194  14.402  69.699  1.00  0.00     0.207 OA 
BRANCH  37  38
HETATM   38  C   UNL     1      -8.931  15.277  70.573  1.00  0.00     1.326 C  
HETATM   39  O   UNL     1     -10.290  15.289  70.183  1.00  0.00    -0.266 OA 
HETATM   40  C   UNL     1     -11.164  16.210  70.831  1.00  0.00    -0.293 C  
HETATM   41  C   UNL     1     -10.613  17.637  70.931  1.00  0.00     2.041 C  
HETATM   42  H   UNL     1      -6.685  17.450  71.599  1.00  0.00     0.000 HD 
HETATM   43  O   UNL     1      -7.079  16.591  71.501  1.00  0.00     4.065 OA 
HETATM   44  O   UNL     1     -11.446  18.420  71.793  1.00  0.00     2.362 OA 
HETATM   45  C   UNL     1      -9.201  17.628  71.489  1.00  0.00     9.236 C  
HETATM   46  H   UNL     1      -7.756  18.952  71.789  1.00  0.00     0.000 HD 
HETATM   47  O   UNL     1      -8.639  18.958  71.440  1.00  0.00     5.318 OA 
HETATM   48  H   UNL     1     -11.105  19.305  71.855  1.00  0.00     0.000 HD 
HETATM   49  C   UNL     1      -8.292  16.671  70.734  1.00  0.00     4.482 C  
BRANCH  40  50
HETATM   50  C   UNL     1     -12.462  16.232  70.000  1.00  0.00     0.736 C  
HETATM   51  O   UNL     1     -13.521  16.925  70.664  1.00  0.00     3.920 OA 
HETATM   52  H   UNL     1     -14.321  16.939  70.152  1.00  0.00     0.000 HD 
ENDBRANCH  40  50
ENDBRANCH  37  38
ENDBRANCH  33  37
ENDBRANCH  23  24
ENDBRANCH  18  23
TORSDOF 6
ENDMDL
MODEL      213
REMARK 921   NORMALIZED FREE ENERGY PREDICTED BY IDOCK:   51.02 KCAL/MOL
REMARK 922        TOTAL FREE ENERGY PREDICTED BY IDOCK:   66.93 KCAL/MOL
REMARK 923 INTER-LIGAND FREE ENERGY PREDICTED BY IDOCK:    8.68 KCAL/MOL
REMARK 924 INTRA-LIGAND FREE ENERGY PREDICTED BY IDOCK:   58.25 KCAL/MOL
REMARK 927      BINDING AFFINITY PREDICTED BY RF-SCORE:    0.00 PKD
ROOT
HETATM    1  C   UNL     1      -6.303   5.080  69.133  1.00  0.00    -0.031 C  
HETATM    2  C   UNL     1      -7.126   6.153  69.949  1.00  0.00    -0.072 C  
HETATM    3  C   UNL     1      -6.552   6.189  71.364  1.00  0.00    -0.051 C  
HETATM    4  C   UNL     1      -7.410   7.053  72.267  1.00  0.00    -0.085 C  
HETATM    5  C   UNL     1      -8.772   6.455  72.526  1.00  0.00    -0.123 C  
HETATM    6  C   UNL     1      -9.499   5.718  71.353  1.00  0.00    -0.174 C  
HETATM    7  C   UNL     1      -8.596   5.551  70.016  1.00  0.00    -0.120 C  
HETATM    8  C   UNL     1     -10.869   6.378  71.024  1.00  0.00    -0.314 C  
HETATM    9  C   UNL     1     -10.021   4.432  72.104  1.00  0.00    -0.185 C  
HETATM   10  O   UNL     1     -10.768   4.513  73.086  1.00  0.00    -0.200 OA 
HETATM   11  O   UNL     1      -9.649   3.220  71.691  1.00  0.00    -0.139 OA 
HETATM   12  C   UNL     1      -9.269   5.706  68.636  1.00  0.00    -0.134 C  
HETATM   13  C   UNL     1      -9.130   7.073  68.001  1.00  0.00    -0.127 C  
HETATM   14  C   UNL     1      -7.755   7.749  67.906  1.00  0.00    -0.122 C  
HETATM   15  C   UNL     1      -6.896   7.537  66.643  1.00  0.00    -0.066 C  
HETATM   16  C   UNL     1      -6.148   8.869  66.521  1.00  0.00    -0.060 C  
HETATM   17  C   UNL     1      -5.203   9.077  65.594  1.00  0.00    -0.037 C  
HETATM   18  C   UNL     1      -6.747   9.925  67.482  1.00  0.00    -0.073 C  
HETATM   19  C   UNL     1      -6.030   9.959  68.852  1.00  0.00    -0.037 C  
HETATM   20  C   UNL     1      -6.851   7.527  69.156  1.00  0.00    -0.056 C  
HETATM   21  C   UNL     1      -8.082   9.241  67.668  1.00  0.00    -0.104 C  
HETATM   22  C   UNL     1      -6.570   8.888  69.854  1.00  0.00    -0.042 C  
ENDROOT
BRANCH  18  23
HETATM   23  O   UNL     1      -6.799  11.169  66.787  1.00  0.00    -0.116 OA 
BRANCH  23  24
HETATM   24  C   UNL     1      -7.758  12.207  67.062  1.00  0.00    -0.112 C  
HETATM   25  O   UNL     1      -8.699  12.315  65.984  1.00  0.00     0.038 OA 
HETATM   26  C   UNL     1      -9.800  13.187  66.301  1.00  0.00    -0.283 C  
HETATM   27  C   UNL     1      -9.270  14.607  66.427  1.00  0.00    -0.249 C  
HETATM   28  H   UNL     1      -6.897  16.027  68.009  1.00  0.00     0.000 HD 
HETATM   29  C   UNL     1      -8.230  14.704  67.539  1.00  0.00    -0.188 C  
HETATM   30  H   UNL     1      -9.974  16.450  66.769  1.00  0.00     0.000 HD 
HETATM   31  O   UNL     1     -10.305  15.564  66.691  1.00  0.00    -0.272 OA 
HETATM   32  O   UNL     1      -7.545  15.966  67.317  1.00  0.00    -0.163 OA 
HETATM   33  C   UNL     1      -7.185  13.580  67.540  1.00  0.00    -0.154 C  
BRANCH  26  34
HETATM   34  C   UNL     1     -10.838  13.102  65.175  1.00  0.00    -0.304 C  
HETATM   35  H   UNL     1     -11.915  11.701  64.321  1.00  0.00     0.000 HD 
HETATM   36  O   UNL     1     -11.272  11.753  65.019  1.00  0.00    -0.305 OA 
ENDBRANCH  26  34
BRANCH  33  37
HETATM   37  O   UNL     1      -6.559  13.366  68.829  1.00  0.00    -0.089 OA 
BRANCH  37  38
HETATM   38  C   UNL     1      -7.124  12.422  69.756  1.00  0.00     0.510 C  
HETATM   39  O   UNL     1      -6.654  12.709  71.059  1.00  0.00     0.643 OA 
HETATM   40  C   UNL     1      -6.981  11.797  72.104  1.00  0.00     7.415 C  
HETATM   41  C   UNL     1      -6.743  10.325  71.752  1.00  0.00     1.530 C  
HETATM   42  H   UNL     1      -7.697   9.753  67.921  1.00  0.00     0.000 HD 
HETATM   43  O   UNL     1      -7.799  10.658  68.191  1.00  0.00    -0.105 OA 
HETATM   44  O   UNL     1      -7.313   9.485  72.762  1.00  0.00     0.481 OA 
HETATM   45  C   UNL     1      -7.376   9.984  70.415  1.00  0.00    -0.080 C  
HETATM   46  H   UNL     1      -7.417   8.427  69.188  1.00  0.00     0.000 HD 
HETATM   47  O   UNL     1      -7.021   8.640  70.025  1.00  0.00    -0.041 OA 
HETATM   48  H   UNL     1      -7.165   8.572  72.544  1.00  0.00     0.000 HD 
HETATM   49  C   UNL     1      -6.958  10.952  69.319  1.00  0.00    -0.112 C  
BRANCH  40  50
HETATM   50  C   UNL     1      -6.088  12.176  73.302  1.00  0.00     3.365 C  
HETATM   51  O   UNL     1      -5.199  13.254  72.999  1.00  0.00    -0.379 OA 
HETATM   52  H   UNL     1      -4.649  13.487  73.738  1.00  0.00     0.000 HD 
ENDBRANCH  40  50
ENDBRANCH  37  38
ENDBRANCH  33  37
ENDBRANCH  23  24
ENDBRANCH  18  23
TORSDOF 6
ENDMDL
MODEL      214
REMARK 921   NORMALIZED FREE ENERGY PREDICTED BY IDOCK:   51.23 KCAL/MOL
REMARK 922        TOTAL FREE ENERGY PREDICTED BY IDOCK:   67.21 KCAL/MOL
REMARK 923 INTER-LIGAND FREE ENERGY PREDICTED BY IDOCK:   51.58 KCAL/MOL
REMARK 924 INTRA-LIGAND FREE ENERGY PREDICTED BY IDOCK:   15.63 KCAL/MOL
REMARK 927      BINDING AFFINITY PREDICTED BY RF-SCORE:    0.00 PKD
ROOT
HETATM    1  C   UNL     1     -13.101   7.088  67.284  1.00  0.00    12.847 C  
HETATM    2  C   UNL     1     -11.829   7.049  68.221  1.00  0.00     1.330 C  
HETATM    3  C   UNL     1     -10.952   5.891  67.751  1.00  0.00    -0.245 C  
HETATM    4  C   UNL     1      -9.807   5.661  68.716  1.00  0.00    -0.193 C  
HETATM    5  C   UNL     1     -10.268   5.144  70.058  1.00  0.00    -0.354 C  
HETATM    6  C   UNL     1     -11.598   5.708  70.659  1.00  0.00     0.442 C  
HETATM    7  C   UNL     1     -12.412   6.690  69.656  1.00  0.00     1.397 C  
HETATM    8  C   UNL     1     -11.358   6.390  72.036  1.00  0.00    -0.338 C  
HETATM    9  C   UNL     1     -12.274   4.374  71.159  1.00  0.00     6.507 C  
HETATM   10  O   UNL     1     -11.717   3.632  71.977  1.00  0.00     1.782 OA 
HETATM   11  O   UNL     1     -13.470   4.015  70.692  1.00  0.00    15.847 OA 
HETATM   12  C   UNL     1     -13.121   7.930  70.238  1.00  0.00     1.306 C  
HETATM   13  C   UNL     1     -12.345   9.226  70.131  1.00  0.00     0.461 C  
HETATM   14  C   UNL     1     -11.727   9.653  68.793  1.00  0.00     0.553 C  
HETATM   15  C   UNL     1     -12.540  10.548  67.837  1.00  0.00     3.601 C  
HETATM   16  C   UNL     1     -11.451  11.386  67.158  1.00  0.00    -0.268 C  
HETATM   17  C   UNL     1     -11.723  12.241  66.164  1.00  0.00    -0.440 C  
HETATM   18  C   UNL     1     -10.093  11.211  67.881  1.00  0.00    -0.176 C  
HETATM   19  C   UNL     1      -9.231  10.085  67.265  1.00  0.00    -0.159 C  
HETATM   20  C   UNL     1     -11.126   8.475  67.968  1.00  0.00     0.299 C  
HETATM   21  C   UNL     1     -10.664  10.704  69.185  1.00  0.00    -0.264 C  
HETATM   22  C   UNL     1      -9.590   8.667  67.813  1.00  0.00    -0.178 C  
ENDROOT
BRANCH  18  23
HETATM   23  O   UNL     1      -9.469  12.491  67.953  1.00  0.00    -0.183 OA 
BRANCH  23  24
HETATM   24  C   UNL     1     -10.153  13.736  67.721  1.00  0.00    -0.245 C  
HETATM   25  O   UNL     1     -10.701  14.241  68.948  1.00  0.00    -0.248 OA 
HETATM   26  C   UNL     1     -11.209  15.581  68.812  1.00  0.00    -0.315 C  
HETATM   27  C   UNL     1     -12.420  15.548  67.892  1.00  0.00     1.054 C  
HETATM   28  H   UNL     1     -13.063  14.360  65.006  1.00  0.00     0.000 HD 
HETATM   29  C   UNL     1     -12.041  15.023  66.510  1.00  0.00     0.146 C  
HETATM   30  H   UNL     1     -13.789  16.813  67.161  1.00  0.00     0.000 HD 
HETATM   31  O   UNL     1     -13.033  16.834  67.735  1.00  0.00     3.003 OA 
HETATM   32  O   UNL     1     -13.300  14.687  65.867  1.00  0.00     0.205 OA 
HETATM   33  C   UNL     1     -11.153  13.772  66.521  1.00  0.00    -0.306 C  
BRANCH  26  34
HETATM   34  C   UNL     1     -11.607  16.101  70.199  1.00  0.00    -0.243 C  
HETATM   35  H   UNL     1     -13.053  15.785  71.487  1.00  0.00     0.000 HD 
HETATM   36  O   UNL     1     -12.807  15.463  70.629  1.00  0.00    -0.432 OA 
ENDBRANCH  26  34
BRANCH  33  37
HETATM   37  O   UNL     1     -10.383  13.592  65.307  1.00  0.00    -0.310 OA 
BRANCH  37  38
HETATM   38  C   UNL     1      -8.950  13.475  65.373  1.00  0.00     1.280 C  
HETATM   39  O   UNL     1      -8.601  12.118  65.566  1.00  0.00     0.420 OA 
HETATM   40  C   UNL     1      -7.231  11.807  65.806  1.00  0.00     1.066 C  
HETATM   41  C   UNL     1      -6.559  12.697  66.857  1.00  0.00     0.368 C  
HETATM   42  H   UNL     1      -7.965  16.411  66.482  1.00  0.00     0.000 HD 
HETATM   43  O   UNL     1      -8.368  15.805  65.871  1.00  0.00     0.020 OA 
HETATM   44  O   UNL     1      -5.146  12.466  66.858  1.00  0.00    -0.322 OA 
HETATM   45  C   UNL     1      -6.817  14.163  66.562  1.00  0.00     2.663 C  
HETATM   46  H   UNL     1      -6.468  15.901  67.452  1.00  0.00     0.000 HD 
HETATM   47  O   UNL     1      -6.306  14.983  67.637  1.00  0.00    -0.159 OA 
HETATM   48  H   UNL     1      -4.728  13.017  67.510  1.00  0.00     0.000 HD 
HETATM   49  C   UNL     1      -8.296  14.457  66.366  1.00  0.00     0.543 C  
BRANCH  40  50
HETATM   50  C   UNL     1      -7.199  10.345  66.293  1.00  0.00    -0.127 C  
HETATM   51  O   UNL     1      -5.886   9.928  66.676  1.00  0.00    -0.052 OA 
HETATM   52  H   UNL     1      -5.867   9.027  66.976  1.00  0.00     0.000 HD 
ENDBRANCH  40  50
ENDBRANCH  37  38
ENDBRANCH  33  37
ENDBRANCH  23  24
ENDBRANCH  18  23
TORSDOF 6
ENDMDL
MODEL      215
REMARK 921   NORMALIZED FREE ENERGY PREDICTED BY IDOCK:   51.47 KCAL/MOL
REMARK 922        TOTAL FREE ENERGY PREDICTED BY IDOCK:   67.54 KCAL/MOL
REMARK 923 INTER-LIGAND FREE ENERGY PREDICTED BY IDOCK:   40.37 KCAL/MOL
REMARK 924 INTRA-LIGAND FREE ENERGY PREDICTED BY IDOCK:   27.16 KCAL/MOL
REMARK 927      BINDING AFFINITY PREDICTED BY RF-SCORE:    0.00 PKD
ROOT
HETATM    1  C   UNL     1      -8.664  17.582  69.070  1.00  0.00    -0.031 C  
HETATM    2  C   UNL     1      -9.715  16.577  69.685  1.00  0.00     0.078 C  
HETATM    3  C   UNL     1     -11.089  16.963  69.141  1.00  0.00    -0.041 C  
HETATM    4  C   UNL     1     -12.180  16.171  69.832  1.00  0.00     0.129 C  
HETATM    5  C   UNL     1     -12.336  16.539  71.289  1.00  0.00     0.765 C  
HETATM    6  C   UNL     1     -11.049  16.847  72.123  1.00  0.00     1.238 C  
HETATM    7  C   UNL     1      -9.686  16.886  71.245  1.00  0.00     4.875 C  
HETATM    8  C   UNL     1     -10.907  15.881  73.334  1.00  0.00     2.727 C  
HETATM    9  C   UNL     1     -11.513  18.141  72.895  1.00  0.00     2.574 C  
HETATM   10  O   UNL     1     -12.507  18.137  73.630  1.00  0.00     2.397 OA 
HETATM   11  O   UNL     1     -10.836  19.282  72.756  1.00  0.00     2.391 OA 
HETATM   12  C   UNL     1      -8.390  16.306  71.850  1.00  0.00     9.637 C  
HETATM   13  C   UNL     1      -8.067  14.885  71.439  1.00  0.00     3.602 C  
HETATM   14  C   UNL     1      -8.087  14.481  69.959  1.00  0.00     0.693 C  
HETATM   15  C   UNL     1      -6.787  14.571  69.134  1.00  0.00    -0.123 C  
HETATM   16  C   UNL     1      -6.942  13.413  68.142  1.00  0.00    -0.116 C  
HETATM   17  C   UNL     1      -6.060  13.192  67.158  1.00  0.00     0.357 C  
HETATM   18  C   UNL     1      -8.125  12.500  68.543  1.00  0.00    -0.089 C  
HETATM   19  C   UNL     1      -9.451  12.905  67.858  1.00  0.00    -0.208 C  
HETATM   20  C   UNL     1      -9.235  15.141  69.137  1.00  0.00    -0.215 C  
HETATM   21  C   UNL     1      -8.190  12.939  69.988  1.00  0.00     2.933 C  
HETATM   22  C   UNL     1     -10.207  14.046  68.612  1.00  0.00    -0.233 C  
ENDROOT
BRANCH  18  23
HETATM   23  O   UNL     1      -7.721  11.147  68.343  1.00  0.00    -0.110 OA 
BRANCH  23  24
HETATM   24  C   UNL     1      -8.548  10.006  68.637  1.00  0.00    -0.123 C  
HETATM   25  O   UNL     1      -9.249  10.203  69.874  1.00  0.00    -0.192 OA 
HETATM   26  C   UNL     1     -10.246   9.192  70.108  1.00  0.00    -0.205 C  
HETATM   27  C   UNL     1      -9.543   7.862  70.329  1.00  0.00    -0.171 C  
HETATM   28  H   UNL     1      -7.314   6.174  68.799  1.00  0.00     0.000 HD 
HETATM   29  C   UNL     1      -8.721   7.469  69.105  1.00  0.00    -0.136 C  
HETATM   30  H   UNL     1     -10.013   5.964  70.764  1.00  0.00     0.000 HD 
HETATM   31  O   UNL     1     -10.453   6.795  70.625  1.00  0.00    -0.209 OA 
HETATM   32  O   UNL     1      -7.826   6.419  69.562  1.00  0.00    -0.098 OA 
HETATM   33  C   UNL     1      -7.874   8.603  68.510  1.00  0.00    -0.108 C  
BRANCH  26  34
HETATM   34  C   UNL     1     -11.060   9.578  71.349  1.00  0.00    -0.368 C  
HETATM   35  H   UNL     1     -12.139  11.109  71.935  1.00  0.00     0.000 HD 
HETATM   36  O   UNL     1     -11.635  10.870  71.167  1.00  0.00    -0.129 OA 
ENDBRANCH  26  34
BRANCH  33  37
HETATM   37  O   UNL     1      -7.534   8.406  67.116  1.00  0.00    -0.087 OA 
BRANCH  37  38
HETATM   38  C   UNL     1      -7.805   9.444  66.156  1.00  0.00    -0.100 C  
HETATM   39  O   UNL     1      -7.083  10.608  66.510  1.00  0.00    -0.117 OA 
HETATM   40  C   UNL     1      -7.329  11.799  65.768  1.00  0.00     1.011 C  
HETATM   41  C   UNL     1      -8.814  12.120  65.565  1.00  0.00     0.455 C  
HETATM   42  H   UNL     1     -10.799   8.704  65.012  1.00  0.00     0.000 HD 
HETATM   43  O   UNL     1      -9.872   8.565  65.170  1.00  0.00     0.617 OA 
HETATM   44  O   UNL     1      -8.958  13.188  64.623  1.00  0.00     0.778 OA 
HETATM   45  C   UNL     1      -9.559  10.904  65.045  1.00  0.00    -0.251 C  
HETATM   46  H   UNL     1     -11.444  10.410  64.674  1.00  0.00     0.000 HD 
HETATM   47  O   UNL     1     -10.978  11.171  64.999  1.00  0.00    -0.218 OA 
HETATM   48  H   UNL     1      -9.878  13.387  64.497  1.00  0.00     0.000 HD 
HETATM   49  C   UNL     1      -9.309   9.669  65.898  1.00  0.00    -0.218 C  
BRANCH  40  50
HETATM   50  C   UNL     1      -6.674  12.946  66.562  1.00  0.00     1.676 C  
HETATM   51  O   UNL     1      -5.895  13.808  65.730  1.00  0.00     5.336 OA 
HETATM   52  H   UNL     1      -5.491  14.515  66.220  1.00  0.00     0.000 HD 
ENDBRANCH  40  50
ENDBRANCH  37  38
ENDBRANCH  33  37
ENDBRANCH  23  24
ENDBRANCH  18  23
TORSDOF 6
ENDMDL
MODEL      216
REMARK 921   NORMALIZED FREE ENERGY PREDICTED BY IDOCK:   53.29 KCAL/MOL
REMARK 922        TOTAL FREE ENERGY PREDICTED BY IDOCK:   69.99 KCAL/MOL
REMARK 923 INTER-LIGAND FREE ENERGY PREDICTED BY IDOCK:   68.87 KCAL/MOL
REMARK 924 INTRA-LIGAND FREE ENERGY PREDICTED BY IDOCK:    1.13 KCAL/MOL
REMARK 927      BINDING AFFINITY PREDICTED BY RF-SCORE:    0.00 PKD
ROOT
HETATM    1  C   UNL     1      -8.821  18.338  67.280  1.00  0.00    -0.255 C  
HETATM    2  C   UNL     1     -10.137  17.611  66.793  1.00  0.00    -0.334 C  
HETATM    3  C   UNL     1     -10.315  17.934  65.311  1.00  0.00     0.500 C  
HETATM    4  C   UNL     1     -11.656  17.436  64.813  1.00  0.00     1.725 C  
HETATM    5  C   UNL     1     -12.820  18.191  65.411  1.00  0.00    11.339 C  
HETATM    6  C   UNL     1     -12.738  18.620  66.914  1.00  0.00     6.653 C  
HETATM    7  C   UNL     1     -11.302  18.325  67.608  1.00  0.00     0.557 C  
HETATM    8  C   UNL     1     -13.898  18.006  67.747  1.00  0.00     9.884 C  
HETATM    9  C   UNL     1     -13.264  20.103  66.816  1.00  0.00     6.470 C  
HETATM   10  O   UNL     1     -14.381  20.366  66.357  1.00  0.00     5.655 OA 
HETATM   11  O   UNL     1     -12.494  21.113  67.223  1.00  0.00     6.150 OA 
HETATM   12  C   UNL     1     -11.265  17.838  69.071  1.00  0.00     1.098 C  
HETATM   13  C   UNL     1     -11.139  16.340  69.249  1.00  0.00    -0.325 C  
HETATM   14  C   UNL     1     -10.059  15.556  68.492  1.00  0.00    -0.211 C  
HETATM   15  C   UNL     1      -8.685  15.329  69.156  1.00  0.00    -0.238 C  
HETATM   16  C   UNL     1      -8.270  13.961  68.602  1.00  0.00    -0.088 C  
HETATM   17  C   UNL     1      -7.070  13.423  68.855  1.00  0.00    -0.084 C  
HETATM   18  C   UNL     1      -9.457  13.276  67.885  1.00  0.00    -0.214 C  
HETATM   19  C   UNL     1      -9.491  13.576  66.368  1.00  0.00    -0.236 C  
HETATM   20  C   UNL     1      -9.821  16.051  67.033  1.00  0.00    -0.240 C  
HETATM   21  C   UNL     1     -10.545  14.090  68.548  1.00  0.00    -0.260 C  
HETATM   22  C   UNL     1     -10.196  14.927  66.026  1.00  0.00    -0.317 C  
ENDROOT
BRANCH  18  23
HETATM   23  O   UNL     1      -9.441  11.893  68.235  1.00  0.00    -0.189 OA 
BRANCH  23  24
HETATM   24  C   UNL     1      -9.837  10.831  67.348  1.00  0.00    -0.177 C  
HETATM   25  O   UNL     1     -10.898  11.271  66.487  1.00  0.00    -0.271 OA 
HETATM   26  C   UNL     1     -11.186  10.323  65.442  1.00  0.00     1.244 C  
HETATM   27  C   UNL     1     -11.766   9.068  66.075  1.00  0.00     5.875 C  
HETATM   28  H   UNL     1     -10.935   7.116  68.453  1.00  0.00     0.000 HD 
HETATM   29  C   UNL     1     -10.774   8.440  67.050  1.00  0.00    -0.134 C  
HETATM   30  H   UNL     1     -12.500   7.295  65.503  1.00  0.00     0.000 HD 
HETATM   31  O   UNL     1     -12.137   8.078  65.107  1.00  0.00    11.639 OA 
HETATM   32  O   UNL     1     -11.553   7.507  67.846  1.00  0.00     0.704 OA 
HETATM   33  C   UNL     1     -10.090   9.434  67.998  1.00  0.00    -0.191 C  
BRANCH  26  34
HETATM   34  C   UNL     1     -12.197  10.948  64.473  1.00  0.00     2.368 C  
HETATM   35  H   UNL     1     -13.600  12.318  64.552  1.00  0.00     0.000 HD 
HETATM   36  O   UNL     1     -12.974  11.932  65.152  1.00  0.00     0.162 OA 
ENDBRANCH  26  34
BRANCH  33  37
HETATM   37  O   UNL     1      -8.826   8.963  68.525  1.00  0.00    -0.133 OA 
BRANCH  37  38
HETATM   38  C   UNL     1      -8.792   7.827  69.409  1.00  0.00    -0.139 C  
HETATM   39  O   UNL     1      -9.524   6.764  68.831  1.00  0.00    -0.130 OA 
HETATM   40  C   UNL     1      -9.737   5.594  69.616  1.00  0.00    -0.169 C  
HETATM   41  C   UNL     1     -10.217   5.874  71.045  1.00  0.00    -0.211 C  
HETATM   42  H   UNL     1      -8.393   9.156  72.391  1.00  0.00     0.000 HD 
HETATM   43  O   UNL     1      -8.154   8.947  71.496  1.00  0.00    -0.241 OA 
HETATM   44  O   UNL     1     -10.177   4.668  71.816  1.00  0.00    -0.193 OA 
HETATM   45  C   UNL     1      -9.336   6.913  71.712  1.00  0.00    -0.145 C  
HETATM   46  H   UNL     1      -9.332   7.927  73.417  1.00  0.00     0.000 HD 
HETATM   47  O   UNL     1      -9.884   7.276  72.999  1.00  0.00    -0.174 OA 
HETATM   48  H   UNL     1     -10.474   4.840  72.702  1.00  0.00     0.000 HD 
HETATM   49  C   UNL     1      -9.180   8.165  70.863  1.00  0.00    -0.151 C  
BRANCH  40  50
HETATM   50  C   UNL     1     -10.811   4.769  68.880  1.00  0.00     1.099 C  
HETATM   51  O   UNL     1     -10.480   3.380  68.816  1.00  0.00     1.196 OA 
HETATM   52  H   UNL     1     -11.142   2.872  68.362  1.00  0.00     0.000 HD 
ENDBRANCH  40  50
ENDBRANCH  37  38
ENDBRANCH  33  37
ENDBRANCH  23  24
ENDBRANCH  18  23
TORSDOF 6
ENDMDL
MODEL      217
REMARK 921   NORMALIZED FREE ENERGY PREDICTED BY IDOCK:   56.31 KCAL/MOL
REMARK 922        TOTAL FREE ENERGY PREDICTED BY IDOCK:   74.08 KCAL/MOL
REMARK 923 INTER-LIGAND FREE ENERGY PREDICTED BY IDOCK:   25.60 KCAL/MOL
REMARK 924 INTRA-LIGAND FREE ENERGY PREDICTED BY IDOCK:   48.49 KCAL/MOL
REMARK 927      BINDING AFFINITY PREDICTED BY RF-SCORE:    0.00 PKD
ROOT
HETATM    1  C   UNL     1     -10.359   3.268  70.019  1.00  0.00     1.391 C  
HETATM    2  C   UNL     1     -10.385   4.732  70.610  1.00  0.00    -0.184 C  
HETATM    3  C   UNL     1      -9.920   4.647  72.062  1.00  0.00    -0.251 C  
HETATM    4  C   UNL     1     -10.100   5.980  72.761  1.00  0.00    -0.201 C  
HETATM    5  C   UNL     1     -11.553   6.351  72.947  1.00  0.00    -0.035 C  
HETATM    6  C   UNL     1     -12.563   6.009  71.802  1.00  0.00     0.377 C  
HETATM    7  C   UNL     1     -11.924   5.133  70.596  1.00  0.00     3.290 C  
HETATM    8  C   UNL     1     -13.261   7.287  71.256  1.00  0.00    -0.352 C  
HETATM    9  C   UNL     1     -13.759   5.418  72.643  1.00  0.00     1.734 C  
HETATM   10  O   UNL     1     -14.320   6.078  73.526  1.00  0.00     3.062 OA 
HETATM   11  O   UNL     1     -14.181   4.173  72.421  1.00  0.00     2.829 OA 
HETATM   12  C   UNL     1     -12.354   5.433  69.145  1.00  0.00     6.989 C  
HETATM   13  C   UNL     1     -11.417   6.333  68.368  1.00  0.00     0.141 C  
HETATM   14  C   UNL     1      -9.911   6.043  68.335  1.00  0.00    -0.152 C  
HETATM   15  C   UNL     1      -9.335   5.168  67.203  1.00  0.00    -0.129 C  
HETATM   16  C   UNL     1      -7.937   5.763  67.001  1.00  0.00    -0.102 C  
HETATM   17  C   UNL     1      -7.045   5.224  66.159  1.00  0.00    -0.072 C  
HETATM   18  C   UNL     1      -7.796   7.105  67.760  1.00  0.00    -0.114 C  
HETATM   19  C   UNL     1      -7.217   6.927  69.183  1.00  0.00    -0.090 C  
HETATM   20  C   UNL     1      -9.334   5.532  69.690  1.00  0.00    -0.172 C  
HETATM   21  C   UNL     1      -9.277   7.380  67.887  1.00  0.00    -0.132 C  
HETATM   22  C   UNL     1      -8.302   6.556  70.244  1.00  0.00    -0.127 C  
ENDROOT
BRANCH  18  23
HETATM   23  O   UNL     1      -7.085   8.011  66.919  1.00  0.00    -0.078 OA 
BRANCH  23  24
HETATM   24  C   UNL     1      -7.084   9.440  67.092  1.00  0.00    -0.086 C  
HETATM   25  O   UNL     1      -6.331   9.801  68.259  1.00  0.00    -0.054 OA 
HETATM   26  C   UNL     1      -6.121  11.222  68.359  1.00  0.00    -0.045 C  
HETATM   27  C   UNL     1      -7.464  11.893  68.606  1.00  0.00    -0.118 C  
HETATM   28  H   UNL     1     -10.346  11.800  67.250  1.00  0.00     0.000 HD 
HETATM   29  C   UNL     1      -8.429  11.618  67.457  1.00  0.00    -0.150 C  
HETATM   30  H   UNL     1      -8.191  13.730  68.928  1.00  0.00     0.000 HD 
HETATM   31  O   UNL     1      -7.353  13.312  68.774  1.00  0.00    -0.103 OA 
HETATM   32  O   UNL     1      -9.744  11.971  67.965  1.00  0.00    -0.185 OA 
HETATM   33  C   UNL     1      -8.468  10.157  66.987  1.00  0.00    -0.129 C  
BRANCH  26  34
HETATM   34  C   UNL     1      -5.164  11.499  69.525  1.00  0.00    -0.053 C  
HETATM   35  H   UNL     1      -5.064  11.051  71.434  1.00  0.00     0.000 HD 
HETATM   36  O   UNL     1      -5.656  10.880  70.712  1.00  0.00    -0.110 OA 
ENDBRANCH  26  34
BRANCH  33  37
HETATM   37  O   UNL     1      -8.941   9.994  65.627  1.00  0.00    -0.156 OA 
BRANCH  37  38
HETATM   38  C   UNL     1      -9.812   8.897  65.294  1.00  0.00     0.523 C  
HETATM   39  O   UNL     1     -10.210   8.240  66.482  1.00  0.00    -0.288 OA 
HETATM   40  C   UNL     1     -10.958   7.034  66.360  1.00  0.00     0.764 C  
HETATM   41  C   UNL     1     -10.380   6.034  65.352  1.00  0.00     1.402 C  
HETATM   42  H   UNL     1      -8.897   8.055  62.249  1.00  0.00     0.000 HD 
HETATM   43  O   UNL     1      -9.246   8.626  62.923  1.00  0.00     0.384 OA 
HETATM   44  O   UNL     1     -11.314   4.972  65.131  1.00  0.00    -0.645 OA 
HETATM   45  C   UNL     1     -10.089   6.716  64.028  1.00  0.00     5.336 C  
HETATM   46  H   UNL     1      -9.227   6.230  62.309  1.00  0.00     0.000 HD 
HETATM   47  O   UNL     1      -9.410   5.803  63.138  1.00  0.00     0.638 OA 
HETATM   48  H   UNL     1     -10.957   4.352  64.506  1.00  0.00     0.000 HD 
HETATM   49  C   UNL     1      -9.244   7.969  64.201  1.00  0.00     1.516 C  
BRANCH  40  50
HETATM   50  C   UNL     1     -10.964   6.387  67.759  1.00  0.00    -0.332 C  
HETATM   51  O   UNL     1     -11.695   7.161  68.713  1.00  0.00    -0.133 OA 
HETATM   52  H   UNL     1     -11.699   6.762  69.576  1.00  0.00     0.000 HD 
ENDBRANCH  40  50
ENDBRANCH  37  38
ENDBRANCH  33  37
ENDBRANCH  23  24
ENDBRANCH  18  23
TORSDOF 6
ENDMDL
MODEL      218
REMARK 921   NORMALIZED FREE ENERGY PREDICTED BY IDOCK:   67.74 KCAL/MOL
REMARK 922        TOTAL FREE ENERGY PREDICTED BY IDOCK:   89.52 KCAL/MOL
REMARK 923 INTER-LIGAND FREE ENERGY PREDICTED BY IDOCK:   86.18 KCAL/MOL
REMARK 924 INTRA-LIGAND FREE ENERGY PREDICTED BY IDOCK:    3.33 KCAL/MOL
REMARK 927      BINDING AFFINITY PREDICTED BY RF-SCORE:    0.00 PKD
ROOT
HETATM    1  C   UNL     1      -9.411  17.750  67.041  1.00  0.00    -0.271 C  
HETATM    2  C   UNL     1      -9.531  16.825  65.766  1.00  0.00    -0.067 C  
HETATM    3  C   UNL     1      -9.042  17.634  64.567  1.00  0.00     6.473 C  
HETATM    4  C   UNL     1      -9.305  16.888  63.275  1.00  0.00    16.819 C  
HETATM    5  C   UNL     1     -10.777  16.769  62.957  1.00  0.00     9.146 C  
HETATM    6  C   UNL     1     -11.776  16.519  64.135  1.00  0.00     0.623 C  
HETATM    7  C   UNL     1     -11.094  16.580  65.605  1.00  0.00     0.089 C  
HETATM    8  C   UNL     1     -12.568  15.195  63.941  1.00  0.00     0.450 C  
HETATM    9  C   UNL     1     -12.916  17.544  63.764  1.00  0.00    11.295 C  
HETATM   10  O   UNL     1     -13.510  17.489  62.680  1.00  0.00    12.888 OA 
HETATM   11  O   UNL     1     -13.254  18.507  64.622  1.00  0.00    12.989 OA 
HETATM   12  C   UNL     1     -11.564  15.588  66.689  1.00  0.00     0.163 C  
HETATM   13  C   UNL     1     -10.702  14.353  66.848  1.00  0.00    -0.292 C  
HETATM   14  C   UNL     1      -9.180  14.481  66.991  1.00  0.00    -0.253 C  
HETATM   15  C   UNL     1      -8.560  14.584  68.400  1.00  0.00    -0.172 C  
HETATM   16  C   UNL     1      -7.210  13.881  68.222  1.00  0.00    -0.112 C  
HETATM   17  C   UNL     1      -6.294  13.833  69.199  1.00  0.00    -0.105 C  
HETATM   18  C   UNL     1      -7.152  13.138  66.865  1.00  0.00     0.595 C  
HETATM   19  C   UNL     1      -6.543  14.004  65.737  1.00  0.00     8.074 C  
HETATM   20  C   UNL     1      -8.550  15.592  66.097  1.00  0.00    -0.078 C  
HETATM   21  C   UNL     1      -8.647  13.071  66.649  1.00  0.00     0.027 C  
HETATM   22  C   UNL     1      -7.585  14.951  65.060  1.00  0.00     9.917 C  
ENDROOT
BRANCH  18  23
HETATM   23  O   UNL     1      -6.517  11.880  67.082  1.00  0.00    -0.125 OA 
BRANCH  23  24
HETATM   24  C   UNL     1      -7.112  10.793  67.815  1.00  0.00    -0.086 C  
HETATM   25  O   UNL     1      -8.395  11.180  68.328  1.00  0.00    -0.129 OA 
HETATM   26  C   UNL     1      -9.122  10.068  68.884  1.00  0.00    -0.159 C  
HETATM   27  C   UNL     1      -8.393   9.590  70.131  1.00  0.00    -0.192 C  
HETATM   28  H   UNL     1      -5.398   8.781  70.855  1.00  0.00     0.000 HD 
HETATM   29  C   UNL     1      -6.978   9.133  69.793  1.00  0.00    -0.056 C  
HETATM   30  H   UNL     1      -8.616   8.216  71.570  1.00  0.00     0.000 HD 
HETATM   31  O   UNL     1      -9.071   8.514  70.792  1.00  0.00    -0.145 OA 
HETATM   32  O   UNL     1      -6.280   9.065  71.066  1.00  0.00    -0.045 OA 
HETATM   33  C   UNL     1      -6.202  10.078  68.865  1.00  0.00    -0.044 C  
BRANCH  26  34
HETATM   34  C   UNL     1     -10.539  10.533  69.240  1.00  0.00    -0.236 C  
HETATM   35  H   UNL     1     -12.115   9.775  70.132  1.00  0.00     0.000 HD 
HETATM   36  O   UNL     1     -11.237   9.487  69.912  1.00  0.00    -0.234 OA 
ENDBRANCH  26  34
BRANCH  33  37
HETATM   37  O   UNL     1      -5.126   9.432  68.141  1.00  0.00    -0.033 OA 
BRANCH  37  38
HETATM   38  C   UNL     1      -5.282   8.080  67.673  1.00  0.00    -0.033 C  
HETATM   39  O   UNL     1      -5.689   8.098  66.319  1.00  0.00    -0.038 OA 
HETATM   40  C   UNL     1      -6.042   6.860  65.710  1.00  0.00    -0.036 C  
HETATM   41  C   UNL     1      -6.985   5.991  66.550  1.00  0.00    -0.067 C  
HETATM   42  H   UNL     1      -5.999   6.378  70.395  1.00  0.00     0.000 HD 
HETATM   43  O   UNL     1      -5.463   6.917  69.826  1.00  0.00    -0.014 OA 
HETATM   44  O   UNL     1      -7.092   4.687  65.969  1.00  0.00    -0.071 OA 
HETATM   45  C   UNL     1      -6.466   5.855  67.969  1.00  0.00    -0.043 C  
HETATM   46  H   UNL     1      -7.109   5.077  69.676  1.00  0.00     0.000 HD 
HETATM   47  O   UNL     1      -7.433   5.162  68.788  1.00  0.00    -0.065 OA 
HETATM   48  H   UNL     1      -7.677   4.148  66.489  1.00  0.00     0.000 HD 
HETATM   49  C   UNL     1      -6.153   7.204  68.598  1.00  0.00    -0.030 C  
BRANCH  40  50
HETATM   50  C   UNL     1      -6.739   7.215  64.382  1.00  0.00    -0.046 C  
HETATM   51  O   UNL     1      -7.255   8.549  64.378  1.00  0.00    -0.086 OA 
HETATM   52  H   UNL     1      -7.685   8.767  63.559  1.00  0.00     0.000 HD 
ENDBRANCH  40  50
ENDBRANCH  37  38
ENDBRANCH  33  37
ENDBRANCH  23  24
ENDBRANCH  18  23
TORSDOF 6
ENDMDL
MODEL      219
REMARK 921   NORMALIZED FREE ENERGY PREDICTED BY IDOCK:   67.74 KCAL/MOL
REMARK 922        TOTAL FREE ENERGY PREDICTED BY IDOCK:   89.52 KCAL/MOL
REMARK 923 INTER-LIGAND FREE ENERGY PREDICTED BY IDOCK:   90.32 KCAL/MOL
REMARK 924 INTRA-LIGAND FREE ENERGY PREDICTED BY IDOCK:   -0.80 KCAL/MOL
REMARK 927      BINDING AFFINITY PREDICTED BY RF-SCORE:    0.00 PKD
ROOT
HETATM    1  C   UNL     1     -13.050  14.923  62.513  1.00  0.00     5.066 C  
HETATM    2  C   UNL     1     -12.808  14.925  64.074  1.00  0.00     0.687 C  
HETATM    3  C   UNL     1     -14.176  14.846  64.747  1.00  0.00     4.549 C  
HETATM    4  C   UNL     1     -14.046  15.039  66.245  1.00  0.00     5.891 C  
HETATM    5  C   UNL     1     -13.625  16.440  66.620  1.00  0.00     7.900 C  
HETATM    6  C   UNL     1     -12.574  17.169  65.718  1.00  0.00     6.253 C  
HETATM    7  C   UNL     1     -12.183  16.358  64.370  1.00  0.00     1.038 C  
HETATM    8  C   UNL     1     -11.303  17.560  66.525  1.00  0.00     1.045 C  
HETATM    9  C   UNL     1     -13.239  18.595  65.602  1.00  0.00    14.913 C  
HETATM   10  O   UNL     1     -13.491  19.277  66.602  1.00  0.00     7.780 OA 
HETATM   11  O   UNL     1     -13.555  19.089  64.405  1.00  0.00    17.697 OA 
HETATM   12  C   UNL     1     -10.719  16.380  63.882  1.00  0.00     2.495 C  
HETATM   13  C   UNL     1      -9.885  15.184  64.291  1.00  0.00     2.472 C  
HETATM   14  C   UNL     1     -10.409  13.759  64.065  1.00  0.00     0.613 C  
HETATM   15  C   UNL     1     -10.060  13.026  62.754  1.00  0.00     3.606 C  
HETATM   16  C   UNL     1      -9.977  11.563  63.202  1.00  0.00    -0.404 C  
HETATM   17  C   UNL     1      -9.788  10.559  62.335  1.00  0.00     0.036 C  
HETATM   18  C   UNL     1      -9.980  11.461  64.747  1.00  0.00    -0.267 C  
HETATM   19  C   UNL     1     -11.401  11.274  65.329  1.00  0.00     0.021 C  
HETATM   20  C   UNL     1     -11.937  13.596  64.326  1.00  0.00    -0.488 C  
HETATM   21  C   UNL     1      -9.549  12.886  65.008  1.00  0.00     0.185 C  
HETATM   22  C   UNL     1     -12.168  12.622  65.517  1.00  0.00    -0.501 C  
ENDROOT
BRANCH  18  23
HETATM   23  O   UNL     1      -9.030  10.466  65.121  1.00  0.00    -0.170 OA 
BRANCH  23  24
HETATM   24  C   UNL     1      -9.173   9.603  66.265  1.00  0.00    -0.168 C  
HETATM   25  O   UNL     1      -9.316  10.382  67.463  1.00  0.00    -0.147 OA 
HETATM   26  C   UNL     1      -9.674   9.578  68.601  1.00  0.00    -0.155 C  
HETATM   27  C   UNL     1      -8.505   8.663  68.934  1.00  0.00    -0.129 C  
HETATM   28  H   UNL     1      -6.662   6.632  67.312  1.00  0.00     0.000 HD 
HETATM   29  C   UNL     1      -8.184   7.741  67.762  1.00  0.00    -0.126 C  
HETATM   30  H   UNL     1      -8.014   7.285  70.300  1.00  0.00     0.000 HD 
HETATM   31  O   UNL     1      -8.744   7.855  70.093  1.00  0.00    -0.133 OA 
HETATM   32  O   UNL     1      -6.862   7.207  68.042  1.00  0.00    -0.065 OA 
HETATM   33  C   UNL     1      -8.146   8.434  66.392  1.00  0.00    -0.104 C  
BRANCH  26  34
HETATM   34  C   UNL     1      -9.979  10.505  69.785  1.00  0.00    -0.045 C  
HETATM   35  H   UNL     1     -11.224  11.972  70.171  1.00  0.00     0.000 HD 
HETATM   36  O   UNL     1     -11.035  11.398  69.439  1.00  0.00    -0.240 OA 
ENDBRANCH  26  34
BRANCH  33  37
HETATM   37  O   UNL     1      -8.369   7.535  65.278  1.00  0.00    -0.136 OA 
BRANCH  37  38
HETATM   38  C   UNL     1      -9.620   6.833  65.157  1.00  0.00     1.340 C  
HETATM   39  O   UNL     1     -10.015   6.361  66.430  1.00  0.00    -0.134 OA 
HETATM   40  C   UNL     1     -11.155   5.511  66.504  1.00  0.00     0.135 C  
HETATM   41  C   UNL     1     -11.162   4.374  65.476  1.00  0.00     0.650 C  
HETATM   42  H   UNL     1      -9.614   5.730  62.058  1.00  0.00     0.000 HD 
HETATM   43  O   UNL     1      -9.612   6.387  62.745  1.00  0.00     1.557 OA 
HETATM   44  O   UNL     1     -12.439   3.728  65.473  1.00  0.00     4.035 OA 
HETATM   45  C   UNL     1     -10.880   4.910  64.084  1.00  0.00     1.191 C  
HETATM   46  H   UNL     1     -10.564   4.152  62.279  1.00  0.00     0.000 HD 
HETATM   47  O   UNL     1     -10.741   3.817  63.149  1.00  0.00    -0.226 OA 
HETATM   48  H   UNL     1     -12.443   3.023  64.836  1.00  0.00     0.000 HD 
HETATM   49  C   UNL     1      -9.624   5.767  64.042  1.00  0.00     1.534 C  
BRANCH  40  50
HETATM   50  C   UNL     1     -11.151   4.903  67.921  1.00  0.00     1.556 C  
HETATM   51  O   UNL     1     -11.176   5.904  68.942  1.00  0.00    -0.291 OA 
HETATM   52  H   UNL     1     -11.173   5.529  69.815  1.00  0.00     0.000 HD 
ENDBRANCH  40  50
ENDBRANCH  37  38
ENDBRANCH  33  37
ENDBRANCH  23  24
ENDBRANCH  18  23
TORSDOF 6
ENDMDL
MODEL      220
REMARK 921   NORMALIZED FREE ENERGY PREDICTED BY IDOCK:   71.65 KCAL/MOL
REMARK 922        TOTAL FREE ENERGY PREDICTED BY IDOCK:   94.80 KCAL/MOL
REMARK 923 INTER-LIGAND FREE ENERGY PREDICTED BY IDOCK:   87.01 KCAL/MOL
REMARK 924 INTRA-LIGAND FREE ENERGY PREDICTED BY IDOCK:    7.79 KCAL/MOL
REMARK 927      BINDING AFFINITY PREDICTED BY RF-SCORE:    0.00 PKD
ROOT
HETATM    1  C   UNL     1      -8.996   8.272  62.619  1.00  0.00     0.491 C  
HETATM    2  C   UNL     1      -9.295   7.677  64.052  1.00  0.00     2.252 C  
HETATM    3  C   UNL     1      -8.009   7.024  64.552  1.00  0.00    -0.104 C  
HETATM    4  C   UNL     1      -8.262   6.260  65.836  1.00  0.00    -0.129 C  
HETATM    5  C   UNL     1      -9.137   5.046  65.631  1.00  0.00    -0.157 C  
HETATM    6  C   UNL     1     -10.327   5.145  64.621  1.00  0.00     0.921 C  
HETATM    7  C   UNL     1     -10.369   6.534  63.784  1.00  0.00     6.719 C  
HETATM    8  C   UNL     1     -11.691   4.870  65.315  1.00  0.00     1.468 C  
HETATM    9  C   UNL     1     -10.163   3.779  63.851  1.00  0.00    -0.221 C  
HETATM   10  O   UNL     1     -10.194   2.693  64.442  1.00  0.00    -0.030 OA 
HETATM   11  O   UNL     1      -9.973   3.774  62.531  1.00  0.00    -0.127 OA 
HETATM   12  C   UNL     1     -11.735   7.186  63.485  1.00  0.00    20.235 C  
HETATM   13  C   UNL     1     -12.147   8.286  64.440  1.00  0.00    19.769 C  
HETATM   14  C   UNL     1     -11.175   9.424  64.779  1.00  0.00     5.904 C  
HETATM   15  C   UNL     1     -11.204  10.717  63.937  1.00  0.00     1.140 C  
HETATM   16  C   UNL     1     -10.823  11.790  64.963  1.00  0.00    -0.350 C  
HETATM   17  C   UNL     1     -10.632  13.071  64.620  1.00  0.00    -0.397 C  
HETATM   18  C   UNL     1     -10.855  11.213  66.399  1.00  0.00    -0.225 C  
HETATM   19  C   UNL     1      -9.480  10.674  66.857  1.00  0.00    -0.189 C  
HETATM   20  C   UNL     1      -9.692   8.969  64.925  1.00  0.00     0.529 C  
HETATM   21  C   UNL     1     -11.742  10.031  66.083  1.00  0.00     2.930 C  
HETATM   22  C   UNL     1      -9.207   9.210  66.384  1.00  0.00    -0.233 C  
ENDROOT
BRANCH  18  23
HETATM   23  O   UNL     1     -11.442  12.195  67.251  1.00  0.00    -0.309 OA 
BRANCH  23  24
HETATM   24  C   UNL     1     -10.787  13.414  67.648  1.00  0.00    -0.259 C  
HETATM   25  O   UNL     1     -10.562  14.254  66.505  1.00  0.00    -0.281 OA 
HETATM   26  C   UNL     1     -10.106  15.569  66.872  1.00  0.00    -0.262 C  
HETATM   27  C   UNL     1      -8.715  15.446  67.476  1.00  0.00    -0.175 C  
HETATM   28  H   UNL     1      -7.364  13.678  69.756  1.00  0.00     0.000 HD 
HETATM   29  C   UNL     1      -8.738  14.568  68.723  1.00  0.00    -0.147 C  
HETATM   30  H   UNL     1      -7.280  16.639  68.203  1.00  0.00     0.000 HD 
HETATM   31  O   UNL     1      -8.148  16.715  67.826  1.00  0.00    -0.172 OA 
HETATM   32  O   UNL     1      -7.350  14.225  68.979  1.00  0.00    -0.124 OA 
HETATM   33  C   UNL     1      -9.540  13.268  68.577  1.00  0.00    -0.127 C  
BRANCH  26  34
HETATM   34  C   UNL     1     -10.066  16.446  65.614  1.00  0.00    -0.286 C  
HETATM   35  H   UNL     1     -10.226  18.357  65.195  1.00  0.00     0.000 HD 
HETATM   36  O   UNL     1     -10.251  17.814  65.973  1.00  0.00    -0.463 OA 
ENDBRANCH  26  34
BRANCH  33  37
HETATM   37  O   UNL     1      -9.999  12.721  69.838  1.00  0.00     1.481 OA 
BRANCH  37  38
HETATM   38  C   UNL     1     -10.026  13.548  71.015  1.00  0.00     6.096 C  
HETATM   39  O   UNL     1     -11.361  13.685  71.460  1.00  0.00     1.251 OA 
HETATM   40  C   UNL     1     -11.621  14.589  72.530  1.00  0.00     0.489 C  
HETATM   41  C   UNL     1     -10.958  15.962  72.369  1.00  0.00     0.891 C  
HETATM   42  H   UNL     1      -7.370  15.463  70.698  1.00  0.00     0.000 HD 
HETATM   43  O   UNL     1      -7.842  14.645  70.798  1.00  0.00     1.150 OA 
HETATM   44  O   UNL     1     -11.080  16.707  73.586  1.00  0.00     1.459 OA 
HETATM   45  C   UNL     1      -9.486  15.809  72.033  1.00  0.00     5.713 C  
HETATM   46  H   UNL     1      -7.986  17.004  71.528  1.00  0.00     0.000 HD 
HETATM   47  O   UNL     1      -8.907  17.099  71.739  1.00  0.00     9.452 OA 
HETATM   48  H   UNL     1     -10.670  17.558  73.487  1.00  0.00     0.000 HD 
HETATM   49  C   UNL     1      -9.260  14.877  70.853  1.00  0.00     2.323 C  
BRANCH  40  50
HETATM   50  C   UNL     1     -13.151  14.775  72.577  1.00  0.00    -0.402 C  
HETATM   51  O   UNL     1     -13.666  15.346  71.371  1.00  0.00    -0.487 OA 
HETATM   52  H   UNL     1     -14.609  15.461  71.400  1.00  0.00     0.000 HD 
ENDBRANCH  40  50
ENDBRANCH  37  38
ENDBRANCH  33  37
ENDBRANCH  23  24
ENDBRANCH  18  23
TORSDOF 6
ENDMDL
MODEL      221
REMARK 921   NORMALIZED FREE ENERGY PREDICTED BY IDOCK:   78.25 KCAL/MOL
REMARK 922        TOTAL FREE ENERGY PREDICTED BY IDOCK:  103.71 KCAL/MOL
REMARK 923 INTER-LIGAND FREE ENERGY PREDICTED BY IDOCK:    1.35 KCAL/MOL
REMARK 924 INTRA-LIGAND FREE ENERGY PREDICTED BY IDOCK:  102.36 KCAL/MOL
REMARK 927      BINDING AFFINITY PREDICTED BY RF-SCORE:    0.00 PKD
ROOT
HETATM    1  C   UNL     1     -11.770  13.803  69.463  1.00  0.00    -0.380 C  
HETATM    2  C   UNL     1     -10.289  13.607  68.949  1.00  0.00    -0.127 C  
HETATM    3  C   UNL     1      -9.359  14.224  69.992  1.00  0.00     1.313 C  
HETATM    4  C   UNL     1      -7.931  14.251  69.485  1.00  0.00     0.316 C  
HETATM    5  C   UNL     1      -7.739  15.207  68.331  1.00  0.00    -0.118 C  
HETATM    6  C   UNL     1      -8.873  15.320  67.259  1.00  0.00    -0.212 C  
HETATM    7  C   UNL     1     -10.215  14.486  67.626  1.00  0.00    -0.225 C  
HETATM    8  C   UNL     1      -8.356  14.951  65.839  1.00  0.00     1.415 C  
HETATM    9  C   UNL     1      -8.952  16.886  67.092  1.00  0.00    -0.206 C  
HETATM   10  O   UNL     1      -7.969  17.552  66.746  1.00  0.00    -0.212 OA 
HETATM   11  O   UNL     1     -10.095  17.527  67.336  1.00  0.00    -0.301 OA 
HETATM   12  C   UNL     1     -10.977  13.763  66.497  1.00  0.00    -0.299 C  
HETATM   13  C   UNL     1     -10.660  12.290  66.345  1.00  0.00    -0.272 C  
HETATM   14  C   UNL     1     -10.685  11.361  67.566  1.00  0.00    -0.266 C  
HETATM   15  C   UNL     1     -11.988  10.615  67.921  1.00  0.00     0.588 C  
HETATM   16  C   UNL     1     -11.468   9.305  68.524  1.00  0.00     0.562 C  
HETATM   17  C   UNL     1     -12.287   8.392  69.063  1.00  0.00     3.343 C  
HETATM   18  C   UNL     1      -9.949   9.149  68.271  1.00  0.00    -0.175 C  
HETATM   19  C   UNL     1      -9.092   9.706  69.431  1.00  0.00    -0.194 C  
HETATM   20  C   UNL     1     -10.123  12.008  68.868  1.00  0.00    -0.033 C  
HETATM   21  C   UNL     1      -9.871  10.125  67.119  1.00  0.00    -0.231 C  
HETATM   22  C   UNL     1      -8.848  11.246  69.329  1.00  0.00     0.249 C  
ENDROOT
BRANCH  18  23
HETATM   23  O   UNL     1      -9.701   7.788  67.925  1.00  0.00    -0.146 OA 
BRANCH  23  24
HETATM   24  C   UNL     1      -8.520   7.333  67.239  1.00  0.00    -0.118 C  
HETATM   25  O   UNL     1      -8.880   6.559  66.085  1.00  0.00    -0.146 OA 
HETATM   26  C   UNL     1      -7.747   6.260  65.249  1.00  0.00    -0.096 C  
HETATM   27  C   UNL     1      -6.822   5.321  66.007  1.00  0.00    -0.061 C  
HETATM   28  H   UNL     1      -5.473   5.280  68.893  1.00  0.00     0.000 HD 
HETATM   29  C   UNL     1      -6.325   5.967  67.296  1.00  0.00    -0.042 C  
HETATM   30  H   UNL     1      -5.107   4.332  65.707  1.00  0.00     0.000 HD 
HETATM   31  O   UNL     1      -5.684   4.919  65.234  1.00  0.00    -0.013 OA 
HETATM   32  O   UNL     1      -5.783   4.877  68.090  1.00  0.00    -0.015 OA 
HETATM   33  C   UNL     1      -7.411   6.673  68.120  1.00  0.00    -0.095 C  
BRANCH  26  34
HETATM   34  C   UNL     1      -8.246   5.594  63.961  1.00  0.00    -0.102 C  
HETATM   35  H   UNL     1      -9.431   4.104  63.484  1.00  0.00     0.000 HD 
HETATM   36  O   UNL     1      -9.122   4.516  64.282  1.00  0.00    -0.151 OA 
ENDBRANCH  26  34
BRANCH  33  37
HETATM   37  O   UNL     1      -6.897   7.694  69.010  1.00  0.00    -0.054 OA 
BRANCH  37  38
HETATM   38  C   UNL     1      -7.804   8.583  69.686  1.00  0.00    -0.095 C  
HETATM   39  O   UNL     1      -8.229   7.986  70.896  1.00  0.00    -0.097 OA 
HETATM   40  C   UNL     1      -9.248   8.643  71.644  1.00  0.00    -0.256 C  
HETATM   41  C   UNL     1     -10.450   9.096  70.809  1.00  0.00    -0.257 C  
HETATM   42  H   UNL     1      -9.142  10.349  67.255  1.00  0.00     0.000 HD 
HETATM   43  O   UNL     1      -8.440  10.029  67.809  1.00  0.00    -0.114 OA 
HETATM   44  O   UNL     1     -11.298   9.941  71.594  1.00  0.00    -0.300 OA 
HETATM   45  C   UNL     1      -9.992   9.865  69.583  1.00  0.00    -0.231 C  
HETATM   46  H   UNL     1     -10.833  10.638  67.962  1.00  0.00     0.000 HD 
HETATM   47  O   UNL     1     -11.120  10.157  68.729  1.00  0.00    -0.231 OA 
HETATM   48  H   UNL     1     -12.044  10.222  71.077  1.00  0.00     0.000 HD 
HETATM   49  C   UNL     1      -8.944   9.103  68.786  1.00  0.00    -0.136 C  
BRANCH  40  50
HETATM   50  C   UNL     1      -9.728   7.630  72.703  1.00  0.00    -0.196 C  
HETATM   51  O   UNL     1     -11.025   7.108  72.407  1.00  0.00    -0.229 OA 
HETATM   52  H   UNL     1     -11.321   6.484  73.059  1.00  0.00     0.000 HD 
ENDBRANCH  40  50
ENDBRANCH  37  38
ENDBRANCH  33  37
ENDBRANCH  23  24
ENDBRANCH  18  23
TORSDOF 6
ENDMDL
MODEL      222
REMARK 921   NORMALIZED FREE ENERGY PREDICTED BY IDOCK:   78.45 KCAL/MOL
REMARK 922        TOTAL FREE ENERGY PREDICTED BY IDOCK:  103.98 KCAL/MOL
REMARK 923 INTER-LIGAND FREE ENERGY PREDICTED BY IDOCK:  100.25 KCAL/MOL
REMARK 924 INTRA-LIGAND FREE ENERGY PREDICTED BY IDOCK:    3.72 KCAL/MOL
REMARK 927      BINDING AFFINITY PREDICTED BY RF-SCORE:    0.00 PKD
ROOT
HETATM    1  C   UNL     1      -9.409  17.806  67.033  1.00  0.00    -0.259 C  
HETATM    2  C   UNL     1      -9.498  16.581  66.040  1.00  0.00    -0.317 C  
HETATM    3  C   UNL     1      -8.914  17.034  64.704  1.00  0.00     5.206 C  
HETATM    4  C   UNL     1      -9.138  15.980  63.638  1.00  0.00    12.816 C  
HETATM    5  C   UNL     1     -10.595  15.818  63.273  1.00  0.00     6.127 C  
HETATM    6  C   UNL     1     -11.665  15.913  64.411  1.00  0.00    -0.179 C  
HETATM    7  C   UNL     1     -11.060  16.342  65.853  1.00  0.00     0.140 C  
HETATM    8  C   UNL     1     -12.499  14.605  64.521  1.00  0.00    -0.312 C  
HETATM    9  C   UNL     1     -12.741  16.832  63.715  1.00  0.00     5.109 C  
HETATM   10  O   UNL     1     -13.278  16.508  62.649  1.00  0.00     6.153 OA 
HETATM   11  O   UNL     1     -13.085  17.995  64.268  1.00  0.00     9.991 OA 
HETATM   12  C   UNL     1     -11.625  15.683  67.127  1.00  0.00     0.117 C  
HETATM   13  C   UNL     1     -10.824  14.512  67.657  1.00  0.00    -0.275 C  
HETATM   14  C   UNL     1      -9.308  14.635  67.855  1.00  0.00    -0.198 C  
HETATM   15  C   UNL     1      -8.759  15.091  69.223  1.00  0.00    -0.161 C  
HETATM   16  C   UNL     1      -7.431  14.332  69.319  1.00  0.00    -0.022 C  
HETATM   17  C   UNL     1      -6.571  14.521  70.329  1.00  0.00    -0.098 C  
HETATM   18  C   UNL     1      -7.332  13.257  68.210  1.00  0.00    -0.113 C  
HETATM   19  C   UNL     1      -6.630  13.778  66.935  1.00  0.00     1.266 C  
HETATM   20  C   UNL     1      -8.587  15.455  66.742  1.00  0.00    -0.308 C  
HETATM   21  C   UNL     1      -8.815  13.172  67.928  1.00  0.00    -0.196 C  
HETATM   22  C   UNL     1      -7.595  14.539  65.970  1.00  0.00     3.363 C  
ENDROOT
BRANCH  18  23
HETATM   23  O   UNL     1      -6.761  12.085  68.788  1.00  0.00    -0.074 OA 
BRANCH  23  24
HETATM   24  C   UNL     1      -7.355  11.349  69.874  1.00  0.00     0.495 C  
HETATM   25  O   UNL     1      -8.535  12.019  70.343  1.00  0.00     3.328 OA 
HETATM   26  C   UNL     1      -9.281  11.221  71.280  1.00  0.00     8.421 C  
HETATM   27  C   UNL     1      -8.457  11.069  72.549  1.00  0.00    14.320 C  
HETATM   28  H   UNL     1      -5.475  10.185  73.241  1.00  0.00     0.000 HD 
HETATM   29  C   UNL     1      -7.132  10.372  72.257  1.00  0.00     3.740 C  
HETATM   30  H   UNL     1      -8.626  10.236  74.363  1.00  0.00     0.000 HD 
HETATM   31  O   UNL     1      -9.140  10.331  73.570  1.00  0.00     7.546 OA 
HETATM   32  O   UNL     1      -6.301  10.619  73.423  1.00  0.00     1.574 OA 
HETATM   33  C   UNL     1      -6.393  10.892  71.016  1.00  0.00     0.530 C  
BRANCH  26  34
HETATM   34  C   UNL     1     -10.606  11.931  71.587  1.00  0.00     7.996 C  
HETATM   35  H   UNL     1     -12.120  11.674  72.810  1.00  0.00     0.000 HD 
HETATM   36  O   UNL     1     -11.300  11.235  72.620  1.00  0.00     5.378 OA 
ENDBRANCH  26  34
BRANCH  33  37
HETATM   37  O   UNL     1      -5.463   9.938  70.448  1.00  0.00    -0.040 OA 
BRANCH  37  38
HETATM   38  C   UNL     1      -5.781   8.534  70.451  1.00  0.00    -0.027 C  
HETATM   39  O   UNL     1      -6.334   8.177  69.199  1.00  0.00    -0.038 OA 
HETATM   40  C   UNL     1      -6.853   6.859  69.048  1.00  0.00    -0.069 C  
HETATM   41  C   UNL     1      -7.763   6.405  70.194  1.00  0.00    -0.098 C  
HETATM   42  H   UNL     1      -6.324   7.851  73.622  1.00  0.00     0.000 HD 
HETATM   43  O   UNL     1      -5.813   8.123  72.869  1.00  0.00    -0.050 OA 
HETATM   44  O   UNL     1      -8.040   5.006  70.071  1.00  0.00    -0.073 OA 
HETATM   45  C   UNL     1      -7.101   6.658  71.536  1.00  0.00    -0.080 C  
HETATM   46  H   UNL     1      -7.609   6.525  73.448  1.00  0.00     0.000 HD 
HETATM   47  O   UNL     1      -8.024   6.366  72.609  1.00  0.00    -0.104 OA 
HETATM   48  H   UNL     1      -8.605   4.725  70.781  1.00  0.00     0.000 HD 
HETATM   49  C   UNL     1      -6.610   8.091  71.673  1.00  0.00    -0.053 C  
BRANCH  40  50
HETATM   50  C   UNL     1      -7.663   6.861  67.736  1.00  0.00    -0.112 C  
HETATM   51  O   UNL     1      -8.716   5.895  67.746  1.00  0.00    -0.106 OA 
HETATM   52  H   UNL     1      -9.215   5.896  66.938  1.00  0.00     0.000 HD 
ENDBRANCH  40  50
ENDBRANCH  37  38
ENDBRANCH  33  37
ENDBRANCH  23  24
ENDBRANCH  18  23
TORSDOF 6
ENDMDL
MODEL      223
REMARK 921   NORMALIZED FREE ENERGY PREDICTED BY IDOCK:   93.15 KCAL/MOL
REMARK 922        TOTAL FREE ENERGY PREDICTED BY IDOCK:  123.84 KCAL/MOL
REMARK 923 INTER-LIGAND FREE ENERGY PREDICTED BY IDOCK:  110.59 KCAL/MOL
REMARK 924 INTRA-LIGAND FREE ENERGY PREDICTED BY IDOCK:   13.24 KCAL/MOL
REMARK 927      BINDING AFFINITY PREDICTED BY RF-SCORE:    0.00 PKD
ROOT
HETATM    1  C   UNL     1      -9.452  17.830  66.964  1.00  0.00    -0.271 C  
HETATM    2  C   UNL     1      -9.817  17.004  65.669  1.00  0.00    -0.019 C  
HETATM    3  C   UNL     1      -9.020  17.598  64.509  1.00  0.00     6.679 C  
HETATM    4  C   UNL     1      -9.457  16.989  63.192  1.00  0.00    17.538 C  
HETATM    5  C   UNL     1     -10.863  17.383  62.804  1.00  0.00    13.599 C  
HETATM    6  C   UNL     1     -11.945  17.490  63.928  1.00  0.00     5.897 C  
HETATM    7  C   UNL     1     -11.359  17.312  65.430  1.00  0.00     0.767 C  
HETATM    8  C   UNL     1     -13.133  16.519  63.673  1.00  0.00     5.161 C  
HETATM    9  C   UNL     1     -12.645  18.844  63.523  1.00  0.00    17.719 C  
HETATM   10  O   UNL     1     -13.166  18.998  62.412  1.00  0.00    20.745 OA 
HETATM   11  O   UNL     1     -12.675  19.864  64.382  1.00  0.00     7.993 OA 
HETATM   12  C   UNL     1     -12.194  16.539  66.472  1.00  0.00     2.665 C  
HETATM   13  C   UNL     1     -11.818  15.083  66.649  1.00  0.00    -0.071 C  
HETATM   14  C   UNL     1     -10.353  14.681  66.865  1.00  0.00    -0.264 C  
HETATM   15  C   UNL     1      -9.807  14.563  68.303  1.00  0.00    -0.229 C  
HETATM   16  C   UNL     1      -8.772  13.439  68.175  1.00  0.00    -0.179 C  
HETATM   17  C   UNL     1      -7.979  13.079  69.193  1.00  0.00     0.441 C  
HETATM   18  C   UNL     1      -8.904  12.724  66.809  1.00  0.00    -0.159 C  
HETATM   19  C   UNL     1      -7.980  13.329  65.728  1.00  0.00     2.927 C  
HETATM   20  C   UNL     1      -9.336  15.509  66.022  1.00  0.00    -0.379 C  
HETATM   21  C   UNL     1     -10.319  13.174  66.522  1.00  0.00    -0.284 C  
HETATM   22  C   UNL     1      -8.598  14.577  65.020  1.00  0.00     4.217 C  
ENDROOT
BRANCH  18  23
HETATM   23  O   UNL     1      -8.752  11.324  67.032  1.00  0.00    -0.144 OA 
BRANCH  23  24
HETATM   24  C   UNL     1      -8.215  10.753  68.240  1.00  0.00    -0.124 C  
HETATM   25  O   UNL     1      -7.620  11.776  69.053  1.00  0.00    -0.089 OA 
HETATM   26  C   UNL     1      -7.259  11.296  70.361  1.00  0.00     1.285 C  
HETATM   27  C   UNL     1      -6.131  10.288  70.212  1.00  0.00    -0.098 C  
HETATM   28  H   UNL     1      -5.612   7.685  68.449  1.00  0.00     0.000 HD 
HETATM   29  C   UNL     1      -6.568   9.103  69.358  1.00  0.00    -0.044 C  
HETATM   30  H   UNL     1      -4.957   9.160  71.378  1.00  0.00     0.000 HD 
HETATM   31  O   UNL     1      -5.661   9.789  71.472  1.00  0.00    -0.116 OA 
HETATM   32  O   UNL     1      -5.339   8.424  68.981  1.00  0.00    -0.033 OA 
HETATM   33  C   UNL     1      -7.325   9.480  68.077  1.00  0.00    -0.082 C  
BRANCH  26  34
HETATM   34  C   UNL     1      -6.802  12.486  71.215  1.00  0.00     3.851 C  
HETATM   35  H   UNL     1      -6.023  12.756  72.996  1.00  0.00     0.000 HD 
HETATM   36  O   UNL     1      -6.306  12.020  72.468  1.00  0.00     2.687 OA 
ENDBRANCH  26  34
BRANCH  33  37
HETATM   37  O   UNL     1      -8.170   8.421  67.565  1.00  0.00    -0.122 OA 
BRANCH  37  38
HETATM   38  C   UNL     1      -8.820   7.514  68.475  1.00  0.00    -0.126 C  
HETATM   39  O   UNL     1     -10.146   7.952  68.702  1.00  0.00    -0.186 OA 
HETATM   40  C   UNL     1     -10.914   7.272  69.691  1.00  0.00    -0.186 C  
HETATM   41  C   UNL     1     -10.178   7.051  71.018  1.00  0.00    -0.196 C  
HETATM   42  H   UNL     1      -6.347   6.256  70.241  1.00  0.00     0.000 HD 
HETATM   43  O   UNL     1      -6.850   6.430  69.454  1.00  0.00    -0.060 OA 
HETATM   44  O   UNL     1     -10.935   6.168  71.852  1.00  0.00    -0.241 OA 
HETATM   45  C   UNL     1      -8.808   6.445  70.776  1.00  0.00    -0.144 C  
HETATM   46  H   UNL     1      -7.210   6.000  71.863  1.00  0.00     0.000 HD 
HETATM   47  O   UNL     1      -8.068   6.379  72.015  1.00  0.00    -0.108 OA 
HETATM   48  H   UNL     1     -10.479   6.030  72.675  1.00  0.00     0.000 HD 
HETATM   49  C   UNL     1      -8.004   7.233  69.753  1.00  0.00    -0.123 C  
BRANCH  40  50
HETATM   50  C   UNL     1     -12.157   8.146  69.948  1.00  0.00     0.912 C  
HETATM   51  O   UNL     1     -12.672   7.983  71.272  1.00  0.00    -0.415 OA 
HETATM   52  H   UNL     1     -13.439   8.522  71.430  1.00  0.00     0.000 HD 
ENDBRANCH  40  50
ENDBRANCH  37  38
ENDBRANCH  33  37
ENDBRANCH  23  24
ENDBRANCH  18  23
TORSDOF 6
ENDMDL
MODEL      224
REMARK 921   NORMALIZED FREE ENERGY PREDICTED BY IDOCK:   96.77 KCAL/MOL
REMARK 922        TOTAL FREE ENERGY PREDICTED BY IDOCK:  128.73 KCAL/MOL
REMARK 923 INTER-LIGAND FREE ENERGY PREDICTED BY IDOCK:  125.15 KCAL/MOL
REMARK 924 INTRA-LIGAND FREE ENERGY PREDICTED BY IDOCK:    3.58 KCAL/MOL
REMARK 927      BINDING AFFINITY PREDICTED BY RF-SCORE:    0.00 PKD
ROOT
HETATM    1  C   UNL     1      -8.852   3.851  70.127  1.00  0.00    -0.138 C  
HETATM    2  C   UNL     1      -9.654   4.910  70.982  1.00  0.00    -0.238 C  
HETATM    3  C   UNL     1      -9.264   4.705  72.444  1.00  0.00    -0.149 C  
HETATM    4  C   UNL     1     -10.134   5.551  73.352  1.00  0.00    -0.202 C  
HETATM    5  C   UNL     1     -11.574   5.096  73.374  1.00  0.00    -0.084 C  
HETATM    6  C   UNL     1     -12.220   4.599  72.038  1.00  0.00     2.210 C  
HETATM    7  C   UNL     1     -11.176   4.487  70.801  1.00  0.00     2.024 C  
HETATM    8  C   UNL     1     -13.458   5.455  71.649  1.00  0.00     3.185 C  
HETATM    9  C   UNL     1     -12.965   3.305  72.546  1.00  0.00     3.542 C  
HETATM   10  O   UNL     1     -13.818   3.357  73.440  1.00  0.00     1.347 OA 
HETATM   11  O   UNL     1     -12.674   2.116  72.019  1.00  0.00     3.449 OA 
HETATM   12  C   UNL     1     -11.647   4.887  69.388  1.00  0.00     4.376 C  
HETATM   13  C   UNL     1     -11.285   6.294  68.962  1.00  0.00    -0.415 C  
HETATM   14  C   UNL     1      -9.846   6.805  69.113  1.00  0.00    -0.161 C  
HETATM   15  C   UNL     1      -8.860   6.644  67.938  1.00  0.00    -0.115 C  
HETATM   16  C   UNL     1      -7.966   7.881  68.082  1.00  0.00    -0.125 C  
HETATM   17  C   UNL     1      -6.895   8.082  67.304  1.00  0.00    -0.074 C  
HETATM   18  C   UNL     1      -8.568   8.877  69.102  1.00  0.00    -0.134 C  
HETATM   19  C   UNL     1      -8.031   8.659  70.536  1.00  0.00    -0.107 C  
HETATM   20  C   UNL     1      -9.137   6.325  70.416  1.00  0.00    -0.157 C  
HETATM   21  C   UNL     1      -9.980   8.343  69.043  1.00  0.00    -0.194 C  
HETATM   22  C   UNL     1      -8.805   7.549  71.318  1.00  0.00    -0.137 C  
ENDROOT
BRANCH  18  23
HETATM   23  O   UNL     1      -8.399  10.193  68.579  1.00  0.00    -0.108 OA 
BRANCH  23  24
HETATM   24  C   UNL     1      -8.145  11.356  69.389  1.00  0.00     0.326 C  
HETATM   25  O   UNL     1      -8.574  11.127  70.740  1.00  0.00     2.801 OA 
HETATM   26  C   UNL     1      -8.152  12.173  71.634  1.00  0.00    13.264 C  
HETATM   27  C   UNL     1      -8.885  13.452  71.262  1.00  0.00    10.732 C  
HETATM   28  H   UNL     1      -9.374  15.108  68.584  1.00  0.00     0.000 HD 
HETATM   29  C   UNL     1      -8.561  13.870  69.831  1.00  0.00     1.704 C  
HETATM   30  H   UNL     1      -9.029  15.345  71.902  1.00  0.00     0.000 HD 
HETATM   31  O   UNL     1      -8.571  14.546  72.134  1.00  0.00     4.651 OA 
HETATM   32  O   UNL     1      -9.576  14.848  69.476  1.00  0.00    -0.133 OA 
HETATM   33  C   UNL     1      -8.607  12.729  68.805  1.00  0.00     0.175 C  
BRANCH  26  34
HETATM   34  C   UNL     1      -8.494  11.761  73.072  1.00  0.00    22.572 C  
HETATM   35  H   UNL     1      -9.939  12.102  74.355  1.00  0.00     0.000 HD 
HETATM   36  O   UNL     1      -9.728  12.357  73.465  1.00  0.00    19.160 OA 
ENDBRANCH  26  34
BRANCH  33  37
HETATM   37  O   UNL     1      -7.820  12.983  67.615  1.00  0.00    -0.140 OA 
BRANCH  37  38
HETATM   38  C   UNL     1      -7.498  14.335  67.240  1.00  0.00    -0.055 C  
HETATM   39  O   UNL     1      -8.453  15.216  67.799  1.00  0.00    -0.141 OA 
HETATM   40  C   UNL     1      -8.398  16.589  67.424  1.00  0.00    -0.170 C  
HETATM   41  C   UNL     1      -8.257  16.824  65.916  1.00  0.00     0.074 C  
HETATM   42  H   UNL     1      -5.882  14.004  64.394  1.00  0.00     0.000 HD 
HETATM   43  O   UNL     1      -6.028  13.893  65.326  1.00  0.00    10.195 OA 
HETATM   44  O   UNL     1      -7.977  18.205  65.663  1.00  0.00    -0.502 OA 
HETATM   45  C   UNL     1      -7.131  15.982  65.345  1.00  0.00     5.141 C  
HETATM   46  H   UNL     1      -6.400  15.572  63.547  1.00  0.00     0.000 HD 
HETATM   47  O   UNL     1      -7.105  16.099  63.905  1.00  0.00    12.212 OA 
HETATM   48  H   UNL     1      -7.890  18.352  64.728  1.00  0.00     0.000 HD 
HETATM   49  C   UNL     1      -7.260  14.516  65.726  1.00  0.00     6.287 C  
BRANCH  40  50
HETATM   50  C   UNL     1      -9.716  17.223  67.909  1.00  0.00    -0.273 C  
HETATM   51  O   UNL     1      -9.499  18.399  68.691  1.00  0.00    -0.328 OA 
HETATM   52  H   UNL     1     -10.312  18.790  68.990  1.00  0.00     0.000 HD 
ENDBRANCH  40  50
ENDBRANCH  37  38
ENDBRANCH  33  37
ENDBRANCH  23  24
ENDBRANCH  18  23
TORSDOF 6
ENDMDL
MODEL      225
REMARK 921   NORMALIZED FREE ENERGY PREDICTED BY IDOCK:  123.92 KCAL/MOL
REMARK 922        TOTAL FREE ENERGY PREDICTED BY IDOCK:  165.41 KCAL/MOL
REMARK 923 INTER-LIGAND FREE ENERGY PREDICTED BY IDOCK:   21.66 KCAL/MOL
REMARK 924 INTRA-LIGAND FREE ENERGY PREDICTED BY IDOCK:  143.74 KCAL/MOL
REMARK 927      BINDING AFFINITY PREDICTED BY RF-SCORE:    0.00 PKD
ROOT
HETATM    1  C   UNL     1      -7.414   6.710  65.600  1.00  0.00    -0.082 C  
HETATM    2  C   UNL     1      -8.773   6.484  66.373  1.00  0.00    -0.142 C  
HETATM    3  C   UNL     1      -8.648   5.171  67.142  1.00  0.00    -0.105 C  
HETATM    4  C   UNL     1      -9.978   4.781  67.755  1.00  0.00    -0.169 C  
HETATM    5  C   UNL     1     -11.013   4.408  66.720  1.00  0.00     1.466 C  
HETATM    6  C   UNL     1     -11.060   5.223  65.385  1.00  0.00     0.760 C  
HETATM    7  C   UNL     1      -9.852   6.292  65.220  1.00  0.00     1.131 C  
HETATM    8  C   UNL     1     -12.443   5.906  65.182  1.00  0.00     6.315 C  
HETATM    9  C   UNL     1     -11.210   4.051  64.341  1.00  0.00     0.317 C  
HETATM   10  O   UNL     1     -12.156   3.255  64.390  1.00  0.00     2.372 OA 
HETATM   11  O   UNL     1     -10.299   3.890  63.381  1.00  0.00    -0.197 OA 
HETATM   12  C   UNL     1     -10.148   7.660  64.572  1.00  0.00     4.887 C  
HETATM   13  C   UNL     1     -10.398   8.793  65.546  1.00  0.00     1.410 C  
HETATM   14  C   UNL     1      -9.426   9.049  66.705  1.00  0.00    -0.238 C  
HETATM   15  C   UNL     1      -8.257  10.036  66.506  1.00  0.00    -0.119 C  
HETATM   16  C   UNL     1      -8.089  10.639  67.905  1.00  0.00    -0.111 C  
HETATM   17  C   UNL     1      -7.097  11.488  68.203  1.00  0.00    -0.076 C  
HETATM   18  C   UNL     1      -9.281  10.256  68.815  1.00  0.00    -0.166 C  
HETATM   19  C   UNL     1      -9.017   8.971  69.634  1.00  0.00    -0.153 C  
HETATM   20  C   UNL     1      -8.865   7.751  67.361  1.00  0.00    -0.128 C  
HETATM   21  C   UNL     1     -10.239   9.911  67.698  1.00  0.00    -0.255 C  
HETATM   22  C   UNL     1      -9.333   7.663  68.842  1.00  0.00    -0.145 C  
ENDROOT
BRANCH  18  23
HETATM   23  O   UNL     1      -9.636  11.407  69.579  1.00  0.00     0.270 OA 
BRANCH  23  24
HETATM   24  C   UNL     1     -10.983  11.892  69.728  1.00  0.00     0.161 C  
HETATM   25  O   UNL     1     -11.128  13.169  69.090  1.00  0.00    -0.245 OA 
HETATM   26  C   UNL     1     -12.500  13.599  69.026  1.00  0.00     0.178 C  
HETATM   27  C   UNL     1     -12.987  13.874  70.440  1.00  0.00    -0.027 C  
HETATM   28  H   UNL     1     -12.975  12.295  73.207  1.00  0.00     0.000 HD 
HETATM   29  C   UNL     1     -12.905  12.617  71.300  1.00  0.00    -0.250 C  
HETATM   30  H   UNL     1     -14.638  14.534  71.362  1.00  0.00     0.000 HD 
HETATM   31  O   UNL     1     -14.334  14.362  70.479  1.00  0.00     0.648 OA 
HETATM   32  O   UNL     1     -13.026  13.078  72.672  1.00  0.00    -0.250 OA 
HETATM   33  C   UNL     1     -11.592  11.833  71.166  1.00  0.00     1.209 C  
BRANCH  26  34
HETATM   34  C   UNL     1     -12.579  14.874  68.177  1.00  0.00     0.714 C  
HETATM   35  H   UNL     1     -13.878  15.710  66.965  1.00  0.00     0.000 HD 
HETATM   36  O   UNL     1     -13.829  14.921  67.491  1.00  0.00     5.269 OA 
ENDBRANCH  26  34
BRANCH  33  37
HETATM   37  O   UNL     1     -11.706  10.436  71.533  1.00  0.00    -0.261 OA 
BRANCH  37  38
HETATM   38  C   UNL     1     -10.896   9.448  70.870  1.00  0.00    -0.322 C  
HETATM   39  O   UNL     1     -10.315  10.020  69.715  1.00  0.00    -0.224 OA 
HETATM   40  C   UNL     1      -9.592   9.163  68.835  1.00  0.00    -0.152 C  
HETATM   41  C   UNL     1     -10.319   7.858  68.490  1.00  0.00    -0.200 C  
HETATM   42  H   UNL     1     -12.277   6.587  71.724  1.00  0.00     0.000 HD 
HETATM   43  O   UNL     1     -11.827   7.411  71.871  1.00  0.00    -0.280 OA 
HETATM   44  O   UNL     1      -9.429   6.973  67.802  1.00  0.00    -0.125 OA 
HETATM   45  C   UNL     1     -10.817   7.173  69.749  1.00  0.00    -0.240 C  
HETATM   46  H   UNL     1     -11.937   5.597  70.193  1.00  0.00     0.000 HD 
HETATM   47  O   UNL     1     -11.625   6.026  69.405  1.00  0.00    -0.275 OA 
HETATM   48  H   UNL     1      -9.879   6.164  67.587  1.00  0.00     0.000 HD 
HETATM   49  C   UNL     1     -11.626   8.110  70.631  1.00  0.00    -0.194 C  
BRANCH  40  50
HETATM   50  C   UNL     1      -9.365   9.967  67.540  1.00  0.00    -0.140 C  
HETATM   51  O   UNL     1      -9.841  11.311  67.643  1.00  0.00    -0.172 OA 
HETATM   52  H   UNL     1      -9.700  11.806  66.844  1.00  0.00     0.000 HD 
ENDBRANCH  40  50
ENDBRANCH  37  38
ENDBRANCH  33  37
ENDBRANCH  23  24
ENDBRANCH  18  23
TORSDOF 6
ENDMDL
