MODEL        1
REMARK 921   NORMALIZED FREE ENERGY PREDICTED BY IDOCK:   -6.12 KCAL/MOL
REMARK 922        TOTAL FREE ENERGY PREDICTED BY IDOCK:   -7.58 KCAL/MOL
REMARK 923 INTER-LIGAND FREE ENERGY PREDICTED BY IDOCK:   -7.19 KCAL/MOL
REMARK 924 INTRA-LIGAND FREE ENERGY PREDICTED BY IDOCK:   -0.38 KCAL/MOL
REMARK 927      BINDING AFFINITY PREDICTED BY RF-SCORE:    0.00 PKD
ROOT
HETATM    1  C   UNL     1     -14.392  15.221  71.596  1.00  0.00    -0.666 C  
HETATM    2  C   UNL     1     -13.076  14.544  72.038  1.00  0.00    -0.425 C  
HETATM    3  C   UNL     1     -13.230  13.022  71.851  1.00  0.00    -0.527 C  
HETATM    4  C   UNL     1     -12.874  14.845  73.537  1.00  0.00    -0.594 C  
ENDROOT
BRANCH   2   5
HETATM    5  C   UNL     1     -11.902  15.083  71.160  1.00  0.00    -0.333 C  
HETATM    6  O   UNL     1     -10.698  15.148  71.922  1.00  0.00    -0.360 OA 
HETATM    7  H   UNL     1      -9.984  15.475  71.388  1.00  0.00     0.000 HD 
BRANCH   5   8
HETATM    8  C   UNL     1     -11.612  14.271  69.924  1.00  0.00    -0.337 C  
HETATM    9  C   UNL     1     -12.227  14.447  68.742  1.00  0.00    -0.200 C  
BRANCH   9  10
HETATM   10  C   UNL     1     -11.953  13.638  67.544  1.00  0.00    -0.393 A  
HETATM   11  C   UNL     1     -12.533  14.015  66.323  1.00  0.00    -0.439 A  
HETATM   12  C   UNL     1     -12.285  13.233  65.213  1.00  0.00    -0.448 A  
HETATM   13  C   UNL     1     -11.505  12.103  65.279  1.00  0.00    -0.336 A  
HETATM   14  C   UNL     1     -10.935  11.687  66.461  1.00  0.00    -0.349 A  
HETATM   15  O   UNL     1     -11.387  11.480  64.077  1.00  0.00    -0.368 OA 
HETATM   16  C   UNL     1     -11.172  12.460  67.603  1.00  0.00    -0.340 A  
HETATM   17  C   UNL     1     -12.184  12.348  63.244  1.00  0.00    -0.418 C  
HETATM   18  O   UNL     1     -12.760  13.461  63.958  1.00  0.00    -0.657 OA 
ENDBRANCH   9  10
ENDBRANCH   5   8
ENDBRANCH   2   5
TORSDOF 3
ENDMDL
MODEL        2
REMARK 921   NORMALIZED FREE ENERGY PREDICTED BY IDOCK:   -6.07 KCAL/MOL
REMARK 922        TOTAL FREE ENERGY PREDICTED BY IDOCK:   -7.52 KCAL/MOL
REMARK 923 INTER-LIGAND FREE ENERGY PREDICTED BY IDOCK:   -7.13 KCAL/MOL
REMARK 924 INTRA-LIGAND FREE ENERGY PREDICTED BY IDOCK:   -0.39 KCAL/MOL
REMARK 927      BINDING AFFINITY PREDICTED BY RF-SCORE:    0.00 PKD
ROOT
HETATM    1  C   UNL     1     -10.256  11.840  63.499  1.00  0.00    -0.483 C  
HETATM    2  C   UNL     1     -11.006  12.459  64.698  1.00  0.00    -0.344 C  
HETATM    3  C   UNL     1     -12.515  12.432  64.390  1.00  0.00    -0.520 C  
HETATM    4  C   UNL     1     -10.550  13.927  64.828  1.00  0.00    -0.444 C  
ENDROOT
BRANCH   2   5
HETATM    5  C   UNL     1     -10.698  11.625  65.982  1.00  0.00    -0.280 C  
HETATM    6  O   UNL     1      -9.324  11.754  66.343  1.00  0.00    -0.209 OA 
HETATM    7  H   UNL     1      -9.136  11.247  67.124  1.00  0.00     0.000 HD 
BRANCH   5   8
HETATM    8  C   UNL     1     -11.519  11.997  67.189  1.00  0.00    -0.401 C  
HETATM    9  C   UNL     1     -11.007  12.491  68.330  1.00  0.00    -0.270 C  
BRANCH   9  10
HETATM   10  C   UNL     1     -11.813  12.834  69.512  1.00  0.00    -0.379 A  
HETATM   11  C   UNL     1     -12.180  14.172  69.718  1.00  0.00    -0.397 A  
HETATM   12  C   UNL     1     -12.916  14.481  70.844  1.00  0.00    -0.361 A  
HETATM   13  C   UNL     1     -13.281  13.524  71.760  1.00  0.00    -0.404 A  
HETATM   14  C   UNL     1     -12.924  12.203  71.605  1.00  0.00    -0.427 A  
HETATM   15  O   UNL     1     -14.002  14.036  72.791  1.00  0.00    -0.669 OA 
HETATM   16  C   UNL     1     -12.175  11.862  70.473  1.00  0.00    -0.426 A  
HETATM   17  C   UNL     1     -14.049  15.430  72.421  1.00  0.00    -0.549 C  
HETATM   18  O   UNL     1     -13.359  15.721  71.188  1.00  0.00    -0.564 OA 
ENDBRANCH   9  10
ENDBRANCH   5   8
ENDBRANCH   2   5
TORSDOF 3
ENDMDL
MODEL        3
REMARK 921   NORMALIZED FREE ENERGY PREDICTED BY IDOCK:   -6.06 KCAL/MOL
REMARK 922        TOTAL FREE ENERGY PREDICTED BY IDOCK:   -7.51 KCAL/MOL
REMARK 923 INTER-LIGAND FREE ENERGY PREDICTED BY IDOCK:   -7.17 KCAL/MOL
REMARK 924 INTRA-LIGAND FREE ENERGY PREDICTED BY IDOCK:   -0.33 KCAL/MOL
REMARK 927      BINDING AFFINITY PREDICTED BY RF-SCORE:    0.00 PKD
ROOT
HETATM    1  C   UNL     1     -10.319  12.669  63.936  1.00  0.00    -0.405 C  
HETATM    2  C   UNL     1     -11.734  12.826  64.533  1.00  0.00    -0.420 C  
HETATM    3  C   UNL     1     -12.728  12.079  63.622  1.00  0.00    -0.550 C  
HETATM    4  C   UNL     1     -12.083  14.328  64.526  1.00  0.00    -0.499 C  
ENDROOT
BRANCH   2   5
HETATM    5  C   UNL     1     -11.755  12.217  65.972  1.00  0.00    -0.388 C  
HETATM    6  O   UNL     1     -10.635  11.355  66.165  1.00  0.00    -0.251 OA 
HETATM    7  H   UNL     1     -10.647  10.985  67.039  1.00  0.00     0.000 HD 
BRANCH   5   8
HETATM    8  C   UNL     1     -11.742  13.231  67.087  1.00  0.00    -0.425 C  
HETATM    9  C   UNL     1     -11.688  12.917  68.393  1.00  0.00    -0.382 C  
BRANCH   9  10
HETATM   10  C   UNL     1     -11.696  13.910  69.478  1.00  0.00    -0.369 A  
HETATM   11  C   UNL     1     -12.409  13.626  70.653  1.00  0.00    -0.440 A  
HETATM   12  C   UNL     1     -12.425  14.578  71.653  1.00  0.00    -0.352 A  
HETATM   13  C   UNL     1     -11.779  15.783  71.520  1.00  0.00    -0.453 A  
HETATM   14  C   UNL     1     -11.086  16.109  70.377  1.00  0.00    -0.362 A  
HETATM   15  O   UNL     1     -11.919  16.573  72.617  1.00  0.00    -0.533 OA 
HETATM   16  C   UNL     1     -11.055  15.164  69.345  1.00  0.00    -0.283 A  
HETATM   17  C   UNL     1     -12.729  15.726  73.458  1.00  0.00    -0.575 C  
HETATM   18  O   UNL     1     -13.058  14.459  72.852  1.00  0.00    -0.487 OA 
ENDBRANCH   9  10
ENDBRANCH   5   8
ENDBRANCH   2   5
TORSDOF 3
ENDMDL
MODEL        4
REMARK 921   NORMALIZED FREE ENERGY PREDICTED BY IDOCK:   -6.02 KCAL/MOL
REMARK 922        TOTAL FREE ENERGY PREDICTED BY IDOCK:   -7.46 KCAL/MOL
REMARK 923 INTER-LIGAND FREE ENERGY PREDICTED BY IDOCK:   -7.09 KCAL/MOL
REMARK 924 INTRA-LIGAND FREE ENERGY PREDICTED BY IDOCK:   -0.38 KCAL/MOL
REMARK 927      BINDING AFFINITY PREDICTED BY RF-SCORE:    0.00 PKD
ROOT
HETATM    1  C   UNL     1     -14.409  14.741  72.008  1.00  0.00    -0.642 C  
HETATM    2  C   UNL     1     -12.884  14.796  71.777  1.00  0.00    -0.396 C  
HETATM    3  C   UNL     1     -12.398  13.378  71.420  1.00  0.00    -0.214 C  
HETATM    4  C   UNL     1     -12.223  15.231  73.100  1.00  0.00    -0.549 C  
ENDROOT
BRANCH   2   5
HETATM    5  C   UNL     1     -12.578  15.785  70.607  1.00  0.00    -0.326 C  
HETATM    6  O   UNL     1     -11.352  16.475  70.844  1.00  0.00    -0.522 OA 
HETATM    7  H   UNL     1     -11.165  17.076  70.133  1.00  0.00     0.000 HD 
BRANCH   5   8
HETATM    8  C   UNL     1     -12.479  15.144  69.246  1.00  0.00    -0.014 C  
HETATM    9  C   UNL     1     -11.412  15.250  68.436  1.00  0.00    -0.358 C  
BRANCH   9  10
HETATM   10  C   UNL     1     -11.330  14.638  67.101  1.00  0.00    -0.365 A  
HETATM   11  C   UNL     1     -12.399  13.852  66.648  1.00  0.00    -0.411 A  
HETATM   12  C   UNL     1     -12.298  13.265  65.402  1.00  0.00    -0.479 A  
HETATM   13  C   UNL     1     -11.184  13.423  64.613  1.00  0.00    -0.359 A  
HETATM   14  C   UNL     1     -10.105  14.170  65.029  1.00  0.00    -0.326 A  
HETATM   15  O   UNL     1     -11.287  12.767  63.428  1.00  0.00    -0.472 OA 
HETATM   16  C   UNL     1     -10.179  14.773  66.289  1.00  0.00    -0.309 A  
HETATM   17  C   UNL     1     -12.595  12.175  63.561  1.00  0.00    -0.506 C  
HETATM   18  O   UNL     1     -13.242  12.484  64.812  1.00  0.00    -0.839 OA 
ENDBRANCH   9  10
ENDBRANCH   5   8
ENDBRANCH   2   5
TORSDOF 3
ENDMDL
MODEL        5
REMARK 921   NORMALIZED FREE ENERGY PREDICTED BY IDOCK:   -5.99 KCAL/MOL
REMARK 922        TOTAL FREE ENERGY PREDICTED BY IDOCK:   -7.42 KCAL/MOL
REMARK 923 INTER-LIGAND FREE ENERGY PREDICTED BY IDOCK:   -7.02 KCAL/MOL
REMARK 924 INTRA-LIGAND FREE ENERGY PREDICTED BY IDOCK:   -0.40 KCAL/MOL
REMARK 927      BINDING AFFINITY PREDICTED BY RF-SCORE:    0.00 PKD
ROOT
HETATM    1  C   UNL     1     -10.849   5.799  71.404  1.00  0.00    -0.316 C  
HETATM    2  C   UNL     1     -11.413   7.209  71.680  1.00  0.00    -0.299 C  
HETATM    3  C   UNL     1     -11.029   7.610  73.118  1.00  0.00    -0.411 C  
HETATM    4  C   UNL     1     -12.950   7.129  71.579  1.00  0.00    -0.431 C  
ENDROOT
BRANCH   2   5
HETATM    5  C   UNL     1     -10.802   8.216  70.654  1.00  0.00    -0.233 C  
HETATM    6  O   UNL     1     -11.242   7.910  69.332  1.00  0.00    -0.445 OA 
HETATM    7  H   UNL     1     -10.870   8.522  68.708  1.00  0.00     0.000 HD 
BRANCH   5   8
HETATM    8  C   UNL     1     -11.131   9.663  70.916  1.00  0.00    -0.422 C  
HETATM    9  C   UNL     1     -11.895  10.422  70.111  1.00  0.00    -0.379 C  
BRANCH   9  10
HETATM   10  C   UNL     1     -12.197  11.840  70.362  1.00  0.00    -0.416 A  
HETATM   11  C   UNL     1     -12.944  12.184  71.498  1.00  0.00    -0.398 A  
HETATM   12  C   UNL     1     -13.238  13.516  71.708  1.00  0.00    -0.404 A  
HETATM   13  C   UNL     1     -12.833  14.497  70.834  1.00  0.00    -0.360 A  
HETATM   14  C   UNL     1     -12.116  14.199  69.698  1.00  0.00    -0.400 A  
HETATM   15  O   UNL     1     -13.224  15.738  71.225  1.00  0.00    -0.496 OA 
HETATM   16  C   UNL     1     -11.805  12.856  69.459  1.00  0.00    -0.383 A  
HETATM   17  C   UNL     1     -13.925  15.427  72.447  1.00  0.00    -0.560 C  
HETATM   18  O   UNL     1     -13.942  14.019  72.759  1.00  0.00    -0.669 OA 
ENDBRANCH   9  10
ENDBRANCH   5   8
ENDBRANCH   2   5
TORSDOF 3
ENDMDL
MODEL        6
REMARK 921   NORMALIZED FREE ENERGY PREDICTED BY IDOCK:   -5.95 KCAL/MOL
REMARK 922        TOTAL FREE ENERGY PREDICTED BY IDOCK:   -7.38 KCAL/MOL
REMARK 923 INTER-LIGAND FREE ENERGY PREDICTED BY IDOCK:   -6.96 KCAL/MOL
REMARK 924 INTRA-LIGAND FREE ENERGY PREDICTED BY IDOCK:   -0.42 KCAL/MOL
REMARK 927      BINDING AFFINITY PREDICTED BY RF-SCORE:    0.00 PKD
ROOT
HETATM    1  C   UNL     1     -11.514   5.869  72.364  1.00  0.00    -0.358 C  
HETATM    2  C   UNL     1     -11.301   7.268  71.745  1.00  0.00    -0.285 C  
HETATM    3  C   UNL     1     -10.532   7.098  70.420  1.00  0.00    -0.234 C  
HETATM    4  C   UNL     1     -10.434   8.086  72.723  1.00  0.00    -0.415 C  
ENDROOT
BRANCH   2   5
HETATM    5  C   UNL     1     -12.691   7.931  71.485  1.00  0.00    -0.322 C  
HETATM    6  O   UNL     1     -13.673   7.394  72.369  1.00  0.00    -0.485 OA 
HETATM    7  H   UNL     1     -14.519   7.798  72.211  1.00  0.00     0.000 HD 
BRANCH   5   8
HETATM    8  C   UNL     1     -12.715   9.430  71.639  1.00  0.00    -0.459 C  
HETATM    9  C   UNL     1     -12.528  10.297  70.629  1.00  0.00    -0.407 C  
BRANCH   9  10
HETATM   10  C   UNL     1     -12.534  11.759  70.789  1.00  0.00    -0.405 A  
HETATM   11  C   UNL     1     -13.149  12.316  71.921  1.00  0.00    -0.469 A  
HETATM   12  C   UNL     1     -13.166  13.690  72.046  1.00  0.00    -0.434 A  
HETATM   13  C   UNL     1     -12.613  14.514  71.094  1.00  0.00    -0.335 A  
HETATM   14  C   UNL     1     -12.019  14.009  69.960  1.00  0.00    -0.404 A  
HETATM   15  O   UNL     1     -12.735  15.830  71.409  1.00  0.00    -0.445 OA 
HETATM   16  C   UNL     1     -11.989  12.618  69.806  1.00  0.00    -0.365 A  
HETATM   17  C   UNL     1     -13.430  15.742  72.670  1.00  0.00    -0.539 C  
HETATM   18  O   UNL     1     -13.710  14.388  73.080  1.00  0.00    -0.596 OA 
ENDBRANCH   9  10
ENDBRANCH   5   8
ENDBRANCH   2   5
TORSDOF 3
ENDMDL
MODEL        7
REMARK 921   NORMALIZED FREE ENERGY PREDICTED BY IDOCK:   -5.86 KCAL/MOL
REMARK 922        TOTAL FREE ENERGY PREDICTED BY IDOCK:   -7.28 KCAL/MOL
REMARK 923 INTER-LIGAND FREE ENERGY PREDICTED BY IDOCK:   -6.92 KCAL/MOL
REMARK 924 INTRA-LIGAND FREE ENERGY PREDICTED BY IDOCK:   -0.36 KCAL/MOL
REMARK 927      BINDING AFFINITY PREDICTED BY RF-SCORE:    0.00 PKD
ROOT
HETATM    1  C   UNL     1      -8.225  19.154  66.182  1.00  0.00    -0.264 C  
HETATM    2  C   UNL     1      -9.694  19.050  66.646  1.00  0.00    -0.383 C  
HETATM    3  C   UNL     1     -10.573  19.824  65.645  1.00  0.00    -0.456 C  
HETATM    4  C   UNL     1      -9.799  19.725  68.028  1.00  0.00    -0.533 C  
ENDROOT
BRANCH   2   5
HETATM    5  C   UNL     1     -10.113  17.546  66.686  1.00  0.00    -0.328 C  
HETATM    6  O   UNL     1      -8.989  16.707  66.428  1.00  0.00    -0.248 OA 
HETATM    7  H   UNL     1      -9.243  15.792  66.452  1.00  0.00     0.000 HD 
BRANCH   5   8
HETATM    8  C   UNL     1     -10.725  17.094  67.987  1.00  0.00    -0.372 C  
HETATM    9  C   UNL     1     -10.967  15.810  68.303  1.00  0.00    -0.325 C  
BRANCH   9  10
HETATM   10  C   UNL     1     -11.582  15.377  69.568  1.00  0.00    -0.346 A  
HETATM   11  C   UNL     1     -11.480  16.210  70.692  1.00  0.00    -0.386 A  
HETATM   12  C   UNL     1     -12.043  15.780  71.877  1.00  0.00    -0.465 A  
HETATM   13  C   UNL     1     -12.679  14.566  71.981  1.00  0.00    -0.338 A  
HETATM   14  C   UNL     1     -12.783  13.711  70.907  1.00  0.00    -0.382 A  
HETATM   15  O   UNL     1     -13.162  14.336  73.230  1.00  0.00    -0.614 OA 
HETATM   16  C   UNL     1     -12.219  14.121  69.694  1.00  0.00    -0.376 A  
HETATM   17  C   UNL     1     -12.755  15.545  73.903  1.00  0.00    -0.580 C  
HETATM   18  O   UNL     1     -12.041  16.465  73.052  1.00  0.00    -0.523 OA 
ENDBRANCH   9  10
ENDBRANCH   5   8
ENDBRANCH   2   5
TORSDOF 3
ENDMDL
MODEL        8
REMARK 921   NORMALIZED FREE ENERGY PREDICTED BY IDOCK:   -5.83 KCAL/MOL
REMARK 922        TOTAL FREE ENERGY PREDICTED BY IDOCK:   -7.24 KCAL/MOL
REMARK 923 INTER-LIGAND FREE ENERGY PREDICTED BY IDOCK:   -6.81 KCAL/MOL
REMARK 924 INTRA-LIGAND FREE ENERGY PREDICTED BY IDOCK:   -0.43 KCAL/MOL
REMARK 927      BINDING AFFINITY PREDICTED BY RF-SCORE:    0.00 PKD
ROOT
HETATM    1  C   UNL     1     -11.411  14.825  64.498  1.00  0.00    -0.333 C  
HETATM    2  C   UNL     1     -11.103  13.398  64.999  1.00  0.00    -0.332 C  
HETATM    3  C   UNL     1     -10.511  12.592  63.827  1.00  0.00    -0.451 C  
HETATM    4  C   UNL     1     -12.436  12.751  65.426  1.00  0.00    -0.478 C  
ENDROOT
BRANCH   2   5
HETATM    5  C   UNL     1     -10.078  13.477  66.175  1.00  0.00    -0.304 C  
HETATM    6  O   UNL     1      -9.283  14.656  66.066  1.00  0.00    -0.479 OA 
HETATM    7  H   UNL     1      -8.659  14.704  66.781  1.00  0.00     0.000 HD 
BRANCH   5   8
HETATM    8  C   UNL     1     -10.693  13.473  67.551  1.00  0.00    -0.266 C  
HETATM    9  C   UNL     1     -10.971  14.581  68.258  1.00  0.00    -0.258 C  
BRANCH   9  10
HETATM   10  C   UNL     1     -11.554  14.570  69.609  1.00  0.00    -0.346 A  
HETATM   11  C   UNL     1     -11.402  15.703  70.422  1.00  0.00    -0.373 A  
HETATM   12  C   UNL     1     -11.935  15.670  71.695  1.00  0.00    -0.430 A  
HETATM   13  C   UNL     1     -12.588  14.563  72.181  1.00  0.00    -0.314 A  
HETATM   14  C   UNL     1     -12.740  13.424  71.423  1.00  0.00    -0.411 A  
HETATM   15  O   UNL     1     -13.035  14.737  73.452  1.00  0.00    -0.521 OA 
HETATM   16  C   UNL     1     -12.208  13.429  70.129  1.00  0.00    -0.385 A  
HETATM   17  C   UNL     1     -12.587  16.083  73.714  1.00  0.00    -0.610 C  
HETATM   18  O   UNL     1     -11.884  16.681  72.605  1.00  0.00    -0.516 OA 
ENDBRANCH   9  10
ENDBRANCH   5   8
ENDBRANCH   2   5
TORSDOF 3
ENDMDL
MODEL        9
REMARK 921   NORMALIZED FREE ENERGY PREDICTED BY IDOCK:   -5.78 KCAL/MOL
REMARK 922        TOTAL FREE ENERGY PREDICTED BY IDOCK:   -7.18 KCAL/MOL
REMARK 923 INTER-LIGAND FREE ENERGY PREDICTED BY IDOCK:   -6.80 KCAL/MOL
REMARK 924 INTRA-LIGAND FREE ENERGY PREDICTED BY IDOCK:   -0.38 KCAL/MOL
REMARK 927      BINDING AFFINITY PREDICTED BY RF-SCORE:    0.00 PKD
ROOT
HETATM    1  C   UNL     1      -9.809   8.567  71.557  1.00  0.00    -0.309 C  
HETATM    2  C   UNL     1     -10.941   7.601  71.968  1.00  0.00    -0.291 C  
HETATM    3  C   UNL     1     -10.704   7.172  73.429  1.00  0.00    -0.410 C  
HETATM    4  C   UNL     1     -10.849   6.356  71.062  1.00  0.00    -0.314 C  
ENDROOT
BRANCH   2   5
HETATM    5  C   UNL     1     -12.315   8.333  71.833  1.00  0.00    -0.338 C  
HETATM    6  O   UNL     1     -13.035   8.272  73.062  1.00  0.00    -0.610 OA 
HETATM    7  H   UNL     1     -13.871   8.717  72.981  1.00  0.00     0.000 HD 
BRANCH   5   8
HETATM    8  C   UNL     1     -12.221   9.784  71.436  1.00  0.00    -0.486 C  
HETATM    9  C   UNL     1     -13.047  10.745  71.885  1.00  0.00    -0.557 C  
BRANCH   9  10
HETATM   10  C   UNL     1     -12.964  12.156  71.478  1.00  0.00    -0.398 A  
HETATM   11  C   UNL     1     -12.182  12.496  70.364  1.00  0.00    -0.368 A  
HETATM   12  C   UNL     1     -12.094  13.827  70.009  1.00  0.00    -0.349 A  
HETATM   13  C   UNL     1     -12.737  14.813  70.719  1.00  0.00    -0.362 A  
HETATM   14  C   UNL     1     -13.497  14.524  71.829  1.00  0.00    -0.458 A  
HETATM   15  O   UNL     1     -12.523  16.052  70.203  1.00  0.00    -0.243 OA 
HETATM   16  C   UNL     1     -13.601  13.182  72.214  1.00  0.00    -0.677 A  
HETATM   17  C   UNL     1     -11.669  15.734  69.085  1.00  0.00    -0.388 C  
HETATM   18  O   UNL     1     -11.389  14.325  68.956  1.00  0.00    -0.243 OA 
ENDBRANCH   9  10
ENDBRANCH   5   8
ENDBRANCH   2   5
TORSDOF 3
ENDMDL
MODEL       10
REMARK 921   NORMALIZED FREE ENERGY PREDICTED BY IDOCK:   -5.71 KCAL/MOL
REMARK 922        TOTAL FREE ENERGY PREDICTED BY IDOCK:   -7.10 KCAL/MOL
REMARK 923 INTER-LIGAND FREE ENERGY PREDICTED BY IDOCK:   -6.74 KCAL/MOL
REMARK 924 INTRA-LIGAND FREE ENERGY PREDICTED BY IDOCK:   -0.36 KCAL/MOL
REMARK 927      BINDING AFFINITY PREDICTED BY RF-SCORE:    0.00 PKD
ROOT
HETATM    1  C   UNL     1     -10.138  19.784  66.303  1.00  0.00    -0.601 C  
HETATM    2  C   UNL     1      -9.187  19.581  67.502  1.00  0.00    -0.391 C  
HETATM    3  C   UNL     1      -9.975  19.861  68.796  1.00  0.00    -0.462 C  
HETATM    4  C   UNL     1      -8.049  20.614  67.378  1.00  0.00    -0.300 C  
ENDROOT
BRANCH   2   5
HETATM    5  C   UNL     1      -8.659  18.111  67.495  1.00  0.00    -0.249 C  
HETATM    6  O   UNL     1      -8.133  17.764  68.774  1.00  0.00    -0.282 OA 
HETATM    7  H   UNL     1      -7.811  16.870  68.771  1.00  0.00     0.000 HD 
BRANCH   5   8
HETATM    8  C   UNL     1      -9.687  17.071  67.132  1.00  0.00    -0.259 C  
HETATM    9  C   UNL     1      -9.454  16.030  66.314  1.00  0.00    -0.347 C  
BRANCH   9  10
HETATM   10  C   UNL     1     -10.467  15.029  65.948  1.00  0.00    -0.341 A  
HETATM   11  C   UNL     1     -10.353  14.366  64.717  1.00  0.00    -0.352 A  
HETATM   12  C   UNL     1     -11.324  13.446  64.377  1.00  0.00    -0.391 A  
HETATM   13  C   UNL     1     -12.391  13.177  65.201  1.00  0.00    -0.473 A  
HETATM   14  C   UNL     1     -12.551  13.820  66.407  1.00  0.00    -0.309 A  
HETATM   15  O   UNL     1     -13.228  12.241  64.681  1.00  0.00    -0.763 OA 
HETATM   16  C   UNL     1     -11.582  14.760  66.776  1.00  0.00    -0.333 A  
HETATM   17  C   UNL     1     -12.566  11.951  63.433  1.00  0.00    -0.431 C  
HETATM   18  O   UNL     1     -11.358  12.713  63.231  1.00  0.00    -0.460 OA 
ENDBRANCH   9  10
ENDBRANCH   5   8
ENDBRANCH   2   5
TORSDOF 3
ENDMDL
MODEL       11
REMARK 921   NORMALIZED FREE ENERGY PREDICTED BY IDOCK:   -5.70 KCAL/MOL
REMARK 922        TOTAL FREE ENERGY PREDICTED BY IDOCK:   -7.09 KCAL/MOL
REMARK 923 INTER-LIGAND FREE ENERGY PREDICTED BY IDOCK:   -6.71 KCAL/MOL
REMARK 924 INTRA-LIGAND FREE ENERGY PREDICTED BY IDOCK:   -0.38 KCAL/MOL
REMARK 927      BINDING AFFINITY PREDICTED BY RF-SCORE:    0.00 PKD
ROOT
HETATM    1  C   UNL     1     -12.700  11.927  63.559  1.00  0.00    -0.530 C  
HETATM    2  C   UNL     1     -11.354  12.323  64.203  1.00  0.00    -0.442 C  
HETATM    3  C   UNL     1     -10.222  11.946  63.227  1.00  0.00    -0.428 C  
HETATM    4  C   UNL     1     -11.192  11.500  65.497  1.00  0.00    -0.204 C  
ENDROOT
BRANCH   2   5
HETATM    5  C   UNL     1     -11.348  13.862  64.473  1.00  0.00    -0.372 C  
HETATM    6  O   UNL     1     -12.305  14.518  63.643  1.00  0.00    -1.064 OA 
HETATM    7  H   UNL     1     -12.301  15.454  63.807  1.00  0.00     0.000 HD 
BRANCH   5   8
HETATM    8  C   UNL     1     -11.639  14.256  65.898  1.00  0.00    -0.358 C  
HETATM    9  C   UNL     1     -10.763  14.881  66.703  1.00  0.00    -0.312 C  
BRANCH   9  10
HETATM   10  C   UNL     1     -11.047  15.246  68.100  1.00  0.00    -0.309 A  
HETATM   11  C   UNL     1     -11.997  14.502  68.816  1.00  0.00    -0.315 A  
HETATM   12  C   UNL     1     -12.268  14.870  70.118  1.00  0.00    -0.336 A  
HETATM   13  C   UNL     1     -11.647  15.941  70.716  1.00  0.00    -0.410 A  
HETATM   14  C   UNL     1     -10.724  16.708  70.042  1.00  0.00    -0.157 A  
HETATM   15  O   UNL     1     -12.055  16.131  71.998  1.00  0.00    -0.476 OA 
HETATM   16  C   UNL     1     -10.432  16.359  68.719  1.00  0.00    -0.300 A  
HETATM   17  C   UNL     1     -13.007  15.057  72.140  1.00  0.00    -0.342 C  
HETATM   18  O   UNL     1     -13.151  14.254  70.951  1.00  0.00    -0.350 OA 
ENDBRANCH   9  10
ENDBRANCH   5   8
ENDBRANCH   2   5
TORSDOF 3
ENDMDL
MODEL       12
REMARK 921   NORMALIZED FREE ENERGY PREDICTED BY IDOCK:   -5.64 KCAL/MOL
REMARK 922        TOTAL FREE ENERGY PREDICTED BY IDOCK:   -7.02 KCAL/MOL
REMARK 923 INTER-LIGAND FREE ENERGY PREDICTED BY IDOCK:   -6.68 KCAL/MOL
REMARK 924 INTRA-LIGAND FREE ENERGY PREDICTED BY IDOCK:   -0.34 KCAL/MOL
REMARK 927      BINDING AFFINITY PREDICTED BY RF-SCORE:    0.00 PKD
ROOT
HETATM    1  C   UNL     1     -12.237  15.229  73.977  1.00  0.00    -0.746 C  
HETATM    2  C   UNL     1     -12.699  15.264  72.504  1.00  0.00    -0.449 C  
HETATM    3  C   UNL     1     -11.793  16.247  71.737  1.00  0.00    -0.510 C  
HETATM    4  C   UNL     1     -14.146  15.796  72.478  1.00  0.00    -0.491 C  
ENDROOT
BRANCH   2   5
HETATM    5  C   UNL     1     -12.583  13.830  71.895  1.00  0.00    -0.188 C  
HETATM    6  O   UNL     1     -13.782  13.092  72.123  1.00  0.00    -0.510 OA 
HETATM    7  H   UNL     1     -13.711  12.220  71.753  1.00  0.00     0.000 HD 
BRANCH   5   8
HETATM    8  C   UNL     1     -12.304  13.792  70.415  1.00  0.00    -0.423 C  
HETATM    9  C   UNL     1     -12.075  12.666  69.717  1.00  0.00    -0.301 C  
BRANCH   9  10
HETATM   10  C   UNL     1     -11.784  12.637  68.275  1.00  0.00    -0.389 A  
HETATM   11  C   UNL     1     -11.219  11.480  67.720  1.00  0.00    -0.343 A  
HETATM   12  C   UNL     1     -10.930  11.475  66.371  1.00  0.00    -0.284 A  
HETATM   13  C   UNL     1     -11.170  12.568  65.573  1.00  0.00    -0.314 A  
HETATM   14  C   UNL     1     -11.705  13.730  66.081  1.00  0.00    -0.392 A  
HETATM   15  O   UNL     1     -10.816  12.356  64.278  1.00  0.00    -0.306 OA 
HETATM   16  C   UNL     1     -12.005  13.763  67.448  1.00  0.00    -0.423 A  
HETATM   17  C   UNL     1     -10.324  11.003  64.351  1.00  0.00    -0.358 C  
HETATM   18  O   UNL     1     -10.390  10.437  65.676  1.00  0.00    -0.255 OA 
ENDBRANCH   9  10
ENDBRANCH   5   8
ENDBRANCH   2   5
TORSDOF 3
ENDMDL
MODEL       13
REMARK 921   NORMALIZED FREE ENERGY PREDICTED BY IDOCK:   -5.59 KCAL/MOL
REMARK 922        TOTAL FREE ENERGY PREDICTED BY IDOCK:   -6.96 KCAL/MOL
REMARK 923 INTER-LIGAND FREE ENERGY PREDICTED BY IDOCK:   -6.53 KCAL/MOL
REMARK 924 INTRA-LIGAND FREE ENERGY PREDICTED BY IDOCK:   -0.43 KCAL/MOL
REMARK 927      BINDING AFFINITY PREDICTED BY RF-SCORE:    0.00 PKD
ROOT
HETATM    1  C   UNL     1     -13.332   6.977  71.561  1.00  0.00    -0.370 C  
HETATM    2  C   UNL     1     -11.790   7.027  71.623  1.00  0.00    -0.348 C  
HETATM    3  C   UNL     1     -11.245   6.904  70.187  1.00  0.00    -0.361 C  
HETATM    4  C   UNL     1     -11.313   5.812  72.444  1.00  0.00    -0.348 C  
ENDROOT
BRANCH   2   5
HETATM    5  C   UNL     1     -11.347   8.384  72.258  1.00  0.00    -0.378 C  
HETATM    6  O   UNL     1     -10.073   8.249  72.885  1.00  0.00    -0.294 OA 
HETATM    7  H   UNL     1      -9.803   9.073  73.271  1.00  0.00     0.000 HD 
BRANCH   5   8
HETATM    8  C   UNL     1     -11.254   9.535  71.289  1.00  0.00    -0.452 C  
HETATM    9  C   UNL     1     -12.237  10.427  71.077  1.00  0.00    -0.498 C  
BRANCH   9  10
HETATM   10  C   UNL     1     -12.147  11.537  70.116  1.00  0.00    -0.432 A  
HETATM   11  C   UNL     1     -11.980  11.243  68.755  1.00  0.00    -0.350 A  
HETATM   12  C   UNL     1     -11.875  12.296  67.868  1.00  0.00    -0.293 A  
HETATM   13  C   UNL     1     -11.917  13.605  68.284  1.00  0.00    -0.350 A  
HETATM   14  C   UNL     1     -12.060  13.935  69.613  1.00  0.00    -0.404 A  
HETATM   15  O   UNL     1     -11.798  14.484  67.255  1.00  0.00    -0.394 OA 
HETATM   16  C   UNL     1     -12.166  12.887  70.535  1.00  0.00    -0.395 A  
HETATM   17  C   UNL     1     -11.674  13.578  66.140  1.00  0.00    -0.365 C  
HETATM   18  O   UNL     1     -11.718  12.187  66.520  1.00  0.00    -0.495 OA 
ENDBRANCH   9  10
ENDBRANCH   5   8
ENDBRANCH   2   5
TORSDOF 3
ENDMDL
MODEL       14
REMARK 921   NORMALIZED FREE ENERGY PREDICTED BY IDOCK:   -5.58 KCAL/MOL
REMARK 922        TOTAL FREE ENERGY PREDICTED BY IDOCK:   -6.95 KCAL/MOL
REMARK 923 INTER-LIGAND FREE ENERGY PREDICTED BY IDOCK:   -6.63 KCAL/MOL
REMARK 924 INTRA-LIGAND FREE ENERGY PREDICTED BY IDOCK:   -0.31 KCAL/MOL
REMARK 927      BINDING AFFINITY PREDICTED BY RF-SCORE:    0.00 PKD
ROOT
HETATM    1  C   UNL     1     -10.125  10.813  64.668  1.00  0.00    -0.410 C  
HETATM    2  C   UNL     1     -10.254  11.423  66.080  1.00  0.00    -0.282 C  
HETATM    3  C   UNL     1      -8.841  11.777  66.584  1.00  0.00    -0.189 C  
HETATM    4  C   UNL     1     -10.857  10.346  67.004  1.00  0.00    -0.269 C  
ENDROOT
BRANCH   2   5
HETATM    5  C   UNL     1     -11.141  12.707  66.006  1.00  0.00    -0.287 C  
HETATM    6  O   UNL     1     -12.505  12.357  65.779  1.00  0.00    -0.615 OA 
HETATM    7  H   UNL     1     -13.045  13.137  65.734  1.00  0.00     0.000 HD 
BRANCH   5   8
HETATM    8  C   UNL     1     -11.096  13.579  67.234  1.00  0.00    -0.302 C  
HETATM    9  C   UNL     1     -11.809  13.350  68.350  1.00  0.00    -0.401 C  
BRANCH   9  10
HETATM   10  C   UNL     1     -11.776  14.216  69.539  1.00  0.00    -0.364 A  
HETATM   11  C   UNL     1     -12.402  13.777  70.715  1.00  0.00    -0.451 A  
HETATM   12  C   UNL     1     -12.382  14.610  71.816  1.00  0.00    -0.346 A  
HETATM   13  C   UNL     1     -11.782  15.846  71.781  1.00  0.00    -0.491 A  
HETATM   14  C   UNL     1     -11.174  16.322  70.642  1.00  0.00    -0.310 A  
HETATM   15  O   UNL     1     -11.873  16.504  72.967  1.00  0.00    -0.507 OA 
HETATM   16  C   UNL     1     -11.182  15.499  69.510  1.00  0.00    -0.300 A  
HETATM   17  C   UNL     1     -12.602  15.540  73.755  1.00  0.00    -0.616 C  
HETATM   18  O   UNL     1     -12.932  14.337  73.030  1.00  0.00    -0.494 OA 
ENDBRANCH   9  10
ENDBRANCH   5   8
ENDBRANCH   2   5
TORSDOF 3
ENDMDL
MODEL       15
REMARK 921   NORMALIZED FREE ENERGY PREDICTED BY IDOCK:   -5.53 KCAL/MOL
REMARK 922        TOTAL FREE ENERGY PREDICTED BY IDOCK:   -6.89 KCAL/MOL
REMARK 923 INTER-LIGAND FREE ENERGY PREDICTED BY IDOCK:   -6.46 KCAL/MOL
REMARK 924 INTRA-LIGAND FREE ENERGY PREDICTED BY IDOCK:   -0.43 KCAL/MOL
REMARK 927      BINDING AFFINITY PREDICTED BY RF-SCORE:    0.00 PKD
ROOT
HETATM    1  C   UNL     1      -7.004  18.512  66.541  1.00  0.00    -0.241 C  
HETATM    2  C   UNL     1      -7.775  19.495  67.448  1.00  0.00    -0.284 C  
HETATM    3  C   UNL     1      -7.212  20.911  67.214  1.00  0.00    -0.408 C  
HETATM    4  C   UNL     1      -7.510  19.089  68.912  1.00  0.00    -0.364 C  
ENDROOT
BRANCH   2   5
HETATM    5  C   UNL     1      -9.293  19.447  67.084  1.00  0.00    -0.320 C  
HETATM    6  O   UNL     1      -9.577  20.345  66.012  1.00  0.00    -0.653 OA 
HETATM    7  H   UNL     1     -10.500  20.316  65.790  1.00  0.00     0.000 HD 
BRANCH   5   8
HETATM    8  C   UNL     1      -9.805  18.088  66.683  1.00  0.00    -0.352 C  
HETATM    9  C   UNL     1     -10.414  17.232  67.521  1.00  0.00    -0.356 C  
BRANCH   9  10
HETATM   10  C   UNL     1     -10.894  15.898  67.129  1.00  0.00    -0.267 A  
HETATM   11  C   UNL     1     -10.763  15.497  65.791  1.00  0.00    -0.362 A  
HETATM   12  C   UNL     1     -11.239  14.251  65.432  1.00  0.00    -0.329 A  
HETATM   13  C   UNL     1     -11.840  13.414  66.341  1.00  0.00    -0.396 A  
HETATM   14  C   UNL     1     -12.006  13.778  67.658  1.00  0.00    -0.392 A  
HETATM   15  O   UNL     1     -12.235  12.239  65.785  1.00  0.00    -0.622 OA 
HETATM   16  C   UNL     1     -11.536  15.037  68.048  1.00  0.00    -0.357 A  
HETATM   17  C   UNL     1     -11.814  12.431  64.419  1.00  0.00    -0.389 C  
HETATM   18  O   UNL     1     -11.183  13.707  64.186  1.00  0.00    -0.367 OA 
ENDBRANCH   9  10
ENDBRANCH   5   8
ENDBRANCH   2   5
TORSDOF 3
ENDMDL
MODEL       16
REMARK 921   NORMALIZED FREE ENERGY PREDICTED BY IDOCK:   -5.52 KCAL/MOL
REMARK 922        TOTAL FREE ENERGY PREDICTED BY IDOCK:   -6.87 KCAL/MOL
REMARK 923 INTER-LIGAND FREE ENERGY PREDICTED BY IDOCK:   -6.54 KCAL/MOL
REMARK 924 INTRA-LIGAND FREE ENERGY PREDICTED BY IDOCK:   -0.33 KCAL/MOL
REMARK 927      BINDING AFFINITY PREDICTED BY RF-SCORE:    0.00 PKD
ROOT
HETATM    1  C   UNL     1     -10.744  14.397  64.815  1.00  0.00    -0.423 C  
HETATM    2  C   UNL     1     -11.288  13.159  65.560  1.00  0.00    -0.325 C  
HETATM    3  C   UNL     1     -10.315  11.987  65.326  1.00  0.00    -0.311 C  
HETATM    4  C   UNL     1     -12.655  12.802  64.942  1.00  0.00    -0.541 C  
ENDROOT
BRANCH   2   5
HETATM    5  C   UNL     1     -11.392  13.482  67.085  1.00  0.00    -0.321 C  
HETATM    6  O   UNL     1     -12.498  14.348  67.337  1.00  0.00    -0.603 OA 
HETATM    7  H   UNL     1     -12.561  14.545  68.264  1.00  0.00     0.000 HD 
BRANCH   5   8
HETATM    8  C   UNL     1     -11.548  12.279  67.978  1.00  0.00    -0.408 C  
HETATM    9  C   UNL     1     -11.713  12.342  69.310  1.00  0.00    -0.386 C  
BRANCH   9  10
HETATM   10  C   UNL     1     -11.845  11.163  70.179  1.00  0.00    -0.449 A  
HETATM   11  C   UNL     1     -10.934  10.106  70.032  1.00  0.00    -0.364 A  
HETATM   12  C   UNL     1     -11.085   8.996  70.839  1.00  0.00    -0.280 A  
HETATM   13  C   UNL     1     -12.100   8.900  71.761  1.00  0.00    -0.362 A  
HETATM   14  C   UNL     1     -13.026   9.905  71.922  1.00  0.00    -0.545 A  
HETATM   15  O   UNL     1     -12.068   7.730  72.451  1.00  0.00    -0.304 OA 
HETATM   16  C   UNL     1     -12.899  11.041  71.115  1.00  0.00    -0.491 A  
HETATM   17  C   UNL     1     -10.915   7.098  71.858  1.00  0.00    -0.231 C  
HETATM   18  O   UNL     1     -10.287   7.893  70.831  1.00  0.00    -0.199 OA 
ENDBRANCH   9  10
ENDBRANCH   5   8
ENDBRANCH   2   5
TORSDOF 3
ENDMDL
MODEL       17
REMARK 921   NORMALIZED FREE ENERGY PREDICTED BY IDOCK:   -5.51 KCAL/MOL
REMARK 922        TOTAL FREE ENERGY PREDICTED BY IDOCK:   -6.86 KCAL/MOL
REMARK 923 INTER-LIGAND FREE ENERGY PREDICTED BY IDOCK:   -6.51 KCAL/MOL
REMARK 924 INTRA-LIGAND FREE ENERGY PREDICTED BY IDOCK:   -0.35 KCAL/MOL
REMARK 927      BINDING AFFINITY PREDICTED BY RF-SCORE:    0.00 PKD
ROOT
HETATM    1  C   UNL     1      -8.970  19.739  66.236  1.00  0.00    -0.431 C  
HETATM    2  C   UNL     1      -9.428  18.978  67.499  1.00  0.00    -0.351 C  
HETATM    3  C   UNL     1     -10.276  19.936  68.359  1.00  0.00    -0.557 C  
HETATM    4  C   UNL     1      -8.166  18.582  68.292  1.00  0.00    -0.336 C  
ENDROOT
BRANCH   2   5
HETATM    5  C   UNL     1     -10.276  17.738  67.072  1.00  0.00    -0.346 C  
HETATM    6  O   UNL     1      -9.476  16.817  66.334  1.00  0.00    -0.254 OA 
HETATM    7  H   UNL     1      -9.990  16.062  66.074  1.00  0.00     0.000 HD 
BRANCH   5   8
HETATM    8  C   UNL     1     -10.905  16.979  68.212  1.00  0.00    -0.341 C  
HETATM    9  C   UNL     1     -11.054  15.643  68.239  1.00  0.00    -0.336 C  
BRANCH   9  10
HETATM   10  C   UNL     1     -11.686  14.909  69.347  1.00  0.00    -0.349 A  
HETATM   11  C   UNL     1     -11.621  13.508  69.356  1.00  0.00    -0.369 A  
HETATM   12  C   UNL     1     -12.238  12.832  70.390  1.00  0.00    -0.293 A  
HETATM   13  C   UNL     1     -12.916  13.491  71.387  1.00  0.00    -0.339 A  
HETATM   14  C   UNL     1     -13.020  14.863  71.404  1.00  0.00    -0.427 A  
HETATM   15  O   UNL     1     -13.448  12.642  72.305  1.00  0.00    -0.561 OA 
HETATM   16  C   UNL     1     -12.406  15.574  70.366  1.00  0.00    -0.451 A  
HETATM   17  C   UNL     1     -13.028  11.370  71.771  1.00  0.00    -0.414 C  
HETATM   18  O   UNL     1     -12.263  11.481  70.554  1.00  0.00    -0.358 OA 
ENDBRANCH   9  10
ENDBRANCH   5   8
ENDBRANCH   2   5
TORSDOF 3
ENDMDL
MODEL       18
REMARK 921   NORMALIZED FREE ENERGY PREDICTED BY IDOCK:   -5.50 KCAL/MOL
REMARK 922        TOTAL FREE ENERGY PREDICTED BY IDOCK:   -6.85 KCAL/MOL
REMARK 923 INTER-LIGAND FREE ENERGY PREDICTED BY IDOCK:   -6.53 KCAL/MOL
REMARK 924 INTRA-LIGAND FREE ENERGY PREDICTED BY IDOCK:   -0.32 KCAL/MOL
REMARK 927      BINDING AFFINITY PREDICTED BY RF-SCORE:    0.00 PKD
ROOT
HETATM    1  C   UNL     1     -14.274  15.312  71.909  1.00  0.00    -0.681 C  
HETATM    2  C   UNL     1     -12.839  14.827  71.607  1.00  0.00    -0.405 C  
HETATM    3  C   UNL     1     -12.855  13.289  71.526  1.00  0.00    -0.419 C  
HETATM    4  C   UNL     1     -11.941  15.256  72.785  1.00  0.00    -0.522 C  
ENDROOT
BRANCH   2   5
HETATM    5  C   UNL     1     -12.367  15.437  70.248  1.00  0.00    -0.388 C  
HETATM    6  O   UNL     1     -11.146  16.154  70.420  1.00  0.00    -0.353 OA 
HETATM    7  H   UNL     1     -10.859  16.525  69.594  1.00  0.00     0.000 HD 
BRANCH   5   8
HETATM    8  C   UNL     1     -12.150  14.433  69.145  1.00  0.00    -0.316 C  
HETATM    9  C   UNL     1     -11.721  14.747  67.911  1.00  0.00    -0.367 C  
BRANCH   9  10
HETATM   10  C   UNL     1     -11.530  13.764  66.833  1.00  0.00    -0.368 A  
HETATM   11  C   UNL     1     -10.372  12.972  66.834  1.00  0.00    -0.246 A  
HETATM   12  C   UNL     1     -10.195  12.071  65.803  1.00  0.00    -0.242 A  
HETATM   13  C   UNL     1     -11.109  11.943  64.785  1.00  0.00    -0.311 A  
HETATM   14  C   UNL     1     -12.248  12.715  64.736  1.00  0.00    -0.528 A  
HETATM   15  O   UNL     1     -10.747  11.001  63.875  1.00  0.00    -0.369 OA 
HETATM   16  C   UNL     1     -12.451  13.639  65.767  1.00  0.00    -0.524 A  
HETATM   17  C   UNL     1      -9.498  10.550  64.436  1.00  0.00    -0.281 C  
HETATM   18  O   UNL     1      -9.138  11.226  65.659  1.00  0.00    -0.209 OA 
ENDBRANCH   9  10
ENDBRANCH   5   8
ENDBRANCH   2   5
TORSDOF 3
ENDMDL
MODEL       19
REMARK 921   NORMALIZED FREE ENERGY PREDICTED BY IDOCK:   -5.50 KCAL/MOL
REMARK 922        TOTAL FREE ENERGY PREDICTED BY IDOCK:   -6.85 KCAL/MOL
REMARK 923 INTER-LIGAND FREE ENERGY PREDICTED BY IDOCK:   -6.51 KCAL/MOL
REMARK 924 INTRA-LIGAND FREE ENERGY PREDICTED BY IDOCK:   -0.34 KCAL/MOL
REMARK 927      BINDING AFFINITY PREDICTED BY RF-SCORE:    0.00 PKD
ROOT
HETATM    1  C   UNL     1     -12.785  13.553  65.224  1.00  0.00    -0.481 C  
HETATM    2  C   UNL     1     -11.363  13.346  65.788  1.00  0.00    -0.322 C  
HETATM    3  C   UNL     1     -10.414  14.333  65.079  1.00  0.00    -0.458 C  
HETATM    4  C   UNL     1     -10.928  11.906  65.450  1.00  0.00    -0.352 C  
ENDROOT
BRANCH   2   5
HETATM    5  C   UNL     1     -11.377  13.617  67.326  1.00  0.00    -0.323 C  
HETATM    6  O   UNL     1     -12.431  14.516  67.665  1.00  0.00    -0.595 OA 
HETATM    7  H   UNL     1     -12.440  14.681  68.601  1.00  0.00     0.000 HD 
BRANCH   5   8
HETATM    8  C   UNL     1     -11.537  12.388  68.184  1.00  0.00    -0.395 C  
HETATM    9  C   UNL     1     -11.748  12.414  69.511  1.00  0.00    -0.388 C  
BRANCH   9  10
HETATM   10  C   UNL     1     -11.885  11.211  70.345  1.00  0.00    -0.462 A  
HETATM   11  C   UNL     1     -10.982  10.152  70.162  1.00  0.00    -0.376 A  
HETATM   12  C   UNL     1     -11.137   9.020  70.937  1.00  0.00    -0.280 A  
HETATM   13  C   UNL     1     -12.148   8.904  71.861  1.00  0.00    -0.373 A  
HETATM   14  C   UNL     1     -13.065   9.911  72.057  1.00  0.00    -0.545 A  
HETATM   15  O   UNL     1     -12.121   7.714  72.516  1.00  0.00    -0.257 OA 
HETATM   16  C   UNL     1     -12.934  11.069  71.283  1.00  0.00    -0.472 A  
HETATM   17  C   UNL     1     -10.976   7.091  71.898  1.00  0.00    -0.233 C  
HETATM   18  O   UNL     1     -10.348   7.912  70.892  1.00  0.00    -0.199 OA 
ENDBRANCH   9  10
ENDBRANCH   5   8
ENDBRANCH   2   5
TORSDOF 3
ENDMDL
MODEL       20
REMARK 921   NORMALIZED FREE ENERGY PREDICTED BY IDOCK:   -5.45 KCAL/MOL
REMARK 922        TOTAL FREE ENERGY PREDICTED BY IDOCK:   -6.79 KCAL/MOL
REMARK 923 INTER-LIGAND FREE ENERGY PREDICTED BY IDOCK:   -6.40 KCAL/MOL
REMARK 924 INTRA-LIGAND FREE ENERGY PREDICTED BY IDOCK:   -0.39 KCAL/MOL
REMARK 927      BINDING AFFINITY PREDICTED BY RF-SCORE:    0.00 PKD
ROOT
HETATM    1  C   UNL     1     -13.628   7.093  71.477  1.00  0.00    -0.408 C  
HETATM    2  C   UNL     1     -12.096   7.012  71.648  1.00  0.00    -0.384 C  
HETATM    3  C   UNL     1     -11.461   6.846  70.254  1.00  0.00    -0.373 C  
HETATM    4  C   UNL     1     -11.783   5.758  72.490  1.00  0.00    -0.280 C  
ENDROOT
BRANCH   2   5
HETATM    5  C   UNL     1     -11.585   8.324  72.324  1.00  0.00    -0.383 C  
HETATM    6  O   UNL     1     -10.350   8.090  72.997  1.00  0.00    -0.329 OA 
HETATM    7  H   UNL     1     -10.039   8.888  73.409  1.00  0.00     0.000 HD 
BRANCH   5   8
HETATM    8  C   UNL     1     -11.374   9.480  71.382  1.00  0.00    -0.462 C  
HETATM    9  C   UNL     1     -12.310  10.401  71.094  1.00  0.00    -0.505 C  
BRANCH   9  10
HETATM   10  C   UNL     1     -12.105  11.517  70.157  1.00  0.00    -0.432 A  
HETATM   11  C   UNL     1     -12.208  12.832  70.636  1.00  0.00    -0.374 A  
HETATM   12  C   UNL     1     -12.035  13.869  69.741  1.00  0.00    -0.338 A  
HETATM   13  C   UNL     1     -11.781  13.645  68.409  1.00  0.00    -0.358 A  
HETATM   14  C   UNL     1     -11.693  12.371  67.896  1.00  0.00    -0.421 A  
HETATM   15  O   UNL     1     -11.643  14.797  67.703  1.00  0.00    -0.336 OA 
HETATM   16  C   UNL     1     -11.866  11.300  68.781  1.00  0.00    -0.396 A  
HETATM   17  C   UNL     1     -11.841  15.776  68.744  1.00  0.00    -0.309 C  
HETATM   18  O   UNL     1     -12.094  15.195  70.040  1.00  0.00    -0.308 OA 
ENDBRANCH   9  10
ENDBRANCH   5   8
ENDBRANCH   2   5
TORSDOF 3
ENDMDL
MODEL       21
REMARK 921   NORMALIZED FREE ENERGY PREDICTED BY IDOCK:   -5.43 KCAL/MOL
REMARK 922        TOTAL FREE ENERGY PREDICTED BY IDOCK:   -6.77 KCAL/MOL
REMARK 923 INTER-LIGAND FREE ENERGY PREDICTED BY IDOCK:   -6.43 KCAL/MOL
REMARK 924 INTRA-LIGAND FREE ENERGY PREDICTED BY IDOCK:   -0.34 KCAL/MOL
REMARK 927      BINDING AFFINITY PREDICTED BY RF-SCORE:    0.00 PKD
ROOT
HETATM    1  C   UNL     1     -12.574  12.114  63.994  1.00  0.00    -0.507 C  
HETATM    2  C   UNL     1     -11.485  12.752  64.883  1.00  0.00    -0.355 C  
HETATM    3  C   UNL     1     -10.220  11.877  64.801  1.00  0.00    -0.314 C  
HETATM    4  C   UNL     1     -12.002  12.747  66.335  1.00  0.00    -0.443 C  
ENDROOT
BRANCH   2   5
HETATM    5  C   UNL     1     -11.181  14.195  64.366  1.00  0.00    -0.278 C  
HETATM    6  O   UNL     1     -12.383  14.838  63.946  1.00  0.00    -0.981 OA 
HETATM    7  H   UNL     1     -12.199  15.715  63.632  1.00  0.00     0.000 HD 
BRANCH   5   8
HETATM    8  C   UNL     1     -10.511  15.098  65.369  1.00  0.00    -0.416 C  
HETATM    9  C   UNL     1     -10.624  16.437  65.374  1.00  0.00    -0.338 C  
BRANCH   9  10
HETATM   10  C   UNL     1      -9.952  17.315  66.344  1.00  0.00    -0.319 A  
HETATM   11  C   UNL     1      -8.614  17.060  66.677  1.00  0.00    -0.285 A  
HETATM   12  C   UNL     1      -8.003  17.878  67.606  1.00  0.00    -0.219 A  
HETATM   13  C   UNL     1      -8.672  18.915  68.212  1.00  0.00    -0.333 A  
HETATM   14  C   UNL     1      -9.991  19.187  67.929  1.00  0.00    -0.445 A  
HETATM   15  O   UNL     1      -7.891  19.596  69.091  1.00  0.00    -0.328 OA 
HETATM   16  C   UNL     1     -10.635  18.371  66.992  1.00  0.00    -0.400 A  
HETATM   17  C   UNL     1      -6.651  18.868  68.971  1.00  0.00    -0.281 C  
HETATM   18  O   UNL     1      -6.715  17.774  68.033  1.00  0.00    -0.186 OA 
ENDBRANCH   9  10
ENDBRANCH   5   8
ENDBRANCH   2   5
TORSDOF 3
ENDMDL
MODEL       22
REMARK 921   NORMALIZED FREE ENERGY PREDICTED BY IDOCK:   -5.34 KCAL/MOL
REMARK 922        TOTAL FREE ENERGY PREDICTED BY IDOCK:   -6.66 KCAL/MOL
REMARK 923 INTER-LIGAND FREE ENERGY PREDICTED BY IDOCK:   -6.25 KCAL/MOL
REMARK 924 INTRA-LIGAND FREE ENERGY PREDICTED BY IDOCK:   -0.41 KCAL/MOL
REMARK 927      BINDING AFFINITY PREDICTED BY RF-SCORE:    0.00 PKD
ROOT
HETATM    1  C   UNL     1     -10.489  13.286  64.687  1.00  0.00    -0.420 C  
HETATM    2  C   UNL     1     -10.926  14.530  65.492  1.00  0.00    -0.337 C  
HETATM    3  C   UNL     1     -11.326  15.634  64.495  1.00  0.00    -0.327 C  
HETATM    4  C   UNL     1      -9.709  15.012  66.307  1.00  0.00    -0.316 C  
ENDROOT
BRANCH   2   5
HETATM    5  C   UNL     1     -12.139  14.153  66.401  1.00  0.00    -0.451 C  
HETATM    6  O   UNL     1     -13.337  14.084  65.630  1.00  0.00    -0.690 OA 
HETATM    7  H   UNL     1     -14.075  13.855  66.182  1.00  0.00     0.000 HD 
BRANCH   5   8
HETATM    8  C   UNL     1     -11.997  12.844  67.134  1.00  0.00    -0.374 C  
HETATM    9  C   UNL     1     -11.743  12.739  68.450  1.00  0.00    -0.380 C  
BRANCH   9  10
HETATM   10  C   UNL     1     -11.587  11.459  69.157  1.00  0.00    -0.381 A  
HETATM   11  C   UNL     1     -12.280  11.259  70.360  1.00  0.00    -0.453 A  
HETATM   12  C   UNL     1     -12.105  10.061  71.024  1.00  0.00    -0.373 A  
HETATM   13  C   UNL     1     -11.270   9.080  70.546  1.00  0.00    -0.260 A  
HETATM   14  C   UNL     1     -10.557   9.244  69.380  1.00  0.00    -0.234 A  
HETATM   15  O   UNL     1     -11.243   7.983  71.347  1.00  0.00    -0.243 OA 
HETATM   16  C   UNL     1     -10.713  10.450  68.688  1.00  0.00    -0.250 A  
HETATM   17  C   UNL     1     -12.157   8.385  72.388  1.00  0.00    -0.378 C  
HETATM   18  O   UNL     1     -12.706   9.705  72.192  1.00  0.00    -0.378 OA 
ENDBRANCH   9  10
ENDBRANCH   5   8
ENDBRANCH   2   5
TORSDOF 3
ENDMDL
MODEL       23
REMARK 921   NORMALIZED FREE ENERGY PREDICTED BY IDOCK:   -5.30 KCAL/MOL
REMARK 922        TOTAL FREE ENERGY PREDICTED BY IDOCK:   -6.61 KCAL/MOL
REMARK 923 INTER-LIGAND FREE ENERGY PREDICTED BY IDOCK:   -6.28 KCAL/MOL
REMARK 924 INTRA-LIGAND FREE ENERGY PREDICTED BY IDOCK:   -0.33 KCAL/MOL
REMARK 927      BINDING AFFINITY PREDICTED BY RF-SCORE:    0.00 PKD
ROOT
HETATM    1  C   UNL     1     -14.043  15.466  71.606  1.00  0.00    -0.618 C  
HETATM    2  C   UNL     1     -12.722  14.681  71.760  1.00  0.00    -0.405 C  
HETATM    3  C   UNL     1     -13.059  13.262  72.257  1.00  0.00    -0.474 C  
HETATM    4  C   UNL     1     -11.873  15.396  72.830  1.00  0.00    -0.547 C  
ENDROOT
BRANCH   2   5
HETATM    5  C   UNL     1     -12.001  14.615  70.376  1.00  0.00    -0.311 C  
HETATM    6  O   UNL     1     -12.928  14.276  69.346  1.00  0.00    -0.304 OA 
HETATM    7  H   UNL     1     -12.490  14.236  68.504  1.00  0.00     0.000 HD 
BRANCH   5   8
HETATM    8  C   UNL     1     -11.309  15.887  69.961  1.00  0.00    -0.358 C  
HETATM    9  C   UNL     1     -10.995  16.198  68.692  1.00  0.00    -0.336 C  
BRANCH   9  10
HETATM   10  C   UNL     1     -10.302  17.434  68.295  1.00  0.00    -0.374 A  
HETATM   11  C   UNL     1      -8.934  17.564  68.575  1.00  0.00    -0.279 A  
HETATM   12  C   UNL     1      -8.302  18.738  68.218  1.00  0.00    -0.330 A  
HETATM   13  C   UNL     1      -8.977  19.772  67.613  1.00  0.00    -0.329 A  
HETATM   14  C   UNL     1     -10.324  19.692  67.339  1.00  0.00    -0.581 A  
HETATM   15  O   UNL     1      -8.173  20.833  67.344  1.00  0.00    -0.306 OA 
HETATM   16  C   UNL     1     -10.990  18.513  67.694  1.00  0.00    -0.185 A  
HETATM   17  C   UNL     1      -6.911  20.350  67.849  1.00  0.00    -0.301 C  
HETATM   18  O   UNL     1      -6.985  19.023  68.408  1.00  0.00    -0.244 OA 
ENDBRANCH   9  10
ENDBRANCH   5   8
ENDBRANCH   2   5
TORSDOF 3
ENDMDL
MODEL       24
REMARK 921   NORMALIZED FREE ENERGY PREDICTED BY IDOCK:   -5.29 KCAL/MOL
REMARK 922        TOTAL FREE ENERGY PREDICTED BY IDOCK:   -6.61 KCAL/MOL
REMARK 923 INTER-LIGAND FREE ENERGY PREDICTED BY IDOCK:   -6.23 KCAL/MOL
REMARK 924 INTRA-LIGAND FREE ENERGY PREDICTED BY IDOCK:   -0.37 KCAL/MOL
REMARK 927      BINDING AFFINITY PREDICTED BY RF-SCORE:    0.00 PKD
ROOT
HETATM    1  C   UNL     1     -11.928  13.042  63.548  1.00  0.00    -0.615 C  
HETATM    2  C   UNL     1     -11.553  13.540  64.960  1.00  0.00    -0.345 C  
HETATM    3  C   UNL     1     -12.854  13.757  65.757  1.00  0.00    -0.430 C  
HETATM    4  C   UNL     1     -10.832  14.894  64.805  1.00  0.00    -0.382 C  
ENDROOT
BRANCH   2   5
HETATM    5  C   UNL     1     -10.660  12.468  65.662  1.00  0.00    -0.269 C  
HETATM    6  O   UNL     1      -9.405  13.033  66.038  1.00  0.00    -0.442 OA 
HETATM    7  H   UNL     1      -8.862  12.381  66.465  1.00  0.00     0.000 HD 
BRANCH   5   8
HETATM    8  C   UNL     1     -11.265  11.848  66.895  1.00  0.00    -0.382 C  
HETATM    9  C   UNL     1     -10.671  11.829  68.101  1.00  0.00    -0.247 C  
BRANCH   9  10
HETATM   10  C   UNL     1     -11.259  11.206  69.297  1.00  0.00    -0.331 A  
HETATM   11  C   UNL     1     -10.937   9.874  69.595  1.00  0.00    -0.285 A  
HETATM   12  C   UNL     1     -11.514   9.295  70.708  1.00  0.00    -0.292 A  
HETATM   13  C   UNL     1     -12.393   9.982  71.511  1.00  0.00    -0.419 A  
HETATM   14  C   UNL     1     -12.750  11.284  71.242  1.00  0.00    -0.510 A  
HETATM   15  O   UNL     1     -12.843   9.233  72.551  1.00  0.00    -0.370 OA 
HETATM   16  C   UNL     1     -12.183  11.894  70.118  1.00  0.00    -0.319 A  
HETATM   17  C   UNL     1     -12.147   7.992  72.312  1.00  0.00    -0.341 C  
HETATM   18  O   UNL     1     -11.304   8.023  71.142  1.00  0.00    -0.257 OA 
ENDBRANCH   9  10
ENDBRANCH   5   8
ENDBRANCH   2   5
TORSDOF 3
ENDMDL
MODEL       25
REMARK 921   NORMALIZED FREE ENERGY PREDICTED BY IDOCK:   -5.28 KCAL/MOL
REMARK 922        TOTAL FREE ENERGY PREDICTED BY IDOCK:   -6.59 KCAL/MOL
REMARK 923 INTER-LIGAND FREE ENERGY PREDICTED BY IDOCK:   -6.20 KCAL/MOL
REMARK 924 INTRA-LIGAND FREE ENERGY PREDICTED BY IDOCK:   -0.39 KCAL/MOL
REMARK 927      BINDING AFFINITY PREDICTED BY RF-SCORE:    0.00 PKD
ROOT
HETATM    1  C   UNL     1      -9.597  14.520  66.331  1.00  0.00    -0.324 C  
HETATM    2  C   UNL     1     -10.913  14.439  65.529  1.00  0.00    -0.330 C  
HETATM    3  C   UNL     1     -10.758  13.345  64.455  1.00  0.00    -0.434 C  
HETATM    4  C   UNL     1     -11.121  15.798  64.829  1.00  0.00    -0.413 C  
ENDROOT
BRANCH   2   5
HETATM    5  C   UNL     1     -12.085  14.086  66.499  1.00  0.00    -0.459 C  
HETATM    6  O   UNL     1     -13.312  13.975  65.780  1.00  0.00    -0.675 OA 
HETATM    7  H   UNL     1     -14.024  13.760  66.370  1.00  0.00     0.000 HD 
BRANCH   5   8
HETATM    8  C   UNL     1     -11.899  12.808  67.276  1.00  0.00    -0.414 C  
HETATM    9  C   UNL     1     -11.900  12.733  68.618  1.00  0.00    -0.341 C  
BRANCH   9  10
HETATM   10  C   UNL     1     -11.699  11.485  69.372  1.00  0.00    -0.413 A  
HETATM   11  C   UNL     1     -10.942  10.457  68.791  1.00  0.00    -0.287 A  
HETATM   12  C   UNL     1     -10.781   9.283  69.500  1.00  0.00    -0.222 A  
HETATM   13  C   UNL     1     -11.347   9.099  70.739  1.00  0.00    -0.280 A  
HETATM   14  C   UNL     1     -12.113  10.076  71.335  1.00  0.00    -0.498 A  
HETATM   15  O   UNL     1     -11.066   7.878  71.265  1.00  0.00    -0.243 OA 
HETATM   16  C   UNL     1     -12.295  11.275  70.637  1.00  0.00    -0.477 A  
HETATM   17  C   UNL     1     -10.257   7.312  70.213  1.00  0.00    -0.199 C  
HETATM   18  O   UNL     1     -10.074   8.196  69.088  1.00  0.00    -0.191 OA 
ENDBRANCH   9  10
ENDBRANCH   5   8
ENDBRANCH   2   5
TORSDOF 3
ENDMDL
MODEL       26
REMARK 921   NORMALIZED FREE ENERGY PREDICTED BY IDOCK:   -5.28 KCAL/MOL
REMARK 922        TOTAL FREE ENERGY PREDICTED BY IDOCK:   -6.59 KCAL/MOL
REMARK 923 INTER-LIGAND FREE ENERGY PREDICTED BY IDOCK:   -6.24 KCAL/MOL
REMARK 924 INTRA-LIGAND FREE ENERGY PREDICTED BY IDOCK:   -0.34 KCAL/MOL
REMARK 927      BINDING AFFINITY PREDICTED BY RF-SCORE:    0.00 PKD
ROOT
HETATM    1  C   UNL     1      -9.956  13.078  66.296  1.00  0.00    -0.283 C  
HETATM    2  C   UNL     1     -11.458  12.927  66.615  1.00  0.00    -0.393 C  
HETATM    3  C   UNL     1     -11.620  11.806  67.660  1.00  0.00    -0.364 C  
HETATM    4  C   UNL     1     -12.174  12.504  65.316  1.00  0.00    -0.493 C  
ENDROOT
BRANCH   2   5
HETATM    5  C   UNL     1     -12.002  14.278  67.180  1.00  0.00    -0.417 C  
HETATM    6  O   UNL     1     -12.272  14.163  68.576  1.00  0.00    -0.526 OA 
HETATM    7  H   UNL     1     -12.602  14.984  68.920  1.00  0.00     0.000 HD 
BRANCH   5   8
HETATM    8  C   UNL     1     -11.083  15.457  66.993  1.00  0.00    -0.273 C  
HETATM    9  C   UNL     1     -10.999  16.493  67.845  1.00  0.00    -0.288 C  
BRANCH   9  10
HETATM   10  C   UNL     1     -10.113  17.651  67.647  1.00  0.00    -0.339 A  
HETATM   11  C   UNL     1      -8.980  17.786  68.463  1.00  0.00    -0.288 A  
HETATM   12  C   UNL     1      -8.171  18.890  68.281  1.00  0.00    -0.329 A  
HETATM   13  C   UNL     1      -8.454  19.851  67.340  1.00  0.00    -0.327 A  
HETATM   14  C   UNL     1      -9.566  19.766  66.533  1.00  0.00    -0.509 A  
HETATM   15  O   UNL     1      -7.534  20.850  67.322  1.00  0.00    -0.354 OA 
HETATM   16  C   UNL     1     -10.406  18.658  66.699  1.00  0.00    -0.456 A  
HETATM   17  C   UNL     1      -6.637  20.409  68.362  1.00  0.00    -0.280 C  
HETATM   18  O   UNL     1      -7.036  19.167  68.978  1.00  0.00    -0.325 OA 
ENDBRANCH   9  10
ENDBRANCH   5   8
ENDBRANCH   2   5
TORSDOF 3
ENDMDL
MODEL       27
REMARK 921   NORMALIZED FREE ENERGY PREDICTED BY IDOCK:   -5.27 KCAL/MOL
REMARK 922        TOTAL FREE ENERGY PREDICTED BY IDOCK:   -6.57 KCAL/MOL
REMARK 923 INTER-LIGAND FREE ENERGY PREDICTED BY IDOCK:   -6.22 KCAL/MOL
REMARK 924 INTRA-LIGAND FREE ENERGY PREDICTED BY IDOCK:   -0.36 KCAL/MOL
REMARK 927      BINDING AFFINITY PREDICTED BY RF-SCORE:    0.00 PKD
ROOT
HETATM    1  C   UNL     1     -11.253   5.081  72.991  1.00  0.00    -0.383 C  
HETATM    2  C   UNL     1     -10.793   6.388  72.311  1.00  0.00    -0.272 C  
HETATM    3  C   UNL     1      -9.559   6.073  71.442  1.00  0.00    -0.180 C  
HETATM    4  C   UNL     1     -10.381   7.376  73.421  1.00  0.00    -0.411 C  
ENDROOT
BRANCH   2   5
HETATM    5  C   UNL     1     -11.954   6.941  71.424  1.00  0.00    -0.349 C  
HETATM    6  O   UNL     1     -13.214   6.702  72.047  1.00  0.00    -0.511 OA 
HETATM    7  H   UNL     1     -13.921   7.038  71.509  1.00  0.00     0.000 HD 
BRANCH   5   8
HETATM    8  C   UNL     1     -11.872   8.415  71.121  1.00  0.00    -0.314 C  
HETATM    9  C   UNL     1     -12.796   9.317  71.496  1.00  0.00    -0.427 C  
BRANCH   9  10
HETATM   10  C   UNL     1     -12.719  10.752  71.181  1.00  0.00    -0.532 A  
HETATM   11  C   UNL     1     -11.981  11.162  70.061  1.00  0.00    -0.447 A  
HETATM   12  C   UNL     1     -11.899  12.513  69.791  1.00  0.00    -0.310 A  
HETATM   13  C   UNL     1     -12.507  13.452  70.590  1.00  0.00    -0.311 A  
HETATM   14  C   UNL     1     -13.224  13.093  71.708  1.00  0.00    -0.494 A  
HETATM   15  O   UNL     1     -12.306  14.721  70.148  1.00  0.00    -0.316 OA 
HETATM   16  C   UNL     1     -13.320  11.729  72.008  1.00  0.00    -0.417 A  
HETATM   17  C   UNL     1     -11.499  14.475  68.978  1.00  0.00    -0.290 C  
HETATM   18  O   UNL     1     -11.234  13.076  68.746  1.00  0.00    -0.252 OA 
ENDBRANCH   9  10
ENDBRANCH   5   8
ENDBRANCH   2   5
TORSDOF 3
ENDMDL
MODEL       28
REMARK 921   NORMALIZED FREE ENERGY PREDICTED BY IDOCK:   -5.26 KCAL/MOL
REMARK 922        TOTAL FREE ENERGY PREDICTED BY IDOCK:   -6.57 KCAL/MOL
REMARK 923 INTER-LIGAND FREE ENERGY PREDICTED BY IDOCK:   -6.22 KCAL/MOL
REMARK 924 INTRA-LIGAND FREE ENERGY PREDICTED BY IDOCK:   -0.35 KCAL/MOL
REMARK 927      BINDING AFFINITY PREDICTED BY RF-SCORE:    0.00 PKD
ROOT
HETATM    1  C   UNL     1     -11.248  15.597  64.678  1.00  0.00    -0.380 C  
HETATM    2  C   UNL     1     -11.277  14.213  65.360  1.00  0.00    -0.325 C  
HETATM    3  C   UNL     1     -10.401  13.249  64.536  1.00  0.00    -0.394 C  
HETATM    4  C   UNL     1     -12.734  13.707  65.335  1.00  0.00    -0.500 C  
ENDROOT
BRANCH   2   5
HETATM    5  C   UNL     1     -10.719  14.345  66.814  1.00  0.00    -0.292 C  
HETATM    6  O   UNL     1     -11.027  15.630  67.351  1.00  0.00    -0.314 OA 
HETATM    7  H   UNL     1     -10.688  15.711  68.234  1.00  0.00     0.000 HD 
BRANCH   5   8
HETATM    8  C   UNL     1     -11.234  13.314  67.785  1.00  0.00    -0.308 C  
HETATM    9  C   UNL     1     -11.518  13.565  69.074  1.00  0.00    -0.349 C  
BRANCH   9  10
HETATM   10  C   UNL     1     -12.002  12.550  70.022  1.00  0.00    -0.372 A  
HETATM   11  C   UNL     1     -11.644  11.208  69.821  1.00  0.00    -0.409 A  
HETATM   12  C   UNL     1     -12.124  10.264  70.706  1.00  0.00    -0.353 A  
HETATM   13  C   UNL     1     -12.942  10.602  71.757  1.00  0.00    -0.472 A  
HETATM   14  C   UNL     1     -13.332  11.903  71.978  1.00  0.00    -0.425 A  
HETATM   15  O   UNL     1     -13.300   9.527  72.506  1.00  0.00    -0.418 OA 
HETATM   16  C   UNL     1     -12.863  12.881  71.094  1.00  0.00    -0.326 A  
HETATM   17  C   UNL     1     -12.614   8.469  71.805  1.00  0.00    -0.346 C  
HETATM   18  O   UNL     1     -11.868   8.928  70.659  1.00  0.00    -0.241 OA 
ENDBRANCH   9  10
ENDBRANCH   5   8
ENDBRANCH   2   5
TORSDOF 3
ENDMDL
MODEL       29
REMARK 921   NORMALIZED FREE ENERGY PREDICTED BY IDOCK:   -5.23 KCAL/MOL
REMARK 922        TOTAL FREE ENERGY PREDICTED BY IDOCK:   -6.53 KCAL/MOL
REMARK 923 INTER-LIGAND FREE ENERGY PREDICTED BY IDOCK:   -6.11 KCAL/MOL
REMARK 924 INTRA-LIGAND FREE ENERGY PREDICTED BY IDOCK:   -0.43 KCAL/MOL
REMARK 927      BINDING AFFINITY PREDICTED BY RF-SCORE:    0.00 PKD
ROOT
HETATM    1  C   UNL     1      -8.524  11.482  66.337  1.00  0.00    -0.138 C  
HETATM    2  C   UNL     1      -9.895  11.026  65.793  1.00  0.00    -0.282 C  
HETATM    3  C   UNL     1      -9.658  10.217  64.503  1.00  0.00    -0.378 C  
HETATM    4  C   UNL     1     -10.707  12.291  65.447  1.00  0.00    -0.320 C  
ENDROOT
BRANCH   2   5
HETATM    5  C   UNL     1     -10.604  10.140  66.867  1.00  0.00    -0.200 C  
HETATM    6  O   UNL     1      -9.642   9.399  67.616  1.00  0.00    -0.131 OA 
HETATM    7  H   UNL     1     -10.073   8.860  68.269  1.00  0.00     0.000 HD 
BRANCH   5   8
HETATM    8  C   UNL     1     -11.456  10.899  67.851  1.00  0.00    -0.344 C  
HETATM    9  C   UNL     1     -11.084  11.185  69.111  1.00  0.00    -0.306 C  
BRANCH   9  10
HETATM   10  C   UNL     1     -11.928  11.910  70.073  1.00  0.00    -0.409 A  
HETATM   11  C   UNL     1     -11.996  13.309  69.996  1.00  0.00    -0.399 A  
HETATM   12  C   UNL     1     -12.775  13.977  70.920  1.00  0.00    -0.350 A  
HETATM   13  C   UNL     1     -13.463  13.312  71.907  1.00  0.00    -0.438 A  
HETATM   14  C   UNL     1     -13.407  11.942  72.029  1.00  0.00    -0.425 A  
HETATM   15  O   UNL     1     -14.167  14.153  72.709  1.00  0.00    -0.556 OA 
HETATM   16  C   UNL     1     -12.623  11.240  71.106  1.00  0.00    -0.501 A  
HETATM   17  C   UNL     1     -13.842  15.427  72.115  1.00  0.00    -0.534 C  
HETATM   18  O   UNL     1     -12.956  15.324  70.982  1.00  0.00    -0.395 OA 
ENDBRANCH   9  10
ENDBRANCH   5   8
ENDBRANCH   2   5
TORSDOF 3
ENDMDL
MODEL       30
REMARK 921   NORMALIZED FREE ENERGY PREDICTED BY IDOCK:   -5.22 KCAL/MOL
REMARK 922        TOTAL FREE ENERGY PREDICTED BY IDOCK:   -6.52 KCAL/MOL
REMARK 923 INTER-LIGAND FREE ENERGY PREDICTED BY IDOCK:   -6.17 KCAL/MOL
REMARK 924 INTRA-LIGAND FREE ENERGY PREDICTED BY IDOCK:   -0.35 KCAL/MOL
REMARK 927      BINDING AFFINITY PREDICTED BY RF-SCORE:    0.00 PKD
ROOT
HETATM    1  C   UNL     1     -12.865  11.726  63.722  1.00  0.00    -0.302 C  
HETATM    2  C   UNL     1     -11.535  12.221  64.329  1.00  0.00    -0.429 C  
HETATM    3  C   UNL     1     -10.395  11.343  63.776  1.00  0.00    -0.447 C  
HETATM    4  C   UNL     1     -11.615  12.030  65.857  1.00  0.00    -0.364 C  
ENDROOT
BRANCH   2   5
HETATM    5  C   UNL     1     -11.312  13.715  63.928  1.00  0.00    -0.108 C  
HETATM    6  O   UNL     1     -12.410  14.191  63.151  1.00  0.00    -1.125 OA 
HETATM    7  H   UNL     1     -12.275  15.099  62.907  1.00  0.00     0.000 HD 
BRANCH   5   8
HETATM    8  C   UNL     1     -11.134  14.661  65.087  1.00  0.00    -0.382 C  
HETATM    9  C   UNL     1     -10.849  15.968  64.958  1.00  0.00    -0.421 C  
BRANCH   9  10
HETATM   10  C   UNL     1     -10.657  16.883  66.094  1.00  0.00    -0.195 A  
HETATM   11  C   UNL     1     -10.476  18.251  65.840  1.00  0.00    -0.324 A  
HETATM   12  C   UNL     1     -10.274  19.094  66.915  1.00  0.00    -0.395 A  
HETATM   13  C   UNL     1     -10.235  18.628  68.207  1.00  0.00    -0.380 A  
HETATM   14  C   UNL     1     -10.388  17.291  68.497  1.00  0.00    -0.371 A  
HETATM   15  O   UNL     1     -10.027  19.619  69.113  1.00  0.00    -0.441 OA 
HETATM   16  C   UNL     1     -10.591  16.413  67.426  1.00  0.00    -0.306 A  
HETATM   17  C   UNL     1      -9.939  20.766  68.242  1.00  0.00     0.267 C  
HETATM   18  O   UNL     1     -10.091  20.441  66.845  1.00  0.00    -0.453 OA 
ENDBRANCH   9  10
ENDBRANCH   5   8
ENDBRANCH   2   5
TORSDOF 3
ENDMDL
MODEL       31
REMARK 921   NORMALIZED FREE ENERGY PREDICTED BY IDOCK:   -5.22 KCAL/MOL
REMARK 922        TOTAL FREE ENERGY PREDICTED BY IDOCK:   -6.52 KCAL/MOL
REMARK 923 INTER-LIGAND FREE ENERGY PREDICTED BY IDOCK:   -6.12 KCAL/MOL
REMARK 924 INTRA-LIGAND FREE ENERGY PREDICTED BY IDOCK:   -0.39 KCAL/MOL
REMARK 927      BINDING AFFINITY PREDICTED BY RF-SCORE:    0.00 PKD
ROOT
HETATM    1  C   UNL     1     -12.576  11.862  63.527  1.00  0.00    -0.579 C  
HETATM    2  C   UNL     1     -11.654  12.685  64.453  1.00  0.00    -0.415 C  
HETATM    3  C   UNL     1     -10.200  12.495  63.980  1.00  0.00    -0.390 C  
HETATM    4  C   UNL     1     -11.793  12.115  65.880  1.00  0.00    -0.342 C  
ENDROOT
BRANCH   2   5
HETATM    5  C   UNL     1     -12.059  14.191  64.373  1.00  0.00    -0.463 C  
HETATM    6  O   UNL     1     -13.178  14.453  65.218  1.00  0.00    -0.619 OA 
HETATM    7  H   UNL     1     -13.425  15.369  65.169  1.00  0.00     0.000 HD 
BRANCH   5   8
HETATM    8  C   UNL     1     -10.969  15.160  64.754  1.00  0.00    -0.394 C  
HETATM    9  C   UNL     1     -10.724  15.567  66.011  1.00  0.00    -0.331 C  
BRANCH   9  10
HETATM   10  C   UNL     1      -9.671  16.528  66.374  1.00  0.00    -0.305 A  
HETATM   11  C   UNL     1      -9.978  17.897  66.389  1.00  0.00    -0.358 A  
HETATM   12  C   UNL     1      -8.974  18.788  66.709  1.00  0.00    -0.308 A  
HETATM   13  C   UNL     1      -7.696  18.371  66.998  1.00  0.00    -0.222 A  
HETATM   14  C   UNL     1      -7.350  17.039  66.975  1.00  0.00    -0.220 A  
HETATM   15  O   UNL     1      -6.863  19.404  67.287  1.00  0.00    -0.198 OA 
HETATM   16  C   UNL     1      -8.348  16.113  66.651  1.00  0.00    -0.321 A  
HETATM   17  C   UNL     1      -7.763  20.523  67.147  1.00  0.00    -0.322 C  
HETATM   18  O   UNL     1      -9.104  20.141  66.777  1.00  0.00    -0.339 OA 
ENDBRANCH   9  10
ENDBRANCH   5   8
ENDBRANCH   2   5
TORSDOF 3
ENDMDL
MODEL       32
REMARK 921   NORMALIZED FREE ENERGY PREDICTED BY IDOCK:   -5.19 KCAL/MOL
REMARK 922        TOTAL FREE ENERGY PREDICTED BY IDOCK:   -6.48 KCAL/MOL
REMARK 923 INTER-LIGAND FREE ENERGY PREDICTED BY IDOCK:   -6.09 KCAL/MOL
REMARK 924 INTRA-LIGAND FREE ENERGY PREDICTED BY IDOCK:   -0.39 KCAL/MOL
REMARK 927      BINDING AFFINITY PREDICTED BY RF-SCORE:    0.00 PKD
ROOT
HETATM    1  C   UNL     1     -10.631  14.795  64.756  1.00  0.00    -0.355 C  
HETATM    2  C   UNL     1     -11.288  13.409  64.935  1.00  0.00    -0.345 C  
HETATM    3  C   UNL     1     -11.761  12.916  63.554  1.00  0.00    -0.576 C  
HETATM    4  C   UNL     1     -12.517  13.586  65.849  1.00  0.00    -0.484 C  
ENDROOT
BRANCH   2   5
HETATM    5  C   UNL     1     -10.239  12.418  65.535  1.00  0.00    -0.274 C  
HETATM    6  O   UNL     1      -9.056  13.116  65.919  1.00  0.00    -0.447 OA 
HETATM    7  H   UNL     1      -8.418  12.514  66.284  1.00  0.00     0.000 HD 
BRANCH   5   8
HETATM    8  C   UNL     1     -10.717  11.643  66.737  1.00  0.00    -0.299 C  
HETATM    9  C   UNL     1     -10.039  11.549  67.894  1.00  0.00    -0.202 C  
BRANCH   9  10
HETATM   10  C   UNL     1     -10.500  10.776  69.056  1.00  0.00    -0.239 A  
HETATM   11  C   UNL     1     -11.822  10.939  69.499  1.00  0.00    -0.404 A  
HETATM   12  C   UNL     1     -12.234  10.223  70.605  1.00  0.00    -0.329 A  
HETATM   13  C   UNL     1     -11.387   9.376  71.280  1.00  0.00    -0.366 A  
HETATM   14  C   UNL     1     -10.078   9.203  70.890  1.00  0.00    -0.356 A  
HETATM   15  O   UNL     1     -11.989   8.770  72.336  1.00  0.00    -0.359 OA 
HETATM   16  C   UNL     1      -9.633   9.919  69.773  1.00  0.00    -0.261 A  
HETATM   17  C   UNL     1     -13.315   9.332  72.250  1.00  0.00    -0.477 C  
HETATM   18  O   UNL     1     -13.477  10.258  71.157  1.00  0.00    -0.316 OA 
ENDBRANCH   9  10
ENDBRANCH   5   8
ENDBRANCH   2   5
TORSDOF 3
ENDMDL
MODEL       33
REMARK 921   NORMALIZED FREE ENERGY PREDICTED BY IDOCK:   -5.19 KCAL/MOL
REMARK 922        TOTAL FREE ENERGY PREDICTED BY IDOCK:   -6.48 KCAL/MOL
REMARK 923 INTER-LIGAND FREE ENERGY PREDICTED BY IDOCK:   -6.08 KCAL/MOL
REMARK 924 INTRA-LIGAND FREE ENERGY PREDICTED BY IDOCK:   -0.40 KCAL/MOL
REMARK 927      BINDING AFFINITY PREDICTED BY RF-SCORE:    0.00 PKD
ROOT
HETATM    1  C   UNL     1      -7.979  20.342  67.279  1.00  0.00    -0.376 C  
HETATM    2  C   UNL     1      -8.892  19.118  67.056  1.00  0.00    -0.318 C  
HETATM    3  C   UNL     1      -8.086  18.046  66.296  1.00  0.00    -0.259 C  
HETATM    4  C   UNL     1     -10.076  19.569  66.177  1.00  0.00    -0.557 C  
ENDROOT
BRANCH   2   5
HETATM    5  C   UNL     1      -9.357  18.566  68.441  1.00  0.00    -0.334 C  
HETATM    6  O   UNL     1     -10.516  19.263  68.892  1.00  0.00    -0.491 OA 
HETATM    7  H   UNL     1     -10.800  18.928  69.735  1.00  0.00     0.000 HD 
BRANCH   5   8
HETATM    8  C   UNL     1      -9.679  17.094  68.460  1.00  0.00    -0.291 C  
HETATM    9  C   UNL     1     -10.884  16.580  68.159  1.00  0.00    -0.345 C  
BRANCH   9  10
HETATM   10  C   UNL     1     -11.198  15.143  68.197  1.00  0.00    -0.326 A  
HETATM   11  C   UNL     1     -11.629  14.575  69.406  1.00  0.00    -0.343 A  
HETATM   12  C   UNL     1     -11.898  13.221  69.432  1.00  0.00    -0.329 A  
HETATM   13  C   UNL     1     -11.744  12.428  68.321  1.00  0.00    -0.345 A  
HETATM   14  C   UNL     1     -11.305  12.942  67.122  1.00  0.00    -0.352 A  
HETATM   15  O   UNL     1     -12.062  11.129  68.559  1.00  0.00    -0.586 OA 
HETATM   16  C   UNL     1     -11.022  14.312  67.067  1.00  0.00    -0.305 A  
HETATM   17  C   UNL     1     -12.435  11.193  69.951  1.00  0.00    -0.190 C  
HETATM   18  O   UNL     1     -12.330  12.517  70.514  1.00  0.00    -0.332 OA 
ENDBRANCH   9  10
ENDBRANCH   5   8
ENDBRANCH   2   5
TORSDOF 3
ENDMDL
MODEL       34
REMARK 921   NORMALIZED FREE ENERGY PREDICTED BY IDOCK:   -5.17 KCAL/MOL
REMARK 922        TOTAL FREE ENERGY PREDICTED BY IDOCK:   -6.46 KCAL/MOL
REMARK 923 INTER-LIGAND FREE ENERGY PREDICTED BY IDOCK:   -6.06 KCAL/MOL
REMARK 924 INTRA-LIGAND FREE ENERGY PREDICTED BY IDOCK:   -0.39 KCAL/MOL
REMARK 927      BINDING AFFINITY PREDICTED BY RF-SCORE:    0.00 PKD
ROOT
HETATM    1  C   UNL     1     -12.896   8.761  71.494  1.00  0.00    -0.366 C  
HETATM    2  C   UNL     1     -11.415   8.360  71.317  1.00  0.00    -0.325 C  
HETATM    3  C   UNL     1     -11.335   7.276  70.224  1.00  0.00    -0.266 C  
HETATM    4  C   UNL     1     -10.928   7.760  72.651  1.00  0.00    -0.422 C  
ENDROOT
BRANCH   2   5
HETATM    5  C   UNL     1     -10.591   9.618  70.894  1.00  0.00    -0.316 C  
HETATM    6  O   UNL     1      -9.236   9.494  71.324  1.00  0.00    -0.311 OA 
HETATM    7  H   UNL     1      -8.734  10.258  71.067  1.00  0.00     0.000 HD 
BRANCH   5   8
HETATM    8  C   UNL     1     -10.572   9.894  69.413  1.00  0.00    -0.250 C  
HETATM    9  C   UNL     1     -11.000  11.038  68.851  1.00  0.00    -0.277 C  
BRANCH   9  10
HETATM   10  C   UNL     1     -10.997  11.294  67.403  1.00  0.00    -0.337 A  
HETATM   11  C   UNL     1     -11.844  12.286  66.888  1.00  0.00    -0.334 A  
HETATM   12  C   UNL     1     -11.848  12.500  65.524  1.00  0.00    -0.439 A  
HETATM   13  C   UNL     1     -11.060  11.764  64.671  1.00  0.00    -0.303 A  
HETATM   14  C   UNL     1     -10.230  10.768  65.134  1.00  0.00    -0.365 A  
HETATM   15  O   UNL     1     -11.212  12.132  63.372  1.00  0.00    -0.427 OA 
HETATM   16  C   UNL     1     -10.209  10.528  66.513  1.00  0.00    -0.288 A  
HETATM   17  C   UNL     1     -12.188  13.186  63.503  1.00  0.00    -0.476 C  
HETATM   18  O   UNL     1     -12.599  13.423  64.865  1.00  0.00    -0.562 OA 
ENDBRANCH   9  10
ENDBRANCH   5   8
ENDBRANCH   2   5
TORSDOF 3
ENDMDL
MODEL       35
REMARK 921   NORMALIZED FREE ENERGY PREDICTED BY IDOCK:   -5.16 KCAL/MOL
REMARK 922        TOTAL FREE ENERGY PREDICTED BY IDOCK:   -6.45 KCAL/MOL
REMARK 923 INTER-LIGAND FREE ENERGY PREDICTED BY IDOCK:   -6.05 KCAL/MOL
REMARK 924 INTRA-LIGAND FREE ENERGY PREDICTED BY IDOCK:   -0.40 KCAL/MOL
REMARK 927      BINDING AFFINITY PREDICTED BY RF-SCORE:    0.00 PKD
ROOT
HETATM    1  C   UNL     1     -12.212  11.750  63.616  1.00  0.00    -0.489 C  
HETATM    2  C   UNL     1     -11.222  12.018  64.770  1.00  0.00    -0.373 C  
HETATM    3  C   UNL     1     -10.094  12.924  64.239  1.00  0.00    -0.251 C  
HETATM    4  C   UNL     1     -10.616  10.665  65.194  1.00  0.00    -0.190 C  
ENDROOT
BRANCH   2   5
HETATM    5  C   UNL     1     -11.979  12.723  65.941  1.00  0.00    -0.449 C  
HETATM    6  O   UNL     1     -11.789  12.007  67.160  1.00  0.00    -0.565 OA 
HETATM    7  H   UNL     1     -12.249  12.436  67.873  1.00  0.00     0.000 HD 
BRANCH   5   8
HETATM    8  C   UNL     1     -11.571  14.153  66.188  1.00  0.00    -0.377 C  
HETATM    9  C   UNL     1     -11.167  14.629  67.379  1.00  0.00    -0.351 C  
BRANCH   9  10
HETATM   10  C   UNL     1     -10.788  16.030  67.618  1.00  0.00    -0.311 A  
HETATM   11  C   UNL     1     -10.636  16.889  66.520  1.00  0.00    -0.185 A  
HETATM   12  C   UNL     1     -10.259  18.195  66.758  1.00  0.00    -0.372 A  
HETATM   13  C   UNL     1     -10.019  18.662  68.029  1.00  0.00    -0.351 A  
HETATM   14  C   UNL     1     -10.137  17.847  69.131  1.00  0.00    -0.220 A  
HETATM   15  O   UNL     1      -9.661  19.972  68.044  1.00  0.00    -0.366 OA 
HETATM   16  C   UNL     1     -10.517  16.516  68.918  1.00  0.00    -0.304 A  
HETATM   17  C   UNL     1      -9.701  20.279  66.635  1.00  0.00    -0.414 C  
HETATM   18  O   UNL     1     -10.076  19.156  65.812  1.00  0.00    -0.479 OA 
ENDBRANCH   9  10
ENDBRANCH   5   8
ENDBRANCH   2   5
TORSDOF 3
ENDMDL
MODEL       36
REMARK 921   NORMALIZED FREE ENERGY PREDICTED BY IDOCK:   -5.14 KCAL/MOL
REMARK 922        TOTAL FREE ENERGY PREDICTED BY IDOCK:   -6.43 KCAL/MOL
REMARK 923 INTER-LIGAND FREE ENERGY PREDICTED BY IDOCK:   -6.07 KCAL/MOL
REMARK 924 INTRA-LIGAND FREE ENERGY PREDICTED BY IDOCK:   -0.36 KCAL/MOL
REMARK 927      BINDING AFFINITY PREDICTED BY RF-SCORE:    0.00 PKD
ROOT
HETATM    1  C   UNL     1     -10.641  17.462  67.856  1.00  0.00    -0.383 C  
HETATM    2  C   UNL     1     -10.356  17.510  66.339  1.00  0.00    -0.334 C  
HETATM    3  C   UNL     1      -8.869  17.172  66.117  1.00  0.00    -0.220 C  
HETATM    4  C   UNL     1     -10.616  18.952  65.858  1.00  0.00    -0.438 C  
ENDROOT
BRANCH   2   5
HETATM    5  C   UNL     1     -11.264  16.468  65.613  1.00  0.00     0.248 C  
HETATM    6  O   UNL     1     -11.167  16.621  64.198  1.00  0.00    -1.410 OA 
HETATM    7  H   UNL     1     -11.719  15.988  63.756  1.00  0.00     0.000 HD 
BRANCH   5   8
HETATM    8  C   UNL     1     -10.957  15.028  65.933  1.00  0.00    -0.343 C  
HETATM    9  C   UNL     1     -11.759  14.226  66.655  1.00  0.00    -0.417 C  
BRANCH   9  10
HETATM   10  C   UNL     1     -11.444  12.827  66.981  1.00  0.00    -0.397 A  
HETATM   11  C   UNL     1     -10.843  12.021  66.003  1.00  0.00    -0.329 A  
HETATM   12  C   UNL     1     -10.575  10.703  66.316  1.00  0.00    -0.161 A  
HETATM   13  C   UNL     1     -10.890  10.169  67.543  1.00  0.00    -0.290 A  
HETATM   14  C   UNL     1     -11.498  10.920  68.523  1.00  0.00    -0.380 A  
HETATM   15  O   UNL     1     -10.541   8.860  67.646  1.00  0.00    -0.258 OA 
HETATM   16  C   UNL     1     -11.784  12.259  68.231  1.00  0.00    -0.392 A  
HETATM   17  C   UNL     1      -9.970   8.629  66.342  1.00  0.00    -0.260 C  
HETATM   18  O   UNL     1      -9.991   9.793  65.491  1.00  0.00    -0.307 OA 
ENDBRANCH   9  10
ENDBRANCH   5   8
ENDBRANCH   2   5
TORSDOF 3
ENDMDL
MODEL       37
REMARK 921   NORMALIZED FREE ENERGY PREDICTED BY IDOCK:   -5.08 KCAL/MOL
REMARK 922        TOTAL FREE ENERGY PREDICTED BY IDOCK:   -6.36 KCAL/MOL
REMARK 923 INTER-LIGAND FREE ENERGY PREDICTED BY IDOCK:   -5.95 KCAL/MOL
REMARK 924 INTRA-LIGAND FREE ENERGY PREDICTED BY IDOCK:   -0.40 KCAL/MOL
REMARK 927      BINDING AFFINITY PREDICTED BY RF-SCORE:    0.00 PKD
ROOT
HETATM    1  C   UNL     1     -13.036   7.221  71.509  1.00  0.00    -0.434 C  
HETATM    2  C   UNL     1     -11.958   8.287  71.799  1.00  0.00    -0.364 C  
HETATM    3  C   UNL     1     -11.107   7.802  72.989  1.00  0.00    -0.419 C  
HETATM    4  C   UNL     1     -12.681   9.588  72.201  1.00  0.00    -0.442 C  
ENDROOT
BRANCH   2   5
HETATM    5  C   UNL     1     -11.064   8.471  70.532  1.00  0.00    -0.244 C  
HETATM    6  O   UNL     1     -11.502   7.610  69.483  1.00  0.00    -0.442 OA 
HETATM    7  H   UNL     1     -10.959   7.721  68.712  1.00  0.00     0.000 HD 
BRANCH   5   8
HETATM    8  C   UNL     1     -11.029   9.873  69.981  1.00  0.00    -0.338 C  
HETATM    9  C   UNL     1     -11.531  10.228  68.785  1.00  0.00    -0.176 C  
BRANCH   9  10
HETATM   10  C   UNL     1     -11.477  11.595  68.244  1.00  0.00    -0.369 A  
HETATM   11  C   UNL     1     -11.307  11.772  66.863  1.00  0.00    -0.386 A  
HETATM   12  C   UNL     1     -11.235  13.060  66.373  1.00  0.00    -0.300 A  
HETATM   13  C   UNL     1     -11.312  14.157  67.197  1.00  0.00    -0.332 A  
HETATM   14  C   UNL     1     -11.458  14.027  68.560  1.00  0.00    -0.336 A  
HETATM   15  O   UNL     1     -11.221  15.329  66.516  1.00  0.00    -0.316 OA 
HETATM   16  C   UNL     1     -11.531  12.732  69.084  1.00  0.00    -0.361 A  
HETATM   17  C   UNL     1     -11.077  14.845  65.165  1.00  0.00    -0.393 C  
HETATM   18  O   UNL     1     -11.082  13.406  65.066  1.00  0.00    -0.300 OA 
ENDBRANCH   9  10
ENDBRANCH   5   8
ENDBRANCH   2   5
TORSDOF 3
ENDMDL
MODEL       38
REMARK 921   NORMALIZED FREE ENERGY PREDICTED BY IDOCK:   -5.06 KCAL/MOL
REMARK 922        TOTAL FREE ENERGY PREDICTED BY IDOCK:   -6.33 KCAL/MOL
REMARK 923 INTER-LIGAND FREE ENERGY PREDICTED BY IDOCK:   -5.93 KCAL/MOL
REMARK 924 INTRA-LIGAND FREE ENERGY PREDICTED BY IDOCK:   -0.40 KCAL/MOL
REMARK 927      BINDING AFFINITY PREDICTED BY RF-SCORE:    0.00 PKD
ROOT
HETATM    1  C   UNL     1      -9.334  13.231  66.696  1.00  0.00    -0.247 C  
HETATM    2  C   UNL     1      -9.858  11.778  66.674  1.00  0.00    -0.223 C  
HETATM    3  C   UNL     1      -9.058  10.961  67.707  1.00  0.00    -0.149 C  
HETATM    4  C   UNL     1      -9.590  11.203  65.268  1.00  0.00    -0.268 C  
ENDROOT
BRANCH   2   5
HETATM    5  C   UNL     1     -11.377  11.775  67.038  1.00  0.00    -0.321 C  
HETATM    6  O   UNL     1     -11.815  10.452  67.338  1.00  0.00    -0.316 OA 
HETATM    7  H   UNL     1     -12.739  10.449  67.559  1.00  0.00     0.000 HD 
BRANCH   5   8
HETATM    8  C   UNL     1     -11.749  12.651  68.206  1.00  0.00    -0.389 C  
HETATM    9  C   UNL     1     -11.906  12.206  69.465  1.00  0.00    -0.386 C  
BRANCH   9  10
HETATM   10  C   UNL     1     -12.289  13.062  70.598  1.00  0.00    -0.391 A  
HETATM   11  C   UNL     1     -11.692  14.325  70.726  1.00  0.00    -0.270 A  
HETATM   12  C   UNL     1     -12.044  15.109  71.806  1.00  0.00    -0.370 A  
HETATM   13  C   UNL     1     -12.944  14.679  72.753  1.00  0.00    -0.470 A  
HETATM   14  C   UNL     1     -13.537  13.440  72.675  1.00  0.00    -0.543 A  
HETATM   15  O   UNL     1     -13.151  15.600  73.730  1.00  0.00    -0.495 OA 
HETATM   16  C   UNL     1     -13.196  12.624  71.590  1.00  0.00    -0.394 A  
HETATM   17  C   UNL     1     -12.277  16.660  73.292  1.00  0.00    -0.257 C  
HETATM   18  O   UNL     1     -11.568  16.355  72.074  1.00  0.00    -0.444 OA 
ENDBRANCH   9  10
ENDBRANCH   5   8
ENDBRANCH   2   5
TORSDOF 3
ENDMDL
MODEL       39
REMARK 921   NORMALIZED FREE ENERGY PREDICTED BY IDOCK:   -5.02 KCAL/MOL
REMARK 922        TOTAL FREE ENERGY PREDICTED BY IDOCK:   -6.29 KCAL/MOL
REMARK 923 INTER-LIGAND FREE ENERGY PREDICTED BY IDOCK:   -5.89 KCAL/MOL
REMARK 924 INTRA-LIGAND FREE ENERGY PREDICTED BY IDOCK:   -0.39 KCAL/MOL
REMARK 927      BINDING AFFINITY PREDICTED BY RF-SCORE:    0.00 PKD
ROOT
HETATM    1  C   UNL     1      -8.573  18.707  66.554  1.00  0.00    -0.307 C  
HETATM    2  C   UNL     1      -9.415  17.982  67.627  1.00  0.00    -0.264 C  
HETATM    3  C   UNL     1     -10.007  19.042  68.575  1.00  0.00    -0.486 C  
HETATM    4  C   UNL     1      -8.466  17.069  68.430  1.00  0.00    -0.239 C  
ENDROOT
BRANCH   2   5
HETATM    5  C   UNL     1     -10.558  17.181  66.926  1.00  0.00    -0.209 C  
HETATM    6  O   UNL     1     -10.330  17.112  65.520  1.00  0.00    -0.599 OA 
HETATM    7  H   UNL     1     -11.025  16.625  65.093  1.00  0.00     0.000 HD 
BRANCH   5   8
HETATM    8  C   UNL     1     -10.739  15.770  67.424  1.00  0.00    -0.317 C  
HETATM    9  C   UNL     1     -11.692  15.391  68.294  1.00  0.00    -0.313 C  
BRANCH   9  10
HETATM   10  C   UNL     1     -11.851  14.016  68.791  1.00  0.00    -0.396 A  
HETATM   11  C   UNL     1     -12.350  13.817  70.087  1.00  0.00    -0.390 A  
HETATM   12  C   UNL     1     -12.473  12.522  70.548  1.00  0.00    -0.185 A  
HETATM   13  C   UNL     1     -12.111  11.440  69.782  1.00  0.00    -0.320 A  
HETATM   14  C   UNL     1     -11.599  11.593  68.513  1.00  0.00    -0.379 A  
HETATM   15  O   UNL     1     -12.312  10.258  70.421  1.00  0.00    -0.276 OA 
HETATM   16  C   UNL     1     -11.461  12.896  68.021  1.00  0.00    -0.361 A  
HETATM   17  C   UNL     1     -12.842  10.719  71.681  1.00  0.00    -0.457 C  
HETATM   18  O   UNL     1     -12.944  12.155  71.771  1.00  0.00    -0.397 OA 
ENDBRANCH   9  10
ENDBRANCH   5   8
ENDBRANCH   2   5
TORSDOF 3
ENDMDL
MODEL       40
REMARK 921   NORMALIZED FREE ENERGY PREDICTED BY IDOCK:   -5.01 KCAL/MOL
REMARK 922        TOTAL FREE ENERGY PREDICTED BY IDOCK:   -6.28 KCAL/MOL
REMARK 923 INTER-LIGAND FREE ENERGY PREDICTED BY IDOCK:   -5.86 KCAL/MOL
REMARK 924 INTRA-LIGAND FREE ENERGY PREDICTED BY IDOCK:   -0.41 KCAL/MOL
REMARK 927      BINDING AFFINITY PREDICTED BY RF-SCORE:    0.00 PKD
ROOT
HETATM    1  C   UNL     1      -7.985  18.325  66.489  1.00  0.00    -0.294 C  
HETATM    2  C   UNL     1      -9.238  18.885  67.196  1.00  0.00    -0.313 C  
HETATM    3  C   UNL     1      -9.195  20.423  67.111  1.00  0.00    -0.511 C  
HETATM    4  C   UNL     1      -9.168  18.465  68.678  1.00  0.00    -0.328 C  
ENDROOT
BRANCH   2   5
HETATM    5  C   UNL     1     -10.517  18.338  66.483  1.00  0.00    -0.356 C  
HETATM    6  O   UNL     1     -10.822  19.125  65.334  1.00  0.00    -0.518 OA 
HETATM    7  H   UNL     1     -11.599  18.793  64.900  1.00  0.00     0.000 HD 
BRANCH   5   8
HETATM    8  C   UNL     1     -10.426  16.902  66.037  1.00  0.00    -0.297 C  
HETATM    9  C   UNL     1     -10.999  15.872  66.684  1.00  0.00    -0.136 C  
BRANCH   9  10
HETATM   10  C   UNL     1     -10.892  14.469  66.254  1.00  0.00    -0.317 A  
HETATM   11  C   UNL     1     -10.584  14.192  64.914  1.00  0.00    -0.449 A  
HETATM   12  C   UNL     1     -10.508  12.871  64.520  1.00  0.00    -0.377 A  
HETATM   13  C   UNL     1     -10.738  11.837  65.397  1.00  0.00    -0.283 A  
HETATM   14  C   UNL     1     -11.062  12.067  66.715  1.00  0.00    -0.353 A  
HETATM   15  O   UNL     1     -10.613  10.619  64.810  1.00  0.00    -0.291 OA 
HETATM   16  C   UNL     1     -11.148  13.397  67.140  1.00  0.00    -0.303 A  
HETATM   17  C   UNL     1     -10.279  11.002  63.460  1.00  0.00    -0.365 C  
HETATM   18  O   UNL     1     -10.214  12.430  63.267  1.00  0.00    -0.373 OA 
ENDBRANCH   9  10
ENDBRANCH   5   8
ENDBRANCH   2   5
TORSDOF 3
ENDMDL
MODEL       41
REMARK 921   NORMALIZED FREE ENERGY PREDICTED BY IDOCK:   -4.99 KCAL/MOL
REMARK 922        TOTAL FREE ENERGY PREDICTED BY IDOCK:   -6.25 KCAL/MOL
REMARK 923 INTER-LIGAND FREE ENERGY PREDICTED BY IDOCK:   -5.90 KCAL/MOL
REMARK 924 INTRA-LIGAND FREE ENERGY PREDICTED BY IDOCK:   -0.35 KCAL/MOL
REMARK 927      BINDING AFFINITY PREDICTED BY RF-SCORE:    0.00 PKD
ROOT
HETATM    1  C   UNL     1     -10.185   9.614  66.653  1.00  0.00    -0.302 C  
HETATM    2  C   UNL     1     -10.156  10.963  65.903  1.00  0.00    -0.307 C  
HETATM    3  C   UNL     1     -10.246  10.677  64.391  1.00  0.00    -0.400 C  
HETATM    4  C   UNL     1      -8.801  11.637  66.203  1.00  0.00    -0.139 C  
ENDROOT
BRANCH   2   5
HETATM    5  C   UNL     1     -11.368  11.834  66.364  1.00  0.00    -0.297 C  
HETATM    6  O   UNL     1     -11.839  11.398  67.637  1.00  0.00    -0.609 OA 
HETATM    7  H   UNL     1     -12.576  11.927  67.918  1.00  0.00     0.000 HD 
BRANCH   5   8
HETATM    8  C   UNL     1     -11.083  13.310  66.467  1.00  0.00    -0.313 C  
HETATM    9  C   UNL     1     -11.107  14.005  67.617  1.00  0.00    -0.298 C  
BRANCH   9  10
HETATM   10  C   UNL     1     -10.848  15.450  67.710  1.00  0.00    -0.302 A  
HETATM   11  C   UNL     1     -10.742  16.198  66.527  1.00  0.00    -0.220 A  
HETATM   12  C   UNL     1     -10.476  17.548  66.629  1.00  0.00    -0.270 A  
HETATM   13  C   UNL     1     -10.302  18.165  67.845  1.00  0.00    -0.396 A  
HETATM   14  C   UNL     1     -10.377  17.464  69.027  1.00  0.00    -0.319 A  
HETATM   15  O   UNL     1     -10.051  19.495  67.724  1.00  0.00    -0.364 OA 
HETATM   16  C   UNL     1     -10.644  16.092  68.953  1.00  0.00    -0.275 A  
HETATM   17  C   UNL     1     -10.085  19.646  66.290  1.00  0.00    -0.480 C  
HETATM   18  O   UNL     1     -10.351  18.415  65.587  1.00  0.00    -0.605 OA 
ENDBRANCH   9  10
ENDBRANCH   5   8
ENDBRANCH   2   5
TORSDOF 3
ENDMDL
MODEL       42
REMARK 921   NORMALIZED FREE ENERGY PREDICTED BY IDOCK:   -4.96 KCAL/MOL
REMARK 922        TOTAL FREE ENERGY PREDICTED BY IDOCK:   -6.22 KCAL/MOL
REMARK 923 INTER-LIGAND FREE ENERGY PREDICTED BY IDOCK:   -5.79 KCAL/MOL
REMARK 924 INTRA-LIGAND FREE ENERGY PREDICTED BY IDOCK:   -0.43 KCAL/MOL
REMARK 927      BINDING AFFINITY PREDICTED BY RF-SCORE:    0.00 PKD
ROOT
HETATM    1  C   UNL     1      -9.628   8.901  71.619  1.00  0.00    -0.363 C  
HETATM    2  C   UNL     1     -10.955   8.622  70.881  1.00  0.00    -0.301 C  
HETATM    3  C   UNL     1     -11.771   9.928  70.843  1.00  0.00    -0.449 C  
HETATM    4  C   UNL     1     -11.735   7.571  71.698  1.00  0.00    -0.313 C  
ENDROOT
BRANCH   2   5
HETATM    5  C   UNL     1     -10.643   8.134  69.430  1.00  0.00    -0.200 C  
HETATM    6  O   UNL     1     -11.307   6.900  69.165  1.00  0.00    -0.501 OA 
HETATM    7  H   UNL     1     -11.117   6.603  68.283  1.00  0.00     0.000 HD 
BRANCH   5   8
HETATM    8  C   UNL     1     -11.031   9.100  68.341  1.00  0.00    -0.001 C  
HETATM    9  C   UNL     1     -10.165   9.646  67.470  1.00  0.00    -0.274 C  
BRANCH   9  10
HETATM   10  C   UNL     1     -10.547  10.603  66.420  1.00  0.00    -0.240 A  
HETATM   11  C   UNL     1     -11.309  11.727  66.773  1.00  0.00    -0.385 A  
HETATM   12  C   UNL     1     -11.679  12.605  65.774  1.00  0.00    -0.419 A  
HETATM   13  C   UNL     1     -11.334  12.398  64.460  1.00  0.00    -0.328 A  
HETATM   14  C   UNL     1     -10.604  11.298  64.069  1.00  0.00    -0.450 A  
HETATM   15  O   UNL     1     -11.795  13.378  63.639  1.00  0.00    -0.447 OA 
HETATM   16  C   UNL     1     -10.218  10.390  65.062  1.00  0.00    -0.334 A  
HETATM   17  C   UNL     1     -12.473  14.228  64.587  1.00  0.00    -0.351 C  
HETATM   18  O   UNL     1     -12.407  13.742  65.944  1.00  0.00    -0.434 OA 
ENDBRANCH   9  10
ENDBRANCH   5   8
ENDBRANCH   2   5
TORSDOF 3
ENDMDL
MODEL       43
REMARK 921   NORMALIZED FREE ENERGY PREDICTED BY IDOCK:   -4.96 KCAL/MOL
REMARK 922        TOTAL FREE ENERGY PREDICTED BY IDOCK:   -6.21 KCAL/MOL
REMARK 923 INTER-LIGAND FREE ENERGY PREDICTED BY IDOCK:   -5.88 KCAL/MOL
REMARK 924 INTRA-LIGAND FREE ENERGY PREDICTED BY IDOCK:   -0.33 KCAL/MOL
REMARK 927      BINDING AFFINITY PREDICTED BY RF-SCORE:    0.00 PKD
ROOT
HETATM    1  C   UNL     1     -13.250   8.720  72.176  1.00  0.00    -0.456 C  
HETATM    2  C   UNL     1     -11.799   8.439  71.732  1.00  0.00    -0.374 C  
HETATM    3  C   UNL     1     -11.840   7.503  70.509  1.00  0.00    -0.144 C  
HETATM    4  C   UNL     1     -11.085   7.713  72.891  1.00  0.00    -0.448 C  
ENDROOT
BRANCH   2   5
HETATM    5  C   UNL     1     -11.105   9.789  71.360  1.00  0.00    -0.247 C  
HETATM    6  O   UNL     1      -9.689   9.629  71.326  1.00  0.00    -0.263 OA 
HETATM    7  H   UNL     1      -9.267  10.449  71.100  1.00  0.00     0.000 HD 
BRANCH   5   8
HETATM    8  C   UNL     1     -11.526  10.372  70.036  1.00  0.00    -0.382 C  
HETATM    9  C   UNL     1     -10.826  11.301  69.362  1.00  0.00    -0.239 C  
BRANCH   9  10
HETATM   10  C   UNL     1     -11.252  11.881  68.079  1.00  0.00    -0.317 A  
HETATM   11  C   UNL     1     -10.954  11.195  66.892  1.00  0.00    -0.333 A  
HETATM   12  C   UNL     1     -11.340  11.762  65.695  1.00  0.00    -0.233 A  
HETATM   13  C   UNL     1     -11.989  12.973  65.640  1.00  0.00    -0.429 A  
HETATM   14  C   UNL     1     -12.282  13.687  66.779  1.00  0.00    -0.416 A  
HETATM   15  O   UNL     1     -12.280  13.351  64.368  1.00  0.00    -0.414 OA 
HETATM   16  C   UNL     1     -11.899  13.136  68.007  1.00  0.00    -0.398 A  
HETATM   17  C   UNL     1     -11.739  12.239  63.625  1.00  0.00    -0.504 C  
HETATM   18  O   UNL     1     -11.138  11.228  64.460  1.00  0.00    -0.283 OA 
ENDBRANCH   9  10
ENDBRANCH   5   8
ENDBRANCH   2   5
TORSDOF 3
ENDMDL
MODEL       44
REMARK 921   NORMALIZED FREE ENERGY PREDICTED BY IDOCK:   -4.96 KCAL/MOL
REMARK 922        TOTAL FREE ENERGY PREDICTED BY IDOCK:   -6.21 KCAL/MOL
REMARK 923 INTER-LIGAND FREE ENERGY PREDICTED BY IDOCK:   -5.84 KCAL/MOL
REMARK 924 INTRA-LIGAND FREE ENERGY PREDICTED BY IDOCK:   -0.37 KCAL/MOL
REMARK 927      BINDING AFFINITY PREDICTED BY RF-SCORE:    0.00 PKD
ROOT
HETATM    1  C   UNL     1      -8.474  17.078  68.788  1.00  0.00    -0.237 C  
HETATM    2  C   UNL     1      -9.054  17.663  67.481  1.00  0.00    -0.239 C  
HETATM    3  C   UNL     1      -8.155  17.217  66.312  1.00  0.00    -0.325 C  
HETATM    4  C   UNL     1      -9.002  19.200  67.592  1.00  0.00    -0.337 C  
ENDROOT
BRANCH   2   5
HETATM    5  C   UNL     1     -10.508  17.129  67.282  1.00  0.00    -0.313 C  
HETATM    6  O   UNL     1     -10.608  16.397  66.062  1.00  0.00    -0.319 OA 
HETATM    7  H   UNL     1     -11.493  16.073  65.940  1.00  0.00     0.000 HD 
BRANCH   5   8
HETATM    8  C   UNL     1     -11.013  16.238  68.387  1.00  0.00    -0.351 C  
HETATM    9  C   UNL     1     -11.294  14.932  68.237  1.00  0.00    -0.325 C  
BRANCH   9  10
HETATM   10  C   UNL     1     -11.804  14.072  69.315  1.00  0.00    -0.389 A  
HETATM   11  C   UNL     1     -11.646  12.682  69.206  1.00  0.00    -0.376 A  
HETATM   12  C   UNL     1     -12.150  11.886  70.215  1.00  0.00    -0.325 A  
HETATM   13  C   UNL     1     -12.805  12.416  71.301  1.00  0.00    -0.240 A  
HETATM   14  C   UNL     1     -12.999  13.772  71.435  1.00  0.00    -0.433 A  
HETATM   15  O   UNL     1     -13.220  11.463  72.176  1.00  0.00    -0.490 OA 
HETATM   16  C   UNL     1     -12.500  14.602  70.426  1.00  0.00    -0.410 A  
HETATM   17  C   UNL     1     -12.752  10.268  71.516  1.00  0.00    -0.452 C  
HETATM   18  O   UNL     1     -12.075  10.528  70.269  1.00  0.00    -0.282 OA 
ENDBRANCH   9  10
ENDBRANCH   5   8
ENDBRANCH   2   5
TORSDOF 3
ENDMDL
MODEL       45
REMARK 921   NORMALIZED FREE ENERGY PREDICTED BY IDOCK:   -4.95 KCAL/MOL
REMARK 922        TOTAL FREE ENERGY PREDICTED BY IDOCK:   -6.21 KCAL/MOL
REMARK 923 INTER-LIGAND FREE ENERGY PREDICTED BY IDOCK:   -5.82 KCAL/MOL
REMARK 924 INTRA-LIGAND FREE ENERGY PREDICTED BY IDOCK:   -0.39 KCAL/MOL
REMARK 927      BINDING AFFINITY PREDICTED BY RF-SCORE:    0.00 PKD
ROOT
HETATM    1  C   UNL     1      -7.955  20.782  67.667  1.00  0.00    -0.168 C  
HETATM    2  C   UNL     1      -8.785  19.539  67.281  1.00  0.00    -0.348 C  
HETATM    3  C   UNL     1      -7.932  18.659  66.347  1.00  0.00    -0.298 C  
HETATM    4  C   UNL     1     -10.029  20.026  66.510  1.00  0.00    -0.603 C  
ENDROOT
BRANCH   2   5
HETATM    5  C   UNL     1      -9.160  18.750  68.576  1.00  0.00    -0.342 C  
HETATM    6  O   UNL     1     -10.323  19.311  69.183  1.00  0.00    -0.550 OA 
HETATM    7  H   UNL     1     -10.552  18.831  69.970  1.00  0.00     0.000 HD 
BRANCH   5   8
HETATM    8  C   UNL     1      -9.423  17.281  68.368  1.00  0.00    -0.283 C  
HETATM    9  C   UNL     1     -10.591  16.775  67.938  1.00  0.00    -0.350 C  
BRANCH   9  10
HETATM   10  C   UNL     1     -10.848  15.338  67.755  1.00  0.00    -0.295 A  
HETATM   11  C   UNL     1     -10.524  14.742  66.527  1.00  0.00    -0.291 A  
HETATM   12  C   UNL     1     -10.791  13.397  66.363  1.00  0.00    -0.289 A  
HETATM   13  C   UNL     1     -11.371  12.645  67.356  1.00  0.00    -0.313 A  
HETATM   14  C   UNL     1     -11.722  13.196  68.567  1.00  0.00    -0.387 A  
HETATM   15  O   UNL     1     -11.546  11.347  66.992  1.00  0.00    -0.510 OA 
HETATM   16  C   UNL     1     -11.465  14.558  68.761  1.00  0.00    -0.322 A  
HETATM   17  C   UNL     1     -11.011  11.368  65.653  1.00  0.00    -0.190 C  
HETATM   18  O   UNL     1     -10.533  12.666  65.245  1.00  0.00    -0.278 OA 
ENDBRANCH   9  10
ENDBRANCH   5   8
ENDBRANCH   2   5
TORSDOF 3
ENDMDL
MODEL       46
REMARK 921   NORMALIZED FREE ENERGY PREDICTED BY IDOCK:   -4.93 KCAL/MOL
REMARK 922        TOTAL FREE ENERGY PREDICTED BY IDOCK:   -6.18 KCAL/MOL
REMARK 923 INTER-LIGAND FREE ENERGY PREDICTED BY IDOCK:   -5.79 KCAL/MOL
REMARK 924 INTRA-LIGAND FREE ENERGY PREDICTED BY IDOCK:   -0.39 KCAL/MOL
REMARK 927      BINDING AFFINITY PREDICTED BY RF-SCORE:    0.00 PKD
ROOT
HETATM    1  C   UNL     1      -7.488  18.886  68.707  1.00  0.00    -0.360 C  
HETATM    2  C   UNL     1      -8.326  19.592  67.619  1.00  0.00    -0.343 C  
HETATM    3  C   UNL     1      -7.633  20.921  67.262  1.00  0.00    -0.312 C  
HETATM    4  C   UNL     1      -9.713  19.899  68.219  1.00  0.00    -0.479 C  
ENDROOT
BRANCH   2   5
HETATM    5  C   UNL     1      -8.414  18.671  66.361  1.00  0.00    -0.272 C  
HETATM    6  O   UNL     1      -7.119  18.472  65.796  1.00  0.00    -0.370 OA 
HETATM    7  H   UNL     1      -7.172  17.912  65.031  1.00  0.00     0.000 HD 
BRANCH   5   8
HETATM    8  C   UNL     1      -9.010  17.310  66.613  1.00  0.00    -0.279 C  
HETATM    9  C   UNL     1     -10.095  16.831  65.980  1.00  0.00    -0.350 C  
BRANCH   9  10
HETATM   10  C   UNL     1     -10.684  15.509  66.245  1.00  0.00    -0.307 A  
HETATM   11  C   UNL     1     -10.219  14.766  67.340  1.00  0.00    -0.236 A  
HETATM   12  C   UNL     1     -10.765  13.518  67.563  1.00  0.00    -0.259 A  
HETATM   13  C   UNL     1     -11.732  12.991  66.740  1.00  0.00    -0.382 A  
HETATM   14  C   UNL     1     -12.201  13.679  65.645  1.00  0.00    -0.490 A  
HETATM   15  O   UNL     1     -12.135  11.755  67.135  1.00  0.00    -0.592 OA 
HETATM   16  C   UNL     1     -11.663  14.946  65.394  1.00  0.00    -0.238 A  
HETATM   17  C   UNL     1     -11.309  11.562  68.302  1.00  0.00    -0.286 C  
HETATM   18  O   UNL     1     -10.435  12.675  68.579  1.00  0.00    -0.235 OA 
ENDBRANCH   9  10
ENDBRANCH   5   8
ENDBRANCH   2   5
TORSDOF 3
ENDMDL
MODEL       47
REMARK 921   NORMALIZED FREE ENERGY PREDICTED BY IDOCK:   -4.93 KCAL/MOL
REMARK 922        TOTAL FREE ENERGY PREDICTED BY IDOCK:   -6.18 KCAL/MOL
REMARK 923 INTER-LIGAND FREE ENERGY PREDICTED BY IDOCK:   -5.84 KCAL/MOL
REMARK 924 INTRA-LIGAND FREE ENERGY PREDICTED BY IDOCK:   -0.34 KCAL/MOL
REMARK 927      BINDING AFFINITY PREDICTED BY RF-SCORE:    0.00 PKD
ROOT
HETATM    1  C   UNL     1     -12.811   9.305  72.000  1.00  0.00    -0.495 C  
HETATM    2  C   UNL     1     -11.806   8.167  71.720  1.00  0.00    -0.346 C  
HETATM    3  C   UNL     1     -12.592   6.847  71.598  1.00  0.00    -0.410 C  
HETATM    4  C   UNL     1     -10.856   8.071  72.931  1.00  0.00    -0.399 C  
ENDROOT
BRANCH   2   5
HETATM    5  C   UNL     1     -11.045   8.471  70.390  1.00  0.00    -0.231 C  
HETATM    6  O   UNL     1     -11.190   7.387  69.474  1.00  0.00    -0.439 OA 
HETATM    7  H   UNL     1     -10.727   7.571  68.665  1.00  0.00     0.000 HD 
BRANCH   5   8
HETATM    8  C   UNL     1     -11.487   9.725  69.681  1.00  0.00    -0.103 C  
HETATM    9  C   UNL     1     -10.886  10.226  68.588  1.00  0.00    -0.272 C  
BRANCH   9  10
HETATM   10  C   UNL     1     -11.310  11.461  67.911  1.00  0.00    -0.371 A  
HETATM   11  C   UNL     1     -11.403  11.470  66.511  1.00  0.00    -0.263 A  
HETATM   12  C   UNL     1     -11.780  12.643  65.888  1.00  0.00    -0.420 A  
HETATM   13  C   UNL     1     -12.050  13.789  66.598  1.00  0.00    -0.429 A  
HETATM   14  C   UNL     1     -11.951  13.828  67.971  1.00  0.00    -0.390 A  
HETATM   15  O   UNL     1     -12.404  14.828  65.797  1.00  0.00    -0.171 OA 
HETATM   16  C   UNL     1     -11.568  12.653  68.628  1.00  0.00    -0.356 A  
HETATM   17  C   UNL     1     -12.325  14.206  64.498  1.00  0.00    -0.392 C  
HETATM   18  O   UNL     1     -11.926  12.820  64.547  1.00  0.00    -0.351 OA 
ENDBRANCH   9  10
ENDBRANCH   5   8
ENDBRANCH   2   5
TORSDOF 3
ENDMDL
MODEL       48
REMARK 921   NORMALIZED FREE ENERGY PREDICTED BY IDOCK:   -4.93 KCAL/MOL
REMARK 922        TOTAL FREE ENERGY PREDICTED BY IDOCK:   -6.18 KCAL/MOL
REMARK 923 INTER-LIGAND FREE ENERGY PREDICTED BY IDOCK:   -5.83 KCAL/MOL
REMARK 924 INTRA-LIGAND FREE ENERGY PREDICTED BY IDOCK:   -0.35 KCAL/MOL
REMARK 927      BINDING AFFINITY PREDICTED BY RF-SCORE:    0.00 PKD
ROOT
HETATM    1  C   UNL     1      -8.623   7.814  66.043  1.00  0.00    -0.166 C  
HETATM    2  C   UNL     1      -9.516   8.240  67.229  1.00  0.00    -0.193 C  
HETATM    3  C   UNL     1      -8.740   7.985  68.535  1.00  0.00    -0.131 C  
HETATM    4  C   UNL     1     -10.774   7.347  67.214  1.00  0.00    -0.379 C  
ENDROOT
BRANCH   2   5
HETATM    5  C   UNL     1      -9.863   9.757  67.091  1.00  0.00    -0.188 C  
HETATM    6  O   UNL     1     -10.435  10.023  65.812  1.00  0.00    -0.169 OA 
HETATM    7  H   UNL     1     -10.646  10.946  65.728  1.00  0.00     0.000 HD 
BRANCH   5   8
HETATM    8  C   UNL     1     -10.815  10.285  68.132  1.00  0.00    -0.312 C  
HETATM    9  C   UNL     1     -10.670  11.464  68.761  1.00  0.00    -0.240 C  
BRANCH   9  10
HETATM   10  C   UNL     1     -11.593  11.966  69.790  1.00  0.00    -0.359 A  
HETATM   11  C   UNL     1     -11.865  13.341  69.846  1.00  0.00    -0.380 A  
HETATM   12  C   UNL     1     -12.715  13.800  70.831  1.00  0.00    -0.323 A  
HETATM   13  C   UNL     1     -13.283  12.954  71.754  1.00  0.00    -0.384 A  
HETATM   14  C   UNL     1     -13.026  11.602  71.747  1.00  0.00    -0.483 A  
HETATM   15  O   UNL     1     -14.087  13.606  72.634  1.00  0.00    -0.746 OA 
HETATM   16  C   UNL     1     -12.165  11.109  70.759  1.00  0.00    -0.484 A  
HETATM   17  C   UNL     1     -13.960  14.963  72.161  1.00  0.00    -0.496 C  
HETATM   18  O   UNL     1     -13.089  15.095  71.019  1.00  0.00    -0.393 OA 
ENDBRANCH   9  10
ENDBRANCH   5   8
ENDBRANCH   2   5
TORSDOF 3
ENDMDL
MODEL       49
REMARK 921   NORMALIZED FREE ENERGY PREDICTED BY IDOCK:   -4.88 KCAL/MOL
REMARK 922        TOTAL FREE ENERGY PREDICTED BY IDOCK:   -6.12 KCAL/MOL
REMARK 923 INTER-LIGAND FREE ENERGY PREDICTED BY IDOCK:   -5.78 KCAL/MOL
REMARK 924 INTRA-LIGAND FREE ENERGY PREDICTED BY IDOCK:   -0.34 KCAL/MOL
REMARK 927      BINDING AFFINITY PREDICTED BY RF-SCORE:    0.00 PKD
ROOT
HETATM    1  C   UNL     1      -9.014  10.511  69.071  1.00  0.00    -0.183 C  
HETATM    2  C   UNL     1     -10.340   9.740  69.242  1.00  0.00    -0.230 C  
HETATM    3  C   UNL     1     -10.705   9.732  70.739  1.00  0.00    -0.393 C  
HETATM    4  C   UNL     1     -10.103   8.288  68.780  1.00  0.00    -0.212 C  
ENDROOT
BRANCH   2   5
HETATM    5  C   UNL     1     -11.458  10.451  68.414  1.00  0.00    -0.155 C  
HETATM    6  O   UNL     1     -12.594  10.716  69.235  1.00  0.00    -0.715 OA 
HETATM    7  H   UNL     1     -13.274  11.149  68.732  1.00  0.00     0.000 HD 
BRANCH   5   8
HETATM    8  C   UNL     1     -11.044  11.754  67.781  1.00  0.00    -0.302 C  
HETATM    9  C   UNL     1     -11.874  12.791  67.572  1.00  0.00    -0.402 C  
BRANCH   9  10
HETATM   10  C   UNL     1     -11.468  14.053  66.936  1.00  0.00    -0.373 A  
HETATM   11  C   UNL     1     -11.342  15.203  67.730  1.00  0.00    -0.335 A  
HETATM   12  C   UNL     1     -10.982  16.386  67.115  1.00  0.00    -0.082 A  
HETATM   13  C   UNL     1     -10.761  16.463  65.760  1.00  0.00    -0.238 A  
HETATM   14  C   UNL     1     -10.894  15.363  64.944  1.00  0.00    -0.445 A  
HETATM   15  O   UNL     1     -10.417  17.715  65.359  1.00  0.00    -0.648 OA 
HETATM   16  C   UNL     1     -11.261  14.151  65.540  1.00  0.00    -0.317 A  
HETATM   17  C   UNL     1     -10.448  18.420  66.617  1.00  0.00    -0.385 C  
HETATM   18  O   UNL     1     -10.809  17.584  67.736  1.00  0.00    -0.368 OA 
ENDBRANCH   9  10
ENDBRANCH   5   8
ENDBRANCH   2   5
TORSDOF 3
ENDMDL
MODEL       50
REMARK 921   NORMALIZED FREE ENERGY PREDICTED BY IDOCK:   -4.86 KCAL/MOL
REMARK 922        TOTAL FREE ENERGY PREDICTED BY IDOCK:   -6.10 KCAL/MOL
REMARK 923 INTER-LIGAND FREE ENERGY PREDICTED BY IDOCK:   -5.71 KCAL/MOL
REMARK 924 INTRA-LIGAND FREE ENERGY PREDICTED BY IDOCK:   -0.38 KCAL/MOL
REMARK 927      BINDING AFFINITY PREDICTED BY RF-SCORE:    0.00 PKD
ROOT
HETATM    1  C   UNL     1     -12.593   6.750  71.612  1.00  0.00    -0.380 C  
HETATM    2  C   UNL     1     -11.719   8.010  71.795  1.00  0.00    -0.335 C  
HETATM    3  C   UNL     1     -10.809   7.794  73.019  1.00  0.00    -0.451 C  
HETATM    4  C   UNL     1     -12.662   9.197  72.078  1.00  0.00    -0.473 C  
ENDROOT
BRANCH   2   5
HETATM    5  C   UNL     1     -10.859   8.228  70.509  1.00  0.00    -0.232 C  
HETATM    6  O   UNL     1     -11.328   7.400  69.448  1.00  0.00    -0.457 OA 
HETATM    7  H   UNL     1     -10.805   7.532  68.666  1.00  0.00     0.000 HD 
BRANCH   5   8
HETATM    8  C   UNL     1     -10.833   9.646  69.999  1.00  0.00    -0.302 C  
HETATM    9  C   UNL     1     -11.375  10.040  68.834  1.00  0.00    -0.123 C  
BRANCH   9  10
HETATM   10  C   UNL     1     -11.330  11.422  68.332  1.00  0.00    -0.346 A  
HETATM   11  C   UNL     1     -11.560  12.477  69.227  1.00  0.00    -0.378 A  
HETATM   12  C   UNL     1     -11.536  13.767  68.737  1.00  0.00    -0.328 A  
HETATM   13  C   UNL     1     -11.309  14.036  67.408  1.00  0.00    -0.329 A  
HETATM   14  C   UNL     1     -11.099  13.029  66.494  1.00  0.00    -0.315 A  
HETATM   15  O   UNL     1     -11.326  15.367  67.135  1.00  0.00    -0.305 OA 
HETATM   16  C   UNL     1     -11.120  11.711  66.963  1.00  0.00    -0.359 A  
HETATM   17  C   UNL     1     -11.592  15.908  68.445  1.00  0.00    -0.315 C  
HETATM   18  O   UNL     1     -11.730  14.899  69.467  1.00  0.00    -0.285 OA 
ENDBRANCH   9  10
ENDBRANCH   5   8
ENDBRANCH   2   5
TORSDOF 3
ENDMDL
MODEL       51
REMARK 921   NORMALIZED FREE ENERGY PREDICTED BY IDOCK:   -4.83 KCAL/MOL
REMARK 922        TOTAL FREE ENERGY PREDICTED BY IDOCK:   -6.06 KCAL/MOL
REMARK 923 INTER-LIGAND FREE ENERGY PREDICTED BY IDOCK:   -5.71 KCAL/MOL
REMARK 924 INTRA-LIGAND FREE ENERGY PREDICTED BY IDOCK:   -0.34 KCAL/MOL
REMARK 927      BINDING AFFINITY PREDICTED BY RF-SCORE:    0.00 PKD
ROOT
HETATM    1  C   UNL     1     -10.388  17.202  68.426  1.00  0.00    -0.362 C  
HETATM    2  C   UNL     1     -10.096  17.841  67.050  1.00  0.00    -0.337 C  
HETATM    3  C   UNL     1      -8.584  17.724  66.775  1.00  0.00    -0.272 C  
HETATM    4  C   UNL     1     -10.473  19.333  67.136  1.00  0.00    -0.560 C  
ENDROOT
BRANCH   2   5
HETATM    5  C   UNL     1     -10.908  17.084  65.951  1.00  0.00    -0.024 C  
HETATM    6  O   UNL     1     -10.911  17.828  64.734  1.00  0.00    -0.855 OA 
HETATM    7  H   UNL     1     -11.405  17.369  64.065  1.00  0.00     0.000 HD 
BRANCH   5   8
HETATM    8  C   UNL     1     -10.405  15.700  65.633  1.00  0.00    -0.408 C  
HETATM    9  C   UNL     1     -11.190  14.682  65.239  1.00  0.00    -0.358 C  
BRANCH   9  10
HETATM   10  C   UNL     1     -10.697  13.327  64.949  1.00  0.00    -0.365 A  
HETATM   11  C   UNL     1     -10.046  12.611  65.965  1.00  0.00    -0.274 A  
HETATM   12  C   UNL     1      -9.568  11.349  65.671  1.00  0.00    -0.231 A  
HETATM   13  C   UNL     1      -9.702  10.794  64.421  1.00  0.00    -0.301 A  
HETATM   14  C   UNL     1     -10.316  11.471  63.392  1.00  0.00    -0.469 A  
HETATM   15  O   UNL     1      -9.166   9.548  64.344  1.00  0.00    -0.231 OA 
HETATM   16  C   UNL     1     -10.808  12.754  63.661  1.00  0.00    -0.361 A  
HETATM   17  C   UNL     1      -8.676   9.381  65.690  1.00  0.00    -0.154 C  
HETATM   18  O   UNL     1      -8.924  10.521  66.538  1.00  0.00    -0.152 OA 
ENDBRANCH   9  10
ENDBRANCH   5   8
ENDBRANCH   2   5
TORSDOF 3
ENDMDL
MODEL       52
REMARK 921   NORMALIZED FREE ENERGY PREDICTED BY IDOCK:   -4.81 KCAL/MOL
REMARK 922        TOTAL FREE ENERGY PREDICTED BY IDOCK:   -6.04 KCAL/MOL
REMARK 923 INTER-LIGAND FREE ENERGY PREDICTED BY IDOCK:   -5.69 KCAL/MOL
REMARK 924 INTRA-LIGAND FREE ENERGY PREDICTED BY IDOCK:   -0.35 KCAL/MOL
REMARK 927      BINDING AFFINITY PREDICTED BY RF-SCORE:    0.00 PKD
ROOT
HETATM    1  C   UNL     1     -10.908  10.257  67.143  1.00  0.00    -0.278 C  
HETATM    2  C   UNL     1     -10.742  11.705  67.655  1.00  0.00    -0.249 C  
HETATM    3  C   UNL     1      -9.322  11.852  68.234  1.00  0.00    -0.193 C  
HETATM    4  C   UNL     1     -11.767  11.923  68.786  1.00  0.00    -0.379 C  
ENDROOT
BRANCH   2   5
HETATM    5  C   UNL     1     -10.948  12.696  66.465  1.00  0.00    -0.269 C  
HETATM    6  O   UNL     1     -12.315  12.707  66.057  1.00  0.00    -0.587 OA 
HETATM    7  H   UNL     1     -12.441  13.310  65.334  1.00  0.00     0.000 HD 
BRANCH   5   8
HETATM    8  C   UNL     1     -10.551  14.121  66.753  1.00  0.00    -0.277 C  
HETATM    9  C   UNL     1      -9.740  14.853  65.971  1.00  0.00    -0.358 C  
BRANCH   9  10
HETATM   10  C   UNL     1      -9.340  16.237  66.267  1.00  0.00    -0.360 A  
HETATM   11  C   UNL     1     -10.336  17.213  66.421  1.00  0.00    -0.307 A  
HETATM   12  C   UNL     1      -9.945  18.512  66.676  1.00  0.00    -0.372 A  
HETATM   13  C   UNL     1      -8.620  18.867  66.770  1.00  0.00    -0.299 A  
HETATM   14  C   UNL     1      -7.612  17.944  66.606  1.00  0.00    -0.266 A  
HETATM   15  O   UNL     1      -8.452  20.190  67.027  1.00  0.00    -0.318 OA 
HETATM   16  C   UNL     1      -7.980  16.620  66.343  1.00  0.00    -0.360 A  
HETATM   17  C   UNL     1      -9.825  20.630  67.084  1.00  0.00    -0.357 C  
HETATM   18  O   UNL     1     -10.778  19.572  66.859  1.00  0.00    -0.461 OA 
ENDBRANCH   9  10
ENDBRANCH   5   8
ENDBRANCH   2   5
TORSDOF 3
ENDMDL
MODEL       53
REMARK 921   NORMALIZED FREE ENERGY PREDICTED BY IDOCK:   -4.76 KCAL/MOL
REMARK 922        TOTAL FREE ENERGY PREDICTED BY IDOCK:   -5.98 KCAL/MOL
REMARK 923 INTER-LIGAND FREE ENERGY PREDICTED BY IDOCK:   -5.63 KCAL/MOL
REMARK 924 INTRA-LIGAND FREE ENERGY PREDICTED BY IDOCK:   -0.36 KCAL/MOL
REMARK 927      BINDING AFFINITY PREDICTED BY RF-SCORE:    0.00 PKD
ROOT
HETATM    1  C   UNL     1      -8.152  20.644  67.283  1.00  0.00    -0.315 C  
HETATM    2  C   UNL     1      -8.704  19.258  67.683  1.00  0.00    -0.335 C  
HETATM    3  C   UNL     1      -9.926  19.470  68.598  1.00  0.00    -0.538 C  
HETATM    4  C   UNL     1      -7.605  18.527  68.480  1.00  0.00    -0.328 C  
ENDROOT
BRANCH   2   5
HETATM    5  C   UNL     1      -9.120  18.481  66.393  1.00  0.00    -0.269 C  
HETATM    6  O   UNL     1      -7.970  18.151  65.617  1.00  0.00    -0.502 OA 
HETATM    7  H   UNL     1      -8.222  17.678  64.833  1.00  0.00     0.000 HD 
BRANCH   5   8
HETATM    8  C   UNL     1      -9.879  17.203  66.642  1.00  0.00    -0.295 C  
HETATM    9  C   UNL     1      -9.309  15.989  66.729  1.00  0.00    -0.260 C  
BRANCH   9  10
HETATM   10  C   UNL     1     -10.058  14.743  66.953  1.00  0.00    -0.246 A  
HETATM   11  C   UNL     1      -9.394  13.516  66.802  1.00  0.00    -0.262 A  
HETATM   12  C   UNL     1     -10.116  12.355  66.994  1.00  0.00    -0.214 A  
HETATM   13  C   UNL     1     -11.453  12.374  67.311  1.00  0.00    -0.354 A  
HETATM   14  C   UNL     1     -12.145  13.556  67.448  1.00  0.00    -0.360 A  
HETATM   15  O   UNL     1     -11.972  11.127  67.457  1.00  0.00    -0.580 OA 
HETATM   16  C   UNL     1     -11.439  14.748  67.257  1.00  0.00    -0.378 A  
HETATM   17  C   UNL     1     -10.807  10.317  67.194  1.00  0.00    -0.212 C  
HETATM   18  O   UNL     1      -9.626  11.089  66.895  1.00  0.00    -0.178 OA 
ENDBRANCH   9  10
ENDBRANCH   5   8
ENDBRANCH   2   5
TORSDOF 3
ENDMDL
MODEL       54
REMARK 921   NORMALIZED FREE ENERGY PREDICTED BY IDOCK:   -4.75 KCAL/MOL
REMARK 922        TOTAL FREE ENERGY PREDICTED BY IDOCK:   -5.97 KCAL/MOL
REMARK 923 INTER-LIGAND FREE ENERGY PREDICTED BY IDOCK:   -5.54 KCAL/MOL
REMARK 924 INTRA-LIGAND FREE ENERGY PREDICTED BY IDOCK:   -0.43 KCAL/MOL
REMARK 927      BINDING AFFINITY PREDICTED BY RF-SCORE:    0.00 PKD
ROOT
HETATM    1  C   UNL     1     -11.503  14.806  66.756  1.00  0.00    -0.343 C  
HETATM    2  C   UNL     1     -11.272  14.003  68.055  1.00  0.00    -0.302 C  
HETATM    3  C   UNL     1     -11.953  14.755  69.215  1.00  0.00    -0.329 C  
HETATM    4  C   UNL     1      -9.753  13.956  68.314  1.00  0.00    -0.223 C  
ENDROOT
BRANCH   2   5
HETATM    5  C   UNL     1     -11.892  12.578  67.894  1.00  0.00    -0.323 C  
HETATM    6  O   UNL     1     -11.925  12.201  66.519  1.00  0.00    -0.618 OA 
HETATM    7  H   UNL     1     -12.302  11.335  66.420  1.00  0.00     0.000 HD 
BRANCH   5   8
HETATM    8  C   UNL     1     -11.173  11.488  68.645  1.00  0.00    -0.307 C  
HETATM    9  C   UNL     1     -11.564  11.005  69.837  1.00  0.00    -0.416 C  
BRANCH   9  10
HETATM   10  C   UNL     1     -10.847   9.954  70.574  1.00  0.00    -0.391 A  
HETATM   11  C   UNL     1     -11.490   9.319  71.648  1.00  0.00    -0.468 A  
HETATM   12  C   UNL     1     -10.796   8.350  72.344  1.00  0.00    -0.346 A  
HETATM   13  C   UNL     1      -9.505   8.008  72.022  1.00  0.00    -0.197 A  
HETATM   14  C   UNL     1      -8.832   8.620  70.989  1.00  0.00    -0.235 A  
HETATM   15  O   UNL     1      -9.007   7.034  72.828  1.00  0.00    -0.129 OA 
HETATM   16  C   UNL     1      -9.511   9.608  70.267  1.00  0.00    -0.300 A  
HETATM   17  C   UNL     1     -10.134   6.802  73.699  1.00  0.00    -0.296 C  
HETATM   18  O   UNL     1     -11.272   7.636  73.400  1.00  0.00    -0.314 OA 
ENDBRANCH   9  10
ENDBRANCH   5   8
ENDBRANCH   2   5
TORSDOF 3
ENDMDL
MODEL       55
REMARK 921   NORMALIZED FREE ENERGY PREDICTED BY IDOCK:   -4.75 KCAL/MOL
REMARK 922        TOTAL FREE ENERGY PREDICTED BY IDOCK:   -5.96 KCAL/MOL
REMARK 923 INTER-LIGAND FREE ENERGY PREDICTED BY IDOCK:   -5.62 KCAL/MOL
REMARK 924 INTRA-LIGAND FREE ENERGY PREDICTED BY IDOCK:   -0.35 KCAL/MOL
REMARK 927      BINDING AFFINITY PREDICTED BY RF-SCORE:    0.00 PKD
ROOT
HETATM    1  C   UNL     1      -6.395  17.509  69.282  1.00  0.00    -0.244 C  
HETATM    2  C   UNL     1      -7.292  18.387  68.383  1.00  0.00    -0.289 C  
HETATM    3  C   UNL     1      -6.872  18.166  66.917  1.00  0.00    -0.214 C  
HETATM    4  C   UNL     1      -7.034  19.861  68.759  1.00  0.00    -0.352 C  
ENDROOT
BRANCH   2   5
HETATM    5  C   UNL     1      -8.785  17.975  68.588  1.00  0.00    -0.262 C  
HETATM    6  O   UNL     1      -9.594  19.127  68.816  1.00  0.00    -0.381 OA 
HETATM    7  H   UNL     1     -10.502  18.876  68.941  1.00  0.00     0.000 HD 
BRANCH   5   8
HETATM    8  C   UNL     1      -9.394  17.215  67.438  1.00  0.00    -0.234 C  
HETATM    9  C   UNL     1     -10.421  16.356  67.559  1.00  0.00    -0.304 C  
BRANCH   9  10
HETATM   10  C   UNL     1     -11.000  15.603  66.436  1.00  0.00    -0.197 A  
HETATM   11  C   UNL     1     -11.378  14.267  66.638  1.00  0.00    -0.356 A  
HETATM   12  C   UNL     1     -11.898  13.565  65.569  1.00  0.00    -0.363 A  
HETATM   13  C   UNL     1     -12.040  14.135  64.326  1.00  0.00    -0.444 A  
HETATM   14  C   UNL     1     -11.663  15.436  64.081  1.00  0.00    -0.109 A  
HETATM   15  O   UNL     1     -12.571  13.277  63.417  1.00  0.00    -0.730 OA 
HETATM   16  C   UNL     1     -11.130  16.169  65.147  1.00  0.00    -0.256 A  
HETATM   17  C   UNL     1     -12.747  12.098  64.229  1.00  0.00    -0.264 C  
HETATM   18  O   UNL     1     -12.319  12.272  65.596  1.00  0.00    -0.619 OA 
ENDBRANCH   9  10
ENDBRANCH   5   8
ENDBRANCH   2   5
TORSDOF 3
ENDMDL
MODEL       56
REMARK 921   NORMALIZED FREE ENERGY PREDICTED BY IDOCK:   -4.74 KCAL/MOL
REMARK 922        TOTAL FREE ENERGY PREDICTED BY IDOCK:   -5.96 KCAL/MOL
REMARK 923 INTER-LIGAND FREE ENERGY PREDICTED BY IDOCK:   -5.60 KCAL/MOL
REMARK 924 INTRA-LIGAND FREE ENERGY PREDICTED BY IDOCK:   -0.36 KCAL/MOL
REMARK 927      BINDING AFFINITY PREDICTED BY RF-SCORE:    0.00 PKD
ROOT
HETATM    1  C   UNL     1      -9.023  11.865  66.604  1.00  0.00    -0.198 C  
HETATM    2  C   UNL     1      -9.910  13.004  67.149  1.00  0.00    -0.230 C  
HETATM    3  C   UNL     1     -10.199  13.985  65.996  1.00  0.00    -0.313 C  
HETATM    4  C   UNL     1      -9.110  13.742  68.242  1.00  0.00    -0.195 C  
ENDROOT
BRANCH   2   5
HETATM    5  C   UNL     1     -11.244  12.400  67.694  1.00  0.00    -0.288 C  
HETATM    6  O   UNL     1     -12.015  11.851  66.628  1.00  0.00    -0.601 OA 
HETATM    7  H   UNL     1     -12.826  11.483  66.959  1.00  0.00     0.000 HD 
BRANCH   5   8
HETATM    8  C   UNL     1     -11.072  11.320  68.731  1.00  0.00    -0.288 C  
HETATM    9  C   UNL     1     -11.894  11.141  69.779  1.00  0.00    -0.422 C  
BRANCH   9  10
HETATM   10  C   UNL     1     -11.709  10.097  70.799  1.00  0.00    -0.446 A  
HETATM   11  C   UNL     1     -10.415   9.618  71.054  1.00  0.00    -0.327 A  
HETATM   12  C   UNL     1     -10.261   8.622  71.997  1.00  0.00    -0.337 A  
HETATM   13  C   UNL     1     -11.332   8.089  72.673  1.00  0.00    -0.405 A  
HETATM   14  C   UNL     1     -12.619   8.516  72.439  1.00  0.00    -0.409 A  
HETATM   15  O   UNL     1     -10.963   7.124  73.556  1.00  0.00    -0.328 OA 
HETATM   16  C   UNL     1     -12.805   9.523  71.485  1.00  0.00    -0.464 A  
HETATM   17  C   UNL     1      -9.534   7.109  73.359  1.00  0.00    -0.193 C  
HETATM   18  O   UNL     1      -9.081   8.055  72.368  1.00  0.00    -0.153 OA 
ENDBRANCH   9  10
ENDBRANCH   5   8
ENDBRANCH   2   5
TORSDOF 3
ENDMDL
MODEL       57
REMARK 921   NORMALIZED FREE ENERGY PREDICTED BY IDOCK:   -4.74 KCAL/MOL
REMARK 922        TOTAL FREE ENERGY PREDICTED BY IDOCK:   -5.95 KCAL/MOL
REMARK 923 INTER-LIGAND FREE ENERGY PREDICTED BY IDOCK:   -5.64 KCAL/MOL
REMARK 924 INTRA-LIGAND FREE ENERGY PREDICTED BY IDOCK:   -0.32 KCAL/MOL
REMARK 927      BINDING AFFINITY PREDICTED BY RF-SCORE:    0.00 PKD
ROOT
HETATM    1  C   UNL     1     -10.774  14.526  64.786  1.00  0.00    -0.414 C  
HETATM    2  C   UNL     1     -11.347  13.093  64.772  1.00  0.00    -0.352 C  
HETATM    3  C   UNL     1     -11.924  12.817  63.369  1.00  0.00    -0.613 C  
HETATM    4  C   UNL     1     -12.494  13.035  65.802  1.00  0.00    -0.394 C  
ENDROOT
BRANCH   2   5
HETATM    5  C   UNL     1     -10.204  12.080  65.097  1.00  0.00    -0.276 C  
HETATM    6  O   UNL     1      -9.099  12.751  65.700  1.00  0.00    -0.414 OA 
HETATM    7  H   UNL     1      -8.404  12.135  65.898  1.00  0.00     0.000 HD 
BRANCH   5   8
HETATM    8  C   UNL     1     -10.601  10.951  66.013  1.00  0.00    -0.254 C  
HETATM    9  C   UNL     1      -9.789   9.937  66.359  1.00  0.00    -0.288 C  
BRANCH   9  10
HETATM   10  C   UNL     1     -10.189   8.827  67.238  1.00  0.00    -0.332 A  
HETATM   11  C   UNL     1     -10.235   9.042  68.623  1.00  0.00    -0.226 A  
HETATM   12  C   UNL     1     -10.590   7.985  69.437  1.00  0.00    -0.205 A  
HETATM   13  C   UNL     1     -10.882   6.742  68.928  1.00  0.00    -0.243 A  
HETATM   14  C   UNL     1     -10.829   6.484  67.577  1.00  0.00    -0.433 A  
HETATM   15  O   UNL     1     -11.208   5.845  69.896  1.00  0.00    -0.378 OA 
HETATM   16  C   UNL     1     -10.469   7.537  66.729  1.00  0.00    -0.319 A  
HETATM   17  C   UNL     1     -11.086   6.666  71.076  1.00  0.00    -0.282 C  
HETATM   18  O   UNL     1     -10.692   8.025  70.794  1.00  0.00    -0.216 OA 
ENDBRANCH   9  10
ENDBRANCH   5   8
ENDBRANCH   2   5
TORSDOF 3
ENDMDL
MODEL       58
REMARK 921   NORMALIZED FREE ENERGY PREDICTED BY IDOCK:   -4.72 KCAL/MOL
REMARK 922        TOTAL FREE ENERGY PREDICTED BY IDOCK:   -5.93 KCAL/MOL
REMARK 923 INTER-LIGAND FREE ENERGY PREDICTED BY IDOCK:   -5.53 KCAL/MOL
REMARK 924 INTRA-LIGAND FREE ENERGY PREDICTED BY IDOCK:   -0.40 KCAL/MOL
REMARK 927      BINDING AFFINITY PREDICTED BY RF-SCORE:    0.00 PKD
ROOT
HETATM    1  C   UNL     1     -10.138   8.325  70.899  1.00  0.00    -0.224 C  
HETATM    2  C   UNL     1     -10.052   7.414  69.656  1.00  0.00    -0.186 C  
HETATM    3  C   UNL     1     -11.277   6.478  69.657  1.00  0.00    -0.446 C  
HETATM    4  C   UNL     1      -8.774   6.562  69.785  1.00  0.00    -0.143 C  
ENDROOT
BRANCH   2   5
HETATM    5  C   UNL     1     -10.048   8.301  68.369  1.00  0.00    -0.201 C  
HETATM    6  O   UNL     1     -11.015   7.827  67.434  1.00  0.00    -0.523 OA 
HETATM    7  H   UNL     1     -11.013   8.366  66.652  1.00  0.00     0.000 HD 
BRANCH   5   8
HETATM    8  C   UNL     1     -10.327   9.762  68.608  1.00  0.00    -0.224 C  
HETATM    9  C   UNL     1     -11.233  10.480  67.922  1.00  0.00    -0.358 C  
BRANCH   9  10
HETATM   10  C   UNL     1     -11.488  11.912  68.146  1.00  0.00    -0.384 A  
HETATM   11  C   UNL     1     -11.668  12.371  69.459  1.00  0.00    -0.388 A  
HETATM   12  C   UNL     1     -11.929  13.713  69.652  1.00  0.00    -0.343 A  
HETATM   13  C   UNL     1     -12.026  14.593  68.601  1.00  0.00    -0.270 A  
HETATM   14  C   UNL     1     -11.876  14.179  67.297  1.00  0.00    -0.452 A  
HETATM   15  O   UNL     1     -12.286  15.864  69.006  1.00  0.00    -0.253 OA 
HETATM   16  C   UNL     1     -11.614  12.823  67.072  1.00  0.00    -0.422 A  
HETATM   17  C   UNL     1     -12.342  15.684  70.436  1.00  0.00    -0.391 C  
HETATM   18  O   UNL     1     -12.120  14.321  70.854  1.00  0.00    -0.320 OA 
ENDBRANCH   9  10
ENDBRANCH   5   8
ENDBRANCH   2   5
TORSDOF 3
ENDMDL
MODEL       59
REMARK 921   NORMALIZED FREE ENERGY PREDICTED BY IDOCK:   -4.70 KCAL/MOL
REMARK 922        TOTAL FREE ENERGY PREDICTED BY IDOCK:   -5.91 KCAL/MOL
REMARK 923 INTER-LIGAND FREE ENERGY PREDICTED BY IDOCK:   -5.60 KCAL/MOL
REMARK 924 INTRA-LIGAND FREE ENERGY PREDICTED BY IDOCK:   -0.31 KCAL/MOL
REMARK 927      BINDING AFFINITY PREDICTED BY RF-SCORE:    0.00 PKD
ROOT
HETATM    1  C   UNL     1     -10.820   8.141  71.082  1.00  0.00    -0.268 C  
HETATM    2  C   UNL     1     -10.538   9.190  69.985  1.00  0.00    -0.250 C  
HETATM    3  C   UNL     1     -10.456   8.462  68.629  1.00  0.00    -0.197 C  
HETATM    4  C   UNL     1      -9.168   9.831  70.289  1.00  0.00    -0.225 C  
ENDROOT
BRANCH   2   5
HETATM    5  C   UNL     1     -11.695  10.240  69.968  1.00  0.00    -0.254 C  
HETATM    6  O   UNL     1     -11.934  10.739  71.283  1.00  0.00    -0.304 OA 
HETATM    7  H   UNL     1     -12.637  11.377  71.273  1.00  0.00     0.000 HD 
BRANCH   5   8
HETATM    8  C   UNL     1     -11.459  11.427  69.070  1.00  0.00    -0.366 C  
HETATM    9  C   UNL     1     -11.862  11.497  67.789  1.00  0.00    -0.228 C  
BRANCH   9  10
HETATM   10  C   UNL     1     -11.612  12.650  66.911  1.00  0.00    -0.438 A  
HETATM   11  C   UNL     1     -10.999  13.792  67.449  1.00  0.00    -0.296 A  
HETATM   12  C   UNL     1     -10.793  14.875  66.618  1.00  0.00    -0.319 A  
HETATM   13  C   UNL     1     -11.179  14.864  65.299  1.00  0.00    -0.369 A  
HETATM   14  C   UNL     1     -11.801  13.772  64.739  1.00  0.00    -0.413 A  
HETATM   15  O   UNL     1     -10.883  16.025  64.659  1.00  0.00    -0.608 OA 
HETATM   16  C   UNL     1     -12.026  12.660  65.559  1.00  0.00    -0.509 A  
HETATM   17  C   UNL     1     -10.266  16.772  65.728  1.00  0.00    -0.291 C  
HETATM   18  O   UNL     1     -10.207  16.050  66.975  1.00  0.00    -0.270 OA 
ENDBRANCH   9  10
ENDBRANCH   5   8
ENDBRANCH   2   5
TORSDOF 3
ENDMDL
MODEL       60
REMARK 921   NORMALIZED FREE ENERGY PREDICTED BY IDOCK:   -4.69 KCAL/MOL
REMARK 922        TOTAL FREE ENERGY PREDICTED BY IDOCK:   -5.89 KCAL/MOL
REMARK 923 INTER-LIGAND FREE ENERGY PREDICTED BY IDOCK:   -5.55 KCAL/MOL
REMARK 924 INTRA-LIGAND FREE ENERGY PREDICTED BY IDOCK:   -0.34 KCAL/MOL
REMARK 927      BINDING AFFINITY PREDICTED BY RF-SCORE:    0.00 PKD
ROOT
HETATM    1  C   UNL     1      -9.776  17.724  68.708  1.00  0.00    -0.314 C  
HETATM    2  C   UNL     1      -9.359  18.949  67.866  1.00  0.00    -0.338 C  
HETATM    3  C   UNL     1      -8.006  19.461  68.396  1.00  0.00    -0.376 C  
HETATM    4  C   UNL     1     -10.423  20.046  68.074  1.00  0.00    -0.448 C  
ENDROOT
BRANCH   2   5
HETATM    5  C   UNL     1      -9.230  18.523  66.369  1.00  0.00    -0.277 C  
HETATM    6  O   UNL     1      -7.932  18.841  65.870  1.00  0.00    -0.471 OA 
HETATM    7  H   UNL     1      -7.853  18.582  64.959  1.00  0.00     0.000 HD 
BRANCH   5   8
HETATM    8  C   UNL     1      -9.469  17.059  66.105  1.00  0.00    -0.253 C  
HETATM    9  C   UNL     1     -10.571  16.568  65.511  1.00  0.00    -0.310 C  
BRANCH   9  10
HETATM   10  C   UNL     1     -10.807  15.135  65.273  1.00  0.00    -0.414 A  
HETATM   11  C   UNL     1      -9.824  14.212  65.659  1.00  0.00    -0.278 A  
HETATM   12  C   UNL     1     -10.051  12.873  65.410  1.00  0.00    -0.251 A  
HETATM   13  C   UNL     1     -11.195  12.433  64.789  1.00  0.00    -0.310 A  
HETATM   14  C   UNL     1     -12.175  13.308  64.377  1.00  0.00    -0.449 A  
HETATM   15  O   UNL     1     -11.221  11.083  64.640  1.00  0.00    -0.105 OA 
HETATM   16  C   UNL     1     -11.970  14.671  64.615  1.00  0.00    -0.472 A  
HETATM   17  C   UNL     1      -9.959  10.721  65.238  1.00  0.00    -0.282 C  
HETATM   18  O   UNL     1      -9.209  11.852  65.726  1.00  0.00    -0.201 OA 
ENDBRANCH   9  10
ENDBRANCH   5   8
ENDBRANCH   2   5
TORSDOF 3
ENDMDL
MODEL       61
REMARK 921   NORMALIZED FREE ENERGY PREDICTED BY IDOCK:   -4.67 KCAL/MOL
REMARK 922        TOTAL FREE ENERGY PREDICTED BY IDOCK:   -5.87 KCAL/MOL
REMARK 923 INTER-LIGAND FREE ENERGY PREDICTED BY IDOCK:   -5.53 KCAL/MOL
REMARK 924 INTRA-LIGAND FREE ENERGY PREDICTED BY IDOCK:   -0.35 KCAL/MOL
REMARK 927      BINDING AFFINITY PREDICTED BY RF-SCORE:    0.00 PKD
ROOT
HETATM    1  C   UNL     1      -8.213   8.924  66.825  1.00  0.00    -0.111 C  
HETATM    2  C   UNL     1      -9.074   8.816  68.102  1.00  0.00    -0.142 C  
HETATM    3  C   UNL     1      -8.378   9.611  69.223  1.00  0.00    -0.137 C  
HETATM    4  C   UNL     1      -9.129   7.328  68.506  1.00  0.00    -0.136 C  
ENDROOT
BRANCH   2   5
HETATM    5  C   UNL     1     -10.491   9.407  67.816  1.00  0.00    -0.254 C  
HETATM    6  O   UNL     1     -11.176   9.675  69.039  1.00  0.00    -0.424 OA 
HETATM    7  H   UNL     1     -12.037  10.034  68.866  1.00  0.00     0.000 HD 
BRANCH   5   8
HETATM    8  C   UNL     1     -10.495  10.678  67.008  1.00  0.00    -0.295 C  
HETATM    9  C   UNL     1     -11.392  11.668  67.160  1.00  0.00    -0.373 C  
BRANCH   9  10
HETATM   10  C   UNL     1     -11.403  12.899  66.355  1.00  0.00    -0.361 A  
HETATM   11  C   UNL     1     -10.802  14.055  66.875  1.00  0.00    -0.290 A  
HETATM   12  C   UNL     1     -10.840  15.209  66.117  1.00  0.00    -0.330 A  
HETATM   13  C   UNL     1     -11.454  15.251  64.888  1.00  0.00    -0.343 A  
HETATM   14  C   UNL     1     -12.072  14.145  64.351  1.00  0.00    -0.486 A  
HETATM   15  O   UNL     1     -11.377  16.478  64.309  1.00  0.00    -1.020 OA 
HETATM   16  C   UNL     1     -12.051  12.962  65.100  1.00  0.00    -0.489 A  
HETATM   17  C   UNL     1     -10.644  17.206  65.316  1.00  0.00    -0.043 C  
HETATM   18  O   UNL     1     -10.302  16.408  66.468  1.00  0.00    -0.293 OA 
ENDBRANCH   9  10
ENDBRANCH   5   8
ENDBRANCH   2   5
TORSDOF 3
ENDMDL
MODEL       62
REMARK 921   NORMALIZED FREE ENERGY PREDICTED BY IDOCK:   -4.64 KCAL/MOL
REMARK 922        TOTAL FREE ENERGY PREDICTED BY IDOCK:   -5.84 KCAL/MOL
REMARK 923 INTER-LIGAND FREE ENERGY PREDICTED BY IDOCK:   -5.45 KCAL/MOL
REMARK 924 INTRA-LIGAND FREE ENERGY PREDICTED BY IDOCK:   -0.39 KCAL/MOL
REMARK 927      BINDING AFFINITY PREDICTED BY RF-SCORE:    0.00 PKD
ROOT
HETATM    1  C   UNL     1      -8.759   6.224  69.001  1.00  0.00    -0.125 C  
HETATM    2  C   UNL     1     -10.092   6.999  68.916  1.00  0.00    -0.174 C  
HETATM    3  C   UNL     1     -11.086   6.360  69.904  1.00  0.00    -0.444 C  
HETATM    4  C   UNL     1     -10.639   6.836  67.483  1.00  0.00    -0.348 C  
ENDROOT
BRANCH   2   5
HETATM    5  C   UNL     1      -9.840   8.495  69.290  1.00  0.00    -0.185 C  
HETATM    6  O   UNL     1      -8.456   8.716  69.554  1.00  0.00    -0.124 OA 
HETATM    7  H   UNL     1      -8.302   9.626  69.781  1.00  0.00     0.000 HD 
BRANCH   5   8
HETATM    8  C   UNL     1     -10.265   9.489  68.240  1.00  0.00    -0.225 C  
HETATM    9  C   UNL     1     -10.956  10.613  68.499  1.00  0.00    -0.296 C  
BRANCH   9  10
HETATM   10  C   UNL     1     -11.384  11.570  67.468  1.00  0.00    -0.366 A  
HETATM   11  C   UNL     1     -11.280  11.205  66.118  1.00  0.00    -0.059 A  
HETATM   12  C   UNL     1     -11.665  12.122  65.161  1.00  0.00    -0.310 A  
HETATM   13  C   UNL     1     -12.129  13.371  65.496  1.00  0.00    -0.428 A  
HETATM   14  C   UNL     1     -12.228  13.776  66.808  1.00  0.00    -0.440 A  
HETATM   15  O   UNL     1     -12.454  14.117  64.408  1.00  0.00    -0.626 OA 
HETATM   16  C   UNL     1     -11.842  12.866  67.799  1.00  0.00    -0.391 A  
HETATM   17  C   UNL     1     -12.140  13.194  63.345  1.00  0.00    -0.486 C  
HETATM   18  O   UNL     1     -11.635  11.926  63.814  1.00  0.00    -0.417 OA 
ENDBRANCH   9  10
ENDBRANCH   5   8
ENDBRANCH   2   5
TORSDOF 3
ENDMDL
MODEL       63
REMARK 921   NORMALIZED FREE ENERGY PREDICTED BY IDOCK:   -4.59 KCAL/MOL
REMARK 922        TOTAL FREE ENERGY PREDICTED BY IDOCK:   -5.78 KCAL/MOL
REMARK 923 INTER-LIGAND FREE ENERGY PREDICTED BY IDOCK:   -5.43 KCAL/MOL
REMARK 924 INTRA-LIGAND FREE ENERGY PREDICTED BY IDOCK:   -0.35 KCAL/MOL
REMARK 927      BINDING AFFINITY PREDICTED BY RF-SCORE:    0.00 PKD
ROOT
HETATM    1  C   UNL     1     -11.337  15.130  64.405  1.00  0.00    -0.211 C  
HETATM    2  C   UNL     1     -11.701  13.677  64.779  1.00  0.00    -0.399 C  
HETATM    3  C   UNL     1     -12.053  12.918  63.485  1.00  0.00    -0.633 C  
HETATM    4  C   UNL     1     -12.949  13.724  65.685  1.00  0.00    -0.346 C  
ENDROOT
BRANCH   2   5
HETATM    5  C   UNL     1     -10.480  13.007  65.486  1.00  0.00    -0.285 C  
HETATM    6  O   UNL     1      -9.478  13.979  65.778  1.00  0.00    -0.504 OA 
HETATM    7  H   UNL     1      -8.735  13.573  66.208  1.00  0.00     0.000 HD 
BRANCH   5   8
HETATM    8  C   UNL     1     -10.806  12.293  66.772  1.00  0.00    -0.291 C  
HETATM    9  C   UNL     1      -9.935  11.532  67.457  1.00  0.00    -0.207 C  
BRANCH   9  10
HETATM   10  C   UNL     1     -10.265  10.822  68.702  1.00  0.00    -0.198 A  
HETATM   11  C   UNL     1      -9.238  10.178  69.408  1.00  0.00    -0.229 A  
HETATM   12  C   UNL     1      -9.566   9.497  70.563  1.00  0.00    -0.251 A  
HETATM   13  C   UNL     1     -10.860   9.426  71.022  1.00  0.00    -0.336 A  
HETATM   14  C   UNL     1     -11.899  10.027  70.348  1.00  0.00    -0.343 A  
HETATM   15  O   UNL     1     -10.966   8.711  72.172  1.00  0.00    -0.341 OA 
HETATM   16  C   UNL     1     -11.594  10.722  69.173  1.00  0.00    -0.376 A  
HETATM   17  C   UNL     1      -9.590   8.337  72.386  1.00  0.00    -0.294 C  
HETATM   18  O   UNL     1      -8.695   8.829  71.367  1.00  0.00    -0.185 OA 
ENDBRANCH   9  10
ENDBRANCH   5   8
ENDBRANCH   2   5
TORSDOF 3
ENDMDL
MODEL       64
REMARK 921   NORMALIZED FREE ENERGY PREDICTED BY IDOCK:   -4.55 KCAL/MOL
REMARK 922        TOTAL FREE ENERGY PREDICTED BY IDOCK:   -5.73 KCAL/MOL
REMARK 923 INTER-LIGAND FREE ENERGY PREDICTED BY IDOCK:   -5.40 KCAL/MOL
REMARK 924 INTRA-LIGAND FREE ENERGY PREDICTED BY IDOCK:   -0.33 KCAL/MOL
REMARK 927      BINDING AFFINITY PREDICTED BY RF-SCORE:    0.00 PKD
ROOT
HETATM    1  C   UNL     1      -6.559  18.028  65.973  1.00  0.00    -0.310 C  
HETATM    2  C   UNL     1      -7.480  18.677  67.029  1.00  0.00    -0.229 C  
HETATM    3  C   UNL     1      -8.440  19.641  66.305  1.00  0.00    -0.383 C  
HETATM    4  C   UNL     1      -6.591  19.488  67.992  1.00  0.00    -0.269 C  
ENDROOT
BRANCH   2   5
HETATM    5  C   UNL     1      -8.286  17.558  67.764  1.00  0.00    -0.220 C  
HETATM    6  O   UNL     1      -9.415  18.116  68.434  1.00  0.00    -0.295 OA 
HETATM    7  H   UNL     1      -9.906  17.436  68.880  1.00  0.00     0.000 HD 
BRANCH   5   8
HETATM    8  C   UNL     1      -8.790  16.452  66.873  1.00  0.00    -0.232 C  
HETATM    9  C   UNL     1      -9.434  15.359  67.315  1.00  0.00    -0.215 C  
BRANCH   9  10
HETATM   10  C   UNL     1      -9.906  14.273  66.443  1.00  0.00    -0.309 A  
HETATM   11  C   UNL     1     -11.012  14.503  65.611  1.00  0.00    -0.323 A  
HETATM   12  C   UNL     1     -11.458  13.468  64.814  1.00  0.00    -0.346 A  
HETATM   13  C   UNL     1     -10.859  12.231  64.827  1.00  0.00    -0.304 A  
HETATM   14  C   UNL     1      -9.784  11.958  65.643  1.00  0.00    -0.248 A  
HETATM   15  O   UNL     1     -11.449  11.357  63.971  1.00  0.00    -0.318 OA 
HETATM   16  C   UNL     1      -9.313  12.989  66.463  1.00  0.00    -0.220 A  
HETATM   17  C   UNL     1     -12.491  12.185  63.416  1.00  0.00    -0.512 C  
HETATM   18  O   UNL     1     -12.506  13.525  63.949  1.00  0.00    -0.670 OA 
ENDBRANCH   9  10
ENDBRANCH   5   8
ENDBRANCH   2   5
TORSDOF 3
ENDMDL
MODEL       65
REMARK 921   NORMALIZED FREE ENERGY PREDICTED BY IDOCK:   -4.54 KCAL/MOL
REMARK 922        TOTAL FREE ENERGY PREDICTED BY IDOCK:   -5.72 KCAL/MOL
REMARK 923 INTER-LIGAND FREE ENERGY PREDICTED BY IDOCK:   -5.30 KCAL/MOL
REMARK 924 INTRA-LIGAND FREE ENERGY PREDICTED BY IDOCK:   -0.42 KCAL/MOL
REMARK 927      BINDING AFFINITY PREDICTED BY RF-SCORE:    0.00 PKD
ROOT
HETATM    1  C   UNL     1      -9.629  15.519  68.967  1.00  0.00    -0.238 C  
HETATM    2  C   UNL     1     -10.276  14.854  67.733  1.00  0.00    -0.236 C  
HETATM    3  C   UNL     1      -9.304  13.787  67.194  1.00  0.00    -0.240 C  
HETATM    4  C   UNL     1     -10.465  15.944  66.658  1.00  0.00    -0.306 C  
ENDROOT
BRANCH   2   5
HETATM    5  C   UNL     1     -11.628  14.195  68.155  1.00  0.00    -0.331 C  
HETATM    6  O   UNL     1     -12.609  14.372  67.135  1.00  0.00    -0.540 OA 
HETATM    7  H   UNL     1     -13.431  13.971  67.390  1.00  0.00     0.000 HD 
BRANCH   5   8
HETATM    8  C   UNL     1     -11.546  12.720  68.452  1.00  0.00    -0.365 C  
HETATM    9  C   UNL     1     -11.764  12.180  69.664  1.00  0.00    -0.396 C  
BRANCH   9  10
HETATM   10  C   UNL     1     -11.664  10.741  69.953  1.00  0.00    -0.412 A  
HETATM   11  C   UNL     1     -12.483  10.191  70.951  1.00  0.00    -0.455 A  
HETATM   12  C   UNL     1     -12.361   8.844  71.227  1.00  0.00    -0.291 A  
HETATM   13  C   UNL     1     -11.461   8.044  70.564  1.00  0.00    -0.187 A  
HETATM   14  C   UNL     1     -10.626   8.549  69.592  1.00  0.00    -0.221 A  
HETATM   15  O   UNL     1     -11.502   6.753  70.984  1.00  0.00    -0.287 OA 
HETATM   16  C   UNL     1     -10.726   9.913  69.294  1.00  0.00    -0.247 A  
HETATM   17  C   UNL     1     -12.533   6.829  71.990  1.00  0.00    -0.244 C  
HETATM   18  O   UNL     1     -13.081   8.154  72.153  1.00  0.00    -0.304 OA 
ENDBRANCH   9  10
ENDBRANCH   5   8
ENDBRANCH   2   5
TORSDOF 3
ENDMDL
MODEL       66
REMARK 921   NORMALIZED FREE ENERGY PREDICTED BY IDOCK:   -4.52 KCAL/MOL
REMARK 922        TOTAL FREE ENERGY PREDICTED BY IDOCK:   -5.70 KCAL/MOL
REMARK 923 INTER-LIGAND FREE ENERGY PREDICTED BY IDOCK:   -5.32 KCAL/MOL
REMARK 924 INTRA-LIGAND FREE ENERGY PREDICTED BY IDOCK:   -0.38 KCAL/MOL
REMARK 927      BINDING AFFINITY PREDICTED BY RF-SCORE:    0.00 PKD
ROOT
HETATM    1  C   UNL     1     -11.487  11.921  66.571  1.00  0.00    -0.381 C  
HETATM    2  C   UNL     1     -10.229  11.115  66.180  1.00  0.00    -0.293 C  
HETATM    3  C   UNL     1     -10.263  10.874  64.659  1.00  0.00    -0.411 C  
HETATM    4  C   UNL     1     -10.299   9.755  66.903  1.00  0.00    -0.301 C  
ENDROOT
BRANCH   2   5
HETATM    5  C   UNL     1      -8.955  11.931  66.572  1.00  0.00    -0.199 C  
HETATM    6  O   UNL     1      -7.861  11.583  65.727  1.00  0.00    -0.359 OA 
HETATM    7  H   UNL     1      -7.086  12.079  65.965  1.00  0.00     0.000 HD 
BRANCH   5   8
HETATM    8  C   UNL     1      -9.118  13.428  66.507  1.00  0.00    -0.128 C  
HETATM    9  C   UNL     1      -8.823  14.265  67.517  1.00  0.00    -0.202 C  
BRANCH   9  10
HETATM   10  C   UNL     1      -9.002  15.724  67.454  1.00  0.00    -0.204 A  
HETATM   11  C   UNL     1      -9.816  16.265  66.447  1.00  0.00    -0.310 A  
HETATM   12  C   UNL     1      -9.956  17.636  66.388  1.00  0.00    -0.334 A  
HETATM   13  C   UNL     1      -9.316  18.472  67.272  1.00  0.00    -0.280 A  
HETATM   14  C   UNL     1      -8.494  17.983  68.261  1.00  0.00    -0.293 A  
HETATM   15  O   UNL     1      -9.589  19.783  67.041  1.00  0.00    -0.328 OA 
HETATM   16  C   UNL     1      -8.331  16.595  68.343  1.00  0.00    -0.208 A  
HETATM   17  C   UNL     1     -10.475  19.679  65.907  1.00  0.00    -0.493 C  
HETATM   18  O   UNL     1     -10.711  18.320  65.484  1.00  0.00    -0.596 OA 
ENDBRANCH   9  10
ENDBRANCH   5   8
ENDBRANCH   2   5
TORSDOF 3
ENDMDL
MODEL       67
REMARK 921   NORMALIZED FREE ENERGY PREDICTED BY IDOCK:   -4.52 KCAL/MOL
REMARK 922        TOTAL FREE ENERGY PREDICTED BY IDOCK:   -5.70 KCAL/MOL
REMARK 923 INTER-LIGAND FREE ENERGY PREDICTED BY IDOCK:   -5.34 KCAL/MOL
REMARK 924 INTRA-LIGAND FREE ENERGY PREDICTED BY IDOCK:   -0.35 KCAL/MOL
REMARK 927      BINDING AFFINITY PREDICTED BY RF-SCORE:    0.00 PKD
ROOT
HETATM    1  C   UNL     1      -6.682  16.887  68.113  1.00  0.00    -0.149 C  
HETATM    2  C   UNL     1      -7.320  18.164  67.525  1.00  0.00    -0.213 C  
HETATM    3  C   UNL     1      -7.465  17.976  66.002  1.00  0.00    -0.271 C  
HETATM    4  C   UNL     1      -6.355  19.337  67.792  1.00  0.00    -0.226 C  
ENDROOT
BRANCH   2   5
HETATM    5  C   UNL     1      -8.721  18.386  68.180  1.00  0.00    -0.302 C  
HETATM    6  O   UNL     1      -9.648  18.884  67.217  1.00  0.00    -0.299 OA 
HETATM    7  H   UNL     1     -10.500  19.019  67.615  1.00  0.00     0.000 HD 
BRANCH   5   8
HETATM    8  C   UNL     1      -9.331  17.156  68.800  1.00  0.00    -0.252 C  
HETATM    9  C   UNL     1     -10.637  16.845  68.737  1.00  0.00    -0.355 C  
BRANCH   9  10
HETATM   10  C   UNL     1     -11.230  15.652  69.361  1.00  0.00    -0.313 A  
HETATM   11  C   UNL     1     -11.908  15.791  70.581  1.00  0.00    -0.415 A  
HETATM   12  C   UNL     1     -12.439  14.660  71.166  1.00  0.00    -0.332 A  
HETATM   13  C   UNL     1     -12.310  13.416  70.594  1.00  0.00    -0.348 A  
HETATM   14  C   UNL     1     -11.635  13.234  69.409  1.00  0.00    -0.364 A  
HETATM   15  O   UNL     1     -12.904  12.440  71.329  1.00  0.00    -0.353 OA 
HETATM   16  C   UNL     1     -11.084  14.365  68.795  1.00  0.00    -0.275 A  
HETATM   17  C   UNL     1     -13.424  13.211  72.432  1.00  0.00    -0.543 C  
HETATM   18  O   UNL     1     -13.130  14.620  72.338  1.00  0.00    -0.335 OA 
ENDBRANCH   9  10
ENDBRANCH   5   8
ENDBRANCH   2   5
TORSDOF 3
ENDMDL
MODEL       68
REMARK 921   NORMALIZED FREE ENERGY PREDICTED BY IDOCK:   -4.51 KCAL/MOL
REMARK 922        TOTAL FREE ENERGY PREDICTED BY IDOCK:   -5.69 KCAL/MOL
REMARK 923 INTER-LIGAND FREE ENERGY PREDICTED BY IDOCK:   -5.33 KCAL/MOL
REMARK 924 INTRA-LIGAND FREE ENERGY PREDICTED BY IDOCK:   -0.36 KCAL/MOL
REMARK 927      BINDING AFFINITY PREDICTED BY RF-SCORE:    0.00 PKD
ROOT
HETATM    1  C   UNL     1      -8.216  19.097  66.213  1.00  0.00    -0.309 C  
HETATM    2  C   UNL     1      -9.463  19.063  67.123  1.00  0.00    -0.350 C  
HETATM    3  C   UNL     1      -9.895  20.515  67.406  1.00  0.00    -0.574 C  
HETATM    4  C   UNL     1      -9.056  18.396  68.452  1.00  0.00    -0.340 C  
ENDROOT
BRANCH   2   5
HETATM    5  C   UNL     1     -10.608  18.288  66.396  1.00  0.00    -0.293 C  
HETATM    6  O   UNL     1     -10.706  18.703  65.035  1.00  0.00    -0.449 OA 
HETATM    7  H   UNL     1     -11.402  18.232  64.592  1.00  0.00     0.000 HD 
BRANCH   5   8
HETATM    8  C   UNL     1     -10.459  16.788  66.401  1.00  0.00    -0.269 C  
HETATM    9  C   UNL     1     -10.858  15.985  65.399  1.00  0.00    -0.340 C  
BRANCH   9  10
HETATM   10  C   UNL     1     -10.728  14.520  65.418  1.00  0.00    -0.372 A  
HETATM   11  C   UNL     1     -10.491  13.876  66.642  1.00  0.00    -0.272 A  
HETATM   12  C   UNL     1     -10.348  12.503  66.641  1.00  0.00    -0.227 A  
HETATM   13  C   UNL     1     -10.419  11.766  65.483  1.00  0.00    -0.267 A  
HETATM   14  C   UNL     1     -10.630  12.361  64.260  1.00  0.00    -0.391 A  
HETATM   15  O   UNL     1     -10.254  10.435  65.701  1.00  0.00    -0.267 OA 
HETATM   16  C   UNL     1     -10.775  13.753  64.231  1.00  0.00    -0.217 A  
HETATM   17  C   UNL     1     -10.069  10.417  67.131  1.00  0.00    -0.208 C  
HETATM   18  O   UNL     1     -10.124  11.726  67.735  1.00  0.00    -0.183 OA 
ENDBRANCH   9  10
ENDBRANCH   5   8
ENDBRANCH   2   5
TORSDOF 3
ENDMDL
MODEL       69
REMARK 921   NORMALIZED FREE ENERGY PREDICTED BY IDOCK:   -4.47 KCAL/MOL
REMARK 922        TOTAL FREE ENERGY PREDICTED BY IDOCK:   -5.64 KCAL/MOL
REMARK 923 INTER-LIGAND FREE ENERGY PREDICTED BY IDOCK:   -5.22 KCAL/MOL
REMARK 924 INTRA-LIGAND FREE ENERGY PREDICTED BY IDOCK:   -0.42 KCAL/MOL
REMARK 927      BINDING AFFINITY PREDICTED BY RF-SCORE:    0.00 PKD
ROOT
HETATM    1  C   UNL     1     -10.783  15.462  66.029  1.00  0.00    -0.326 C  
HETATM    2  C   UNL     1     -11.416  14.127  66.479  1.00  0.00    -0.368 C  
HETATM    3  C   UNL     1     -12.643  13.850  65.588  1.00  0.00    -0.553 C  
HETATM    4  C   UNL     1     -11.888  14.300  67.937  1.00  0.00    -0.393 C  
ENDROOT
BRANCH   2   5
HETATM    5  C   UNL     1     -10.364  12.983  66.327  1.00  0.00    -0.285 C  
HETATM    6  O   UNL     1      -9.053  13.526  66.190  1.00  0.00    -0.471 OA 
HETATM    7  H   UNL     1      -8.413  12.830  66.097  1.00  0.00     0.000 HD 
BRANCH   5   8
HETATM    8  C   UNL     1     -10.330  11.999  67.468  1.00  0.00    -0.217 C  
HETATM    9  C   UNL     1     -10.773  10.733  67.389  1.00  0.00    -0.317 C  
BRANCH   9  10
HETATM   10  C   UNL     1     -10.755   9.783  68.512  1.00  0.00    -0.252 A  
HETATM   11  C   UNL     1     -10.648   8.412  68.239  1.00  0.00    -0.163 A  
HETATM   12  C   UNL     1     -10.655   7.531  69.302  1.00  0.00    -0.210 A  
HETATM   13  C   UNL     1     -10.775   7.962  70.602  1.00  0.00    -0.228 A  
HETATM   14  C   UNL     1     -10.902   9.297  70.911  1.00  0.00    -0.365 A  
HETATM   15  O   UNL     1     -10.758   6.937  71.494  1.00  0.00    -0.221 OA 
HETATM   16  C   UNL     1     -10.901  10.212  69.852  1.00  0.00    -0.347 A  
HETATM   17  C   UNL     1     -10.615   5.809  70.607  1.00  0.00    -0.277 C  
HETATM   18  O   UNL     1     -10.552   6.177  69.214  1.00  0.00    -0.221 OA 
ENDBRANCH   9  10
ENDBRANCH   5   8
ENDBRANCH   2   5
TORSDOF 3
ENDMDL
MODEL       70
REMARK 921   NORMALIZED FREE ENERGY PREDICTED BY IDOCK:   -4.43 KCAL/MOL
REMARK 922        TOTAL FREE ENERGY PREDICTED BY IDOCK:   -5.60 KCAL/MOL
REMARK 923 INTER-LIGAND FREE ENERGY PREDICTED BY IDOCK:   -5.23 KCAL/MOL
REMARK 924 INTRA-LIGAND FREE ENERGY PREDICTED BY IDOCK:   -0.37 KCAL/MOL
REMARK 927      BINDING AFFINITY PREDICTED BY RF-SCORE:    0.00 PKD
ROOT
HETATM    1  C   UNL     1      -8.325   8.557  70.014  1.00  0.00    -0.123 C  
HETATM    2  C   UNL     1      -9.585   8.008  70.717  1.00  0.00    -0.174 C  
HETATM    3  C   UNL     1      -9.685   8.660  72.109  1.00  0.00    -0.383 C  
HETATM    4  C   UNL     1      -9.399   6.487  70.891  1.00  0.00    -0.165 C  
ENDROOT
BRANCH   2   5
HETATM    5  C   UNL     1     -10.844   8.358  69.861  1.00  0.00    -0.207 C  
HETATM    6  O   UNL     1     -12.011   8.387  70.680  1.00  0.00    -0.471 OA 
HETATM    7  H   UNL     1     -12.777   8.600  70.161  1.00  0.00     0.000 HD 
BRANCH   5   8
HETATM    8  C   UNL     1     -10.768   9.676  69.135  1.00  0.00    -0.237 C  
HETATM    9  C   UNL     1     -11.731  10.614  69.167  1.00  0.00    -0.324 C  
BRANCH   9  10
HETATM   10  C   UNL     1     -11.660  11.890  68.440  1.00  0.00    -0.376 A  
HETATM   11  C   UNL     1     -11.657  11.873  67.037  1.00  0.00    -0.365 A  
HETATM   12  C   UNL     1     -11.567  13.078  66.369  1.00  0.00    -0.363 A  
HETATM   13  C   UNL     1     -11.469  14.274  67.038  1.00  0.00    -0.361 A  
HETATM   14  C   UNL     1     -11.448  14.333  68.413  1.00  0.00    -0.331 A  
HETATM   15  O   UNL     1     -11.392  15.338  66.195  1.00  0.00    -0.285 OA 
HETATM   16  C   UNL     1     -11.535  13.126  69.116  1.00  0.00    -0.358 A  
HETATM   17  C   UNL     1     -11.452  14.674  64.916  1.00  0.00    -0.401 C  
HETATM   18  O   UNL     1     -11.560  13.239  65.018  1.00  0.00    -0.303 OA 
ENDBRANCH   9  10
ENDBRANCH   5   8
ENDBRANCH   2   5
TORSDOF 3
ENDMDL
MODEL       71
REMARK 921   NORMALIZED FREE ENERGY PREDICTED BY IDOCK:   -4.42 KCAL/MOL
REMARK 922        TOTAL FREE ENERGY PREDICTED BY IDOCK:   -5.58 KCAL/MOL
REMARK 923 INTER-LIGAND FREE ENERGY PREDICTED BY IDOCK:   -5.18 KCAL/MOL
REMARK 924 INTRA-LIGAND FREE ENERGY PREDICTED BY IDOCK:   -0.40 KCAL/MOL
REMARK 927      BINDING AFFINITY PREDICTED BY RF-SCORE:    0.00 PKD
ROOT
HETATM    1  C   UNL     1      -8.921   9.786  65.139  1.00  0.00    -0.237 C  
HETATM    2  C   UNL     1      -9.936  10.557  66.010  1.00  0.00    -0.295 C  
HETATM    3  C   UNL     1     -10.762   9.533  66.811  1.00  0.00    -0.136 C  
HETATM    4  C   UNL     1     -10.878  11.327  65.062  1.00  0.00    -0.285 C  
ENDROOT
BRANCH   2   5
HETATM    5  C   UNL     1      -9.162  11.507  66.979  1.00  0.00    -0.176 C  
HETATM    6  O   UNL     1      -8.499  12.535  66.246  1.00  0.00    -0.402 OA 
HETATM    7  H   UNL     1      -8.028  13.113  66.835  1.00  0.00     0.000 HD 
BRANCH   5   8
HETATM    8  C   UNL     1     -10.017  12.177  68.024  1.00  0.00    -0.203 C  
HETATM    9  C   UNL     1     -10.168  13.508  68.138  1.00  0.00    -0.249 C  
BRANCH   9  10
HETATM   10  C   UNL     1     -10.989  14.157  69.172  1.00  0.00    -0.280 A  
HETATM   11  C   UNL     1     -11.893  13.377  69.908  1.00  0.00    -0.385 A  
HETATM   12  C   UNL     1     -12.673  14.004  70.859  1.00  0.00    -0.350 A  
HETATM   13  C   UNL     1     -12.592  15.357  71.089  1.00  0.00    -0.422 A  
HETATM   14  C   UNL     1     -11.732  16.160  70.375  1.00  0.00    -0.237 A  
HETATM   15  O   UNL     1     -13.441  15.771  72.065  1.00  0.00    -0.466 OA 
HETATM   16  C   UNL     1     -10.931  15.551  69.402  1.00  0.00    -0.276 A  
HETATM   17  C   UNL     1     -14.069  14.524  72.425  1.00  0.00    -0.448 C  
HETATM   18  O   UNL     1     -13.589  13.397  71.662  1.00  0.00    -0.336 OA 
ENDBRANCH   9  10
ENDBRANCH   5   8
ENDBRANCH   2   5
TORSDOF 3
ENDMDL
MODEL       72
REMARK 921   NORMALIZED FREE ENERGY PREDICTED BY IDOCK:   -4.42 KCAL/MOL
REMARK 922        TOTAL FREE ENERGY PREDICTED BY IDOCK:   -5.58 KCAL/MOL
REMARK 923 INTER-LIGAND FREE ENERGY PREDICTED BY IDOCK:   -5.28 KCAL/MOL
REMARK 924 INTRA-LIGAND FREE ENERGY PREDICTED BY IDOCK:   -0.30 KCAL/MOL
REMARK 927      BINDING AFFINITY PREDICTED BY RF-SCORE:    0.00 PKD
ROOT
HETATM    1  C   UNL     1      -9.749  13.565  67.051  1.00  0.00    -0.251 C  
HETATM    2  C   UNL     1     -10.899  13.306  66.053  1.00  0.00    -0.284 C  
HETATM    3  C   UNL     1     -10.454  13.801  64.664  1.00  0.00    -0.433 C  
HETATM    4  C   UNL     1     -12.114  14.137  66.513  1.00  0.00    -0.481 C  
ENDROOT
BRANCH   2   5
HETATM    5  C   UNL     1     -11.207  11.775  66.012  1.00  0.00    -0.296 C  
HETATM    6  O   UNL     1     -10.701  11.198  64.810  1.00  0.00    -0.314 OA 
HETATM    7  H   UNL     1     -10.888  10.267  64.784  1.00  0.00     0.000 HD 
BRANCH   5   8
HETATM    8  C   UNL     1     -10.644  10.985  67.165  1.00  0.00    -0.294 C  
HETATM    9  C   UNL     1     -11.252  10.849  68.356  1.00  0.00    -0.347 C  
BRANCH   9  10
HETATM   10  C   UNL     1     -10.688  10.092  69.485  1.00  0.00    -0.277 A  
HETATM   11  C   UNL     1     -11.562   9.518  70.420  1.00  0.00    -0.268 A  
HETATM   12  C   UNL     1     -11.018   8.830  71.486  1.00  0.00    -0.307 A  
HETATM   13  C   UNL     1      -9.659   8.708  71.655  1.00  0.00    -0.274 A  
HETATM   14  C   UNL     1      -8.768   9.274  70.772  1.00  0.00    -0.272 A  
HETATM   15  O   UNL     1      -9.334   7.994  72.764  1.00  0.00    -0.206 OA 
HETATM   16  C   UNL     1      -9.292   9.980  69.683  1.00  0.00    -0.242 A  
HETATM   17  C   UNL     1     -10.645   7.679  73.277  1.00  0.00    -0.352 C  
HETATM   18  O   UNL     1     -11.719   8.209  72.473  1.00  0.00    -0.378 OA 
ENDBRANCH   9  10
ENDBRANCH   5   8
ENDBRANCH   2   5
TORSDOF 3
ENDMDL
MODEL       73
REMARK 921   NORMALIZED FREE ENERGY PREDICTED BY IDOCK:   -4.37 KCAL/MOL
REMARK 922        TOTAL FREE ENERGY PREDICTED BY IDOCK:   -5.52 KCAL/MOL
REMARK 923 INTER-LIGAND FREE ENERGY PREDICTED BY IDOCK:   -5.21 KCAL/MOL
REMARK 924 INTRA-LIGAND FREE ENERGY PREDICTED BY IDOCK:   -0.31 KCAL/MOL
REMARK 927      BINDING AFFINITY PREDICTED BY RF-SCORE:    0.00 PKD
ROOT
HETATM    1  C   UNL     1      -9.269  12.358  66.608  1.00  0.00    -0.218 C  
HETATM    2  C   UNL     1     -10.534  11.680  66.040  1.00  0.00    -0.294 C  
HETATM    3  C   UNL     1     -11.289  11.011  67.205  1.00  0.00    -0.265 C  
HETATM    4  C   UNL     1     -10.078  10.589  65.050  1.00  0.00    -0.390 C  
ENDROOT
BRANCH   2   5
HETATM    5  C   UNL     1     -11.434  12.761  65.360  1.00  0.00    -0.327 C  
HETATM    6  O   UNL     1     -12.808  12.384  65.434  1.00  0.00    -0.488 OA 
HETATM    7  H   UNL     1     -13.356  13.041  65.021  1.00  0.00     0.000 HD 
BRANCH   5   8
HETATM    8  C   UNL     1     -11.312  14.144  65.945  1.00  0.00    -0.323 C  
HETATM    9  C   UNL     1     -10.745  15.185  65.311  1.00  0.00    -0.422 C  
BRANCH   9  10
HETATM   10  C   UNL     1     -10.612  16.529  65.895  1.00  0.00    -0.279 A  
HETATM   11  C   UNL     1     -10.258  16.649  67.247  1.00  0.00    -0.290 A  
HETATM   12  C   UNL     1     -10.159  17.916  67.787  1.00  0.00    -0.348 A  
HETATM   13  C   UNL     1     -10.407  19.044  67.043  1.00  0.00    -0.409 A  
HETATM   14  C   UNL     1     -10.776  18.969  65.719  1.00  0.00    -0.350 A  
HETATM   15  O   UNL     1     -10.253  20.187  67.761  1.00  0.00    -0.407 OA 
HETATM   16  C   UNL     1     -10.887  17.697  65.147  1.00  0.00     0.320 A  
HETATM   17  C   UNL     1      -9.879  19.650  69.046  1.00  0.00    -0.393 C  
HETATM   18  O   UNL     1      -9.820  18.208  69.072  1.00  0.00    -0.329 OA 
ENDBRANCH   9  10
ENDBRANCH   5   8
ENDBRANCH   2   5
TORSDOF 3
ENDMDL
MODEL       74
REMARK 921   NORMALIZED FREE ENERGY PREDICTED BY IDOCK:   -4.33 KCAL/MOL
REMARK 922        TOTAL FREE ENERGY PREDICTED BY IDOCK:   -5.47 KCAL/MOL
REMARK 923 INTER-LIGAND FREE ENERGY PREDICTED BY IDOCK:   -5.09 KCAL/MOL
REMARK 924 INTRA-LIGAND FREE ENERGY PREDICTED BY IDOCK:   -0.38 KCAL/MOL
REMARK 927      BINDING AFFINITY PREDICTED BY RF-SCORE:    0.00 PKD
ROOT
HETATM    1  C   UNL     1      -8.945   9.694  70.024  1.00  0.00    -0.266 C  
HETATM    2  C   UNL     1     -10.402   9.584  69.526  1.00  0.00    -0.229 C  
HETATM    3  C   UNL     1     -11.339   9.962  70.690  1.00  0.00    -0.413 C  
HETATM    4  C   UNL     1     -10.657   8.113  69.139  1.00  0.00    -0.179 C  
ENDROOT
BRANCH   2   5
HETATM    5  C   UNL     1     -10.608  10.560  68.324  1.00  0.00    -0.206 C  
HETATM    6  O   UNL     1     -11.997  10.710  68.036  1.00  0.00    -0.784 OA 
HETATM    7  H   UNL     1     -12.123  11.303  67.305  1.00  0.00     0.000 HD 
BRANCH   5   8
HETATM    8  C   UNL     1     -10.036  11.939  68.524  1.00  0.00    -0.211 C  
HETATM    9  C   UNL     1     -10.691  13.078  68.237  1.00  0.00    -0.261 C  
BRANCH   9  10
HETATM   10  C   UNL     1     -10.120  14.422  68.416  1.00  0.00    -0.244 A  
HETATM   11  C   UNL     1     -10.873  15.537  68.019  1.00  0.00    -0.300 A  
HETATM   12  C   UNL     1     -10.315  16.790  68.172  1.00  0.00    -0.318 A  
HETATM   13  C   UNL     1      -9.052  16.966  68.685  1.00  0.00    -0.265 A  
HETATM   14  C   UNL     1      -8.273  15.897  69.067  1.00  0.00    -0.234 A  
HETATM   15  O   UNL     1      -8.694  18.275  68.753  1.00  0.00    -0.300 OA 
HETATM   16  C   UNL     1      -8.813  14.615  68.920  1.00  0.00    -0.136 A  
HETATM   17  C   UNL     1      -9.877  18.906  68.222  1.00  0.00    -0.374 C  
HETATM   18  O   UNL     1     -10.909  17.971  67.848  1.00  0.00    -0.367 OA 
ENDBRANCH   9  10
ENDBRANCH   5   8
ENDBRANCH   2   5
TORSDOF 3
ENDMDL
MODEL       75
REMARK 921   NORMALIZED FREE ENERGY PREDICTED BY IDOCK:   -4.33 KCAL/MOL
REMARK 922        TOTAL FREE ENERGY PREDICTED BY IDOCK:   -5.47 KCAL/MOL
REMARK 923 INTER-LIGAND FREE ENERGY PREDICTED BY IDOCK:   -5.12 KCAL/MOL
REMARK 924 INTRA-LIGAND FREE ENERGY PREDICTED BY IDOCK:   -0.34 KCAL/MOL
REMARK 927      BINDING AFFINITY PREDICTED BY RF-SCORE:    0.00 PKD
ROOT
HETATM    1  C   UNL     1      -9.068   4.873  66.286  1.00  0.00    -0.127 C  
HETATM    2  C   UNL     1      -9.351   6.267  66.887  1.00  0.00    -0.148 C  
HETATM    3  C   UNL     1      -8.733   6.319  68.298  1.00  0.00    -0.115 C  
HETATM    4  C   UNL     1     -10.881   6.425  67.007  1.00  0.00    -0.464 C  
ENDROOT
BRANCH   2   5
HETATM    5  C   UNL     1      -8.711   7.360  65.974  1.00  0.00    -0.153 C  
HETATM    6  O   UNL     1      -8.462   6.837  64.670  1.00  0.00    -0.334 OA 
HETATM    7  H   UNL     1      -8.073   7.502  64.114  1.00  0.00     0.000 HD 
BRANCH   5   8
HETATM    8  C   UNL     1      -9.535   8.610  65.810  1.00  0.00    -0.192 C  
HETATM    9  C   UNL     1      -9.537   9.635  66.681  1.00  0.00    -0.241 C  
BRANCH   9  10
HETATM   10  C   UNL     1     -10.359  10.844  66.525  1.00  0.00    -0.299 A  
HETATM   11  C   UNL     1     -10.420  11.467  65.269  1.00  0.00    -0.340 A  
HETATM   12  C   UNL     1     -11.177  12.614  65.144  1.00  0.00    -0.301 A  
HETATM   13  C   UNL     1     -11.852  13.159  66.210  1.00  0.00    -0.401 A  
HETATM   14  C   UNL     1     -11.802  12.591  67.463  1.00  0.00    -0.389 A  
HETATM   15  O   UNL     1     -12.536  14.284  65.874  1.00  0.00    -0.450 OA 
HETATM   16  C   UNL     1     -11.040  11.428  67.619  1.00  0.00    -0.325 A  
HETATM   17  C   UNL     1     -12.213  14.387  64.472  1.00  0.00    -0.463 C  
HETATM   18  O   UNL     1     -11.348  13.333  64.002  1.00  0.00    -0.382 OA 
ENDBRANCH   9  10
ENDBRANCH   5   8
ENDBRANCH   2   5
TORSDOF 3
ENDMDL
MODEL       76
REMARK 921   NORMALIZED FREE ENERGY PREDICTED BY IDOCK:   -4.31 KCAL/MOL
REMARK 922        TOTAL FREE ENERGY PREDICTED BY IDOCK:   -5.44 KCAL/MOL
REMARK 923 INTER-LIGAND FREE ENERGY PREDICTED BY IDOCK:   -5.09 KCAL/MOL
REMARK 924 INTRA-LIGAND FREE ENERGY PREDICTED BY IDOCK:   -0.35 KCAL/MOL
REMARK 927      BINDING AFFINITY PREDICTED BY RF-SCORE:    0.00 PKD
ROOT
HETATM    1  C   UNL     1      -6.444  16.889  67.318  1.00  0.00    -0.201 C  
HETATM    2  C   UNL     1      -7.089  16.679  68.705  1.00  0.00    -0.194 C  
HETATM    3  C   UNL     1      -8.409  17.472  68.749  1.00  0.00    -0.219 C  
HETATM    4  C   UNL     1      -6.126  17.254  69.763  1.00  0.00    -0.231 C  
ENDROOT
BRANCH   2   5
HETATM    5  C   UNL     1      -7.364  15.156  68.918  1.00  0.00    -0.142 C  
HETATM    6  O   UNL     1      -7.432  14.851  70.309  1.00  0.00    -0.272 OA 
HETATM    7  H   UNL     1      -7.599  13.925  70.439  1.00  0.00     0.000 HD 
BRANCH   5   8
HETATM    8  C   UNL     1      -8.632  14.647  68.281  1.00  0.00    -0.167 C  
HETATM    9  C   UNL     1      -8.728  14.249  67.001  1.00  0.00    -0.231 C  
BRANCH   9  10
HETATM   10  C   UNL     1      -9.973  13.772  66.379  1.00  0.00    -0.301 A  
HETATM   11  C   UNL     1      -9.909  13.147  65.125  1.00  0.00    -0.076 A  
HETATM   12  C   UNL     1     -11.088  12.725  64.544  1.00  0.00    -0.330 A  
HETATM   13  C   UNL     1     -12.306  12.911  65.153  1.00  0.00    -0.493 A  
HETATM   14  C   UNL     1     -12.414  13.537  66.374  1.00  0.00    -0.349 A  
HETATM   15  O   UNL     1     -13.337  12.422  64.416  1.00  0.00    -0.789 OA 
HETATM   16  C   UNL     1     -11.234  13.978  66.985  1.00  0.00    -0.325 A  
HETATM   17  C   UNL     1     -12.630  11.906  63.270  1.00  0.00    -0.344 C  
HETATM   18  O   UNL     1     -11.202  12.097  63.342  1.00  0.00    -0.427 OA 
ENDBRANCH   9  10
ENDBRANCH   5   8
ENDBRANCH   2   5
TORSDOF 3
ENDMDL
MODEL       77
REMARK 921   NORMALIZED FREE ENERGY PREDICTED BY IDOCK:   -4.28 KCAL/MOL
REMARK 922        TOTAL FREE ENERGY PREDICTED BY IDOCK:   -5.42 KCAL/MOL
REMARK 923 INTER-LIGAND FREE ENERGY PREDICTED BY IDOCK:   -5.08 KCAL/MOL
REMARK 924 INTRA-LIGAND FREE ENERGY PREDICTED BY IDOCK:   -0.34 KCAL/MOL
REMARK 927      BINDING AFFINITY PREDICTED BY RF-SCORE:    0.00 PKD
ROOT
HETATM    1  C   UNL     1      -9.343   3.808  68.255  1.00  0.00    -0.225 C  
HETATM    2  C   UNL     1      -9.388   5.166  68.988  1.00  0.00    -0.166 C  
HETATM    3  C   UNL     1      -7.940   5.620  69.254  1.00  0.00    -0.096 C  
HETATM    4  C   UNL     1     -10.098   4.946  70.340  1.00  0.00    -0.316 C  
ENDROOT
BRANCH   2   5
HETATM    5  C   UNL     1     -10.129   6.209  68.092  1.00  0.00    -0.157 C  
HETATM    6  O   UNL     1     -10.972   5.549  67.150  1.00  0.00    -0.381 OA 
HETATM    7  H   UNL     1     -11.422   6.182  66.605  1.00  0.00     0.000 HD 
BRANCH   5   8
HETATM    8  C   UNL     1     -10.980   7.200  68.844  1.00  0.00    -0.109 C  
HETATM    9  C   UNL     1     -10.496   8.271  69.495  1.00  0.00    -0.228 C  
BRANCH   9  10
HETATM   10  C   UNL     1     -11.330   9.224  70.244  1.00  0.00    -0.238 A  
HETATM   11  C   UNL     1     -11.265  10.586  69.916  1.00  0.00    -0.374 A  
HETATM   12  C   UNL     1     -12.036  11.471  70.643  1.00  0.00    -0.353 A  
HETATM   13  C   UNL     1     -12.844  11.054  71.674  1.00  0.00    -0.435 A  
HETATM   14  C   UNL     1     -12.921   9.730  72.040  1.00  0.00    -0.515 A  
HETATM   15  O   UNL     1     -13.518  12.080  72.256  1.00  0.00    -0.465 OA 
HETATM   16  C   UNL     1     -12.147   8.811  71.322  1.00  0.00    -0.344 A  
HETATM   17  C   UNL     1     -13.041  13.194  71.473  1.00  0.00    -0.315 C  
HETATM   18  O   UNL     1     -12.098  12.816  70.450  1.00  0.00    -0.363 OA 
ENDBRANCH   9  10
ENDBRANCH   5   8
ENDBRANCH   2   5
TORSDOF 3
ENDMDL
MODEL       78
REMARK 921   NORMALIZED FREE ENERGY PREDICTED BY IDOCK:   -4.28 KCAL/MOL
REMARK 922        TOTAL FREE ENERGY PREDICTED BY IDOCK:   -5.42 KCAL/MOL
REMARK 923 INTER-LIGAND FREE ENERGY PREDICTED BY IDOCK:   -4.99 KCAL/MOL
REMARK 924 INTRA-LIGAND FREE ENERGY PREDICTED BY IDOCK:   -0.43 KCAL/MOL
REMARK 927      BINDING AFFINITY PREDICTED BY RF-SCORE:    0.00 PKD
ROOT
HETATM    1  C   UNL     1      -7.833  11.208  66.128  1.00  0.00    -0.072 C  
HETATM    2  C   UNL     1      -8.355   9.767  65.941  1.00  0.00    -0.128 C  
HETATM    3  C   UNL     1      -7.665   8.865  66.982  1.00  0.00    -0.098 C  
HETATM    4  C   UNL     1      -7.949   9.301  64.529  1.00  0.00    -0.128 C  
ENDROOT
BRANCH   2   5
HETATM    5  C   UNL     1      -9.903   9.751  66.150  1.00  0.00    -0.263 C  
HETATM    6  O   UNL     1     -10.317   8.509  66.716  1.00  0.00    -0.295 OA 
HETATM    7  H   UNL     1     -11.258   8.498  66.843  1.00  0.00     0.000 HD 
BRANCH   5   8
HETATM    8  C   UNL     1     -10.434  10.850  67.034  1.00  0.00    -0.291 C  
HETATM    9  C   UNL     1     -10.945  10.652  68.261  1.00  0.00    -0.314 C  
BRANCH   9  10
HETATM   10  C   UNL     1     -11.479  11.727  69.112  1.00  0.00    -0.358 A  
HETATM   11  C   UNL     1     -12.105  11.387  70.321  1.00  0.00    -0.459 A  
HETATM   12  C   UNL     1     -12.622  12.404  71.098  1.00  0.00    -0.251 A  
HETATM   13  C   UNL     1     -12.549  13.722  70.713  1.00  0.00    -0.340 A  
HETATM   14  C   UNL     1     -11.961  14.095  69.525  1.00  0.00    -0.389 A  
HETATM   15  O   UNL     1     -13.115  14.562  71.618  1.00  0.00    -0.310 OA 
HETATM   16  C   UNL     1     -11.431  13.084  68.717  1.00  0.00    -0.340 A  
HETATM   17  C   UNL     1     -13.555  13.622  72.620  1.00  0.00    -0.485 C  
HETATM   18  O   UNL     1     -13.249  12.250  72.296  1.00  0.00    -0.470 OA 
ENDBRANCH   9  10
ENDBRANCH   5   8
ENDBRANCH   2   5
TORSDOF 3
ENDMDL
MODEL       79
REMARK 921   NORMALIZED FREE ENERGY PREDICTED BY IDOCK:   -4.24 KCAL/MOL
REMARK 922        TOTAL FREE ENERGY PREDICTED BY IDOCK:   -5.37 KCAL/MOL
REMARK 923 INTER-LIGAND FREE ENERGY PREDICTED BY IDOCK:   -4.95 KCAL/MOL
REMARK 924 INTRA-LIGAND FREE ENERGY PREDICTED BY IDOCK:   -0.42 KCAL/MOL
REMARK 927      BINDING AFFINITY PREDICTED BY RF-SCORE:    0.00 PKD
ROOT
HETATM    1  C   UNL     1      -9.653   3.703  67.228  1.00  0.00    -0.194 C  
HETATM    2  C   UNL     1      -9.550   5.131  67.806  1.00  0.00    -0.166 C  
HETATM    3  C   UNL     1      -8.058   5.482  67.963  1.00  0.00    -0.096 C  
HETATM    4  C   UNL     1     -10.210   5.122  69.199  1.00  0.00    -0.259 C  
ENDROOT
BRANCH   2   5
HETATM    5  C   UNL     1     -10.242   6.132  66.826  1.00  0.00    -0.206 C  
HETATM    6  O   UNL     1     -11.329   5.500  66.153  1.00  0.00    -0.751 OA 
HETATM    7  H   UNL     1     -11.750   6.108  65.557  1.00  0.00     0.000 HD 
BRANCH   5   8
HETATM    8  C   UNL     1     -10.778   7.382  67.475  1.00  0.00    -0.310 C  
HETATM    9  C   UNL     1     -10.342   8.623  67.199  1.00  0.00    -0.369 C  
BRANCH   9  10
HETATM   10  C   UNL     1     -10.856   9.839  67.849  1.00  0.00    -0.298 A  
HETATM   11  C   UNL     1     -11.203   9.786  69.208  1.00  0.00    -0.128 A  
HETATM   12  C   UNL     1     -11.705  10.928  69.799  1.00  0.00    -0.338 A  
HETATM   13  C   UNL     1     -11.882  12.094  69.093  1.00  0.00    -0.305 A  
HETATM   14  C   UNL     1     -11.573  12.182  67.754  1.00  0.00    -0.410 A  
HETATM   15  O   UNL     1     -12.385  13.097  69.859  1.00  0.00    -0.241 OA 
HETATM   16  C   UNL     1     -11.065  11.038  67.129  1.00  0.00    -0.333 A  
HETATM   17  C   UNL     1     -12.507  12.428  71.132  1.00  0.00    -0.222 C  
HETATM   18  O   UNL     1     -12.081  11.051  71.101  1.00  0.00    -0.321 OA 
ENDBRANCH   9  10
ENDBRANCH   5   8
ENDBRANCH   2   5
TORSDOF 3
ENDMDL
MODEL       80
REMARK 921   NORMALIZED FREE ENERGY PREDICTED BY IDOCK:   -4.24 KCAL/MOL
REMARK 922        TOTAL FREE ENERGY PREDICTED BY IDOCK:   -5.36 KCAL/MOL
REMARK 923 INTER-LIGAND FREE ENERGY PREDICTED BY IDOCK:   -4.91 KCAL/MOL
REMARK 924 INTRA-LIGAND FREE ENERGY PREDICTED BY IDOCK:   -0.45 KCAL/MOL
REMARK 927      BINDING AFFINITY PREDICTED BY RF-SCORE:    0.00 PKD
ROOT
HETATM    1  C   UNL     1     -12.254   8.507  71.539  1.00  0.00    -0.355 C  
HETATM    2  C   UNL     1     -11.055   7.543  71.669  1.00  0.00    -0.270 C  
HETATM    3  C   UNL     1     -11.543   6.255  72.359  1.00  0.00    -0.325 C  
HETATM    4  C   UNL     1     -10.003   8.222  72.570  1.00  0.00    -0.373 C  
ENDROOT
BRANCH   2   5
HETATM    5  C   UNL     1     -10.499   7.220  70.246  1.00  0.00    -0.219 C  
HETATM    6  O   UNL     1     -11.168   6.087  69.695  1.00  0.00    -0.394 OA 
HETATM    7  H   UNL     1     -10.830   5.890  68.829  1.00  0.00     0.000 HD 
BRANCH   5   8
HETATM    8  C   UNL     1     -10.619   8.344  69.250  1.00  0.00    -0.193 C  
HETATM    9  C   UNL     1      -9.638   9.222  68.978  1.00  0.00    -0.159 C  
BRANCH   9  10
HETATM   10  C   UNL     1      -9.767  10.330  68.019  1.00  0.00    -0.167 A  
HETATM   11  C   UNL     1     -11.050  10.783  67.675  1.00  0.00    -0.384 A  
HETATM   12  C   UNL     1     -11.156  11.807  66.756  1.00  0.00    -0.306 A  
HETATM   13  C   UNL     1     -10.051  12.376  66.170  1.00  0.00    -0.248 A  
HETATM   14  C   UNL     1      -8.776  11.947  66.465  1.00  0.00    -0.158 A  
HETATM   15  O   UNL     1     -10.374  13.367  65.298  1.00  0.00    -0.303 OA 
HETATM   16  C   UNL     1      -8.639  10.908  67.392  1.00  0.00    -0.127 A  
HETATM   17  C   UNL     1     -11.813  13.357  65.400  1.00  0.00    -0.353 C  
HETATM   18  O   UNL     1     -12.318  12.368  66.321  1.00  0.00    -0.577 OA 
ENDBRANCH   9  10
ENDBRANCH   5   8
ENDBRANCH   2   5
TORSDOF 3
ENDMDL
MODEL       81
REMARK 921   NORMALIZED FREE ENERGY PREDICTED BY IDOCK:   -4.23 KCAL/MOL
REMARK 922        TOTAL FREE ENERGY PREDICTED BY IDOCK:   -5.35 KCAL/MOL
REMARK 923 INTER-LIGAND FREE ENERGY PREDICTED BY IDOCK:   -5.00 KCAL/MOL
REMARK 924 INTRA-LIGAND FREE ENERGY PREDICTED BY IDOCK:   -0.35 KCAL/MOL
REMARK 927      BINDING AFFINITY PREDICTED BY RF-SCORE:    0.00 PKD
ROOT
HETATM    1  C   UNL     1      -8.644   5.572  69.464  1.00  0.00    -0.105 C  
HETATM    2  C   UNL     1      -9.215   6.985  69.710  1.00  0.00    -0.147 C  
HETATM    3  C   UNL     1      -8.063   8.001  69.582  1.00  0.00    -0.119 C  
HETATM    4  C   UNL     1      -9.759   7.028  71.152  1.00  0.00    -0.173 C  
ENDROOT
BRANCH   2   5
HETATM    5  C   UNL     1     -10.321   7.283  68.648  1.00  0.00    -0.193 C  
HETATM    6  O   UNL     1     -11.549   6.659  69.019  1.00  0.00    -0.611 OA 
HETATM    7  H   UNL     1     -12.222   6.840  68.373  1.00  0.00     0.000 HD 
BRANCH   5   8
HETATM    8  C   UNL     1     -10.607   8.746  68.426  1.00  0.00    -0.185 C  
HETATM    9  C   UNL     1     -10.577   9.348  67.224  1.00  0.00    -0.314 C  
BRANCH   9  10
HETATM   10  C   UNL     1     -10.838  10.781  67.016  1.00  0.00    -0.311 A  
HETATM   11  C   UNL     1     -10.375  11.391  65.840  1.00  0.00    -0.299 A  
HETATM   12  C   UNL     1     -10.608  12.741  65.669  1.00  0.00    -0.275 A  
HETATM   13  C   UNL     1     -11.261  13.491  66.617  1.00  0.00    -0.312 A  
HETATM   14  C   UNL     1     -11.713  12.936  67.792  1.00  0.00    -0.412 A  
HETATM   15  O   UNL     1     -11.388  14.795  66.253  1.00  0.00    -0.343 OA 
HETATM   16  C   UNL     1     -11.488  11.569  67.993  1.00  0.00    -0.381 A  
HETATM   17  C   UNL     1     -10.736  14.780  64.966  1.00  0.00    -0.433 C  
HETATM   18  O   UNL     1     -10.236  13.481  64.590  1.00  0.00    -0.387 OA 
ENDBRANCH   9  10
ENDBRANCH   5   8
ENDBRANCH   2   5
TORSDOF 3
ENDMDL
MODEL       82
REMARK 921   NORMALIZED FREE ENERGY PREDICTED BY IDOCK:   -4.22 KCAL/MOL
REMARK 922        TOTAL FREE ENERGY PREDICTED BY IDOCK:   -5.34 KCAL/MOL
REMARK 923 INTER-LIGAND FREE ENERGY PREDICTED BY IDOCK:   -4.97 KCAL/MOL
REMARK 924 INTRA-LIGAND FREE ENERGY PREDICTED BY IDOCK:   -0.37 KCAL/MOL
REMARK 927      BINDING AFFINITY PREDICTED BY RF-SCORE:    0.00 PKD
ROOT
HETATM    1  C   UNL     1     -14.326  15.322  71.565  1.00  0.00    -0.633 C  
HETATM    2  C   UNL     1     -12.894  14.755  71.452  1.00  0.00    -0.409 C  
HETATM    3  C   UNL     1     -12.804  13.492  72.330  1.00  0.00    -0.310 C  
HETATM    4  C   UNL     1     -11.924  15.818  72.005  1.00  0.00    -0.570 C  
ENDROOT
BRANCH   2   5
HETATM    5  C   UNL     1     -12.600  14.401  69.959  1.00  0.00    -0.233 C  
HETATM    6  O   UNL     1     -12.009  15.513  69.289  1.00  0.00    -0.395 OA 
HETATM    7  H   UNL     1     -11.830  15.298  68.382  1.00  0.00     0.000 HD 
BRANCH   5   8
HETATM    8  C   UNL     1     -11.689  13.217  69.758  1.00  0.00    -0.354 C  
HETATM    9  C   UNL     1     -11.906  12.240  68.861  1.00  0.00    -0.355 C  
BRANCH   9  10
HETATM   10  C   UNL     1     -11.024  11.077  68.682  1.00  0.00    -0.271 A  
HETATM   11  C   UNL     1     -11.133   9.999  69.574  1.00  0.00    -0.279 A  
HETATM   12  C   UNL     1     -10.282   8.925  69.408  1.00  0.00    -0.209 A  
HETATM   13  C   UNL     1      -9.337   8.893  68.411  1.00  0.00    -0.136 A  
HETATM   14  C   UNL     1      -9.185   9.937  67.528  1.00  0.00    -0.148 A  
HETATM   15  O   UNL     1      -8.606   7.748  68.421  1.00  0.00    -0.128 OA 
HETATM   16  C   UNL     1     -10.032  11.041  67.675  1.00  0.00    -0.196 A  
HETATM   17  C   UNL     1      -9.199   7.060  69.542  1.00  0.00    -0.149 C  
HETATM   18  O   UNL     1     -10.261   7.801  70.176  1.00  0.00    -0.198 OA 
ENDBRANCH   9  10
ENDBRANCH   5   8
ENDBRANCH   2   5
TORSDOF 3
ENDMDL
MODEL       83
REMARK 921   NORMALIZED FREE ENERGY PREDICTED BY IDOCK:   -4.21 KCAL/MOL
REMARK 922        TOTAL FREE ENERGY PREDICTED BY IDOCK:   -5.33 KCAL/MOL
REMARK 923 INTER-LIGAND FREE ENERGY PREDICTED BY IDOCK:   -5.18 KCAL/MOL
REMARK 924 INTRA-LIGAND FREE ENERGY PREDICTED BY IDOCK:   -0.15 KCAL/MOL
REMARK 927      BINDING AFFINITY PREDICTED BY RF-SCORE:    0.00 PKD
ROOT
HETATM    1  C   UNL     1      -9.544  13.689  67.807  1.00  0.00    -0.224 C  
HETATM    2  C   UNL     1     -11.022  13.925  68.189  1.00  0.00    -0.267 C  
HETATM    3  C   UNL     1     -11.571  12.628  68.815  1.00  0.00    -0.355 C  
HETATM    4  C   UNL     1     -11.801  14.221  66.892  1.00  0.00    -0.458 C  
ENDROOT
BRANCH   2   5
HETATM    5  C   UNL     1     -11.105  15.100  69.215  1.00  0.00    -0.274 C  
HETATM    6  O   UNL     1     -10.936  14.614  70.545  1.00  0.00    -0.480 OA 
HETATM    7  H   UNL     1     -10.987  15.328  71.169  1.00  0.00     0.000 HD 
BRANCH   5   8
HETATM    8  C   UNL     1     -10.094  16.197  69.003  1.00  0.00    -0.247 C  
HETATM    9  C   UNL     1     -10.053  16.988  67.916  1.00  0.00    -0.306 C  
BRANCH   9  10
HETATM   10  C   UNL     1      -9.052  18.045  67.706  1.00  0.00    -0.262 A  
HETATM   11  C   UNL     1      -8.625  18.325  66.399  1.00  0.00    -0.262 A  
HETATM   12  C   UNL     1      -7.669  19.304  66.220  1.00  0.00    -0.289 A  
HETATM   13  C   UNL     1      -7.125  19.991  67.278  1.00  0.00    -0.244 A  
HETATM   14  C   UNL     1      -7.502  19.733  68.577  1.00  0.00    -0.347 A  
HETATM   15  O   UNL     1      -6.205  20.910  66.885  1.00  0.00    -0.227 OA 
HETATM   16  C   UNL     1      -8.468  18.744  68.788  1.00  0.00    -0.320 A  
HETATM   17  C   UNL     1      -6.229  20.723  65.455  1.00  0.00    -0.244 C  
HETATM   18  O   UNL     1      -7.154  19.702  65.025  1.00  0.00    -0.373 OA 
ENDBRANCH   9  10
ENDBRANCH   5   8
ENDBRANCH   2   5
TORSDOF 3
ENDMDL
MODEL       84
REMARK 921   NORMALIZED FREE ENERGY PREDICTED BY IDOCK:   -4.20 KCAL/MOL
REMARK 922        TOTAL FREE ENERGY PREDICTED BY IDOCK:   -5.32 KCAL/MOL
REMARK 923 INTER-LIGAND FREE ENERGY PREDICTED BY IDOCK:   -4.99 KCAL/MOL
REMARK 924 INTRA-LIGAND FREE ENERGY PREDICTED BY IDOCK:   -0.33 KCAL/MOL
REMARK 927      BINDING AFFINITY PREDICTED BY RF-SCORE:    0.00 PKD
ROOT
HETATM    1  C   UNL     1      -5.863  19.930  65.920  1.00  0.00    -0.191 C  
HETATM    2  C   UNL     1      -6.823  19.403  67.009  1.00  0.00    -0.206 C  
HETATM    3  C   UNL     1      -7.924  20.457  67.234  1.00  0.00    -0.376 C  
HETATM    4  C   UNL     1      -6.012  19.242  68.311  1.00  0.00    -0.238 C  
ENDROOT
BRANCH   2   5
HETATM    5  C   UNL     1      -7.451  18.055  66.530  1.00  0.00    -0.240 C  
HETATM    6  O   UNL     1      -6.449  17.044  66.433  1.00  0.00    -0.219 OA 
HETATM    7  H   UNL     1      -6.831  16.225  66.141  1.00  0.00     0.000 HD 
BRANCH   5   8
HETATM    8  C   UNL     1      -8.549  17.520  67.413  1.00  0.00    -0.225 C  
HETATM    9  C   UNL     1      -9.036  16.269  67.340  1.00  0.00    -0.197 C  
BRANCH   9  10
HETATM   10  C   UNL     1     -10.121  15.758  68.192  1.00  0.00    -0.220 A  
HETATM   11  C   UNL     1     -10.334  16.349  69.446  1.00  0.00    -0.290 A  
HETATM   12  C   UNL     1     -11.341  15.844  70.244  1.00  0.00    -0.372 A  
HETATM   13  C   UNL     1     -12.120  14.783  69.847  1.00  0.00    -0.332 A  
HETATM   14  C   UNL     1     -11.930  14.163  68.633  1.00  0.00    -0.373 A  
HETATM   15  O   UNL     1     -13.052  14.444  70.776  1.00  0.00    -0.356 OA 
HETATM   16  C   UNL     1     -10.913  14.653  67.805  1.00  0.00    -0.291 A  
HETATM   17  C   UNL     1     -12.771  15.414  71.806  1.00  0.00    -0.396 C  
HETATM   18  O   UNL     1     -11.684  16.304  71.478  1.00  0.00    -0.469 OA 
ENDBRANCH   9  10
ENDBRANCH   5   8
ENDBRANCH   2   5
TORSDOF 3
ENDMDL
MODEL       85
REMARK 921   NORMALIZED FREE ENERGY PREDICTED BY IDOCK:   -4.19 KCAL/MOL
REMARK 922        TOTAL FREE ENERGY PREDICTED BY IDOCK:   -5.31 KCAL/MOL
REMARK 923 INTER-LIGAND FREE ENERGY PREDICTED BY IDOCK:   -4.93 KCAL/MOL
REMARK 924 INTRA-LIGAND FREE ENERGY PREDICTED BY IDOCK:   -0.38 KCAL/MOL
REMARK 927      BINDING AFFINITY PREDICTED BY RF-SCORE:    0.00 PKD
ROOT
HETATM    1  C   UNL     1     -10.435  14.722  65.031  1.00  0.00    -0.443 C  
HETATM    2  C   UNL     1     -11.264  13.432  65.209  1.00  0.00    -0.305 C  
HETATM    3  C   UNL     1     -11.120  12.584  63.931  1.00  0.00    -0.476 C  
HETATM    4  C   UNL     1     -12.742  13.842  65.372  1.00  0.00    -0.525 C  
ENDROOT
BRANCH   2   5
HETATM    5  C   UNL     1     -10.727  12.644  66.447  1.00  0.00    -0.255 C  
HETATM    6  O   UNL     1     -11.746  12.515  67.436  1.00  0.00    -0.350 OA 
HETATM    7  H   UNL     1     -11.420  12.036  68.189  1.00  0.00     0.000 HD 
BRANCH   5   8
HETATM    8  C   UNL     1     -10.215  11.260  66.141  1.00  0.00    -0.291 C  
HETATM    9  C   UNL     1     -10.526  10.164  66.856  1.00  0.00    -0.286 C  
BRANCH   9  10
HETATM   10  C   UNL     1     -10.007   8.819  66.564  1.00  0.00    -0.360 A  
HETATM   11  C   UNL     1     -10.611   7.712  67.178  1.00  0.00    -0.410 A  
HETATM   12  C   UNL     1     -10.099   6.457  66.913  1.00  0.00    -0.187 A  
HETATM   13  C   UNL     1      -9.019   6.274  66.083  1.00  0.00    -0.153 A  
HETATM   14  C   UNL     1      -8.386   7.335  65.477  1.00  0.00    -0.137 A  
HETATM   15  O   UNL     1      -8.676   4.965  65.955  1.00  0.00    -0.119 OA 
HETATM   16  C   UNL     1      -8.882   8.618  65.731  1.00  0.00    -0.231 A  
HETATM   17  C   UNL     1      -9.665   4.343  66.802  1.00  0.00    -0.215 C  
HETATM   18  O   UNL     1     -10.570   5.284  67.416  1.00  0.00    -0.185 OA 
ENDBRANCH   9  10
ENDBRANCH   5   8
ENDBRANCH   2   5
TORSDOF 3
ENDMDL
MODEL       86
REMARK 921   NORMALIZED FREE ENERGY PREDICTED BY IDOCK:   -4.14 KCAL/MOL
REMARK 922        TOTAL FREE ENERGY PREDICTED BY IDOCK:   -5.24 KCAL/MOL
REMARK 923 INTER-LIGAND FREE ENERGY PREDICTED BY IDOCK:   -4.92 KCAL/MOL
REMARK 924 INTRA-LIGAND FREE ENERGY PREDICTED BY IDOCK:   -0.33 KCAL/MOL
REMARK 927      BINDING AFFINITY PREDICTED BY RF-SCORE:    0.00 PKD
ROOT
HETATM    1  C   UNL     1      -7.891  10.000  64.232  1.00  0.00    -0.144 C  
HETATM    2  C   UNL     1      -8.942   9.973  65.363  1.00  0.00    -0.213 C  
HETATM    3  C   UNL     1      -9.224   8.502  65.725  1.00  0.00    -0.210 C  
HETATM    4  C   UNL     1     -10.236  10.610  64.818  1.00  0.00    -0.401 C  
ENDROOT
BRANCH   2   5
HETATM    5  C   UNL     1      -8.379  10.738  66.604  1.00  0.00    -0.141 C  
HETATM    6  O   UNL     1      -7.766  11.961  66.200  1.00  0.00    -0.359 OA 
HETATM    7  H   UNL     1      -7.424  12.427  66.954  1.00  0.00     0.000 HD 
BRANCH   5   8
HETATM    8  C   UNL     1      -9.403  11.072  67.658  1.00  0.00    -0.162 C  
HETATM    9  C   UNL     1      -9.867  12.311  67.895  1.00  0.00    -0.201 C  
BRANCH   9  10
HETATM   10  C   UNL     1     -10.852  12.635  68.939  1.00  0.00    -0.238 A  
HETATM   11  C   UNL     1     -11.260  13.967  69.097  1.00  0.00    -0.308 A  
HETATM   12  C   UNL     1     -12.168  14.259  70.096  1.00  0.00    -0.345 A  
HETATM   13  C   UNL     1     -12.664  13.288  70.933  1.00  0.00    -0.254 A  
HETATM   14  C   UNL     1     -12.274  11.973  70.824  1.00  0.00    -0.382 A  
HETATM   15  O   UNL     1     -13.543  13.784  71.843  1.00  0.00    -0.380 OA 
HETATM   16  C   UNL     1     -11.353  11.649  69.822  1.00  0.00    -0.276 A  
HETATM   17  C   UNL     1     -13.544  15.181  71.484  1.00  0.00    -0.477 C  
HETATM   18  O   UNL     1     -12.671  15.491  70.378  1.00  0.00    -0.425 OA 
ENDBRANCH   9  10
ENDBRANCH   5   8
ENDBRANCH   2   5
TORSDOF 3
ENDMDL
MODEL       87
REMARK 921   NORMALIZED FREE ENERGY PREDICTED BY IDOCK:   -4.12 KCAL/MOL
REMARK 922        TOTAL FREE ENERGY PREDICTED BY IDOCK:   -5.22 KCAL/MOL
REMARK 923 INTER-LIGAND FREE ENERGY PREDICTED BY IDOCK:   -4.89 KCAL/MOL
REMARK 924 INTRA-LIGAND FREE ENERGY PREDICTED BY IDOCK:   -0.33 KCAL/MOL
REMARK 927      BINDING AFFINITY PREDICTED BY RF-SCORE:    0.00 PKD
ROOT
HETATM    1  C   UNL     1     -10.934  10.427  67.343  1.00  0.00    -0.335 C  
HETATM    2  C   UNL     1     -11.017  11.918  66.952  1.00  0.00    -0.335 C  
HETATM    3  C   UNL     1     -11.838  12.654  68.029  1.00  0.00    -0.376 C  
HETATM    4  C   UNL     1     -11.764  12.010  65.606  1.00  0.00    -0.312 C  
ENDROOT
BRANCH   2   5
HETATM    5  C   UNL     1      -9.573  12.509  66.872  1.00  0.00    -0.229 C  
HETATM    6  O   UNL     1      -9.002  12.256  65.590  1.00  0.00    -0.421 OA 
HETATM    7  H   UNL     1      -8.124  12.615  65.540  1.00  0.00     0.000 HD 
BRANCH   5   8
HETATM    8  C   UNL     1      -9.482  13.992  67.123  1.00  0.00    -0.241 C  
HETATM    9  C   UNL     1      -8.430  14.754  66.777  1.00  0.00    -0.179 C  
BRANCH   9  10
HETATM   10  C   UNL     1      -8.338  16.197  67.042  1.00  0.00    -0.247 A  
HETATM   11  C   UNL     1      -7.731  17.026  66.086  1.00  0.00    -0.292 A  
HETATM   12  C   UNL     1      -7.631  18.375  66.359  1.00  0.00    -0.252 A  
HETATM   13  C   UNL     1      -8.096  18.915  67.534  1.00  0.00    -0.260 A  
HETATM   14  C   UNL     1      -8.679  18.135  68.506  1.00  0.00    -0.309 A  
HETATM   15  O   UNL     1      -7.902  20.258  67.603  1.00  0.00    -0.299 OA 
HETATM   16  C   UNL     1      -8.791  16.762  68.257  1.00  0.00    -0.228 A  
HETATM   17  C   UNL     1      -7.261  20.504  66.335  1.00  0.00    -0.199 C  
HETATM   18  O   UNL     1      -7.082  19.313  65.541  1.00  0.00    -0.377 OA 
ENDBRANCH   9  10
ENDBRANCH   5   8
ENDBRANCH   2   5
TORSDOF 3
ENDMDL
MODEL       88
REMARK 921   NORMALIZED FREE ENERGY PREDICTED BY IDOCK:   -4.11 KCAL/MOL
REMARK 922        TOTAL FREE ENERGY PREDICTED BY IDOCK:   -5.22 KCAL/MOL
REMARK 923 INTER-LIGAND FREE ENERGY PREDICTED BY IDOCK:   -4.88 KCAL/MOL
REMARK 924 INTRA-LIGAND FREE ENERGY PREDICTED BY IDOCK:   -0.33 KCAL/MOL
REMARK 927      BINDING AFFINITY PREDICTED BY RF-SCORE:    0.00 PKD
ROOT
HETATM    1  C   UNL     1      -9.367  11.546  65.668  1.00  0.00    -0.221 C  
HETATM    2  C   UNL     1      -8.756  10.166  65.993  1.00  0.00    -0.153 C  
HETATM    3  C   UNL     1      -7.420  10.390  66.728  1.00  0.00    -0.110 C  
HETATM    4  C   UNL     1      -8.475   9.450  64.656  1.00  0.00    -0.179 C  
ENDROOT
BRANCH   2   5
HETATM    5  C   UNL     1      -9.746   9.366  66.899  1.00  0.00    -0.186 C  
HETATM    6  O   UNL     1      -9.133   8.169  67.372  1.00  0.00    -0.132 OA 
HETATM    7  H   UNL     1      -9.735   7.682  67.923  1.00  0.00     0.000 HD 
BRANCH   5   8
HETATM    8  C   UNL     1     -10.254  10.120  68.101  1.00  0.00    -0.200 C  
HETATM    9  C   UNL     1     -11.524  10.535  68.252  1.00  0.00    -0.272 C  
BRANCH   9  10
HETATM   10  C   UNL     1     -12.009  11.287  69.419  1.00  0.00    -0.410 A  
HETATM   11  C   UNL     1     -11.805  12.675  69.464  1.00  0.00    -0.376 A  
HETATM   12  C   UNL     1     -12.245  13.364  70.576  1.00  0.00    -0.352 A  
HETATM   13  C   UNL     1     -12.859  12.729  71.630  1.00  0.00    -0.261 A  
HETATM   14  C   UNL     1     -13.060  11.367  71.633  1.00  0.00    -0.498 A  
HETATM   15  O   UNL     1     -13.215  13.588  72.620  1.00  0.00    -0.491 OA 
HETATM   16  C   UNL     1     -12.620  10.643  70.520  1.00  0.00    -0.433 A  
HETATM   17  C   UNL     1     -12.755  14.840  72.071  1.00  0.00    -0.329 C  
HETATM   18  O   UNL     1     -12.135  14.706  70.775  1.00  0.00    -0.281 OA 
ENDBRANCH   9  10
ENDBRANCH   5   8
ENDBRANCH   2   5
TORSDOF 3
ENDMDL
MODEL       89
REMARK 921   NORMALIZED FREE ENERGY PREDICTED BY IDOCK:   -4.10 KCAL/MOL
REMARK 922        TOTAL FREE ENERGY PREDICTED BY IDOCK:   -5.20 KCAL/MOL
REMARK 923 INTER-LIGAND FREE ENERGY PREDICTED BY IDOCK:   -4.86 KCAL/MOL
REMARK 924 INTRA-LIGAND FREE ENERGY PREDICTED BY IDOCK:   -0.35 KCAL/MOL
REMARK 927      BINDING AFFINITY PREDICTED BY RF-SCORE:    0.00 PKD
ROOT
HETATM    1  C   UNL     1      -7.134   8.700  66.638  1.00  0.00    -0.080 C  
HETATM    2  C   UNL     1      -8.278   7.698  66.905  1.00  0.00    -0.120 C  
HETATM    3  C   UNL     1      -8.304   7.385  68.414  1.00  0.00    -0.125 C  
HETATM    4  C   UNL     1      -7.958   6.402  66.133  1.00  0.00    -0.112 C  
ENDROOT
BRANCH   2   5
HETATM    5  C   UNL     1      -9.633   8.335  66.460  1.00  0.00    -0.244 C  
HETATM    6  O   UNL     1     -10.677   7.364  66.498  1.00  0.00    -0.478 OA 
HETATM    7  H   UNL     1     -11.501   7.751  66.228  1.00  0.00     0.000 HD 
BRANCH   5   8
HETATM    8  C   UNL     1     -10.080   9.513  67.286  1.00  0.00    -0.272 C  
HETATM    9  C   UNL     1     -10.773  10.558  66.801  1.00  0.00    -0.252 C  
BRANCH   9  10
HETATM   10  C   UNL     1     -11.189  11.714  67.609  1.00  0.00    -0.345 A  
HETATM   11  C   UNL     1     -11.545  11.512  68.951  1.00  0.00    -0.384 A  
HETATM   12  C   UNL     1     -11.956  12.603  69.690  1.00  0.00    -0.286 A  
HETATM   13  C   UNL     1     -12.035  13.862  69.145  1.00  0.00    -0.363 A  
HETATM   14  C   UNL     1     -11.714  14.100  67.827  1.00  0.00    -0.408 A  
HETATM   15  O   UNL     1     -12.459  14.792  70.040  1.00  0.00    -0.324 OA 
HETATM   16  C   UNL     1     -11.297  13.011  67.054  1.00  0.00    -0.343 A  
HETATM   17  C   UNL     1     -12.640  13.974  71.214  1.00  0.00    -0.367 C  
HETATM   18  O   UNL     1     -12.326  12.583  70.999  1.00  0.00    -0.351 OA 
ENDBRANCH   9  10
ENDBRANCH   5   8
ENDBRANCH   2   5
TORSDOF 3
ENDMDL
MODEL       90
REMARK 921   NORMALIZED FREE ENERGY PREDICTED BY IDOCK:   -4.08 KCAL/MOL
REMARK 922        TOTAL FREE ENERGY PREDICTED BY IDOCK:   -5.18 KCAL/MOL
REMARK 923 INTER-LIGAND FREE ENERGY PREDICTED BY IDOCK:   -4.84 KCAL/MOL
REMARK 924 INTRA-LIGAND FREE ENERGY PREDICTED BY IDOCK:   -0.34 KCAL/MOL
REMARK 927      BINDING AFFINITY PREDICTED BY RF-SCORE:    0.00 PKD
ROOT
HETATM    1  C   UNL     1      -8.500   3.516  67.325  1.00  0.00    -0.103 C  
HETATM    2  C   UNL     1      -9.285   4.834  67.495  1.00  0.00    -0.142 C  
HETATM    3  C   UNL     1     -10.307   4.940  66.346  1.00  0.00    -0.328 C  
HETATM    4  C   UNL     1      -8.280   5.998  67.377  1.00  0.00    -0.106 C  
ENDROOT
BRANCH   2   5
HETATM    5  C   UNL     1     -10.019   4.820  68.874  1.00  0.00    -0.126 C  
HETATM    6  O   UNL     1      -9.110   4.482  69.920  1.00  0.00    -0.092 OA 
HETATM    7  H   UNL     1      -9.556   4.474  70.758  1.00  0.00     0.000 HD 
BRANCH   5   8
HETATM    8  C   UNL     1     -10.680   6.121  69.252  1.00  0.00    -0.383 C  
HETATM    9  C   UNL     1     -10.915   6.509  70.517  1.00  0.00    -0.348 C  
BRANCH   9  10
HETATM   10  C   UNL     1     -11.578   7.771  70.880  1.00  0.00    -0.289 A  
HETATM   11  C   UNL     1     -11.156   8.960  70.266  1.00  0.00    -0.251 A  
HETATM   12  C   UNL     1     -11.773  10.140  70.633  1.00  0.00    -0.338 A  
HETATM   13  C   UNL     1     -12.767  10.176  71.581  1.00  0.00    -0.447 A  
HETATM   14  C   UNL     1     -13.196   9.036  72.221  1.00  0.00    -0.519 A  
HETATM   15  O   UNL     1     -13.239  11.432  71.794  1.00  0.00    -0.458 OA 
HETATM   16  C   UNL     1     -12.586   7.826  71.871  1.00  0.00    -0.339 A  
HETATM   17  C   UNL     1     -12.427  12.186  70.870  1.00  0.00    -0.279 C  
HETATM   18  O   UNL     1     -11.491  11.373  70.131  1.00  0.00    -0.288 OA 
ENDBRANCH   9  10
ENDBRANCH   5   8
ENDBRANCH   2   5
TORSDOF 3
ENDMDL
MODEL       91
REMARK 921   NORMALIZED FREE ENERGY PREDICTED BY IDOCK:   -4.07 KCAL/MOL
REMARK 922        TOTAL FREE ENERGY PREDICTED BY IDOCK:   -5.16 KCAL/MOL
REMARK 923 INTER-LIGAND FREE ENERGY PREDICTED BY IDOCK:   -4.84 KCAL/MOL
REMARK 924 INTRA-LIGAND FREE ENERGY PREDICTED BY IDOCK:   -0.32 KCAL/MOL
REMARK 927      BINDING AFFINITY PREDICTED BY RF-SCORE:    0.00 PKD
ROOT
HETATM    1  C   UNL     1     -11.052  16.402  70.121  1.00  0.00    -0.285 C  
HETATM    2  C   UNL     1     -10.566  16.156  68.676  1.00  0.00    -0.283 C  
HETATM    3  C   UNL     1      -9.084  15.738  68.730  1.00  0.00    -0.213 C  
HETATM    4  C   UNL     1     -10.680  17.489  67.909  1.00  0.00    -0.340 C  
ENDROOT
BRANCH   2   5
HETATM    5  C   UNL     1     -11.426  15.023  68.031  1.00  0.00    -0.342 C  
HETATM    6  O   UNL     1     -11.304  15.052  66.610  1.00  0.00    -0.344 OA 
HETATM    7  H   UNL     1     -11.827  14.364  66.217  1.00  0.00     0.000 HD 
BRANCH   5   8
HETATM    8  C   UNL     1     -11.080  13.629  68.486  1.00  0.00    -0.301 C  
HETATM    9  C   UNL     1     -11.635  12.511  67.987  1.00  0.00    -0.395 C  
BRANCH   9  10
HETATM   10  C   UNL     1     -11.308  11.154  68.449  1.00  0.00    -0.357 A  
HETATM   11  C   UNL     1     -10.902  10.196  67.507  1.00  0.00    -0.349 A  
HETATM   12  C   UNL     1     -10.619   8.921  67.952  1.00  0.00    -0.183 A  
HETATM   13  C   UNL     1     -10.737   8.570  69.276  1.00  0.00    -0.133 A  
HETATM   14  C   UNL     1     -11.151   9.473  70.228  1.00  0.00    -0.317 A  
HETATM   15  O   UNL     1     -10.411   7.270  69.502  1.00  0.00    -0.218 OA 
HETATM   16  C   UNL     1     -11.447  10.774  69.804  1.00  0.00    -0.386 A  
HETATM   17  C   UNL     1     -10.075   6.840  68.167  1.00  0.00    -0.164 C  
HETATM   18  O   UNL     1     -10.207   7.881  67.177  1.00  0.00    -0.231 OA 
ENDBRANCH   9  10
ENDBRANCH   5   8
ENDBRANCH   2   5
TORSDOF 3
ENDMDL
MODEL       92
REMARK 921   NORMALIZED FREE ENERGY PREDICTED BY IDOCK:   -4.06 KCAL/MOL
REMARK 922        TOTAL FREE ENERGY PREDICTED BY IDOCK:   -5.15 KCAL/MOL
REMARK 923 INTER-LIGAND FREE ENERGY PREDICTED BY IDOCK:   -4.78 KCAL/MOL
REMARK 924 INTRA-LIGAND FREE ENERGY PREDICTED BY IDOCK:   -0.37 KCAL/MOL
REMARK 927      BINDING AFFINITY PREDICTED BY RF-SCORE:    0.00 PKD
ROOT
HETATM    1  C   UNL     1     -12.673  13.659  65.791  1.00  0.00    -0.470 C  
HETATM    2  C   UNL     1     -11.815  13.915  64.533  1.00  0.00    -0.449 C  
HETATM    3  C   UNL     1     -11.746  15.436  64.297  1.00  0.00    -0.212 C  
HETATM    4  C   UNL     1     -12.529  13.256  63.335  1.00  0.00    -0.281 C  
ENDROOT
BRANCH   2   5
HETATM    5  C   UNL     1     -10.382  13.336  64.762  1.00  0.00    -0.363 C  
HETATM    6  O   UNL     1      -9.600  14.235  65.545  1.00  0.00    -0.530 OA 
HETATM    7  H   UNL     1      -8.729  13.883  65.685  1.00  0.00     0.000 HD 
BRANCH   5   8
HETATM    8  C   UNL     1     -10.345  11.992  65.444  1.00  0.00    -0.301 C  
HETATM    9  C   UNL     1      -9.642  11.730  66.559  1.00  0.00    -0.225 C  
BRANCH   9  10
HETATM   10  C   UNL     1      -9.593  10.411  67.209  1.00  0.00    -0.182 A  
HETATM   11  C   UNL     1     -10.370   9.367  66.685  1.00  0.00    -0.284 A  
HETATM   12  C   UNL     1     -10.332   8.142  67.319  1.00  0.00    -0.303 A  
HETATM   13  C   UNL     1      -9.571   7.929  68.444  1.00  0.00    -0.150 A  
HETATM   14  C   UNL     1      -8.811   8.931  69.001  1.00  0.00    -0.136 A  
HETATM   15  O   UNL     1      -9.674   6.656  68.909  1.00  0.00    -0.135 OA 
HETATM   16  C   UNL     1      -8.833  10.185  68.380  1.00  0.00    -0.123 A  
HETATM   17  C   UNL     1     -10.589   6.091  67.949  1.00  0.00    -0.267 C  
HETATM   18  O   UNL     1     -11.015   7.028  66.938  1.00  0.00    -0.371 OA 
ENDBRANCH   9  10
ENDBRANCH   5   8
ENDBRANCH   2   5
TORSDOF 3
ENDMDL
MODEL       93
REMARK 921   NORMALIZED FREE ENERGY PREDICTED BY IDOCK:   -4.05 KCAL/MOL
REMARK 922        TOTAL FREE ENERGY PREDICTED BY IDOCK:   -5.14 KCAL/MOL
REMARK 923 INTER-LIGAND FREE ENERGY PREDICTED BY IDOCK:   -4.76 KCAL/MOL
REMARK 924 INTRA-LIGAND FREE ENERGY PREDICTED BY IDOCK:   -0.38 KCAL/MOL
REMARK 927      BINDING AFFINITY PREDICTED BY RF-SCORE:    0.00 PKD
ROOT
HETATM    1  C   UNL     1      -6.677  18.383  66.151  1.00  0.00    -0.279 C  
HETATM    2  C   UNL     1      -7.098  19.745  66.743  1.00  0.00    -0.238 C  
HETATM    3  C   UNL     1      -6.589  20.857  65.806  1.00  0.00    -0.169 C  
HETATM    4  C   UNL     1      -6.409  19.894  68.114  1.00  0.00    -0.289 C  
ENDROOT
BRANCH   2   5
HETATM    5  C   UNL     1      -8.656  19.798  66.851  1.00  0.00    -0.329 C  
HETATM    6  O   UNL     1      -9.204  20.576  65.789  1.00  0.00    -0.573 OA 
HETATM    7  H   UNL     1     -10.151  20.608  65.855  1.00  0.00     0.000 HD 
BRANCH   5   8
HETATM    8  C   UNL     1      -9.338  18.454  66.826  1.00  0.00    -0.296 C  
HETATM    9  C   UNL     1      -9.657  17.748  67.924  1.00  0.00    -0.280 C  
BRANCH   9  10
HETATM   10  C   UNL     1     -10.305  16.427  67.893  1.00  0.00    -0.286 A  
HETATM   11  C   UNL     1     -10.822  15.897  69.084  1.00  0.00    -0.268 A  
HETATM   12  C   UNL     1     -11.407  14.647  69.043  1.00  0.00    -0.277 A  
HETATM   13  C   UNL     1     -11.482  13.917  67.881  1.00  0.00    -0.318 A  
HETATM   14  C   UNL     1     -10.969  14.393  66.696  1.00  0.00    -0.318 A  
HETATM   15  O   UNL     1     -12.095  12.718  68.057  1.00  0.00    -0.302 OA 
HETATM   16  C   UNL     1     -10.367  15.656  66.709  1.00  0.00    -0.287 A  
HETATM   17  C   UNL     1     -12.399  12.774  69.466  1.00  0.00     0.040 C  
HETATM   18  O   UNL     1     -11.963  13.995  70.100  1.00  0.00    -0.291 OA 
ENDBRANCH   9  10
ENDBRANCH   5   8
ENDBRANCH   2   5
TORSDOF 3
ENDMDL
MODEL       94
REMARK 921   NORMALIZED FREE ENERGY PREDICTED BY IDOCK:   -4.04 KCAL/MOL
REMARK 922        TOTAL FREE ENERGY PREDICTED BY IDOCK:   -5.13 KCAL/MOL
REMARK 923 INTER-LIGAND FREE ENERGY PREDICTED BY IDOCK:   -4.77 KCAL/MOL
REMARK 924 INTRA-LIGAND FREE ENERGY PREDICTED BY IDOCK:   -0.36 KCAL/MOL
REMARK 927      BINDING AFFINITY PREDICTED BY RF-SCORE:    0.00 PKD
ROOT
HETATM    1  C   UNL     1      -9.124  15.692  68.614  1.00  0.00    -0.205 C  
HETATM    2  C   UNL     1     -10.562  16.223  68.427  1.00  0.00    -0.301 C  
HETATM    3  C   UNL     1     -10.481  17.714  68.048  1.00  0.00    -0.395 C  
HETATM    4  C   UNL     1     -11.290  16.091  69.780  1.00  0.00    -0.331 C  
ENDROOT
BRANCH   2   5
HETATM    5  C   UNL     1     -11.265  15.412  67.292  1.00  0.00    -0.270 C  
HETATM    6  O   UNL     1     -10.910  15.933  66.013  1.00  0.00    -0.305 OA 
HETATM    7  H   UNL     1     -11.337  15.441  65.322  1.00  0.00     0.000 HD 
BRANCH   5   8
HETATM    8  C   UNL     1     -10.953  13.938  67.282  1.00  0.00    -0.299 C  
HETATM    9  C   UNL     1     -10.796  13.206  66.165  1.00  0.00    -0.293 C  
BRANCH   9  10
HETATM   10  C   UNL     1     -10.511  11.763  66.161  1.00  0.00    -0.284 A  
HETATM   11  C   UNL     1     -10.765  11.018  67.322  1.00  0.00    -0.312 A  
HETATM   12  C   UNL     1     -10.471   9.669  67.311  1.00  0.00    -0.258 A  
HETATM   13  C   UNL     1      -9.931   9.052  66.208  1.00  0.00    -0.281 A  
HETATM   14  C   UNL     1      -9.648   9.751  65.057  1.00  0.00    -0.333 A  
HETATM   15  O   UNL     1      -9.719   7.725  66.405  1.00  0.00    -0.206 OA 
HETATM   16  C   UNL     1      -9.934  11.121  65.041  1.00  0.00    -0.325 A  
HETATM   17  C   UNL     1     -10.187   7.575  67.761  1.00  0.00    -0.201 C  
HETATM   18  O   UNL     1     -10.663   8.805  68.345  1.00  0.00    -0.169 OA 
ENDBRANCH   9  10
ENDBRANCH   5   8
ENDBRANCH   2   5
TORSDOF 3
ENDMDL
MODEL       95
REMARK 921   NORMALIZED FREE ENERGY PREDICTED BY IDOCK:   -4.02 KCAL/MOL
REMARK 922        TOTAL FREE ENERGY PREDICTED BY IDOCK:   -5.11 KCAL/MOL
REMARK 923 INTER-LIGAND FREE ENERGY PREDICTED BY IDOCK:   -4.78 KCAL/MOL
REMARK 924 INTRA-LIGAND FREE ENERGY PREDICTED BY IDOCK:   -0.33 KCAL/MOL
REMARK 927      BINDING AFFINITY PREDICTED BY RF-SCORE:    0.00 PKD
ROOT
HETATM    1  C   UNL     1     -10.533  10.241  66.339  1.00  0.00    -0.233 C  
HETATM    2  C   UNL     1     -10.004  11.190  67.436  1.00  0.00    -0.204 C  
HETATM    3  C   UNL     1     -10.132  12.638  66.924  1.00  0.00    -0.234 C  
HETATM    4  C   UNL     1      -8.512  10.869  67.655  1.00  0.00    -0.123 C  
ENDROOT
BRANCH   2   5
HETATM    5  C   UNL     1     -10.851  10.997  68.734  1.00  0.00    -0.210 C  
HETATM    6  O   UNL     1     -12.244  11.010  68.428  1.00  0.00    -0.770 OA 
HETATM    7  H   UNL     1     -12.759  10.893  69.218  1.00  0.00     0.000 HD 
BRANCH   5   8
HETATM    8  C   UNL     1     -10.567   9.725  69.491  1.00  0.00    -0.253 C  
HETATM    9  C   UNL     1     -11.460   9.094  70.272  1.00  0.00    -0.174 C  
BRANCH   9  10
HETATM   10  C   UNL     1     -11.171   7.863  71.024  1.00  0.00    -0.288 A  
HETATM   11  C   UNL     1     -10.941   7.950  72.405  1.00  0.00    -0.386 A  
HETATM   12  C   UNL     1     -10.648   6.789  73.093  1.00  0.00    -0.287 A  
HETATM   13  C   UNL     1     -10.566   5.571  72.462  1.00  0.00    -0.226 A  
HETATM   14  C   UNL     1     -10.766   5.446  71.106  1.00  0.00    -0.239 A  
HETATM   15  O   UNL     1     -10.269   4.559  73.318  1.00  0.00    -0.152 OA 
HETATM   16  C   UNL     1     -11.061   6.607  70.383  1.00  0.00    -0.374 A  
HETATM   17  C   UNL     1     -10.172   5.280  74.564  1.00  0.00    -0.272 C  
HETATM   18  O   UNL     1     -10.408   6.696  74.429  1.00  0.00    -0.357 OA 
ENDBRANCH   9  10
ENDBRANCH   5   8
ENDBRANCH   2   5
TORSDOF 3
ENDMDL
MODEL       96
REMARK 921   NORMALIZED FREE ENERGY PREDICTED BY IDOCK:   -4.00 KCAL/MOL
REMARK 922        TOTAL FREE ENERGY PREDICTED BY IDOCK:   -5.08 KCAL/MOL
REMARK 923 INTER-LIGAND FREE ENERGY PREDICTED BY IDOCK:   -4.67 KCAL/MOL
REMARK 924 INTRA-LIGAND FREE ENERGY PREDICTED BY IDOCK:   -0.41 KCAL/MOL
REMARK 927      BINDING AFFINITY PREDICTED BY RF-SCORE:    0.00 PKD
ROOT
HETATM    1  C   UNL     1      -8.112   6.853  66.869  1.00  0.00    -0.109 C  
HETATM    2  C   UNL     1      -8.712   7.629  68.062  1.00  0.00    -0.125 C  
HETATM    3  C   UNL     1      -7.836   8.870  68.322  1.00  0.00    -0.101 C  
HETATM    4  C   UNL     1      -8.653   6.709  69.298  1.00  0.00    -0.131 C  
ENDROOT
BRANCH   2   5
HETATM    5  C   UNL     1     -10.172   8.059  67.711  1.00  0.00    -0.222 C  
HETATM    6  O   UNL     1     -11.113   7.225  68.384  1.00  0.00    -0.444 OA 
HETATM    7  H   UNL     1     -12.002   7.486  68.171  1.00  0.00     0.000 HD 
BRANCH   5   8
HETATM    8  C   UNL     1     -10.510   9.488  68.051  1.00  0.00    -0.279 C  
HETATM    9  C   UNL     1     -11.285   9.856  69.086  1.00  0.00    -0.151 C  
BRANCH   9  10
HETATM   10  C   UNL     1     -11.626  11.251  69.401  1.00  0.00    -0.390 A  
HETATM   11  C   UNL     1     -11.226  12.265  68.517  1.00  0.00    -0.316 A  
HETATM   12  C   UNL     1     -11.534  13.571  68.838  1.00  0.00    -0.306 A  
HETATM   13  C   UNL     1     -12.203  13.898  69.993  1.00  0.00    -0.344 A  
HETATM   14  C   UNL     1     -12.596  12.936  70.896  1.00  0.00    -0.355 A  
HETATM   15  O   UNL     1     -12.407  15.235  70.118  1.00  0.00    -0.343 OA 
HETATM   16  C   UNL     1     -12.294  11.603  70.597  1.00  0.00    -0.437 A  
HETATM   17  C   UNL     1     -11.787  15.716  68.907  1.00  0.00    -0.352 C  
HETATM   18  O   UNL     1     -11.228  14.667  68.091  1.00  0.00    -0.266 OA 
ENDBRANCH   9  10
ENDBRANCH   5   8
ENDBRANCH   2   5
TORSDOF 3
ENDMDL
MODEL       97
REMARK 921   NORMALIZED FREE ENERGY PREDICTED BY IDOCK:   -3.98 KCAL/MOL
REMARK 922        TOTAL FREE ENERGY PREDICTED BY IDOCK:   -5.06 KCAL/MOL
REMARK 923 INTER-LIGAND FREE ENERGY PREDICTED BY IDOCK:   -4.68 KCAL/MOL
REMARK 924 INTRA-LIGAND FREE ENERGY PREDICTED BY IDOCK:   -0.39 KCAL/MOL
REMARK 927      BINDING AFFINITY PREDICTED BY RF-SCORE:    0.00 PKD
ROOT
HETATM    1  C   UNL     1      -7.155   8.239  67.391  1.00  0.00    -0.080 C  
HETATM    2  C   UNL     1      -6.595   7.760  66.035  1.00  0.00    -0.049 C  
HETATM    3  C   UNL     1      -6.194   6.279  66.173  1.00  0.00    -0.037 C  
HETATM    4  C   UNL     1      -5.333   8.592  65.728  1.00  0.00    -0.031 C  
ENDROOT
BRANCH   2   5
HETATM    5  C   UNL     1      -7.696   7.925  64.938  1.00  0.00    -0.112 C  
HETATM    6  O   UNL     1      -8.436   6.715  64.789  1.00  0.00    -0.320 OA 
HETATM    7  H   UNL     1      -9.106   6.814  64.123  1.00  0.00     0.000 HD 
BRANCH   5   8
HETATM    8  C   UNL     1      -8.686   9.031  65.197  1.00  0.00    -0.223 C  
HETATM    9  C   UNL     1      -9.247   9.783  64.235  1.00  0.00    -0.286 C  
BRANCH   9  10
HETATM   10  C   UNL     1     -10.198  10.875  64.495  1.00  0.00    -0.422 A  
HETATM   11  C   UNL     1     -10.351  11.343  65.808  1.00  0.00    -0.304 A  
HETATM   12  C   UNL     1     -11.264  12.352  66.040  1.00  0.00    -0.335 A  
HETATM   13  C   UNL     1     -12.023  12.892  65.030  1.00  0.00    -0.405 A  
HETATM   14  C   UNL     1     -11.918  12.448  63.732  1.00  0.00    -0.600 A  
HETATM   15  O   UNL     1     -12.856  13.872  65.470  1.00  0.00    -0.609 OA 
HETATM   16  C   UNL     1     -11.002  11.423  63.468  1.00  0.00    -0.406 A  
HETATM   17  C   UNL     1     -12.535  13.887  66.876  1.00  0.00    -0.162 C  
HETATM   18  O   UNL     1     -11.528  12.924  67.247  1.00  0.00    -0.298 OA 
ENDBRANCH   9  10
ENDBRANCH   5   8
ENDBRANCH   2   5
TORSDOF 3
ENDMDL
MODEL       98
REMARK 921   NORMALIZED FREE ENERGY PREDICTED BY IDOCK:   -3.98 KCAL/MOL
REMARK 922        TOTAL FREE ENERGY PREDICTED BY IDOCK:   -5.06 KCAL/MOL
REMARK 923 INTER-LIGAND FREE ENERGY PREDICTED BY IDOCK:   -4.67 KCAL/MOL
REMARK 924 INTRA-LIGAND FREE ENERGY PREDICTED BY IDOCK:   -0.39 KCAL/MOL
REMARK 927      BINDING AFFINITY PREDICTED BY RF-SCORE:    0.00 PKD
ROOT
HETATM    1  C   UNL     1     -11.675  14.929  64.839  1.00  0.00    -0.371 C  
HETATM    2  C   UNL     1     -11.263  14.036  66.030  1.00  0.00    -0.310 C  
HETATM    3  C   UNL     1     -11.761  14.702  67.328  1.00  0.00    -0.406 C  
HETATM    4  C   UNL     1      -9.723  13.974  66.060  1.00  0.00    -0.280 C  
ENDROOT
BRANCH   2   5
HETATM    5  C   UNL     1     -11.912  12.625  65.861  1.00  0.00    -0.438 C  
HETATM    6  O   UNL     1     -12.943  12.664  64.877  1.00  0.00    -0.830 OA 
HETATM    7  H   UNL     1     -13.338  11.806  64.774  1.00  0.00     0.000 HD 
BRANCH   5   8
HETATM    8  C   UNL     1     -10.953  11.531  65.467  1.00  0.00    -0.290 C  
HETATM    9  C   UNL     1     -10.647  10.478  66.244  1.00  0.00    -0.203 C  
BRANCH   9  10
HETATM   10  C   UNL     1      -9.695   9.423  65.862  1.00  0.00    -0.355 A  
HETATM   11  C   UNL     1      -8.792   9.671  64.817  1.00  0.00    -0.242 A  
HETATM   12  C   UNL     1      -7.920   8.664  64.455  1.00  0.00    -0.146 A  
HETATM   13  C   UNL     1      -7.926   7.438  65.077  1.00  0.00    -0.129 A  
HETATM   14  C   UNL     1      -8.809   7.149  66.092  1.00  0.00    -0.171 A  
HETATM   15  O   UNL     1      -6.991   6.592  64.572  1.00  0.00    -0.050 OA 
HETATM   16  C   UNL     1      -9.706   8.151  66.479  1.00  0.00    -0.309 A  
HETATM   17  C   UNL     1      -6.394   7.425  63.557  1.00  0.00    -0.053 C  
HETATM   18  O   UNL     1      -6.980   8.741  63.474  1.00  0.00    -0.089 OA 
ENDBRANCH   9  10
ENDBRANCH   5   8
ENDBRANCH   2   5
TORSDOF 3
ENDMDL
MODEL       99
REMARK 921   NORMALIZED FREE ENERGY PREDICTED BY IDOCK:   -3.98 KCAL/MOL
REMARK 922        TOTAL FREE ENERGY PREDICTED BY IDOCK:   -5.06 KCAL/MOL
REMARK 923 INTER-LIGAND FREE ENERGY PREDICTED BY IDOCK:   -4.70 KCAL/MOL
REMARK 924 INTRA-LIGAND FREE ENERGY PREDICTED BY IDOCK:   -0.36 KCAL/MOL
REMARK 927      BINDING AFFINITY PREDICTED BY RF-SCORE:    0.00 PKD
ROOT
HETATM    1  C   UNL     1      -9.317  15.430  69.265  1.00  0.00    -0.254 C  
HETATM    2  C   UNL     1     -10.773  15.178  69.710  1.00  0.00    -0.288 C  
HETATM    3  C   UNL     1     -11.694  16.119  68.909  1.00  0.00    -0.250 C  
HETATM    4  C   UNL     1     -10.875  15.536  71.207  1.00  0.00    -0.087 C  
ENDROOT
BRANCH   2   5
HETATM    5  C   UNL     1     -11.145  13.687  69.430  1.00  0.00    -0.141 C  
HETATM    6  O   UNL     1     -12.555  13.497  69.527  1.00  0.00    -0.126 OA 
HETATM    7  H   UNL     1     -12.782  12.591  69.356  1.00  0.00     0.000 HD 
BRANCH   5   8
HETATM    8  C   UNL     1     -10.711  13.169  68.083  1.00  0.00    -0.258 C  
HETATM    9  C   UNL     1     -11.482  12.421  67.276  1.00  0.00    -0.421 C  
BRANCH   9  10
HETATM   10  C   UNL     1     -11.046  11.902  65.970  1.00  0.00    -0.369 A  
HETATM   11  C   UNL     1     -10.151  10.823  65.934  1.00  0.00    -0.314 A  
HETATM   12  C   UNL     1      -9.733  10.362  64.702  1.00  0.00    -0.329 A  
HETATM   13  C   UNL     1     -10.158  10.936  63.528  1.00  0.00    -0.347 A  
HETATM   14  C   UNL     1     -11.020  12.010  63.521  1.00  0.00    -0.514 A  
HETATM   15  O   UNL     1      -9.631  10.333  62.431  1.00  0.00    -0.278 OA 
HETATM   16  C   UNL     1     -11.458  12.499  64.756  1.00  0.00    -0.369 A  
HETATM   17  C   UNL     1      -8.822   9.311  63.048  1.00  0.00    -0.158 C  
HETATM   18  O   UNL     1      -8.878   9.324  64.489  1.00  0.00    -0.198 OA 
ENDBRANCH   9  10
ENDBRANCH   5   8
ENDBRANCH   2   5
TORSDOF 3
ENDMDL
MODEL      100
REMARK 921   NORMALIZED FREE ENERGY PREDICTED BY IDOCK:   -3.97 KCAL/MOL
REMARK 922        TOTAL FREE ENERGY PREDICTED BY IDOCK:   -5.05 KCAL/MOL
REMARK 923 INTER-LIGAND FREE ENERGY PREDICTED BY IDOCK:   -4.69 KCAL/MOL
REMARK 924 INTRA-LIGAND FREE ENERGY PREDICTED BY IDOCK:   -0.37 KCAL/MOL
REMARK 927      BINDING AFFINITY PREDICTED BY RF-SCORE:    0.00 PKD
ROOT
HETATM    1  C   UNL     1      -8.241   6.185  69.225  1.00  0.00    -0.116 C  
HETATM    2  C   UNL     1      -9.702   5.709  69.072  1.00  0.00    -0.187 C  
HETATM    3  C   UNL     1     -10.033   4.778  70.254  1.00  0.00    -0.320 C  
HETATM    4  C   UNL     1      -9.798   4.904  67.761  1.00  0.00    -0.196 C  
ENDROOT
BRANCH   2   5
HETATM    5  C   UNL     1     -10.649   6.951  69.079  1.00  0.00    -0.217 C  
HETATM    6  O   UNL     1     -10.430   7.740  70.246  1.00  0.00    -0.215 OA 
HETATM    7  H   UNL     1     -11.006   8.496  70.251  1.00  0.00     0.000 HD 
BRANCH   5   8
HETATM    8  C   UNL     1     -10.508   7.861  67.885  1.00  0.00    -0.261 C  
HETATM    9  C   UNL     1     -10.456   9.202  67.959  1.00  0.00    -0.276 C  
BRANCH   9  10
HETATM   10  C   UNL     1     -10.338  10.085  66.788  1.00  0.00    -0.283 A  
HETATM   11  C   UNL     1     -10.790  11.409  66.890  1.00  0.00    -0.335 A  
HETATM   12  C   UNL     1     -10.693  12.220  65.776  1.00  0.00    -0.263 A  
HETATM   13  C   UNL     1     -10.184  11.761  64.585  1.00  0.00    -0.284 A  
HETATM   14  C   UNL     1      -9.749  10.463  64.438  1.00  0.00    -0.396 A  
HETATM   15  O   UNL     1     -10.176  12.716  63.619  1.00  0.00    -0.383 OA 
HETATM   16  C   UNL     1      -9.838   9.619  65.551  1.00  0.00    -0.352 A  
HETATM   17  C   UNL     1     -10.741  13.832  64.338  1.00  0.00    -0.316 C  
HETATM   18  O   UNL     1     -11.075  13.524  65.707  1.00  0.00    -0.287 OA 
ENDBRANCH   9  10
ENDBRANCH   5   8
ENDBRANCH   2   5
TORSDOF 3
ENDMDL
MODEL      101
REMARK 921   NORMALIZED FREE ENERGY PREDICTED BY IDOCK:   -3.97 KCAL/MOL
REMARK 922        TOTAL FREE ENERGY PREDICTED BY IDOCK:   -5.05 KCAL/MOL
REMARK 923 INTER-LIGAND FREE ENERGY PREDICTED BY IDOCK:   -4.69 KCAL/MOL
REMARK 924 INTRA-LIGAND FREE ENERGY PREDICTED BY IDOCK:   -0.36 KCAL/MOL
REMARK 927      BINDING AFFINITY PREDICTED BY RF-SCORE:    0.00 PKD
ROOT
HETATM    1  C   UNL     1     -12.947   7.842  71.549  1.00  0.00    -0.357 C  
HETATM    2  C   UNL     1     -11.462   8.241  71.420  1.00  0.00    -0.314 C  
HETATM    3  C   UNL     1     -10.761   7.933  72.757  1.00  0.00    -0.435 C  
HETATM    4  C   UNL     1     -11.404   9.761  71.166  1.00  0.00    -0.459 C  
ENDROOT
BRANCH   2   5
HETATM    5  C   UNL     1     -10.808   7.421  70.263  1.00  0.00    -0.245 C  
HETATM    6  O   UNL     1     -11.717   6.436  69.774  1.00  0.00    -0.568 OA 
HETATM    7  H   UNL     1     -11.320   5.937  69.071  1.00  0.00     0.000 HD 
BRANCH   5   8
HETATM    8  C   UNL     1     -10.354   8.241  69.083  1.00  0.00    -0.225 C  
HETATM    9  C   UNL     1     -10.421   7.830  67.805  1.00  0.00    -0.277 C  
BRANCH   9  10
HETATM   10  C   UNL     1      -9.958   8.628  66.660  1.00  0.00    -0.357 A  
HETATM   11  C   UNL     1      -9.037   8.061  65.766  1.00  0.00    -0.109 A  
HETATM   12  C   UNL     1      -8.595   8.830  64.708  1.00  0.00    -0.134 A  
HETATM   13  C   UNL     1      -9.020  10.124  64.522  1.00  0.00    -0.221 A  
HETATM   14  C   UNL     1      -9.907  10.723  65.387  1.00  0.00    -0.317 A  
HETATM   15  O   UNL     1      -8.467  10.702  63.424  1.00  0.00    -0.163 OA 
HETATM   16  C   UNL     1     -10.370   9.968  66.470  1.00  0.00    -0.268 A  
HETATM   17  C   UNL     1      -7.641   9.623  62.939  1.00  0.00    -0.116 C  
HETATM   18  O   UNL     1      -7.714   8.433  63.750  1.00  0.00    -0.128 OA 
ENDBRANCH   9  10
ENDBRANCH   5   8
ENDBRANCH   2   5
TORSDOF 3
ENDMDL
MODEL      102
REMARK 921   NORMALIZED FREE ENERGY PREDICTED BY IDOCK:   -3.97 KCAL/MOL
REMARK 922        TOTAL FREE ENERGY PREDICTED BY IDOCK:   -5.05 KCAL/MOL
REMARK 923 INTER-LIGAND FREE ENERGY PREDICTED BY IDOCK:   -4.67 KCAL/MOL
REMARK 924 INTRA-LIGAND FREE ENERGY PREDICTED BY IDOCK:   -0.38 KCAL/MOL
REMARK 927      BINDING AFFINITY PREDICTED BY RF-SCORE:    0.00 PKD
ROOT
HETATM    1  C   UNL     1      -8.676   8.594  65.430  1.00  0.00    -0.208 C  
HETATM    2  C   UNL     1      -8.418   9.971  64.781  1.00  0.00    -0.180 C  
HETATM    3  C   UNL     1      -9.173  10.021  63.439  1.00  0.00    -0.317 C  
HETATM    4  C   UNL     1      -6.905  10.085  64.507  1.00  0.00    -0.127 C  
ENDROOT
BRANCH   2   5
HETATM    5  C   UNL     1      -8.935  11.093  65.737  1.00  0.00    -0.196 C  
HETATM    6  O   UNL     1      -9.635  12.093  65.000  1.00  0.00    -0.430 OA 
HETATM    7  H   UNL     1      -9.950  12.776  65.581  1.00  0.00     0.000 HD 
BRANCH   5   8
HETATM    8  C   UNL     1      -9.850  10.617  66.835  1.00  0.00    -0.228 C  
HETATM    9  C   UNL     1      -9.657  10.866  68.142  1.00  0.00    -0.169 C  
BRANCH   9  10
HETATM   10  C   UNL     1     -10.544  10.382  69.211  1.00  0.00    -0.259 A  
HETATM   11  C   UNL     1     -10.552   9.013  69.518  1.00  0.00    -0.231 A  
HETATM   12  C   UNL     1     -11.406   8.570  70.508  1.00  0.00    -0.217 A  
HETATM   13  C   UNL     1     -12.244   9.426  71.181  1.00  0.00    -0.323 A  
HETATM   14  C   UNL     1     -12.281  10.772  70.897  1.00  0.00    -0.487 A  
HETATM   15  O   UNL     1     -12.999   8.790  72.115  1.00  0.00    -0.355 OA 
HETATM   16  C   UNL     1     -11.428  11.248  69.895  1.00  0.00    -0.373 A  
HETATM   17  C   UNL     1     -12.541   7.432  71.952  1.00  0.00    -0.291 C  
HETATM   18  O   UNL     1     -11.532   7.283  70.932  1.00  0.00    -0.275 OA 
ENDBRANCH   9  10
ENDBRANCH   5   8
ENDBRANCH   2   5
TORSDOF 3
ENDMDL
MODEL      103
REMARK 921   NORMALIZED FREE ENERGY PREDICTED BY IDOCK:   -3.96 KCAL/MOL
REMARK 922        TOTAL FREE ENERGY PREDICTED BY IDOCK:   -5.04 KCAL/MOL
REMARK 923 INTER-LIGAND FREE ENERGY PREDICTED BY IDOCK:   -4.70 KCAL/MOL
REMARK 924 INTRA-LIGAND FREE ENERGY PREDICTED BY IDOCK:   -0.34 KCAL/MOL
REMARK 927      BINDING AFFINITY PREDICTED BY RF-SCORE:    0.00 PKD
ROOT
HETATM    1  C   UNL     1      -9.305  12.319  68.031  1.00  0.00    -0.195 C  
HETATM    2  C   UNL     1     -10.583  11.530  67.673  1.00  0.00    -0.235 C  
HETATM    3  C   UNL     1     -10.166  10.240  66.941  1.00  0.00    -0.286 C  
HETATM    4  C   UNL     1     -11.419  12.401  66.713  1.00  0.00    -0.423 C  
ENDROOT
BRANCH   2   5
HETATM    5  C   UNL     1     -11.357  11.183  68.985  1.00  0.00    -0.276 C  
HETATM    6  O   UNL     1     -12.760  11.119  68.735  1.00  0.00    -0.394 OA 
HETATM    7  H   UNL     1     -13.230  10.908  69.533  1.00  0.00     0.000 HD 
BRANCH   5   8
HETATM    8  C   UNL     1     -10.953   9.885  69.634  1.00  0.00    -0.285 C  
HETATM    9  C   UNL     1     -11.313   9.515  70.875  1.00  0.00    -0.410 C  
BRANCH   9  10
HETATM   10  C   UNL     1     -10.899   8.254  71.510  1.00  0.00    -0.308 A  
HETATM   11  C   UNL     1     -10.743   7.112  70.711  1.00  0.00    -0.251 A  
HETATM   12  C   UNL     1     -10.376   5.930  71.324  1.00  0.00    -0.221 A  
HETATM   13  C   UNL     1     -10.176   5.847  72.681  1.00  0.00    -0.183 A  
HETATM   14  C   UNL     1     -10.338   6.940  73.502  1.00  0.00    -0.368 A  
HETATM   15  O   UNL     1      -9.820   4.598  73.080  1.00  0.00    -0.139 OA 
HETATM   16  C   UNL     1     -10.712   8.150  72.908  1.00  0.00    -0.317 A  
HETATM   17  C   UNL     1      -9.820   3.901  71.817  1.00  0.00    -0.179 C  
HETATM   18  O   UNL     1     -10.175   4.739  70.698  1.00  0.00    -0.230 OA 
ENDBRANCH   9  10
ENDBRANCH   5   8
ENDBRANCH   2   5
TORSDOF 3
ENDMDL
MODEL      104
REMARK 921   NORMALIZED FREE ENERGY PREDICTED BY IDOCK:   -3.96 KCAL/MOL
REMARK 922        TOTAL FREE ENERGY PREDICTED BY IDOCK:   -5.04 KCAL/MOL
REMARK 923 INTER-LIGAND FREE ENERGY PREDICTED BY IDOCK:   -4.64 KCAL/MOL
REMARK 924 INTRA-LIGAND FREE ENERGY PREDICTED BY IDOCK:   -0.40 KCAL/MOL
REMARK 927      BINDING AFFINITY PREDICTED BY RF-SCORE:    0.00 PKD
ROOT
HETATM    1  C   UNL     1     -12.275  14.870  69.933  1.00  0.00    -0.354 C  
HETATM    2  C   UNL     1     -11.429  14.683  68.655  1.00  0.00    -0.326 C  
HETATM    3  C   UNL     1     -10.048  14.134  69.065  1.00  0.00    -0.097 C  
HETATM    4  C   UNL     1     -11.242  16.070  68.008  1.00  0.00    -0.303 C  
ENDROOT
BRANCH   2   5
HETATM    5  C   UNL     1     -12.152  13.676  67.704  1.00  0.00    -0.293 C  
HETATM    6  O   UNL     1     -12.612  14.342  66.529  1.00  0.00    -0.545 OA 
HETATM    7  H   UNL     1     -13.051  13.730  65.951  1.00  0.00     0.000 HD 
BRANCH   5   8
HETATM    8  C   UNL     1     -11.310  12.508  67.261  1.00  0.00    -0.373 C  
HETATM    9  C   UNL     1     -10.978  12.256  65.983  1.00  0.00    -0.327 C  
BRANCH   9  10
HETATM   10  C   UNL     1     -10.172  11.103  65.554  1.00  0.00    -0.319 A  
HETATM   11  C   UNL     1      -9.885  10.945  64.190  1.00  0.00    -0.369 A  
HETATM   12  C   UNL     1      -9.147   9.846  63.801  1.00  0.00    -0.256 A  
HETATM   13  C   UNL     1      -8.703   8.910  64.705  1.00  0.00    -0.103 A  
HETATM   14  C   UNL     1      -8.980   9.018  66.049  1.00  0.00    -0.227 A  
HETATM   15  O   UNL     1      -7.995   7.911  64.117  1.00  0.00    -0.138 OA 
HETATM   16  C   UNL     1      -9.730  10.121  66.471  1.00  0.00    -0.252 A  
HETATM   17  C   UNL     1      -8.044   8.323  62.735  1.00  0.00    -0.163 C  
HETATM   18  O   UNL     1      -8.775   9.548  62.526  1.00  0.00    -0.192 OA 
ENDBRANCH   9  10
ENDBRANCH   5   8
ENDBRANCH   2   5
TORSDOF 3
ENDMDL
MODEL      105
REMARK 921   NORMALIZED FREE ENERGY PREDICTED BY IDOCK:   -3.93 KCAL/MOL
REMARK 922        TOTAL FREE ENERGY PREDICTED BY IDOCK:   -5.01 KCAL/MOL
REMARK 923 INTER-LIGAND FREE ENERGY PREDICTED BY IDOCK:   -4.65 KCAL/MOL
REMARK 924 INTRA-LIGAND FREE ENERGY PREDICTED BY IDOCK:   -0.36 KCAL/MOL
REMARK 927      BINDING AFFINITY PREDICTED BY RF-SCORE:    0.00 PKD
ROOT
HETATM    1  C   UNL     1      -8.379  10.770  65.709  1.00  0.00    -0.158 C  
HETATM    2  C   UNL     1      -9.919  10.654  65.687  1.00  0.00    -0.327 C  
HETATM    3  C   UNL     1     -10.403  10.905  64.246  1.00  0.00    -0.436 C  
HETATM    4  C   UNL     1     -10.485  11.759  66.602  1.00  0.00    -0.259 C  
ENDROOT
BRANCH   2   5
HETATM    5  C   UNL     1     -10.333   9.223  66.158  1.00  0.00    -0.048 C  
HETATM    6  O   UNL     1      -9.424   8.249  65.650  1.00  0.00    -0.429 OA 
HETATM    7  H   UNL     1      -9.675   7.379  65.936  1.00  0.00     0.000 HD 
BRANCH   5   8
HETATM    8  C   UNL     1     -10.400   9.044  67.652  1.00  0.00    -0.317 C  
HETATM    9  C   UNL     1     -10.119   7.894  68.289  1.00  0.00    -0.225 C  
BRANCH   9  10
HETATM   10  C   UNL     1     -10.205   7.719  69.747  1.00  0.00    -0.211 A  
HETATM   11  C   UNL     1     -10.370   6.426  70.267  1.00  0.00    -0.252 A  
HETATM   12  C   UNL     1     -10.473   6.280  71.636  1.00  0.00    -0.217 A  
HETATM   13  C   UNL     1     -10.429   7.359  72.487  1.00  0.00    -0.236 A  
HETATM   14  C   UNL     1     -10.287   8.644  72.016  1.00  0.00    -0.416 A  
HETATM   15  O   UNL     1     -10.545   6.998  73.792  1.00  0.00    -0.375 OA 
HETATM   16  C   UNL     1     -10.184   8.822  70.632  1.00  0.00    -0.247 A  
HETATM   17  C   UNL     1     -10.669   5.566  73.666  1.00  0.00    -0.282 C  
HETATM   18  O   UNL     1     -10.627   5.103  72.300  1.00  0.00    -0.213 OA 
ENDBRANCH   9  10
ENDBRANCH   5   8
ENDBRANCH   2   5
TORSDOF 3
ENDMDL
MODEL      106
REMARK 921   NORMALIZED FREE ENERGY PREDICTED BY IDOCK:   -3.93 KCAL/MOL
REMARK 922        TOTAL FREE ENERGY PREDICTED BY IDOCK:   -5.00 KCAL/MOL
REMARK 923 INTER-LIGAND FREE ENERGY PREDICTED BY IDOCK:   -4.61 KCAL/MOL
REMARK 924 INTRA-LIGAND FREE ENERGY PREDICTED BY IDOCK:   -0.38 KCAL/MOL
REMARK 927      BINDING AFFINITY PREDICTED BY RF-SCORE:    0.00 PKD
ROOT
HETATM    1  C   UNL     1      -8.579   5.330  67.249  1.00  0.00    -0.105 C  
HETATM    2  C   UNL     1      -8.926   6.827  67.400  1.00  0.00    -0.115 C  
HETATM    3  C   UNL     1      -8.217   7.362  68.659  1.00  0.00    -0.125 C  
HETATM    4  C   UNL     1     -10.451   6.937  67.603  1.00  0.00    -0.290 C  
ENDROOT
BRANCH   2   5
HETATM    5  C   UNL     1      -8.438   7.598  66.132  1.00  0.00    -0.143 C  
HETATM    6  O   UNL     1      -8.848   6.918  64.947  1.00  0.00    -0.347 OA 
HETATM    7  H   UNL     1      -8.551   7.387  64.176  1.00  0.00     0.000 HD 
BRANCH   5   8
HETATM    8  C   UNL     1      -8.925   9.020  66.030  1.00  0.00    -0.227 C  
HETATM    9  C   UNL     1      -9.725   9.476  65.051  1.00  0.00    -0.138 C  
BRANCH   9  10
HETATM   10  C   UNL     1     -10.182  10.871  64.945  1.00  0.00    -0.381 A  
HETATM   11  C   UNL     1     -10.401  11.603  66.121  1.00  0.00    -0.280 A  
HETATM   12  C   UNL     1     -10.851  12.903  66.007  1.00  0.00    -0.279 A  
HETATM   13  C   UNL     1     -11.098  13.483  64.785  1.00  0.00    -0.359 A  
HETATM   14  C   UNL     1     -10.914  12.792  63.609  1.00  0.00    -0.403 A  
HETATM   15  O   UNL     1     -11.532  14.765  64.894  1.00  0.00    -0.378 OA 
HETATM   16  C   UNL     1     -10.461  11.471  63.695  1.00  0.00    -0.483 A  
HETATM   17  C   UNL     1     -11.533  14.929  66.327  1.00  0.00    -0.269 C  
HETATM   18  O   UNL     1     -11.105  13.751  67.041  1.00  0.00    -0.293 OA 
ENDBRANCH   9  10
ENDBRANCH   5   8
ENDBRANCH   2   5
TORSDOF 3
ENDMDL
MODEL      107
REMARK 921   NORMALIZED FREE ENERGY PREDICTED BY IDOCK:   -3.91 KCAL/MOL
REMARK 922        TOTAL FREE ENERGY PREDICTED BY IDOCK:   -4.98 KCAL/MOL
REMARK 923 INTER-LIGAND FREE ENERGY PREDICTED BY IDOCK:   -4.65 KCAL/MOL
REMARK 924 INTRA-LIGAND FREE ENERGY PREDICTED BY IDOCK:   -0.33 KCAL/MOL
REMARK 927      BINDING AFFINITY PREDICTED BY RF-SCORE:    0.00 PKD
ROOT
HETATM    1  C   UNL     1      -8.505   5.543  66.133  1.00  0.00    -0.122 C  
HETATM    2  C   UNL     1      -9.815   4.878  66.609  1.00  0.00    -0.223 C  
HETATM    3  C   UNL     1      -9.452   3.601  67.390  1.00  0.00    -0.238 C  
HETATM    4  C   UNL     1     -10.623   4.484  65.356  1.00  0.00    -0.195 C  
ENDROOT
BRANCH   2   5
HETATM    5  C   UNL     1     -10.591   5.875  67.528  1.00  0.00    -0.273 C  
HETATM    6  O   UNL     1      -9.973   5.954  68.811  1.00  0.00    -0.135 OA 
HETATM    7  H   UNL     1     -10.445   6.559  69.371  1.00  0.00     0.000 HD 
BRANCH   5   8
HETATM    8  C   UNL     1     -10.699   7.278  66.991  1.00  0.00    -0.406 C  
HETATM    9  C   UNL     1     -10.141   8.355  67.571  1.00  0.00    -0.279 C  
BRANCH   9  10
HETATM   10  C   UNL     1     -10.266   9.726  67.053  1.00  0.00    -0.292 A  
HETATM   11  C   UNL     1     -11.255  10.565  67.586  1.00  0.00    -0.338 A  
HETATM   12  C   UNL     1     -11.375  11.842  67.073  1.00  0.00    -0.321 A  
HETATM   13  C   UNL     1     -10.567  12.296  66.059  1.00  0.00    -0.254 A  
HETATM   14  C   UNL     1      -9.598  11.498  65.495  1.00  0.00    -0.252 A  
HETATM   15  O   UNL     1     -10.848  13.577  65.703  1.00  0.00    -0.282 OA 
HETATM   16  C   UNL     1      -9.456  10.198  65.994  1.00  0.00    -0.248 A  
HETATM   17  C   UNL     1     -11.929  13.879  66.609  1.00  0.00    -0.442 C  
HETATM   18  O   UNL     1     -12.272  12.781  67.480  1.00  0.00    -0.348 OA 
ENDBRANCH   9  10
ENDBRANCH   5   8
ENDBRANCH   2   5
TORSDOF 3
ENDMDL
MODEL      108
REMARK 921   NORMALIZED FREE ENERGY PREDICTED BY IDOCK:   -3.89 KCAL/MOL
REMARK 922        TOTAL FREE ENERGY PREDICTED BY IDOCK:   -4.96 KCAL/MOL
REMARK 923 INTER-LIGAND FREE ENERGY PREDICTED BY IDOCK:   -4.58 KCAL/MOL
REMARK 924 INTRA-LIGAND FREE ENERGY PREDICTED BY IDOCK:   -0.38 KCAL/MOL
REMARK 927      BINDING AFFINITY PREDICTED BY RF-SCORE:    0.00 PKD
ROOT
HETATM    1  C   UNL     1     -12.482   8.787  72.531  1.00  0.00    -0.368 C  
HETATM    2  C   UNL     1     -11.265   7.924  72.134  1.00  0.00    -0.363 C  
HETATM    3  C   UNL     1     -10.637   7.354  73.420  1.00  0.00    -0.427 C  
HETATM    4  C   UNL     1     -10.240   8.847  71.445  1.00  0.00    -0.375 C  
ENDROOT
BRANCH   2   5
HETATM    5  C   UNL     1     -11.741   6.764  71.202  1.00  0.00    -0.345 C  
HETATM    6  O   UNL     1     -13.033   7.049  70.671  1.00  0.00    -0.569 OA 
HETATM    7  H   UNL     1     -13.323   6.344  70.104  1.00  0.00     0.000 HD 
BRANCH   5   8
HETATM    8  C   UNL     1     -10.828   6.473  70.039  1.00  0.00    -0.342 C  
HETATM    9  C   UNL     1     -11.219   6.475  68.753  1.00  0.00    -0.319 C  
BRANCH   9  10
HETATM   10  C   UNL     1     -10.328   6.171  67.622  1.00  0.00    -0.250 A  
HETATM   11  C   UNL     1      -9.703   7.230  66.947  1.00  0.00    -0.252 A  
HETATM   12  C   UNL     1      -8.888   6.931  65.874  1.00  0.00    -0.105 A  
HETATM   13  C   UNL     1      -8.688   5.638  65.452  1.00  0.00    -0.137 A  
HETATM   14  C   UNL     1      -9.297   4.573  66.074  1.00  0.00    -0.157 A  
HETATM   15  O   UNL     1      -7.851   5.563  64.383  1.00  0.00    -0.095 OA 
HETATM   16  C   UNL     1     -10.132   4.848  67.163  1.00  0.00    -0.228 A  
HETATM   17  C   UNL     1      -7.548   6.958  64.179  1.00  0.00    -0.112 C  
HETATM   18  O   UNL     1      -8.204   7.833  65.119  1.00  0.00    -0.135 OA 
ENDBRANCH   9  10
ENDBRANCH   5   8
ENDBRANCH   2   5
TORSDOF 3
ENDMDL
MODEL      109
REMARK 921   NORMALIZED FREE ENERGY PREDICTED BY IDOCK:   -3.89 KCAL/MOL
REMARK 922        TOTAL FREE ENERGY PREDICTED BY IDOCK:   -4.95 KCAL/MOL
REMARK 923 INTER-LIGAND FREE ENERGY PREDICTED BY IDOCK:   -4.52 KCAL/MOL
REMARK 924 INTRA-LIGAND FREE ENERGY PREDICTED BY IDOCK:   -0.43 KCAL/MOL
REMARK 927      BINDING AFFINITY PREDICTED BY RF-SCORE:    0.00 PKD
ROOT
HETATM    1  C   UNL     1      -8.033   9.245  70.482  1.00  0.00    -0.188 C  
HETATM    2  C   UNL     1      -9.245   8.306  70.667  1.00  0.00    -0.167 C  
HETATM    3  C   UNL     1      -9.965   8.698  71.972  1.00  0.00    -0.399 C  
HETATM    4  C   UNL     1      -8.707   6.868  70.807  1.00  0.00    -0.145 C  
ENDROOT
BRANCH   2   5
HETATM    5  C   UNL     1     -10.208   8.465  69.447  1.00  0.00    -0.208 C  
HETATM    6  O   UNL     1     -11.567   8.433  69.877  1.00  0.00    -0.451 OA 
HETATM    7  H   UNL     1     -12.153   8.530  69.136  1.00  0.00     0.000 HD 
BRANCH   5   8
HETATM    8  C   UNL     1     -10.015   9.729  68.650  1.00  0.00    -0.181 C  
HETATM    9  C   UNL     1     -10.835  10.793  68.709  1.00  0.00    -0.262 C  
BRANCH   9  10
HETATM   10  C   UNL     1     -10.653  12.016  67.913  1.00  0.00    -0.227 A  
HETATM   11  C   UNL     1      -9.451  12.730  68.032  1.00  0.00    -0.213 A  
HETATM   12  C   UNL     1      -9.303  13.889  67.296  1.00  0.00    -0.231 A  
HETATM   13  C   UNL     1     -10.298  14.358  66.472  1.00  0.00    -0.281 A  
HETATM   14  C   UNL     1     -11.499  13.699  66.343  1.00  0.00    -0.358 A  
HETATM   15  O   UNL     1      -9.951  15.509  65.840  1.00  0.00    -0.296 OA 
HETATM   16  C   UNL     1     -11.677  12.522  67.080  1.00  0.00    -0.437 A  
HETATM   17  C   UNL     1      -8.621  15.713  66.361  1.00  0.00    -0.284 C  
HETATM   18  O   UNL     1      -8.204  14.691  67.289  1.00  0.00    -0.190 OA 
ENDBRANCH   9  10
ENDBRANCH   5   8
ENDBRANCH   2   5
TORSDOF 3
ENDMDL
MODEL      110
REMARK 921   NORMALIZED FREE ENERGY PREDICTED BY IDOCK:   -3.88 KCAL/MOL
REMARK 922        TOTAL FREE ENERGY PREDICTED BY IDOCK:   -4.95 KCAL/MOL
REMARK 923 INTER-LIGAND FREE ENERGY PREDICTED BY IDOCK:   -4.51 KCAL/MOL
REMARK 924 INTRA-LIGAND FREE ENERGY PREDICTED BY IDOCK:   -0.44 KCAL/MOL
REMARK 927      BINDING AFFINITY PREDICTED BY RF-SCORE:    0.00 PKD
ROOT
HETATM    1  C   UNL     1      -8.233   6.363  67.267  1.00  0.00    -0.113 C  
HETATM    2  C   UNL     1      -9.490   7.004  67.893  1.00  0.00    -0.128 C  
HETATM    3  C   UNL     1     -10.602   5.939  67.942  1.00  0.00    -0.322 C  
HETATM    4  C   UNL     1      -9.941   8.153  66.969  1.00  0.00    -0.329 C  
ENDROOT
BRANCH   2   5
HETATM    5  C   UNL     1      -9.148   7.500  69.335  1.00  0.00    -0.142 C  
HETATM    6  O   UNL     1      -7.764   7.827  69.435  1.00  0.00    -0.101 OA 
HETATM    7  H   UNL     1      -7.556   8.129  70.311  1.00  0.00     0.000 HD 
BRANCH   5   8
HETATM    8  C   UNL     1      -9.932   8.703  69.792  1.00  0.00    -0.190 C  
HETATM    9  C   UNL     1     -11.103   8.638  70.449  1.00  0.00    -0.250 C  
BRANCH   9  10
HETATM   10  C   UNL     1     -11.872   9.817  70.876  1.00  0.00    -0.420 A  
HETATM   11  C   UNL     1     -11.567  11.066  70.315  1.00  0.00    -0.414 A  
HETATM   12  C   UNL     1     -12.283  12.166  70.742  1.00  0.00    -0.271 A  
HETATM   13  C   UNL     1     -13.264  12.069  71.699  1.00  0.00    -0.260 A  
HETATM   14  C   UNL     1     -13.581  10.866  72.288  1.00  0.00     0.047 A  
HETATM   15  O   UNL     1     -13.846  13.266  71.974  1.00  0.00    -0.450 OA 
HETATM   16  C   UNL     1     -12.869   9.734  71.876  1.00  0.00    -0.520 A  
HETATM   17  C   UNL     1     -13.116  14.132  71.080  1.00  0.00    -0.302 C  
HETATM   18  O   UNL     1     -12.120  13.442  70.296  1.00  0.00    -0.342 OA 
ENDBRANCH   9  10
ENDBRANCH   5   8
ENDBRANCH   2   5
TORSDOF 3
ENDMDL
MODEL      111
REMARK 921   NORMALIZED FREE ENERGY PREDICTED BY IDOCK:   -3.87 KCAL/MOL
REMARK 922        TOTAL FREE ENERGY PREDICTED BY IDOCK:   -4.93 KCAL/MOL
REMARK 923 INTER-LIGAND FREE ENERGY PREDICTED BY IDOCK:   -4.55 KCAL/MOL
REMARK 924 INTRA-LIGAND FREE ENERGY PREDICTED BY IDOCK:   -0.38 KCAL/MOL
REMARK 927      BINDING AFFINITY PREDICTED BY RF-SCORE:    0.00 PKD
ROOT
HETATM    1  C   UNL     1     -12.561   8.832  72.483  1.00  0.00    -0.375 C  
HETATM    2  C   UNL     1     -11.328   7.993  72.081  1.00  0.00    -0.387 C  
HETATM    3  C   UNL     1     -10.674   7.448  73.366  1.00  0.00    -0.407 C  
HETATM    4  C   UNL     1     -10.331   8.934  71.375  1.00  0.00    -0.377 C  
ENDROOT
BRANCH   2   5
HETATM    5  C   UNL     1     -11.786   6.815  71.163  1.00  0.00    -0.360 C  
HETATM    6  O   UNL     1     -12.980   7.162  70.465  1.00  0.00    -0.581 OA 
HETATM    7  H   UNL     1     -13.259   6.446  69.907  1.00  0.00     0.000 HD 
BRANCH   5   8
HETATM    8  C   UNL     1     -10.772   6.382  70.137  1.00  0.00    -0.328 C  
HETATM    9  C   UNL     1     -11.035   6.241  68.826  1.00  0.00    -0.424 C  
BRANCH   9  10
HETATM   10  C   UNL     1     -10.046   5.799  67.831  1.00  0.00    -0.197 A  
HETATM   11  C   UNL     1     -10.496   5.330  66.588  1.00  0.00    -0.345 A  
HETATM   12  C   UNL     1      -9.557   4.898  65.674  1.00  0.00    -0.155 A  
HETATM   13  C   UNL     1      -8.212   4.904  65.954  1.00  0.00    -0.113 A  
HETATM   14  C   UNL     1      -7.730   5.338  67.169  1.00  0.00    -0.096 A  
HETATM   15  O   UNL     1      -7.461   4.441  64.921  1.00  0.00    -0.071 OA 
HETATM   16  C   UNL     1      -8.661   5.779  68.116  1.00  0.00    -0.108 A  
HETATM   17  C   UNL     1      -8.489   4.139  63.955  1.00  0.00    -0.100 C  
HETATM   18  O   UNL     1      -9.822   4.423  64.426  1.00  0.00    -0.125 OA 
ENDBRANCH   9  10
ENDBRANCH   5   8
ENDBRANCH   2   5
TORSDOF 3
ENDMDL
MODEL      112
REMARK 921   NORMALIZED FREE ENERGY PREDICTED BY IDOCK:   -3.85 KCAL/MOL
REMARK 922        TOTAL FREE ENERGY PREDICTED BY IDOCK:   -4.91 KCAL/MOL
REMARK 923 INTER-LIGAND FREE ENERGY PREDICTED BY IDOCK:   -4.60 KCAL/MOL
REMARK 924 INTRA-LIGAND FREE ENERGY PREDICTED BY IDOCK:   -0.31 KCAL/MOL
REMARK 927      BINDING AFFINITY PREDICTED BY RF-SCORE:    0.00 PKD
ROOT
HETATM    1  C   UNL     1      -6.994  11.362  69.208  1.00  0.00    -0.115 C  
HETATM    2  C   UNL     1      -8.050  10.973  68.151  1.00  0.00    -0.122 C  
HETATM    3  C   UNL     1      -9.443  11.057  68.805  1.00  0.00    -0.190 C  
HETATM    4  C   UNL     1      -7.783   9.512  67.735  1.00  0.00    -0.088 C  
ENDROOT
BRANCH   2   5
HETATM    5  C   UNL     1      -7.957  11.960  66.944  1.00  0.00    -0.132 C  
HETATM    6  O   UNL     1      -8.845  11.561  65.902  1.00  0.00    -0.298 OA 
HETATM    7  H   UNL     1      -8.789  12.161  65.168  1.00  0.00     0.000 HD 
BRANCH   5   8
HETATM    8  C   UNL     1      -8.267  13.397  67.277  1.00  0.00    -0.162 C  
HETATM    9  C   UNL     1      -9.420  14.013  66.964  1.00  0.00    -0.253 C  
BRANCH   9  10
HETATM   10  C   UNL     1      -9.710  15.421  67.275  1.00  0.00    -0.212 A  
HETATM   11  C   UNL     1      -9.884  16.327  66.217  1.00  0.00    -0.334 A  
HETATM   12  C   UNL     1     -10.133  17.650  66.524  1.00  0.00    -0.350 A  
HETATM   13  C   UNL     1     -10.200  18.094  67.823  1.00  0.00    -0.383 A  
HETATM   14  C   UNL     1     -10.016  17.242  68.888  1.00  0.00    -0.307 A  
HETATM   15  O   UNL     1     -10.455  19.426  67.906  1.00  0.00    -0.410 OA 
HETATM   16  C   UNL     1      -9.759  15.896  68.606  1.00  0.00    -0.207 A  
HETATM   17  C   UNL     1     -10.540  19.772  66.508  1.00  0.00    -0.467 C  
HETATM   18  O   UNL     1     -10.333  18.651  65.625  1.00  0.00    -0.572 OA 
ENDBRANCH   9  10
ENDBRANCH   5   8
ENDBRANCH   2   5
TORSDOF 3
ENDMDL
MODEL      113
REMARK 921   NORMALIZED FREE ENERGY PREDICTED BY IDOCK:   -3.85 KCAL/MOL
REMARK 922        TOTAL FREE ENERGY PREDICTED BY IDOCK:   -4.91 KCAL/MOL
REMARK 923 INTER-LIGAND FREE ENERGY PREDICTED BY IDOCK:   -4.53 KCAL/MOL
REMARK 924 INTRA-LIGAND FREE ENERGY PREDICTED BY IDOCK:   -0.38 KCAL/MOL
REMARK 927      BINDING AFFINITY PREDICTED BY RF-SCORE:    0.00 PKD
ROOT
HETATM    1  C   UNL     1     -11.897  15.103  68.998  1.00  0.00    -0.331 C  
HETATM    2  C   UNL     1     -11.065  14.936  67.709  1.00  0.00    -0.313 C  
HETATM    3  C   UNL     1     -10.735  16.338  67.161  1.00  0.00    -0.247 C  
HETATM    4  C   UNL     1     -11.938  14.191  66.680  1.00  0.00    -0.470 C  
ENDROOT
BRANCH   2   5
HETATM    5  C   UNL     1      -9.750  14.161  68.044  1.00  0.00    -0.226 C  
HETATM    6  O   UNL     1      -9.322  14.455  69.373  1.00  0.00    -0.396 OA 
HETATM    7  H   UNL     1      -8.523  13.985  69.577  1.00  0.00     0.000 HD 
BRANCH   5   8
HETATM    8  C   UNL     1      -9.851  12.662  67.924  1.00  0.00    -0.218 C  
HETATM    9  C   UNL     1     -10.338  11.858  68.884  1.00  0.00    -0.131 C  
BRANCH   9  10
HETATM   10  C   UNL     1     -10.417  10.393  68.769  1.00  0.00    -0.219 A  
HETATM   11  C   UNL     1     -10.372   9.617  69.936  1.00  0.00    -0.282 A  
HETATM   12  C   UNL     1     -10.424   8.243  69.811  1.00  0.00    -0.220 A  
HETATM   13  C   UNL     1     -10.504   7.628  68.584  1.00  0.00    -0.177 A  
HETATM   14  C   UNL     1     -10.529   8.352  67.414  1.00  0.00    -0.354 A  
HETATM   15  O   UNL     1     -10.545   6.274  68.682  1.00  0.00    -0.207 OA 
HETATM   16  C   UNL     1     -10.475   9.747  67.512  1.00  0.00    -0.309 A  
HETATM   17  C   UNL     1     -10.481   6.104  70.113  1.00  0.00    -0.231 C  
HETATM   18  O   UNL     1     -10.400   7.349  70.836  1.00  0.00    -0.201 OA 
ENDBRANCH   9  10
ENDBRANCH   5   8
ENDBRANCH   2   5
TORSDOF 3
ENDMDL
MODEL      114
REMARK 921   NORMALIZED FREE ENERGY PREDICTED BY IDOCK:   -3.84 KCAL/MOL
REMARK 922        TOTAL FREE ENERGY PREDICTED BY IDOCK:   -4.90 KCAL/MOL
REMARK 923 INTER-LIGAND FREE ENERGY PREDICTED BY IDOCK:   -4.54 KCAL/MOL
REMARK 924 INTRA-LIGAND FREE ENERGY PREDICTED BY IDOCK:   -0.37 KCAL/MOL
REMARK 927      BINDING AFFINITY PREDICTED BY RF-SCORE:    0.00 PKD
ROOT
HETATM    1  C   UNL     1     -10.729   7.185  73.168  1.00  0.00    -0.385 C  
HETATM    2  C   UNL     1     -11.171   8.040  71.961  1.00  0.00    -0.356 C  
HETATM    3  C   UNL     1     -10.066   9.073  71.669  1.00  0.00    -0.405 C  
HETATM    4  C   UNL     1     -12.459   8.788  72.361  1.00  0.00    -0.421 C  
ENDROOT
BRANCH   2   5
HETATM    5  C   UNL     1     -11.385   7.109  70.725  1.00  0.00    -0.289 C  
HETATM    6  O   UNL     1     -12.775   6.863  70.520  1.00  0.00    -0.569 OA 
HETATM    7  H   UNL     1     -12.905   6.297  69.768  1.00  0.00     0.000 HD 
BRANCH   5   8
HETATM    8  C   UNL     1     -10.824   7.639  69.430  1.00  0.00    -0.136 C  
HETATM    9  C   UNL     1     -10.212   6.880  68.505  1.00  0.00    -0.187 C  
BRANCH   9  10
HETATM   10  C   UNL     1      -9.649   7.405  67.251  1.00  0.00    -0.191 A  
HETATM   11  C   UNL     1     -10.122   8.630  66.757  1.00  0.00    -0.366 A  
HETATM   12  C   UNL     1      -9.601   9.100  65.568  1.00  0.00    -0.169 A  
HETATM   13  C   UNL     1      -8.653   8.398  64.862  1.00  0.00    -0.080 A  
HETATM   14  C   UNL     1      -8.177   7.184  65.303  1.00  0.00    -0.128 A  
HETATM   15  O   UNL     1      -8.273   9.034  63.723  1.00  0.00    -0.156 OA 
HETATM   16  C   UNL     1      -8.690   6.683  66.504  1.00  0.00    -0.137 A  
HETATM   17  C   UNL     1      -9.093  10.219  63.790  1.00  0.00    -0.256 C  
HETATM   18  O   UNL     1      -9.941  10.267  64.956  1.00  0.00    -0.306 OA 
ENDBRANCH   9  10
ENDBRANCH   5   8
ENDBRANCH   2   5
TORSDOF 3
ENDMDL
MODEL      115
REMARK 921   NORMALIZED FREE ENERGY PREDICTED BY IDOCK:   -3.78 KCAL/MOL
REMARK 922        TOTAL FREE ENERGY PREDICTED BY IDOCK:   -4.83 KCAL/MOL
REMARK 923 INTER-LIGAND FREE ENERGY PREDICTED BY IDOCK:   -4.48 KCAL/MOL
REMARK 924 INTRA-LIGAND FREE ENERGY PREDICTED BY IDOCK:   -0.35 KCAL/MOL
REMARK 927      BINDING AFFINITY PREDICTED BY RF-SCORE:    0.00 PKD
ROOT
HETATM    1  C   UNL     1      -8.504   6.915  65.101  1.00  0.00    -0.029 C  
HETATM    2  C   UNL     1      -7.854   8.315  65.112  1.00  0.00    -0.120 C  
HETATM    3  C   UNL     1      -7.991   8.922  63.702  1.00  0.00    -0.154 C  
HETATM    4  C   UNL     1      -6.357   8.136  65.435  1.00  0.00    -0.048 C  
ENDROOT
BRANCH   2   5
HETATM    5  C   UNL     1      -8.585   9.212  66.162  1.00  0.00    -0.136 C  
HETATM    6  O   UNL     1      -7.717   9.510  67.253  1.00  0.00    -0.091 OA 
HETATM    7  H   UNL     1      -8.161  10.056  67.892  1.00  0.00     0.000 HD 
BRANCH   5   8
HETATM    8  C   UNL     1      -9.102  10.521  65.624  1.00  0.00    -0.209 C  
HETATM    9  C   UNL     1     -10.375  10.938  65.744  1.00  0.00    -0.303 C  
BRANCH   9  10
HETATM   10  C   UNL     1     -10.878  12.208  65.200  1.00  0.00    -0.343 A  
HETATM   11  C   UNL     1     -10.409  13.413  65.745  1.00  0.00    -0.296 A  
HETATM   12  C   UNL     1     -10.908  14.597  65.240  1.00  0.00    -0.377 A  
HETATM   13  C   UNL     1     -11.849  14.621  64.239  1.00  0.00    -0.337 A  
HETATM   14  C   UNL     1     -12.350  13.462  63.691  1.00  0.00    -0.422 A  
HETATM   15  O   UNL     1     -12.204  15.884  63.887  1.00  0.00    -0.785 OA 
HETATM   16  C   UNL     1     -11.864  12.247  64.186  1.00  0.00    -0.502 A  
HETATM   17  C   UNL     1     -11.378  16.656  64.783  1.00  0.00     0.023 C  
HETATM   18  O   UNL     1     -10.555  15.846  65.648  1.00  0.00    -0.346 OA 
ENDBRANCH   9  10
ENDBRANCH   5   8
ENDBRANCH   2   5
TORSDOF 3
ENDMDL
MODEL      116
REMARK 921   NORMALIZED FREE ENERGY PREDICTED BY IDOCK:   -3.77 KCAL/MOL
REMARK 922        TOTAL FREE ENERGY PREDICTED BY IDOCK:   -4.82 KCAL/MOL
REMARK 923 INTER-LIGAND FREE ENERGY PREDICTED BY IDOCK:   -4.42 KCAL/MOL
REMARK 924 INTRA-LIGAND FREE ENERGY PREDICTED BY IDOCK:   -0.39 KCAL/MOL
REMARK 927      BINDING AFFINITY PREDICTED BY RF-SCORE:    0.00 PKD
ROOT
HETATM    1  C   UNL     1     -10.775  16.305  66.226  1.00  0.00    -0.185 C  
HETATM    2  C   UNL     1     -10.530  14.787  66.090  1.00  0.00    -0.311 C  
HETATM    3  C   UNL     1      -9.105  14.481  66.588  1.00  0.00    -0.277 C  
HETATM    4  C   UNL     1     -10.622  14.428  64.593  1.00  0.00    -0.331 C  
ENDROOT
BRANCH   2   5
HETATM    5  C   UNL     1     -11.583  14.018  66.951  1.00  0.00    -0.386 C  
HETATM    6  O   UNL     1     -12.750  13.738  66.179  1.00  0.00    -0.407 OA 
HETATM    7  H   UNL     1     -13.390  13.271  66.702  1.00  0.00     0.000 HD 
BRANCH   5   8
HETATM    8  C   UNL     1     -11.098  12.713  67.527  1.00  0.00    -0.313 C  
HETATM    9  C   UNL     1     -11.508  11.503  67.108  1.00  0.00    -0.313 C  
BRANCH   9  10
HETATM   10  C   UNL     1     -11.046  10.233  67.688  1.00  0.00    -0.319 A  
HETATM   11  C   UNL     1     -11.356   9.944  69.025  1.00  0.00    -0.073 A  
HETATM   12  C   UNL     1     -10.896   8.758  69.562  1.00  0.00    -0.142 A  
HETATM   13  C   UNL     1     -10.141   7.874  68.829  1.00  0.00    -0.193 A  
HETATM   14  C   UNL     1      -9.798   8.129  67.521  1.00  0.00    -0.230 A  
HETATM   15  O   UNL     1      -9.792   6.771  69.542  1.00  0.00    -0.156 OA 
HETATM   16  C   UNL     1     -10.249   9.325  66.952  1.00  0.00    -0.327 A  
HETATM   17  C   UNL     1     -10.413   7.062  70.811  1.00  0.00    -0.212 C  
HETATM   18  O   UNL     1     -11.113   8.324  70.833  1.00  0.00    -0.251 OA 
ENDBRANCH   9  10
ENDBRANCH   5   8
ENDBRANCH   2   5
TORSDOF 3
ENDMDL
MODEL      117
REMARK 921   NORMALIZED FREE ENERGY PREDICTED BY IDOCK:   -3.76 KCAL/MOL
REMARK 922        TOTAL FREE ENERGY PREDICTED BY IDOCK:   -4.80 KCAL/MOL
REMARK 923 INTER-LIGAND FREE ENERGY PREDICTED BY IDOCK:   -4.45 KCAL/MOL
REMARK 924 INTRA-LIGAND FREE ENERGY PREDICTED BY IDOCK:   -0.35 KCAL/MOL
REMARK 927      BINDING AFFINITY PREDICTED BY RF-SCORE:    0.00 PKD
ROOT
HETATM    1  C   UNL     1      -7.581   8.313  67.449  1.00  0.00    -0.098 C  
HETATM    2  C   UNL     1      -7.842   8.301  65.927  1.00  0.00    -0.093 C  
HETATM    3  C   UNL     1      -7.737   6.846  65.430  1.00  0.00    -0.107 C  
HETATM    4  C   UNL     1      -6.735   9.138  65.254  1.00  0.00    -0.069 C  
ENDROOT
BRANCH   2   5
HETATM    5  C   UNL     1      -9.270   8.868  65.647  1.00  0.00    -0.204 C  
HETATM    6  O   UNL     1     -10.249   8.144  66.389  1.00  0.00    -0.454 OA 
HETATM    7  H   UNL     1     -11.117   8.488  66.220  1.00  0.00     0.000 HD 
BRANCH   5   8
HETATM    8  C   UNL     1      -9.445  10.329  65.973  1.00  0.00    -0.234 C  
HETATM    9  C   UNL     1     -10.594  10.874  66.408  1.00  0.00    -0.289 C  
BRANCH   9  10
HETATM   10  C   UNL     1     -10.765  12.304  66.706  1.00  0.00    -0.272 A  
HETATM   11  C   UNL     1      -9.914  13.232  66.087  1.00  0.00    -0.295 A  
HETATM   12  C   UNL     1     -10.071  14.569  66.394  1.00  0.00    -0.284 A  
HETATM   13  C   UNL     1     -11.020  15.003  67.288  1.00  0.00    -0.326 A  
HETATM   14  C   UNL     1     -11.860  14.124  67.932  1.00  0.00    -0.405 A  
HETATM   15  O   UNL     1     -11.009  16.352  67.446  1.00  0.00    -0.263 OA 
HETATM   16  C   UNL     1     -11.721  12.762  67.642  1.00  0.00    -0.422 A  
HETATM   17  C   UNL     1      -9.942  16.721  66.549  1.00  0.00    -0.298 C  
HETATM   18  O   UNL     1      -9.339  15.594  65.879  1.00  0.00    -0.335 OA 
ENDBRANCH   9  10
ENDBRANCH   5   8
ENDBRANCH   2   5
TORSDOF 3
ENDMDL
MODEL      118
REMARK 921   NORMALIZED FREE ENERGY PREDICTED BY IDOCK:   -3.73 KCAL/MOL
REMARK 922        TOTAL FREE ENERGY PREDICTED BY IDOCK:   -4.77 KCAL/MOL
REMARK 923 INTER-LIGAND FREE ENERGY PREDICTED BY IDOCK:   -4.42 KCAL/MOL
REMARK 924 INTRA-LIGAND FREE ENERGY PREDICTED BY IDOCK:   -0.36 KCAL/MOL
REMARK 927      BINDING AFFINITY PREDICTED BY RF-SCORE:    0.00 PKD
ROOT
HETATM    1  C   UNL     1     -10.000  10.711  66.111  1.00  0.00    -0.283 C  
HETATM    2  C   UNL     1     -10.443  11.754  67.159  1.00  0.00    -0.250 C  
HETATM    3  C   UNL     1     -11.594  12.584  66.558  1.00  0.00    -0.447 C  
HETATM    4  C   UNL     1      -9.245  12.686  67.430  1.00  0.00    -0.191 C  
ENDROOT
BRANCH   2   5
HETATM    5  C   UNL     1     -10.923  11.014  68.448  1.00  0.00    -0.230 C  
HETATM    6  O   UNL     1     -12.343  11.086  68.566  1.00  0.00    -0.762 OA 
HETATM    7  H   UNL     1     -12.635  10.637  69.350  1.00  0.00     0.000 HD 
BRANCH   5   8
HETATM    8  C   UNL     1     -10.537   9.559  68.524  1.00  0.00    -0.247 C  
HETATM    9  C   UNL     1     -10.927   8.723  69.501  1.00  0.00    -0.080 C  
BRANCH   9  10
HETATM   10  C   UNL     1     -10.531   7.309  69.579  1.00  0.00    -0.238 A  
HETATM   11  C   UNL     1     -10.308   6.600  68.390  1.00  0.00    -0.220 A  
HETATM   12  C   UNL     1      -9.959   5.267  68.479  1.00  0.00    -0.163 A  
HETATM   13  C   UNL     1      -9.840   4.626  69.689  1.00  0.00    -0.223 A  
HETATM   14  C   UNL     1     -10.070   5.280  70.878  1.00  0.00    -0.295 A  
HETATM   15  O   UNL     1      -9.487   3.321  69.555  1.00  0.00    -0.164 OA 
HETATM   16  C   UNL     1     -10.428   6.631  70.817  1.00  0.00    -0.251 A  
HETATM   17  C   UNL     1      -9.399   3.211  68.119  1.00  0.00    -0.191 C  
HETATM   18  O   UNL     1      -9.700   4.441  67.429  1.00  0.00    -0.179 OA 
ENDBRANCH   9  10
ENDBRANCH   5   8
ENDBRANCH   2   5
TORSDOF 3
ENDMDL
MODEL      119
REMARK 921   NORMALIZED FREE ENERGY PREDICTED BY IDOCK:   -3.73 KCAL/MOL
REMARK 922        TOTAL FREE ENERGY PREDICTED BY IDOCK:   -4.77 KCAL/MOL
REMARK 923 INTER-LIGAND FREE ENERGY PREDICTED BY IDOCK:   -4.48 KCAL/MOL
REMARK 924 INTRA-LIGAND FREE ENERGY PREDICTED BY IDOCK:   -0.29 KCAL/MOL
REMARK 927      BINDING AFFINITY PREDICTED BY RF-SCORE:    0.00 PKD
ROOT
HETATM    1  C   UNL     1      -9.587  13.058  68.185  1.00  0.00    -0.227 C  
HETATM    2  C   UNL     1     -10.981  13.570  67.765  1.00  0.00    -0.284 C  
HETATM    3  C   UNL     1     -10.814  14.452  66.512  1.00  0.00    -0.310 C  
HETATM    4  C   UNL     1     -11.530  14.438  68.915  1.00  0.00    -0.319 C  
ENDROOT
BRANCH   2   5
HETATM    5  C   UNL     1     -11.903  12.349  67.450  1.00  0.00    -0.289 C  
HETATM    6  O   UNL     1     -12.056  12.190  66.041  1.00  0.00    -0.612 OA 
HETATM    7  H   UNL     1     -12.616  11.447  65.849  1.00  0.00     0.000 HD 
BRANCH   5   8
HETATM    8  C   UNL     1     -11.421  11.033  68.004  1.00  0.00    -0.365 C  
HETATM    9  C   UNL     1     -10.904  10.042  67.257  1.00  0.00    -0.284 C  
BRANCH   9  10
HETATM   10  C   UNL     1     -10.453   8.752  67.802  1.00  0.00    -0.292 A  
HETATM   11  C   UNL     1     -10.553   7.605  67.000  1.00  0.00    -0.406 A  
HETATM   12  C   UNL     1     -10.147   6.398  67.533  1.00  0.00    -0.155 A  
HETATM   13  C   UNL     1      -9.666   6.295  68.816  1.00  0.00    -0.128 A  
HETATM   14  C   UNL     1      -9.571   7.392  69.642  1.00  0.00    -0.156 A  
HETATM   15  O   UNL     1      -9.321   5.022  69.143  1.00  0.00    -0.108 OA 
HETATM   16  C   UNL     1      -9.979   8.628  69.128  1.00  0.00    -0.193 A  
HETATM   17  C   UNL     1      -9.641   4.333  67.917  1.00  0.00    -0.152 C  
HETATM   18  O   UNL     1     -10.169   5.198  66.891  1.00  0.00    -0.199 OA 
ENDBRANCH   9  10
ENDBRANCH   5   8
ENDBRANCH   2   5
TORSDOF 3
ENDMDL
MODEL      120
REMARK 921   NORMALIZED FREE ENERGY PREDICTED BY IDOCK:   -3.72 KCAL/MOL
REMARK 922        TOTAL FREE ENERGY PREDICTED BY IDOCK:   -4.76 KCAL/MOL
REMARK 923 INTER-LIGAND FREE ENERGY PREDICTED BY IDOCK:   -4.41 KCAL/MOL
REMARK 924 INTRA-LIGAND FREE ENERGY PREDICTED BY IDOCK:   -0.35 KCAL/MOL
REMARK 927      BINDING AFFINITY PREDICTED BY RF-SCORE:    0.00 PKD
ROOT
HETATM    1  C   UNL     1     -14.181  15.195  71.468  1.00  0.00    -0.647 C  
HETATM    2  C   UNL     1     -12.672  14.879  71.548  1.00  0.00    -0.404 C  
HETATM    3  C   UNL     1     -12.499  13.348  71.558  1.00  0.00    -0.251 C  
HETATM    4  C   UNL     1     -12.142  15.450  72.879  1.00  0.00    -0.545 C  
ENDROOT
BRANCH   2   5
HETATM    5  C   UNL     1     -11.952  15.498  70.307  1.00  0.00    -0.374 C  
HETATM    6  O   UNL     1     -11.501  16.819  70.600  1.00  0.00    -0.471 OA 
HETATM    7  H   UNL     1     -11.063  17.196  69.846  1.00  0.00     0.000 HD 
BRANCH   5   8
HETATM    8  C   UNL     1     -10.765  14.715  69.809  1.00  0.00    -0.129 C  
HETATM    9  C   UNL     1     -10.546  14.413  68.517  1.00  0.00    -0.256 C  
BRANCH   9  10
HETATM   10  C   UNL     1      -9.395  13.632  68.039  1.00  0.00    -0.208 A  
HETATM   11  C   UNL     1      -9.606  12.634  67.075  1.00  0.00    -0.219 A  
HETATM   12  C   UNL     1      -8.520  11.894  66.653  1.00  0.00    -0.143 A  
HETATM   13  C   UNL     1      -7.259  12.101  67.157  1.00  0.00    -0.117 A  
HETATM   14  C   UNL     1      -7.013  13.055  68.118  1.00  0.00    -0.105 A  
HETATM   15  O   UNL     1      -6.335  11.269  66.609  1.00  0.00    -0.120 OA 
HETATM   16  C   UNL     1      -8.097  13.819  68.567  1.00  0.00    -0.128 A  
HETATM   17  C   UNL     1      -7.160  10.512  65.699  1.00  0.00    -0.119 C  
HETATM   18  O   UNL     1      -8.549  10.900  65.724  1.00  0.00    -0.177 OA 
ENDBRANCH   9  10
ENDBRANCH   5   8
ENDBRANCH   2   5
TORSDOF 3
ENDMDL
MODEL      121
REMARK 921   NORMALIZED FREE ENERGY PREDICTED BY IDOCK:   -3.71 KCAL/MOL
REMARK 922        TOTAL FREE ENERGY PREDICTED BY IDOCK:   -4.74 KCAL/MOL
REMARK 923 INTER-LIGAND FREE ENERGY PREDICTED BY IDOCK:   -4.31 KCAL/MOL
REMARK 924 INTRA-LIGAND FREE ENERGY PREDICTED BY IDOCK:   -0.43 KCAL/MOL
REMARK 927      BINDING AFFINITY PREDICTED BY RF-SCORE:    0.00 PKD
ROOT
HETATM    1  C   UNL     1      -6.897  10.068  64.051  1.00  0.00    -0.126 C  
HETATM    2  C   UNL     1      -8.186   9.874  64.880  1.00  0.00    -0.146 C  
HETATM    3  C   UNL     1      -8.408   8.362  65.079  1.00  0.00    -0.169 C  
HETATM    4  C   UNL     1      -9.361  10.447  64.063  1.00  0.00    -0.321 C  
ENDROOT
BRANCH   2   5
HETATM    5  C   UNL     1      -8.019  10.584  66.261  1.00  0.00    -0.144 C  
HETATM    6  O   UNL     1      -8.413  11.952  66.169  1.00  0.00    -0.381 OA 
HETATM    7  H   UNL     1      -8.313  12.384  67.009  1.00  0.00     0.000 HD 
BRANCH   5   8
HETATM    8  C   UNL     1      -8.801   9.963  67.390  1.00  0.00    -0.137 C  
HETATM    9  C   UNL     1      -9.902  10.508  67.937  1.00  0.00    -0.181 C  
BRANCH   9  10
HETATM   10  C   UNL     1     -10.650   9.907  69.052  1.00  0.00    -0.240 A  
HETATM   11  C   UNL     1     -11.568  10.699  69.758  1.00  0.00    -0.385 A  
HETATM   12  C   UNL     1     -12.246  10.127  70.816  1.00  0.00    -0.338 A  
HETATM   13  C   UNL     1     -12.035   8.823  71.195  1.00  0.00    -0.285 A  
HETATM   14  C   UNL     1     -11.129   8.019  70.541  1.00  0.00    -0.251 A  
HETATM   15  O   UNL     1     -12.802   8.457  72.255  1.00  0.00    -0.342 OA 
HETATM   16  C   UNL     1     -10.426   8.574  69.466  1.00  0.00    -0.222 A  
HETATM   17  C   UNL     1     -13.521   9.683  72.503  1.00  0.00    -0.234 C  
HETATM   18  O   UNL     1     -13.171  10.749  71.596  1.00  0.00    -0.413 OA 
ENDBRANCH   9  10
ENDBRANCH   5   8
ENDBRANCH   2   5
TORSDOF 3
ENDMDL
MODEL      122
REMARK 921   NORMALIZED FREE ENERGY PREDICTED BY IDOCK:   -3.69 KCAL/MOL
REMARK 922        TOTAL FREE ENERGY PREDICTED BY IDOCK:   -4.72 KCAL/MOL
REMARK 923 INTER-LIGAND FREE ENERGY PREDICTED BY IDOCK:   -4.39 KCAL/MOL
REMARK 924 INTRA-LIGAND FREE ENERGY PREDICTED BY IDOCK:   -0.34 KCAL/MOL
REMARK 927      BINDING AFFINITY PREDICTED BY RF-SCORE:    0.00 PKD
ROOT
HETATM    1  C   UNL     1      -8.231  10.676  65.920  1.00  0.00    -0.159 C  
HETATM    2  C   UNL     1      -9.700  10.204  65.934  1.00  0.00    -0.292 C  
HETATM    3  C   UNL     1     -10.446  10.911  64.786  1.00  0.00    -0.373 C  
HETATM    4  C   UNL     1     -10.321  10.642  67.276  1.00  0.00    -0.265 C  
ENDROOT
BRANCH   2   5
HETATM    5  C   UNL     1      -9.744   8.655  65.737  1.00  0.00     0.017 C  
HETATM    6  O   UNL     1      -8.694   8.233  64.868  1.00  0.00    -0.369 OA 
HETATM    7  H   UNL     1      -8.720   7.291  64.748  1.00  0.00     0.000 HD 
BRANCH   5   8
HETATM    8  C   UNL     1      -9.630   7.852  67.007  1.00  0.00    -0.247 C  
HETATM    9  C   UNL     1     -10.613   7.084  67.507  1.00  0.00    -0.351 C  
BRANCH   9  10
HETATM   10  C   UNL     1     -10.502   6.317  68.757  1.00  0.00    -0.279 A  
HETATM   11  C   UNL     1     -11.339   6.649  69.833  1.00  0.00    -0.422 A  
HETATM   12  C   UNL     1     -11.208   5.936  71.008  1.00  0.00    -0.210 A  
HETATM   13  C   UNL     1     -10.280   4.932  71.149  1.00  0.00    -0.191 A  
HETATM   14  C   UNL     1      -9.427   4.588  70.125  1.00  0.00    -0.237 A  
HETATM   15  O   UNL     1     -10.316   4.358  72.380  1.00  0.00    -0.183 OA 
HETATM   16  C   UNL     1      -9.537   5.297  68.923  1.00  0.00    -0.189 A  
HETATM   17  C   UNL     1     -11.374   5.117  73.001  1.00  0.00    -0.309 C  
HETATM   18  O   UNL     1     -11.942   6.124  72.138  1.00  0.00    -0.331 OA 
ENDBRANCH   9  10
ENDBRANCH   5   8
ENDBRANCH   2   5
TORSDOF 3
ENDMDL
MODEL      123
REMARK 921   NORMALIZED FREE ENERGY PREDICTED BY IDOCK:   -3.69 KCAL/MOL
REMARK 922        TOTAL FREE ENERGY PREDICTED BY IDOCK:   -4.72 KCAL/MOL
REMARK 923 INTER-LIGAND FREE ENERGY PREDICTED BY IDOCK:   -4.34 KCAL/MOL
REMARK 924 INTRA-LIGAND FREE ENERGY PREDICTED BY IDOCK:   -0.38 KCAL/MOL
REMARK 927      BINDING AFFINITY PREDICTED BY RF-SCORE:    0.00 PKD
ROOT
HETATM    1  C   UNL     1     -10.811  14.011  68.012  1.00  0.00    -0.257 C  
HETATM    2  C   UNL     1     -10.467  12.770  67.159  1.00  0.00    -0.240 C  
HETATM    3  C   UNL     1      -9.885  13.253  65.817  1.00  0.00    -0.210 C  
HETATM    4  C   UNL     1     -11.780  12.009  66.888  1.00  0.00    -0.342 C  
ENDROOT
BRANCH   2   5
HETATM    5  C   UNL     1      -9.421  11.897  67.923  1.00  0.00    -0.194 C  
HETATM    6  O   UNL     1      -8.790  12.659  68.950  1.00  0.00    -0.368 OA 
HETATM    7  H   UNL     1      -8.153  12.129  69.415  1.00  0.00     0.000 HD 
BRANCH   5   8
HETATM    8  C   UNL     1      -9.981  10.653  68.562  1.00  0.00    -0.176 C  
HETATM    9  C   UNL     1      -9.636  10.209  69.783  1.00  0.00    -0.213 C  
BRANCH   9  10
HETATM   10  C   UNL     1     -10.171   8.983  70.393  1.00  0.00    -0.250 A  
HETATM   11  C   UNL     1      -9.952   8.754  71.760  1.00  0.00    -0.396 A  
HETATM   12  C   UNL     1     -10.441   7.588  72.314  1.00  0.00    -0.230 A  
HETATM   13  C   UNL     1     -11.117   6.654  71.564  1.00  0.00    -0.256 A  
HETATM   14  C   UNL     1     -11.336   6.832  70.217  1.00  0.00    -0.404 A  
HETATM   15  O   UNL     1     -11.514   5.583  72.300  1.00  0.00    -0.242 OA 
HETATM   16  C   UNL     1     -10.848   8.004  69.629  1.00  0.00    -0.172 A  
HETATM   17  C   UNL     1     -11.009   5.947  73.601  1.00  0.00    -0.063 C  
HETATM   18  O   UNL     1     -10.324   7.217  73.618  1.00  0.00    -0.330 OA 
ENDBRANCH   9  10
ENDBRANCH   5   8
ENDBRANCH   2   5
TORSDOF 3
ENDMDL
MODEL      124
REMARK 921   NORMALIZED FREE ENERGY PREDICTED BY IDOCK:   -3.69 KCAL/MOL
REMARK 922        TOTAL FREE ENERGY PREDICTED BY IDOCK:   -4.72 KCAL/MOL
REMARK 923 INTER-LIGAND FREE ENERGY PREDICTED BY IDOCK:   -4.41 KCAL/MOL
REMARK 924 INTRA-LIGAND FREE ENERGY PREDICTED BY IDOCK:   -0.31 KCAL/MOL
REMARK 927      BINDING AFFINITY PREDICTED BY RF-SCORE:    0.00 PKD
ROOT
HETATM    1  C   UNL     1      -8.477   3.034  65.962  1.00  0.00    -0.111 C  
HETATM    2  C   UNL     1      -9.187   4.301  66.486  1.00  0.00    -0.154 C  
HETATM    3  C   UNL     1     -10.535   4.439  65.753  1.00  0.00    -0.211 C  
HETATM    4  C   UNL     1      -8.302   5.515  66.134  1.00  0.00    -0.119 C  
ENDROOT
BRANCH   2   5
HETATM    5  C   UNL     1      -9.417   4.161  68.025  1.00  0.00    -0.160 C  
HETATM    6  O   UNL     1      -8.182   3.917  68.694  1.00  0.00    -0.073 OA 
HETATM    7  H   UNL     1      -8.321   3.831  69.630  1.00  0.00     0.000 HD 
BRANCH   5   8
HETATM    8  C   UNL     1     -10.059   5.356  68.680  1.00  0.00    -0.246 C  
HETATM    9  C   UNL     1     -10.187   5.512  70.009  1.00  0.00    -0.337 C  
BRANCH   9  10
HETATM   10  C   UNL     1     -10.831   6.672  70.643  1.00  0.00    -0.301 A  
HETATM   11  C   UNL     1     -12.206   6.620  70.915  1.00  0.00    -0.324 A  
HETATM   12  C   UNL     1     -12.802   7.725  71.489  1.00  0.00    -0.329 A  
HETATM   13  C   UNL     1     -12.090   8.863  71.784  1.00  0.00    -0.362 A  
HETATM   14  C   UNL     1     -10.744   8.963  71.514  1.00  0.00    -0.398 A  
HETATM   15  O   UNL     1     -12.862   9.831  72.344  1.00  0.00    -0.328 OA 
HETATM   16  C   UNL     1     -10.115   7.858  70.930  1.00  0.00    -0.205 A  
HETATM   17  C   UNL     1     -14.145   9.172  72.367  1.00  0.00    -0.359 C  
HETATM   18  O   UNL     1     -14.116   7.837  71.823  1.00  0.00    -0.391 OA 
ENDBRANCH   9  10
ENDBRANCH   5   8
ENDBRANCH   2   5
TORSDOF 3
ENDMDL
MODEL      125
REMARK 921   NORMALIZED FREE ENERGY PREDICTED BY IDOCK:   -3.68 KCAL/MOL
REMARK 922        TOTAL FREE ENERGY PREDICTED BY IDOCK:   -4.72 KCAL/MOL
REMARK 923 INTER-LIGAND FREE ENERGY PREDICTED BY IDOCK:   -4.33 KCAL/MOL
REMARK 924 INTRA-LIGAND FREE ENERGY PREDICTED BY IDOCK:   -0.39 KCAL/MOL
REMARK 927      BINDING AFFINITY PREDICTED BY RF-SCORE:    0.00 PKD
ROOT
HETATM    1  C   UNL     1     -10.335  10.126  66.584  1.00  0.00    -0.274 C  
HETATM    2  C   UNL     1     -10.444  11.360  67.506  1.00  0.00    -0.233 C  
HETATM    3  C   UNL     1      -9.062  11.615  68.138  1.00  0.00    -0.183 C  
HETATM    4  C   UNL     1     -11.449  11.022  68.626  1.00  0.00    -0.375 C  
ENDROOT
BRANCH   2   5
HETATM    5  C   UNL     1     -10.891  12.595  66.661  1.00  0.00    -0.258 C  
HETATM    6  O   UNL     1     -12.199  13.015  67.043  1.00  0.00    -0.341 OA 
HETATM    7  H   UNL     1     -12.471  13.766  66.529  1.00  0.00     0.000 HD 
BRANCH   5   8
HETATM    8  C   UNL     1      -9.983  13.794  66.764  1.00  0.00    -0.270 C  
HETATM    9  C   UNL     1     -10.316  14.944  67.375  1.00  0.00    -0.243 C  
BRANCH   9  10
HETATM   10  C   UNL     1      -9.433  16.117  67.455  1.00  0.00    -0.223 A  
HETATM   11  C   UNL     1      -8.556  16.233  68.545  1.00  0.00    -0.211 A  
HETATM   12  C   UNL     1      -7.750  17.351  68.618  1.00  0.00    -0.273 A  
HETATM   13  C   UNL     1      -7.795  18.344  67.669  1.00  0.00    -0.234 A  
HETATM   14  C   UNL     1      -8.654  18.278  66.596  1.00  0.00    -0.287 A  
HETATM   15  O   UNL     1      -6.922  19.353  67.927  1.00  0.00    -0.237 OA 
HETATM   16  C   UNL     1      -9.486  17.157  66.498  1.00  0.00    -0.290 A  
HETATM   17  C   UNL     1      -6.321  18.882  69.151  1.00  0.00    -0.268 C  
HETATM   18  O   UNL     1      -6.843  17.614  69.598  1.00  0.00    -0.129 OA 
ENDBRANCH   9  10
ENDBRANCH   5   8
ENDBRANCH   2   5
TORSDOF 3
ENDMDL
MODEL      126
REMARK 921   NORMALIZED FREE ENERGY PREDICTED BY IDOCK:   -3.68 KCAL/MOL
REMARK 922        TOTAL FREE ENERGY PREDICTED BY IDOCK:   -4.71 KCAL/MOL
REMARK 923 INTER-LIGAND FREE ENERGY PREDICTED BY IDOCK:   -4.38 KCAL/MOL
REMARK 924 INTRA-LIGAND FREE ENERGY PREDICTED BY IDOCK:   -0.33 KCAL/MOL
REMARK 927      BINDING AFFINITY PREDICTED BY RF-SCORE:    0.00 PKD
ROOT
HETATM    1  C   UNL     1      -9.318  12.668  67.547  1.00  0.00    -0.188 C  
HETATM    2  C   UNL     1     -10.638  11.977  67.143  1.00  0.00    -0.255 C  
HETATM    3  C   UNL     1     -10.473  11.415  65.718  1.00  0.00    -0.314 C  
HETATM    4  C   UNL     1     -11.745  13.052  67.129  1.00  0.00    -0.439 C  
ENDROOT
BRANCH   2   5
HETATM    5  C   UNL     1     -10.943  10.823  68.151  1.00  0.00    -0.257 C  
HETATM    6  O   UNL     1     -12.325  10.822  68.504  1.00  0.00    -0.825 OA 
HETATM    7  H   UNL     1     -12.511  10.120  69.117  1.00  0.00     0.000 HD 
BRANCH   5   8
HETATM    8  C   UNL     1     -10.603   9.443  67.652  1.00  0.00    -0.333 C  
HETATM    9  C   UNL     1     -10.615   8.338  68.418  1.00  0.00    -0.148 C  
BRANCH   9  10
HETATM   10  C   UNL     1     -10.263   6.995  67.931  1.00  0.00    -0.224 A  
HETATM   11  C   UNL     1      -9.274   6.266  68.607  1.00  0.00    -0.124 A  
HETATM   12  C   UNL     1      -8.938   5.017  68.125  1.00  0.00    -0.108 A  
HETATM   13  C   UNL     1      -9.534   4.486  67.006  1.00  0.00    -0.169 A  
HETATM   14  C   UNL     1     -10.494   5.177  66.302  1.00  0.00    -0.341 A  
HETATM   15  O   UNL     1      -9.063   3.248  66.702  1.00  0.00    -0.146 OA 
HETATM   16  C   UNL     1     -10.852   6.447  66.768  1.00  0.00    -0.361 A  
HETATM   17  C   UNL     1      -8.098   3.060  67.758  1.00  0.00    -0.078 C  
HETATM   18  O   UNL     1      -8.011   4.179  68.663  1.00  0.00    -0.072 OA 
ENDBRANCH   9  10
ENDBRANCH   5   8
ENDBRANCH   2   5
TORSDOF 3
ENDMDL
MODEL      127
REMARK 921   NORMALIZED FREE ENERGY PREDICTED BY IDOCK:   -3.68 KCAL/MOL
REMARK 922        TOTAL FREE ENERGY PREDICTED BY IDOCK:   -4.71 KCAL/MOL
REMARK 923 INTER-LIGAND FREE ENERGY PREDICTED BY IDOCK:   -4.33 KCAL/MOL
REMARK 924 INTRA-LIGAND FREE ENERGY PREDICTED BY IDOCK:   -0.37 KCAL/MOL
REMARK 927      BINDING AFFINITY PREDICTED BY RF-SCORE:    0.00 PKD
ROOT
HETATM    1  C   UNL     1      -6.541   9.863  62.697  1.00  0.00    -0.114 C  
HETATM    2  C   UNL     1      -7.842   9.354  63.353  1.00  0.00    -0.132 C  
HETATM    3  C   UNL     1      -7.687   7.847  63.630  1.00  0.00    -0.136 C  
HETATM    4  C   UNL     1      -8.989   9.560  62.342  1.00  0.00    -0.279 C  
ENDROOT
BRANCH   2   5
HETATM    5  C   UNL     1      -8.081  10.129  64.688  1.00  0.00    -0.153 C  
HETATM    6  O   UNL     1      -9.042  11.166  64.498  1.00  0.00    -0.329 OA 
HETATM    7  H   UNL     1      -9.188  11.637  65.310  1.00  0.00     0.000 HD 
BRANCH   5   8
HETATM    8  C   UNL     1      -8.555   9.278  65.838  1.00  0.00    -0.163 C  
HETATM    9  C   UNL     1      -9.846   9.110  66.172  1.00  0.00    -0.363 C  
BRANCH   9  10
HETATM   10  C   UNL     1     -10.302   8.293  67.307  1.00  0.00    -0.372 A  
HETATM   11  C   UNL     1     -10.393   8.885  68.576  1.00  0.00    -0.229 A  
HETATM   12  C   UNL     1     -10.801   8.101  69.636  1.00  0.00    -0.158 A  
HETATM   13  C   UNL     1     -11.103   6.769  69.480  1.00  0.00    -0.273 A  
HETATM   14  C   UNL     1     -11.007   6.145  68.257  1.00  0.00    -0.397 A  
HETATM   15  O   UNL     1     -11.483   6.181  70.644  1.00  0.00    -0.338 OA 
HETATM   16  C   UNL     1     -10.593   6.917  67.165  1.00  0.00    -0.408 A  
HETATM   17  C   UNL     1     -11.385   7.296  71.554  1.00  0.00    -0.251 C  
HETATM   18  O   UNL     1     -10.950   8.517  70.922  1.00  0.00    -0.237 OA 
ENDBRANCH   9  10
ENDBRANCH   5   8
ENDBRANCH   2   5
TORSDOF 3
ENDMDL
MODEL      128
REMARK 921   NORMALIZED FREE ENERGY PREDICTED BY IDOCK:   -3.65 KCAL/MOL
REMARK 922        TOTAL FREE ENERGY PREDICTED BY IDOCK:   -4.68 KCAL/MOL
REMARK 923 INTER-LIGAND FREE ENERGY PREDICTED BY IDOCK:   -4.56 KCAL/MOL
REMARK 924 INTRA-LIGAND FREE ENERGY PREDICTED BY IDOCK:   -0.12 KCAL/MOL
REMARK 927      BINDING AFFINITY PREDICTED BY RF-SCORE:    0.00 PKD
ROOT
HETATM    1  C   UNL     1      -9.083   8.206  68.846  1.00  0.00    -0.147 C  
HETATM    2  C   UNL     1      -8.709   7.346  67.619  1.00  0.00    -0.125 C  
HETATM    3  C   UNL     1      -8.780   5.862  68.028  1.00  0.00    -0.111 C  
HETATM    4  C   UNL     1      -7.256   7.687  67.232  1.00  0.00    -0.090 C  
ENDROOT
BRANCH   2   5
HETATM    5  C   UNL     1      -9.716   7.639  66.461  1.00  0.00    -0.181 C  
HETATM    6  O   UNL     1     -10.897   6.854  66.617  1.00  0.00    -0.523 OA 
HETATM    7  H   UNL     1     -11.510   7.031  65.913  1.00  0.00     0.000 HD 
BRANCH   5   8
HETATM    8  C   UNL     1     -10.143   9.079  66.343  1.00  0.00    -0.351 C  
HETATM    9  C   UNL     1      -9.308  10.096  66.069  1.00  0.00    -0.216 C  
BRANCH   9  10
HETATM   10  C   UNL     1      -9.727  11.502  65.974  1.00  0.00    -0.253 A  
HETATM   11  C   UNL     1     -10.692  11.860  65.021  1.00  0.00    -0.341 A  
HETATM   12  C   UNL     1     -11.059  13.187  64.928  1.00  0.00    -0.314 A  
HETATM   13  C   UNL     1     -10.500  14.154  65.729  1.00  0.00    -0.311 A  
HETATM   14  C   UNL     1      -9.536  13.848  66.663  1.00  0.00    -0.296 A  
HETATM   15  O   UNL     1     -11.000  15.392  65.479  1.00  0.00    -0.336 OA 
HETATM   16  C   UNL     1      -9.142  12.510  66.776  1.00  0.00    -0.214 A  
HETATM   17  C   UNL     1     -11.940  15.096  64.426  1.00  0.00    -0.310 C  
HETATM   18  O   UNL     1     -11.981  13.699  64.068  1.00  0.00    -0.437 OA 
ENDBRANCH   9  10
ENDBRANCH   5   8
ENDBRANCH   2   5
TORSDOF 3
ENDMDL
MODEL      129
REMARK 921   NORMALIZED FREE ENERGY PREDICTED BY IDOCK:   -3.57 KCAL/MOL
REMARK 922        TOTAL FREE ENERGY PREDICTED BY IDOCK:   -4.58 KCAL/MOL
REMARK 923 INTER-LIGAND FREE ENERGY PREDICTED BY IDOCK:   -4.24 KCAL/MOL
REMARK 924 INTRA-LIGAND FREE ENERGY PREDICTED BY IDOCK:   -0.34 KCAL/MOL
REMARK 927      BINDING AFFINITY PREDICTED BY RF-SCORE:    0.00 PKD
ROOT
HETATM    1  C   UNL     1      -8.379   8.322  62.830  1.00  0.00    -0.111 C  
HETATM    2  C   UNL     1      -8.542   9.656  63.589  1.00  0.00    -0.216 C  
HETATM    3  C   UNL     1      -9.316  10.636  62.685  1.00  0.00    -0.332 C  
HETATM    4  C   UNL     1      -7.133  10.225  63.849  1.00  0.00    -0.055 C  
ENDROOT
BRANCH   2   5
HETATM    5  C   UNL     1      -9.333   9.400  64.912  1.00  0.00    -0.150 C  
HETATM    6  O   UNL     1      -8.475   8.842  65.905  1.00  0.00    -0.127 OA 
HETATM    7  H   UNL     1      -8.955   8.685  66.710  1.00  0.00     0.000 HD 
BRANCH   5   8
HETATM    8  C   UNL     1      -9.980  10.622  65.509  1.00  0.00    -0.333 C  
HETATM    9  C   UNL     1      -9.332  11.534  66.254  1.00  0.00    -0.227 C  
BRANCH   9  10
HETATM   10  C   UNL     1      -9.973  12.716  66.851  1.00  0.00    -0.232 A  
HETATM   11  C   UNL     1     -10.595  12.591  68.102  1.00  0.00    -0.239 A  
HETATM   12  C   UNL     1     -11.213  13.702  68.639  1.00  0.00    -0.277 A  
HETATM   13  C   UNL     1     -11.243  14.907  67.979  1.00  0.00    -0.308 A  
HETATM   14  C   UNL     1     -10.662  15.066  66.741  1.00  0.00    -0.308 A  
HETATM   15  O   UNL     1     -11.898  15.870  68.679  1.00  0.00    -0.388 OA 
HETATM   16  C   UNL     1     -10.031  13.955  66.172  1.00  0.00    -0.322 A  
HETATM   17  C   UNL     1     -12.279  15.132  69.859  1.00  0.00    -0.314 C  
HETATM   18  O   UNL     1     -11.851  13.755  69.840  1.00  0.00    -0.297 OA 
ENDBRANCH   9  10
ENDBRANCH   5   8
ENDBRANCH   2   5
TORSDOF 3
ENDMDL
MODEL      130
REMARK 921   NORMALIZED FREE ENERGY PREDICTED BY IDOCK:   -3.57 KCAL/MOL
REMARK 922        TOTAL FREE ENERGY PREDICTED BY IDOCK:   -4.58 KCAL/MOL
REMARK 923 INTER-LIGAND FREE ENERGY PREDICTED BY IDOCK:   -4.20 KCAL/MOL
REMARK 924 INTRA-LIGAND FREE ENERGY PREDICTED BY IDOCK:   -0.38 KCAL/MOL
REMARK 927      BINDING AFFINITY PREDICTED BY RF-SCORE:    0.00 PKD
ROOT
HETATM    1  C   UNL     1      -9.928   4.741  67.916  1.00  0.00    -0.161 C  
HETATM    2  C   UNL     1      -9.852   5.150  69.403  1.00  0.00    -0.269 C  
HETATM    3  C   UNL     1      -8.528   5.905  69.630  1.00  0.00    -0.117 C  
HETATM    4  C   UNL     1      -9.839   3.857  70.244  1.00  0.00    -0.168 C  
ENDROOT
BRANCH   2   5
HETATM    5  C   UNL     1     -11.067   6.069  69.745  1.00  0.00    -0.406 C  
HETATM    6  O   UNL     1     -11.168   6.259  71.155  1.00  0.00    -0.284 OA 
HETATM    7  H   UNL     1     -11.907   6.818  71.364  1.00  0.00     0.000 HD 
BRANCH   5   8
HETATM    8  C   UNL     1     -11.027   7.434  69.107  1.00  0.00    -0.057 C  
HETATM    9  C   UNL     1     -11.114   8.590  69.788  1.00  0.00    -0.067 C  
BRANCH   9  10
HETATM   10  C   UNL     1     -11.094   9.919  69.157  1.00  0.00    -0.197 A  
HETATM   11  C   UNL     1     -11.427  11.041  69.930  1.00  0.00    -0.400 A  
HETATM   12  C   UNL     1     -11.425  12.279  69.319  1.00  0.00    -0.292 A  
HETATM   13  C   UNL     1     -11.122  12.432  67.987  1.00  0.00    -0.245 A  
HETATM   14  C   UNL     1     -10.810  11.354  67.190  1.00  0.00    -0.316 A  
HETATM   15  O   UNL     1     -11.177  13.729  67.585  1.00  0.00    -0.275 OA 
HETATM   16  C   UNL     1     -10.806  10.087  67.783  1.00  0.00    -0.337 A  
HETATM   17  C   UNL     1     -11.552  14.377  68.818  1.00  0.00    -0.315 C  
HETATM   18  O   UNL     1     -11.715  13.464  69.922  1.00  0.00    -0.297 OA 
ENDBRANCH   9  10
ENDBRANCH   5   8
ENDBRANCH   2   5
TORSDOF 3
ENDMDL
MODEL      131
REMARK 921   NORMALIZED FREE ENERGY PREDICTED BY IDOCK:   -3.57 KCAL/MOL
REMARK 922        TOTAL FREE ENERGY PREDICTED BY IDOCK:   -4.58 KCAL/MOL
REMARK 923 INTER-LIGAND FREE ENERGY PREDICTED BY IDOCK:   -4.31 KCAL/MOL
REMARK 924 INTRA-LIGAND FREE ENERGY PREDICTED BY IDOCK:   -0.27 KCAL/MOL
REMARK 927      BINDING AFFINITY PREDICTED BY RF-SCORE:    0.00 PKD
ROOT
HETATM    1  C   UNL     1      -7.037  10.609  69.465  1.00  0.00    -0.127 C  
HETATM    2  C   UNL     1      -7.727   9.230  69.395  1.00  0.00    -0.082 C  
HETATM    3  C   UNL     1      -9.145   9.369  69.981  1.00  0.00    -0.244 C  
HETATM    4  C   UNL     1      -6.918   8.255  70.274  1.00  0.00    -0.036 C  
ENDROOT
BRANCH   2   5
HETATM    5  C   UNL     1      -7.799   8.767  67.904  1.00  0.00    -0.102 C  
HETATM    6  O   UNL     1      -8.519   7.541  67.797  1.00  0.00    -0.118 OA 
HETATM    7  H   UNL     1      -8.563   7.259  66.891  1.00  0.00     0.000 HD 
BRANCH   5   8
HETATM    8  C   UNL     1      -8.443   9.754  66.966  1.00  0.00    -0.117 C  
HETATM    9  C   UNL     1      -9.760   9.793  66.697  1.00  0.00    -0.257 C  
BRANCH   9  10
HETATM   10  C   UNL     1     -10.380  10.747  65.765  1.00  0.00    -0.295 A  
HETATM   11  C   UNL     1     -11.184  11.774  66.281  1.00  0.00    -0.370 A  
HETATM   12  C   UNL     1     -11.778  12.648  65.392  1.00  0.00    -0.387 A  
HETATM   13  C   UNL     1     -11.613  12.527  64.033  1.00  0.00    -0.413 A  
HETATM   14  C   UNL     1     -10.849  11.522  63.486  1.00  0.00    -0.473 A  
HETATM   15  O   UNL     1     -12.280  13.487  63.340  1.00  0.00    -0.641 OA 
HETATM   16  C   UNL     1     -10.237  10.620  64.364  1.00  0.00    -0.400 A  
HETATM   17  C   UNL     1     -12.887  14.227  64.418  1.00  0.00     0.225 C  
HETATM   18  O   UNL     1     -12.577  13.699  65.724  1.00  0.00    -0.476 OA 
ENDBRANCH   9  10
ENDBRANCH   5   8
ENDBRANCH   2   5
TORSDOF 3
ENDMDL
MODEL      132
REMARK 921   NORMALIZED FREE ENERGY PREDICTED BY IDOCK:   -3.56 KCAL/MOL
REMARK 922        TOTAL FREE ENERGY PREDICTED BY IDOCK:   -4.57 KCAL/MOL
REMARK 923 INTER-LIGAND FREE ENERGY PREDICTED BY IDOCK:   -4.18 KCAL/MOL
REMARK 924 INTRA-LIGAND FREE ENERGY PREDICTED BY IDOCK:   -0.38 KCAL/MOL
REMARK 927      BINDING AFFINITY PREDICTED BY RF-SCORE:    0.00 PKD
ROOT
HETATM    1  C   UNL     1     -11.818  12.600  67.929  1.00  0.00    -0.388 C  
HETATM    2  C   UNL     1     -11.152  12.938  66.577  1.00  0.00    -0.318 C  
HETATM    3  C   UNL     1     -10.466  14.311  66.707  1.00  0.00    -0.273 C  
HETATM    4  C   UNL     1     -12.267  13.036  65.516  1.00  0.00    -0.521 C  
ENDROOT
BRANCH   2   5
HETATM    5  C   UNL     1     -10.100  11.836  66.234  1.00  0.00    -0.217 C  
HETATM    6  O   UNL     1      -8.807  12.415  66.069  1.00  0.00    -0.417 OA 
HETATM    7  H   UNL     1      -8.167  11.745  65.860  1.00  0.00     0.000 HD 
BRANCH   5   8
HETATM    8  C   UNL     1      -9.977  10.738  67.258  1.00  0.00    -0.219 C  
HETATM    9  C   UNL     1     -10.326   9.458  67.041  1.00  0.00    -0.322 C  
BRANCH   9  10
HETATM   10  C   UNL     1     -10.221   8.394  68.052  1.00  0.00    -0.263 A  
HETATM   11  C   UNL     1     -11.114   8.397  69.134  1.00  0.00     0.188 A  
HETATM   12  C   UNL     1     -10.989   7.405  70.087  1.00  0.00    -0.255 A  
HETATM   13  C   UNL     1     -10.016   6.437  70.005  1.00  0.00    -0.169 A  
HETATM   14  C   UNL     1      -9.109   6.411  68.970  1.00  0.00    -0.130 A  
HETATM   15  O   UNL     1     -10.067   5.558  71.040  1.00  0.00    -0.190 OA 
HETATM   16  C   UNL     1      -9.211   7.406  67.992  1.00  0.00    -0.132 A  
HETATM   17  C   UNL     1     -11.185   6.084  71.785  1.00  0.00    -0.275 C  
HETATM   18  O   UNL     1     -11.773   7.258  71.189  1.00  0.00    -0.280 OA 
ENDBRANCH   9  10
ENDBRANCH   5   8
ENDBRANCH   2   5
TORSDOF 3
ENDMDL
MODEL      133
REMARK 921   NORMALIZED FREE ENERGY PREDICTED BY IDOCK:   -3.56 KCAL/MOL
REMARK 922        TOTAL FREE ENERGY PREDICTED BY IDOCK:   -4.56 KCAL/MOL
REMARK 923 INTER-LIGAND FREE ENERGY PREDICTED BY IDOCK:   -4.19 KCAL/MOL
REMARK 924 INTRA-LIGAND FREE ENERGY PREDICTED BY IDOCK:   -0.37 KCAL/MOL
REMARK 927      BINDING AFFINITY PREDICTED BY RF-SCORE:    0.00 PKD
ROOT
HETATM    1  C   UNL     1      -8.238   5.875  69.148  1.00  0.00    -0.106 C  
HETATM    2  C   UNL     1      -9.230   5.334  70.201  1.00  0.00    -0.181 C  
HETATM    3  C   UNL     1      -8.509   5.282  71.562  1.00  0.00    -0.122 C  
HETATM    4  C   UNL     1      -9.618   3.900  69.788  1.00  0.00    -0.271 C  
ENDROOT
BRANCH   2   5
HETATM    5  C   UNL     1     -10.466   6.285  70.278  1.00  0.00    -0.221 C  
HETATM    6  O   UNL     1     -10.432   7.051  71.480  1.00  0.00    -0.204 OA 
HETATM    7  H   UNL     1     -11.184   7.630  71.527  1.00  0.00     0.000 HD 
BRANCH   5   8
HETATM    8  C   UNL     1     -10.593   7.252  69.129  1.00  0.00    -0.219 C  
HETATM    9  C   UNL     1     -10.510   8.588  69.252  1.00  0.00    -0.224 C  
BRANCH   9  10
HETATM   10  C   UNL     1     -10.654   9.528  68.130  1.00  0.00    -0.265 A  
HETATM   11  C   UNL     1     -10.145   9.166  66.873  1.00  0.00    -0.328 A  
HETATM   12  C   UNL     1     -10.267  10.068  65.835  1.00  0.00    -0.205 A  
HETATM   13  C   UNL     1     -10.856  11.298  66.006  1.00  0.00    -0.213 A  
HETATM   14  C   UNL     1     -11.350  11.699  67.227  1.00  0.00    -0.372 A  
HETATM   15  O   UNL     1     -10.876  12.030  64.861  1.00  0.00    -0.282 OA 
HETATM   16  C   UNL     1     -11.237  10.805  68.298  1.00  0.00    -0.358 A  
HETATM   17  C   UNL     1     -10.231  11.119  63.948  1.00  0.00    -0.362 C  
HETATM   18  O   UNL     1      -9.838   9.873  64.559  1.00  0.00    -0.261 OA 
ENDBRANCH   9  10
ENDBRANCH   5   8
ENDBRANCH   2   5
TORSDOF 3
ENDMDL
MODEL      134
REMARK 921   NORMALIZED FREE ENERGY PREDICTED BY IDOCK:   -3.54 KCAL/MOL
REMARK 922        TOTAL FREE ENERGY PREDICTED BY IDOCK:   -4.54 KCAL/MOL
REMARK 923 INTER-LIGAND FREE ENERGY PREDICTED BY IDOCK:   -4.19 KCAL/MOL
REMARK 924 INTRA-LIGAND FREE ENERGY PREDICTED BY IDOCK:   -0.35 KCAL/MOL
REMARK 927      BINDING AFFINITY PREDICTED BY RF-SCORE:    0.00 PKD
ROOT
HETATM    1  C   UNL     1     -10.212  14.772  69.893  1.00  0.00     0.078 C  
HETATM    2  C   UNL     1     -11.592  15.168  69.324  1.00  0.00    -0.344 C  
HETATM    3  C   UNL     1     -11.397  16.365  68.374  1.00  0.00    -0.268 C  
HETATM    4  C   UNL     1     -12.477  15.610  70.507  1.00  0.00    -0.440 C  
ENDROOT
BRANCH   2   5
HETATM    5  C   UNL     1     -12.196  13.953  68.551  1.00  0.00    -0.166 C  
HETATM    6  O   UNL     1     -12.409  14.290  67.181  1.00  0.00    -0.590 OA 
HETATM    7  H   UNL     1     -12.777  13.552  66.710  1.00  0.00     0.000 HD 
BRANCH   5   8
HETATM    8  C   UNL     1     -11.357  12.702  68.583  1.00  0.00    -0.331 C  
HETATM    9  C   UNL     1     -11.747  11.517  68.081  1.00  0.00    -0.357 C  
BRANCH   9  10
HETATM   10  C   UNL     1     -10.931  10.294  68.133  1.00  0.00    -0.328 A  
HETATM   11  C   UNL     1     -10.235   9.992  69.313  1.00  0.00    -0.229 A  
HETATM   12  C   UNL     1      -9.456   8.853  69.339  1.00  0.00    -0.161 A  
HETATM   13  C   UNL     1      -9.339   8.027  68.246  1.00  0.00    -0.140 A  
HETATM   14  C   UNL     1      -9.989   8.298  67.064  1.00  0.00    -0.325 A  
HETATM   15  O   UNL     1      -8.527   6.963  68.482  1.00  0.00    -0.123 OA 
HETATM   16  C   UNL     1     -10.784   9.449  67.008  1.00  0.00    -0.207 A  
HETATM   17  C   UNL     1      -8.145   7.213  69.850  1.00  0.00    -0.125 C  
HETATM   18  O   UNL     1      -8.727   8.413  70.400  1.00  0.00    -0.133 OA 
ENDBRANCH   9  10
ENDBRANCH   5   8
ENDBRANCH   2   5
TORSDOF 3
ENDMDL
MODEL      135
REMARK 921   NORMALIZED FREE ENERGY PREDICTED BY IDOCK:   -3.53 KCAL/MOL
REMARK 922        TOTAL FREE ENERGY PREDICTED BY IDOCK:   -4.53 KCAL/MOL
REMARK 923 INTER-LIGAND FREE ENERGY PREDICTED BY IDOCK:   -4.12 KCAL/MOL
REMARK 924 INTRA-LIGAND FREE ENERGY PREDICTED BY IDOCK:   -0.41 KCAL/MOL
REMARK 927      BINDING AFFINITY PREDICTED BY RF-SCORE:    0.00 PKD
ROOT
HETATM    1  C   UNL     1      -7.709  10.624  69.235  1.00  0.00    -0.142 C  
HETATM    2  C   UNL     1      -8.058  11.158  67.829  1.00  0.00    -0.117 C  
HETATM    3  C   UNL     1      -8.240   9.953  66.886  1.00  0.00    -0.120 C  
HETATM    4  C   UNL     1      -6.863  12.000  67.338  1.00  0.00    -0.142 C  
ENDROOT
BRANCH   2   5
HETATM    5  C   UNL     1      -9.378  11.989  67.909  1.00  0.00    -0.190 C  
HETATM    6  O   UNL     1     -10.034  11.764  69.155  1.00  0.00    -0.412 OA 
HETATM    7  H   UNL     1     -10.837  12.270  69.204  1.00  0.00     0.000 HD 
BRANCH   5   8
HETATM    8  C   UNL     1      -9.198  13.477  67.755  1.00  0.00    -0.213 C  
HETATM    9  C   UNL     1      -9.505  14.379  68.704  1.00  0.00    -0.193 C  
BRANCH   9  10
HETATM   10  C   UNL     1      -9.346  15.832  68.540  1.00  0.00    -0.198 A  
HETATM   11  C   UNL     1      -8.063  16.390  68.646  1.00  0.00    -0.218 A  
HETATM   12  C   UNL     1      -7.933  17.757  68.512  1.00  0.00    -0.294 A  
HETATM   13  C   UNL     1      -9.017  18.574  68.294  1.00  0.00    -0.310 A  
HETATM   14  C   UNL     1     -10.294  18.068  68.204  1.00  0.00    -0.398 A  
HETATM   15  O   UNL     1      -8.671  19.884  68.192  1.00  0.00    -0.308 OA 
HETATM   16  C   UNL     1     -10.456  16.685  68.339  1.00  0.00    -0.323 A  
HETATM   17  C   UNL     1      -7.242  19.801  68.372  1.00  0.00    -0.317 C  
HETATM   18  O   UNL     1      -6.766  18.455  68.579  1.00  0.00    -0.228 OA 
ENDBRANCH   9  10
ENDBRANCH   5   8
ENDBRANCH   2   5
TORSDOF 3
ENDMDL
MODEL      136
REMARK 921   NORMALIZED FREE ENERGY PREDICTED BY IDOCK:   -3.52 KCAL/MOL
REMARK 922        TOTAL FREE ENERGY PREDICTED BY IDOCK:   -4.52 KCAL/MOL
REMARK 923 INTER-LIGAND FREE ENERGY PREDICTED BY IDOCK:   -4.13 KCAL/MOL
REMARK 924 INTRA-LIGAND FREE ENERGY PREDICTED BY IDOCK:   -0.39 KCAL/MOL
REMARK 927      BINDING AFFINITY PREDICTED BY RF-SCORE:    0.00 PKD
ROOT
HETATM    1  C   UNL     1      -8.334   5.671  70.166  1.00  0.00    -0.118 C  
HETATM    2  C   UNL     1      -9.611   4.804  70.160  1.00  0.00    -0.265 C  
HETATM    3  C   UNL     1      -9.552   3.849  71.368  1.00  0.00    -0.237 C  
HETATM    4  C   UNL     1      -9.606   3.969  68.864  1.00  0.00    -0.213 C  
ENDROOT
BRANCH   2   5
HETATM    5  C   UNL     1     -10.863   5.733  70.264  1.00  0.00    -0.303 C  
HETATM    6  O   UNL     1     -11.254   5.893  71.626  1.00  0.00    -0.272 OA 
HETATM    7  H   UNL     1     -12.015   6.458  71.690  1.00  0.00     0.000 HD 
BRANCH   5   8
HETATM    8  C   UNL     1     -10.678   7.111  69.682  1.00  0.00    -0.256 C  
HETATM    9  C   UNL     1     -10.958   8.252  70.335  1.00  0.00    -0.244 C  
BRANCH   9  10
HETATM   10  C   UNL     1     -10.793   9.593  69.755  1.00  0.00    -0.274 A  
HETATM   11  C   UNL     1      -9.655   9.862  68.980  1.00  0.00    -0.188 A  
HETATM   12  C   UNL     1      -9.503  11.132  68.461  1.00  0.00    -0.193 A  
HETATM   13  C   UNL     1     -10.422  12.127  68.694  1.00  0.00    -0.216 A  
HETATM   14  C   UNL     1     -11.542  11.910  69.465  1.00  0.00    -0.394 A  
HETATM   15  O   UNL     1     -10.086  13.299  68.093  1.00  0.00    -0.228 OA 
HETATM   16  C   UNL     1     -11.720  10.632  70.006  1.00  0.00    -0.405 A  
HETATM   17  C   UNL     1      -8.847  12.928  67.454  1.00  0.00    -0.199 C  
HETATM   18  O   UNL     1      -8.468  11.556  67.686  1.00  0.00    -0.128 OA 
ENDBRANCH   9  10
ENDBRANCH   5   8
ENDBRANCH   2   5
TORSDOF 3
ENDMDL
MODEL      137
REMARK 921   NORMALIZED FREE ENERGY PREDICTED BY IDOCK:   -3.51 KCAL/MOL
REMARK 922        TOTAL FREE ENERGY PREDICTED BY IDOCK:   -4.51 KCAL/MOL
REMARK 923 INTER-LIGAND FREE ENERGY PREDICTED BY IDOCK:   -4.15 KCAL/MOL
REMARK 924 INTRA-LIGAND FREE ENERGY PREDICTED BY IDOCK:   -0.36 KCAL/MOL
REMARK 927      BINDING AFFINITY PREDICTED BY RF-SCORE:    0.00 PKD
ROOT
HETATM    1  C   UNL     1     -12.569   9.789  71.696  1.00  0.00    -0.509 C  
HETATM    2  C   UNL     1     -11.517   8.721  71.328  1.00  0.00    -0.355 C  
HETATM    3  C   UNL     1     -12.253   7.403  71.021  1.00  0.00    -0.315 C  
HETATM    4  C   UNL     1     -10.611   8.511  72.559  1.00  0.00    -0.308 C  
ENDROOT
BRANCH   2   5
HETATM    5  C   UNL     1     -10.716   9.200  70.076  1.00  0.00    -0.232 C  
HETATM    6  O   UNL     1      -9.548   9.916  70.474  1.00  0.00    -0.357 OA 
HETATM    7  H   UNL     1      -9.061  10.207  69.712  1.00  0.00     0.000 HD 
BRANCH   5   8
HETATM    8  C   UNL     1     -10.275   8.098  69.147  1.00  0.00    -0.219 C  
HETATM    9  C   UNL     1     -10.372   8.153  67.808  1.00  0.00    -0.295 C  
BRANCH   9  10
HETATM   10  C   UNL     1      -9.958   7.066  66.907  1.00  0.00    -0.283 A  
HETATM   11  C   UNL     1      -8.897   7.289  66.017  1.00  0.00    -0.161 A  
HETATM   12  C   UNL     1      -8.535   6.267  65.163  1.00  0.00    -0.084 A  
HETATM   13  C   UNL     1      -9.189   5.059  65.157  1.00  0.00    -0.093 A  
HETATM   14  C   UNL     1     -10.248   4.807  65.999  1.00  0.00    -0.308 A  
HETATM   15  O   UNL     1      -8.676   4.193  64.244  1.00  0.00    -0.116 OA 
HETATM   16  C   UNL     1     -10.638   5.827  66.875  1.00  0.00    -0.377 A  
HETATM   17  C   UNL     1      -7.622   4.995  63.673  1.00  0.00    -0.067 C  
HETATM   18  O   UNL     1      -7.528   6.315  64.249  1.00  0.00    -0.072 OA 
ENDBRANCH   9  10
ENDBRANCH   5   8
ENDBRANCH   2   5
TORSDOF 3
ENDMDL
MODEL      138
REMARK 921   NORMALIZED FREE ENERGY PREDICTED BY IDOCK:   -3.49 KCAL/MOL
REMARK 922        TOTAL FREE ENERGY PREDICTED BY IDOCK:   -4.49 KCAL/MOL
REMARK 923 INTER-LIGAND FREE ENERGY PREDICTED BY IDOCK:   -4.12 KCAL/MOL
REMARK 924 INTRA-LIGAND FREE ENERGY PREDICTED BY IDOCK:   -0.36 KCAL/MOL
REMARK 927      BINDING AFFINITY PREDICTED BY RF-SCORE:    0.00 PKD
ROOT
HETATM    1  C   UNL     1     -11.801  14.726  68.676  1.00  0.00    -0.334 C  
HETATM    2  C   UNL     1     -10.917  14.430  67.445  1.00  0.00    -0.303 C  
HETATM    3  C   UNL     1      -9.565  13.883  67.942  1.00  0.00    -0.227 C  
HETATM    4  C   UNL     1     -10.676  15.763  66.709  1.00  0.00    -0.293 C  
ENDROOT
BRANCH   2   5
HETATM    5  C   UNL     1     -11.631  13.374  66.543  1.00  0.00    -0.357 C  
HETATM    6  O   UNL     1     -11.746  13.856  65.205  1.00  0.00    -0.319 OA 
HETATM    7  H   UNL     1     -12.181  13.214  64.656  1.00  0.00     0.000 HD 
BRANCH   5   8
HETATM    8  C   UNL     1     -10.951  12.030  66.482  1.00  0.00    -0.337 C  
HETATM    9  C   UNL     1     -10.349  11.537  65.386  1.00  0.00    -0.322 C  
BRANCH   9  10
HETATM   10  C   UNL     1      -9.703  10.217  65.327  1.00  0.00    -0.365 A  
HETATM   11  C   UNL     1      -9.732   9.396  66.464  1.00  0.00    -0.299 A  
HETATM   12  C   UNL     1      -9.103   8.169  66.401  1.00  0.00    -0.183 A  
HETATM   13  C   UNL     1      -8.447   7.746  65.269  1.00  0.00    -0.084 A  
HETATM   14  C   UNL     1      -8.378   8.529  64.139  1.00  0.00    -0.102 A  
HETATM   15  O   UNL     1      -7.898   6.512  65.416  1.00  0.00    -0.093 OA 
HETATM   16  C   UNL     1      -9.006   9.779  64.177  1.00  0.00    -0.276 A  
HETATM   17  C   UNL     1      -8.281   6.205  66.772  1.00  0.00    -0.109 C  
HETATM   18  O   UNL     1      -9.044   7.253  67.405  1.00  0.00    -0.121 OA 
ENDBRANCH   9  10
ENDBRANCH   5   8
ENDBRANCH   2   5
TORSDOF 3
ENDMDL
MODEL      139
REMARK 921   NORMALIZED FREE ENERGY PREDICTED BY IDOCK:   -3.49 KCAL/MOL
REMARK 922        TOTAL FREE ENERGY PREDICTED BY IDOCK:   -4.48 KCAL/MOL
REMARK 923 INTER-LIGAND FREE ENERGY PREDICTED BY IDOCK:   -4.13 KCAL/MOL
REMARK 924 INTRA-LIGAND FREE ENERGY PREDICTED BY IDOCK:   -0.35 KCAL/MOL
REMARK 927      BINDING AFFINITY PREDICTED BY RF-SCORE:    0.00 PKD
ROOT
HETATM    1  C   UNL     1      -8.003  10.763  65.723  1.00  0.00    -0.122 C  
HETATM    2  C   UNL     1      -9.528  10.993  65.673  1.00  0.00    -0.250 C  
HETATM    3  C   UNL     1      -9.852  11.815  64.410  1.00  0.00    -0.227 C  
HETATM    4  C   UNL     1      -9.921  11.815  66.917  1.00  0.00    -0.220 C  
ENDROOT
BRANCH   2   5
HETATM    5  C   UNL     1     -10.254   9.611  65.621  1.00  0.00    -0.034 C  
HETATM    6  O   UNL     1      -9.431   8.639  64.979  1.00  0.00    -0.373 OA 
HETATM    7  H   UNL     1      -9.872   7.798  64.947  1.00  0.00     0.000 HD 
BRANCH   5   8
HETATM    8  C   UNL     1     -10.649   9.052  66.964  1.00  0.00    -0.270 C  
HETATM    9  C   UNL     1      -9.807   8.412  67.793  1.00  0.00    -0.218 C  
BRANCH   9  10
HETATM   10  C   UNL     1     -10.203   7.852  69.095  1.00  0.00    -0.219 A  
HETATM   11  C   UNL     1      -9.763   8.484  70.267  1.00  0.00    -0.182 A  
HETATM   12  C   UNL     1     -10.123   7.934  71.481  1.00  0.00    -0.180 A  
HETATM   13  C   UNL     1     -10.882   6.791  71.565  1.00  0.00    -0.234 A  
HETATM   14  C   UNL     1     -11.317   6.130  70.439  1.00  0.00    -0.399 A  
HETATM   15  O   UNL     1     -11.125   6.420  72.849  1.00  0.00    -0.251 OA 
HETATM   16  C   UNL     1     -10.963   6.664  69.194  1.00  0.00    -0.338 A  
HETATM   17  C   UNL     1     -10.431   7.460  73.567  1.00  0.00    -0.345 C  
HETATM   18  O   UNL     1      -9.789   8.424  72.706  1.00  0.00    -0.274 OA 
ENDBRANCH   9  10
ENDBRANCH   5   8
ENDBRANCH   2   5
TORSDOF 3
ENDMDL
MODEL      140
REMARK 921   NORMALIZED FREE ENERGY PREDICTED BY IDOCK:   -3.45 KCAL/MOL
REMARK 922        TOTAL FREE ENERGY PREDICTED BY IDOCK:   -4.44 KCAL/MOL
REMARK 923 INTER-LIGAND FREE ENERGY PREDICTED BY IDOCK:   -4.08 KCAL/MOL
REMARK 924 INTRA-LIGAND FREE ENERGY PREDICTED BY IDOCK:   -0.37 KCAL/MOL
REMARK 927      BINDING AFFINITY PREDICTED BY RF-SCORE:    0.00 PKD
ROOT
HETATM    1  C   UNL     1      -9.174  17.009  68.623  1.00  0.00    -0.266 C  
HETATM    2  C   UNL     1      -9.676  17.198  67.175  1.00  0.00    -0.261 C  
HETATM    3  C   UNL     1      -8.475  17.038  66.223  1.00  0.00    -0.304 C  
HETATM    4  C   UNL     1     -10.222  18.635  67.051  1.00  0.00    -0.418 C  
ENDROOT
BRANCH   2   5
HETATM    5  C   UNL     1     -10.764  16.121  66.864  1.00  0.00    -0.247 C  
HETATM    6  O   UNL     1     -10.845  15.885  65.460  1.00  0.00    -0.345 OA 
HETATM    7  H   UNL     1     -11.506  15.230  65.270  1.00  0.00     0.000 HD 
BRANCH   5   8
HETATM    8  C   UNL     1     -10.544  14.789  67.534  1.00  0.00    -0.259 C  
HETATM    9  C   UNL     1     -10.750  13.601  66.940  1.00  0.00    -0.275 C  
BRANCH   9  10
HETATM   10  C   UNL     1     -10.552  12.304  67.606  1.00  0.00    -0.238 A  
HETATM   11  C   UNL     1      -9.278  11.979  68.094  1.00  0.00    -0.195 A  
HETATM   12  C   UNL     1      -9.103  10.749  68.696  1.00  0.00    -0.173 A  
HETATM   13  C   UNL     1     -10.131   9.845  68.815  1.00  0.00    -0.174 A  
HETATM   14  C   UNL     1     -11.391  10.117  68.332  1.00  0.00    -0.179 A  
HETATM   15  O   UNL     1      -9.749   8.699  69.438  1.00  0.00    -0.171 OA 
HETATM   16  C   UNL     1     -11.596  11.356  67.714  1.00  0.00    -0.325 A  
HETATM   17  C   UNL     1      -8.359   8.984  69.698  1.00  0.00    -0.125 C  
HETATM   18  O   UNL     1      -7.940  10.282  69.227  1.00  0.00    -0.123 OA 
ENDBRANCH   9  10
ENDBRANCH   5   8
ENDBRANCH   2   5
TORSDOF 3
ENDMDL
MODEL      141
REMARK 921   NORMALIZED FREE ENERGY PREDICTED BY IDOCK:   -3.45 KCAL/MOL
REMARK 922        TOTAL FREE ENERGY PREDICTED BY IDOCK:   -4.44 KCAL/MOL
REMARK 923 INTER-LIGAND FREE ENERGY PREDICTED BY IDOCK:   -4.03 KCAL/MOL
REMARK 924 INTRA-LIGAND FREE ENERGY PREDICTED BY IDOCK:   -0.41 KCAL/MOL
REMARK 927      BINDING AFFINITY PREDICTED BY RF-SCORE:    0.00 PKD
ROOT
HETATM    1  C   UNL     1      -9.465  14.472  68.639  1.00  0.00    -0.205 C  
HETATM    2  C   UNL     1      -8.876  14.046  67.277  1.00  0.00    -0.225 C  
HETATM    3  C   UNL     1      -7.388  13.699  67.481  1.00  0.00    -0.178 C  
HETATM    4  C   UNL     1      -8.979  15.252  66.322  1.00  0.00    -0.314 C  
ENDROOT
BRANCH   2   5
HETATM    5  C   UNL     1      -9.656  12.800  66.747  1.00  0.00    -0.244 C  
HETATM    6  O   UNL     1      -8.912  12.145  65.722  1.00  0.00    -0.425 OA 
HETATM    7  H   UNL     1      -9.385  11.387  65.399  1.00  0.00     0.000 HD 
BRANCH   5   8
HETATM    8  C   UNL     1      -9.987  11.769  67.794  1.00  0.00    -0.198 C  
HETATM    9  C   UNL     1      -9.455  10.535  67.836  1.00  0.00    -0.157 C  
BRANCH   9  10
HETATM   10  C   UNL     1      -9.798   9.526  68.850  1.00  0.00    -0.179 A  
HETATM   11  C   UNL     1      -9.353   9.710  70.168  1.00  0.00    -0.294 A  
HETATM   12  C   UNL     1      -9.662   8.743  71.103  1.00  0.00    -0.247 A  
HETATM   13  C   UNL     1     -10.375   7.615  70.774  1.00  0.00    -0.203 A  
HETATM   14  C   UNL     1     -10.813   7.387  69.489  1.00  0.00    -0.201 A  
HETATM   15  O   UNL     1     -10.573   6.794  71.838  1.00  0.00    -0.207 OA 
HETATM   16  C   UNL     1     -10.510   8.350  68.520  1.00  0.00    -0.201 A  
HETATM   17  C   UNL     1      -9.900   7.534  72.878  1.00  0.00    -0.219 C  
HETATM   18  O   UNL     1      -9.317   8.771  72.419  1.00  0.00    -0.331 OA 
ENDBRANCH   9  10
ENDBRANCH   5   8
ENDBRANCH   2   5
TORSDOF 3
ENDMDL
MODEL      142
REMARK 921   NORMALIZED FREE ENERGY PREDICTED BY IDOCK:   -3.45 KCAL/MOL
REMARK 922        TOTAL FREE ENERGY PREDICTED BY IDOCK:   -4.43 KCAL/MOL
REMARK 923 INTER-LIGAND FREE ENERGY PREDICTED BY IDOCK:   -4.09 KCAL/MOL
REMARK 924 INTRA-LIGAND FREE ENERGY PREDICTED BY IDOCK:   -0.34 KCAL/MOL
REMARK 927      BINDING AFFINITY PREDICTED BY RF-SCORE:    0.00 PKD
ROOT
HETATM    1  C   UNL     1     -10.490   7.062  73.280  1.00  0.00    -0.365 C  
HETATM    2  C   UNL     1     -10.778   7.556  71.846  1.00  0.00    -0.253 C  
HETATM    3  C   UNL     1      -9.431   7.843  71.154  1.00  0.00    -0.180 C  
HETATM    4  C   UNL     1     -11.575   8.872  71.953  1.00  0.00    -0.442 C  
ENDROOT
BRANCH   2   5
HETATM    5  C   UNL     1     -11.561   6.449  71.069  1.00  0.00    -0.325 C  
HETATM    6  O   UNL     1     -12.666   7.017  70.370  1.00  0.00    -0.595 OA 
HETATM    7  H   UNL     1     -13.143   6.345  69.898  1.00  0.00     0.000 HD 
BRANCH   5   8
HETATM    8  C   UNL     1     -10.740   5.678  70.068  1.00  0.00    -0.390 C  
HETATM    9  C   UNL     1     -10.903   5.757  68.736  1.00  0.00    -0.285 C  
BRANCH   9  10
HETATM   10  C   UNL     1     -10.112   4.987  67.764  1.00  0.00    -0.179 A  
HETATM   11  C   UNL     1      -9.056   4.189  68.230  1.00  0.00    -0.176 A  
HETATM   12  C   UNL     1      -8.308   3.490  67.304  1.00  0.00    -0.091 A  
HETATM   13  C   UNL     1      -8.563   3.567  65.955  1.00  0.00    -0.117 A  
HETATM   14  C   UNL     1      -9.576   4.353  65.457  1.00  0.00    -0.188 A  
HETATM   15  O   UNL     1      -7.714   2.803  65.219  1.00  0.00    -0.075 OA 
HETATM   16  C   UNL     1     -10.349   5.075  66.373  1.00  0.00    -0.335 A  
HETATM   17  C   UNL     1      -6.892   2.235  66.259  1.00  0.00    -0.043 C  
HETATM   18  O   UNL     1      -7.260   2.668  67.585  1.00  0.00    -0.051 OA 
ENDBRANCH   9  10
ENDBRANCH   5   8
ENDBRANCH   2   5
TORSDOF 3
ENDMDL
MODEL      143
REMARK 921   NORMALIZED FREE ENERGY PREDICTED BY IDOCK:   -3.43 KCAL/MOL
REMARK 922        TOTAL FREE ENERGY PREDICTED BY IDOCK:   -4.42 KCAL/MOL
REMARK 923 INTER-LIGAND FREE ENERGY PREDICTED BY IDOCK:   -4.08 KCAL/MOL
REMARK 924 INTRA-LIGAND FREE ENERGY PREDICTED BY IDOCK:   -0.34 KCAL/MOL
REMARK 927      BINDING AFFINITY PREDICTED BY RF-SCORE:    0.00 PKD
ROOT
HETATM    1  C   UNL     1     -10.298   9.511  68.646  1.00  0.00    -0.229 C  
HETATM    2  C   UNL     1      -9.061   9.149  67.795  1.00  0.00    -0.135 C  
HETATM    3  C   UNL     1      -9.063   7.625  67.564  1.00  0.00    -0.131 C  
HETATM    4  C   UNL     1      -7.806   9.529  68.607  1.00  0.00    -0.084 C  
ENDROOT
BRANCH   2   5
HETATM    5  C   UNL     1      -9.138   9.905  66.430  1.00  0.00    -0.150 C  
HETATM    6  O   UNL     1     -10.018   9.229  65.534  1.00  0.00    -0.440 OA 
HETATM    7  H   UNL     1     -10.065   9.689  64.704  1.00  0.00     0.000 HD 
BRANCH   5   8
HETATM    8  C   UNL     1      -9.600  11.336  66.525  1.00  0.00    -0.215 C  
HETATM    9  C   UNL     1      -8.793  12.375  66.802  1.00  0.00    -0.189 C  
BRANCH   9  10
HETATM   10  C   UNL     1      -9.254  13.767  66.913  1.00  0.00    -0.263 A  
HETATM   11  C   UNL     1      -9.740  14.414  65.766  1.00  0.00    -0.283 A  
HETATM   12  C   UNL     1     -10.148  15.728  65.880  1.00  0.00    -0.356 A  
HETATM   13  C   UNL     1     -10.077  16.410  67.072  1.00  0.00    -0.272 A  
HETATM   14  C   UNL     1      -9.588  15.819  68.214  1.00  0.00    -0.201 A  
HETATM   15  O   UNL     1     -10.528  17.688  66.968  1.00  0.00    -0.336 OA 
HETATM   16  C   UNL     1      -9.165  14.487  68.127  1.00  0.00    -0.195 A  
HETATM   17  C   UNL     1     -10.891  17.734  65.573  1.00  0.00     0.087 C  
HETATM   18  O   UNL     1     -10.649  16.495  64.875  1.00  0.00    -0.689 OA 
ENDBRANCH   9  10
ENDBRANCH   5   8
ENDBRANCH   2   5
TORSDOF 3
ENDMDL
MODEL      144
REMARK 921   NORMALIZED FREE ENERGY PREDICTED BY IDOCK:   -3.35 KCAL/MOL
REMARK 922        TOTAL FREE ENERGY PREDICTED BY IDOCK:   -4.33 KCAL/MOL
REMARK 923 INTER-LIGAND FREE ENERGY PREDICTED BY IDOCK:   -3.92 KCAL/MOL
REMARK 924 INTRA-LIGAND FREE ENERGY PREDICTED BY IDOCK:   -0.41 KCAL/MOL
REMARK 927      BINDING AFFINITY PREDICTED BY RF-SCORE:    0.00 PKD
ROOT
HETATM    1  C   UNL     1      -9.711  12.801  67.530  1.00  0.00    -0.201 C  
HETATM    2  C   UNL     1     -11.202  12.403  67.516  1.00  0.00    -0.348 C  
HETATM    3  C   UNL     1     -11.603  12.082  66.063  1.00  0.00    -0.371 C  
HETATM    4  C   UNL     1     -12.017  13.620  68.000  1.00  0.00    -0.385 C  
ENDROOT
BRANCH   2   5
HETATM    5  C   UNL     1     -11.408  11.150  68.426  1.00  0.00    -0.288 C  
HETATM    6  O   UNL     1     -12.711  11.164  69.006  1.00  0.00    -0.423 OA 
HETATM    7  H   UNL     1     -12.837  10.402  69.559  1.00  0.00     0.000 HD 
BRANCH   5   8
HETATM    8  C   UNL     1     -11.238   9.826  67.727  1.00  0.00    -0.006 C  
HETATM    9  C   UNL     1     -10.097   9.115  67.723  1.00  0.00    -0.253 C  
BRANCH   9  10
HETATM   10  C   UNL     1      -9.931   7.832  67.023  1.00  0.00    -0.314 A  
HETATM   11  C   UNL     1      -8.875   7.689  66.110  1.00  0.00    -0.192 A  
HETATM   12  C   UNL     1      -8.745   6.487  65.444  1.00  0.00    -0.008 A  
HETATM   13  C   UNL     1      -9.622   5.447  65.643  1.00  0.00     0.001 A  
HETATM   14  C   UNL     1     -10.683   5.554  66.514  1.00  0.00    -0.309 A  
HETATM   15  O   UNL     1      -9.317   4.357  64.892  1.00  0.00    -0.154 OA 
HETATM   16  C   UNL     1     -10.840   6.763  67.201  1.00  0.00    -0.462 A  
HETATM   17  C   UNL     1      -8.145   4.829  64.195  1.00  0.00    -0.111 C  
HETATM   18  O   UNL     1      -7.778   6.181  64.537  1.00  0.00    -0.091 OA 
ENDBRANCH   9  10
ENDBRANCH   5   8
ENDBRANCH   2   5
TORSDOF 3
ENDMDL
MODEL      145
REMARK 921   NORMALIZED FREE ENERGY PREDICTED BY IDOCK:   -3.35 KCAL/MOL
REMARK 922        TOTAL FREE ENERGY PREDICTED BY IDOCK:   -4.32 KCAL/MOL
REMARK 923 INTER-LIGAND FREE ENERGY PREDICTED BY IDOCK:   -4.76 KCAL/MOL
REMARK 924 INTRA-LIGAND FREE ENERGY PREDICTED BY IDOCK:    0.44 KCAL/MOL
REMARK 927      BINDING AFFINITY PREDICTED BY RF-SCORE:    0.00 PKD
ROOT
HETATM    1  C   UNL     1      -5.619  14.947  68.487  1.00  0.00    -0.100 C  
HETATM    2  C   UNL     1      -6.594  14.181  69.408  1.00  0.00    -0.121 C  
HETATM    3  C   UNL     1      -7.868  15.030  69.576  1.00  0.00    -0.149 C  
HETATM    4  C   UNL     1      -5.914  14.023  70.783  1.00  0.00    -0.188 C  
ENDROOT
BRANCH   2   5
HETATM    5  C   UNL     1      -6.941  12.805  68.755  1.00  0.00    -0.096 C  
HETATM    6  O   UNL     1      -7.231  11.835  69.760  1.00  0.00    -0.340 OA 
HETATM    7  H   UNL     1      -7.442  10.998  69.364  1.00  0.00     0.000 HD 
BRANCH   5   8
HETATM    8  C   UNL     1      -8.109  12.833  67.804  1.00  0.00    -0.168 C  
HETATM    9  C   UNL     1      -8.419  13.878  67.018  1.00  0.00    -0.153 C  
BRANCH   9  10
HETATM   10  C   UNL     1      -9.572  13.907  66.105  1.00  0.00    -0.249 A  
HETATM   11  C   UNL     1     -10.061  12.697  65.591  1.00  0.00    -0.285 A  
HETATM   12  C   UNL     1     -11.129  12.741  64.718  1.00  0.00    -0.302 A  
HETATM   13  C   UNL     1     -11.708  13.928  64.337  1.00  0.00    -0.404 A  
HETATM   14  C   UNL     1     -11.246  15.138  64.802  1.00  0.00    -0.396 A  
HETATM   15  O   UNL     1     -12.743  13.751  63.475  1.00  0.00    -0.774 OA 
HETATM   16  C   UNL     1     -10.162  15.123  65.687  1.00  0.00    -0.387 A  
HETATM   17  C   UNL     1     -12.750  12.314  63.354  1.00  0.00    -0.336 C  
HETATM   18  O   UNL     1     -11.727  11.665  64.137  1.00  0.00    -0.312 OA 
ENDBRANCH   9  10
ENDBRANCH   5   8
ENDBRANCH   2   5
TORSDOF 3
ENDMDL
MODEL      146
REMARK 921   NORMALIZED FREE ENERGY PREDICTED BY IDOCK:   -3.33 KCAL/MOL
REMARK 922        TOTAL FREE ENERGY PREDICTED BY IDOCK:   -4.30 KCAL/MOL
REMARK 923 INTER-LIGAND FREE ENERGY PREDICTED BY IDOCK:   -3.97 KCAL/MOL
REMARK 924 INTRA-LIGAND FREE ENERGY PREDICTED BY IDOCK:   -0.32 KCAL/MOL
REMARK 927      BINDING AFFINITY PREDICTED BY RF-SCORE:    0.00 PKD
ROOT
HETATM    1  C   UNL     1     -10.435   9.138  67.413  1.00  0.00    -0.339 C  
HETATM    2  C   UNL     1     -10.348  10.651  67.120  1.00  0.00    -0.275 C  
HETATM    3  C   UNL     1     -11.706  11.290  67.472  1.00  0.00    -0.166 C  
HETATM    4  C   UNL     1     -10.093  10.823  65.609  1.00  0.00    -0.327 C  
ENDROOT
BRANCH   2   5
HETATM    5  C   UNL     1      -9.212  11.278  67.990  1.00  0.00    -0.160 C  
HETATM    6  O   UNL     1      -7.945  10.738  67.621  1.00  0.00    -0.108 OA 
HETATM    7  H   UNL     1      -7.254  11.119  68.149  1.00  0.00     0.000 HD 
BRANCH   5   8
HETATM    8  C   UNL     1      -9.106  12.779  67.906  1.00  0.00    -0.204 C  
HETATM    9  C   UNL     1      -8.248  13.518  68.631  1.00  0.00    -0.040 C  
BRANCH   9  10
HETATM   10  C   UNL     1      -8.163  14.985  68.558  1.00  0.00    -0.151 A  
HETATM   11  C   UNL     1      -9.308  15.746  68.835  1.00  0.00    -0.228 A  
HETATM   12  C   UNL     1      -9.218  17.120  68.741  1.00  0.00    -0.249 A  
HETATM   13  C   UNL     1      -8.052  17.749  68.374  1.00  0.00    -0.297 A  
HETATM   14  C   UNL     1      -6.912  17.038  68.075  1.00  0.00    -0.170 A  
HETATM   15  O   UNL     1      -8.176  19.102  68.344  1.00  0.00    -0.321 OA 
HETATM   16  C   UNL     1      -6.976  15.643  68.160  1.00  0.00    -0.127 A  
HETATM   17  C   UNL     1      -9.557  19.255  68.732  1.00  0.00    -0.425 C  
HETATM   18  O   UNL     1     -10.226  18.002  68.983  1.00  0.00    -0.386 OA 
ENDBRANCH   9  10
ENDBRANCH   5   8
ENDBRANCH   2   5
TORSDOF 3
ENDMDL
MODEL      147
REMARK 921   NORMALIZED FREE ENERGY PREDICTED BY IDOCK:   -3.31 KCAL/MOL
REMARK 922        TOTAL FREE ENERGY PREDICTED BY IDOCK:   -4.28 KCAL/MOL
REMARK 923 INTER-LIGAND FREE ENERGY PREDICTED BY IDOCK:   -3.95 KCAL/MOL
REMARK 924 INTRA-LIGAND FREE ENERGY PREDICTED BY IDOCK:   -0.33 KCAL/MOL
REMARK 927      BINDING AFFINITY PREDICTED BY RF-SCORE:    0.00 PKD
ROOT
HETATM    1  C   UNL     1     -12.274  12.888  65.601  1.00  0.00    -0.519 C  
HETATM    2  C   UNL     1     -10.941  13.503  66.079  1.00  0.00    -0.281 C  
HETATM    3  C   UNL     1     -10.975  15.016  65.790  1.00  0.00    -0.351 C  
HETATM    4  C   UNL     1      -9.806  12.863  65.255  1.00  0.00    -0.111 C  
ENDROOT
BRANCH   2   5
HETATM    5  C   UNL     1     -10.779  13.247  67.612  1.00  0.00    -0.239 C  
HETATM    6  O   UNL     1     -11.914  13.739  68.322  1.00  0.00    -0.357 OA 
HETATM    7  H   UNL     1     -11.816  13.584  69.254  1.00  0.00     0.000 HD 
BRANCH   5   8
HETATM    8  C   UNL     1     -10.597  11.802  67.996  1.00  0.00    -0.235 C  
HETATM    9  C   UNL     1     -10.466  11.366  69.261  1.00  0.00    -0.104 C  
BRANCH   9  10
HETATM   10  C   UNL     1     -10.269   9.956  69.629  1.00  0.00    -0.261 A  
HETATM   11  C   UNL     1      -9.352   9.186  68.898  1.00  0.00    -0.146 A  
HETATM   12  C   UNL     1      -9.194   7.858  69.240  1.00  0.00    -0.148 A  
HETATM   13  C   UNL     1      -9.915   7.279  70.258  1.00  0.00    -0.187 A  
HETATM   14  C   UNL     1     -10.838   7.994  70.986  1.00  0.00    -0.259 A  
HETATM   15  O   UNL     1      -9.609   5.967  70.432  1.00  0.00    -0.162 OA 
HETATM   16  C   UNL     1     -11.020   9.343  70.659  1.00  0.00    -0.352 A  
HETATM   17  C   UNL     1      -8.612   5.783  69.406  1.00  0.00    -0.111 C  
HETATM   18  O   UNL     1      -8.346   6.978  68.642  1.00  0.00    -0.120 OA 
ENDBRANCH   9  10
ENDBRANCH   5   8
ENDBRANCH   2   5
TORSDOF 3
ENDMDL
MODEL      148
REMARK 921   NORMALIZED FREE ENERGY PREDICTED BY IDOCK:   -3.30 KCAL/MOL
REMARK 922        TOTAL FREE ENERGY PREDICTED BY IDOCK:   -4.26 KCAL/MOL
REMARK 923 INTER-LIGAND FREE ENERGY PREDICTED BY IDOCK:   -4.25 KCAL/MOL
REMARK 924 INTRA-LIGAND FREE ENERGY PREDICTED BY IDOCK:   -0.01 KCAL/MOL
REMARK 927      BINDING AFFINITY PREDICTED BY RF-SCORE:    0.00 PKD
ROOT
HETATM    1  C   UNL     1      -8.027  18.991  68.196  1.00  0.00    -0.334 C  
HETATM    2  C   UNL     1      -8.399  17.496  68.096  1.00  0.00    -0.249 C  
HETATM    3  C   UNL     1      -9.824  17.314  68.653  1.00  0.00    -0.313 C  
HETATM    4  C   UNL     1      -7.413  16.706  68.981  1.00  0.00    -0.232 C  
ENDROOT
BRANCH   2   5
HETATM    5  C   UNL     1      -8.341  17.052  66.599  1.00  0.00    -0.250 C  
HETATM    6  O   UNL     1      -7.074  17.378  66.031  1.00  0.00    -0.283 OA 
HETATM    7  H   UNL     1      -7.038  17.108  65.121  1.00  0.00     0.000 HD 
BRANCH   5   8
HETATM    8  C   UNL     1      -8.576  15.582  66.366  1.00  0.00    -0.292 C  
HETATM    9  C   UNL     1      -9.702  14.932  66.710  1.00  0.00    -0.263 C  
BRANCH   9  10
HETATM   10  C   UNL     1      -9.918  13.493  66.498  1.00  0.00    -0.287 A  
HETATM   11  C   UNL     1      -9.971  12.643  67.612  1.00  0.00    -0.216 A  
HETATM   12  C   UNL     1     -10.152  11.292  67.395  1.00  0.00    -0.188 A  
HETATM   13  C   UNL     1     -10.267  10.767  66.130  1.00  0.00    -0.250 A  
HETATM   14  C   UNL     1     -10.200  11.564  65.010  1.00  0.00    -0.328 A  
HETATM   15  O   UNL     1     -10.440   9.420  66.138  1.00  0.00    -0.162 OA 
HETATM   16  C   UNL     1     -10.015  12.938  65.200  1.00  0.00    -0.175 A  
HETATM   17  C   UNL     1     -10.420   9.153  67.555  1.00  0.00    -0.270 C  
HETATM   18  O   UNL     1     -10.234  10.336  68.360  1.00  0.00    -0.155 OA 
ENDBRANCH   9  10
ENDBRANCH   5   8
ENDBRANCH   2   5
TORSDOF 3
ENDMDL
MODEL      149
REMARK 921   NORMALIZED FREE ENERGY PREDICTED BY IDOCK:   -3.28 KCAL/MOL
REMARK 922        TOTAL FREE ENERGY PREDICTED BY IDOCK:   -4.24 KCAL/MOL
REMARK 923 INTER-LIGAND FREE ENERGY PREDICTED BY IDOCK:   -3.81 KCAL/MOL
REMARK 924 INTRA-LIGAND FREE ENERGY PREDICTED BY IDOCK:   -0.42 KCAL/MOL
REMARK 927      BINDING AFFINITY PREDICTED BY RF-SCORE:    0.00 PKD
ROOT
HETATM    1  C   UNL     1      -7.432  10.086  63.434  1.00  0.00    -0.139 C  
HETATM    2  C   UNL     1      -8.401   9.764  64.592  1.00  0.00    -0.165 C  
HETATM    3  C   UNL     1      -8.440   8.235  64.777  1.00  0.00    -0.089 C  
HETATM    4  C   UNL     1      -9.804  10.252  64.179  1.00  0.00    -0.319 C  
ENDROOT
BRANCH   2   5
HETATM    5  C   UNL     1      -7.890  10.456  65.896  1.00  0.00    -0.148 C  
HETATM    6  O   UNL     1      -8.423  11.775  66.002  1.00  0.00    -0.380 OA 
HETATM    7  H   UNL     1      -8.113  12.196  66.794  1.00  0.00     0.000 HD 
BRANCH   5   8
HETATM    8  C   UNL     1      -8.228   9.728  67.171  1.00  0.00    -0.121 C  
HETATM    9  C   UNL     1      -9.324   9.969  67.912  1.00  0.00    -0.151 C  
BRANCH   9  10
HETATM   10  C   UNL     1      -9.638   9.269  69.167  1.00  0.00    -0.161 A  
HETATM   11  C   UNL     1     -10.679   8.328  69.177  1.00  0.00    -0.117 A  
HETATM   12  C   UNL     1     -10.977   7.696  70.367  1.00  0.00    -0.247 A  
HETATM   13  C   UNL     1     -10.295   7.972  71.528  1.00  0.00    -0.209 A  
HETATM   14  C   UNL     1      -9.281   8.902  71.565  1.00  0.00    -0.322 A  
HETATM   15  O   UNL     1     -10.743   7.242  72.582  1.00  0.00    -0.236 OA 
HETATM   16  C   UNL     1      -8.959   9.561  70.373  1.00  0.00    -0.291 A  
HETATM   17  C   UNL     1     -11.788   6.473  71.953  1.00  0.00    -0.334 C  
HETATM   18  O   UNL     1     -11.946   6.757  70.548  1.00  0.00    -0.386 OA 
ENDBRANCH   9  10
ENDBRANCH   5   8
ENDBRANCH   2   5
TORSDOF 3
ENDMDL
MODEL      150
REMARK 921   NORMALIZED FREE ENERGY PREDICTED BY IDOCK:   -3.27 KCAL/MOL
REMARK 922        TOTAL FREE ENERGY PREDICTED BY IDOCK:   -4.23 KCAL/MOL
REMARK 923 INTER-LIGAND FREE ENERGY PREDICTED BY IDOCK:   -3.83 KCAL/MOL
REMARK 924 INTRA-LIGAND FREE ENERGY PREDICTED BY IDOCK:   -0.40 KCAL/MOL
REMARK 927      BINDING AFFINITY PREDICTED BY RF-SCORE:    0.00 PKD
ROOT
HETATM    1  C   UNL     1      -8.166   2.592  64.159  1.00  0.00    -0.082 C  
HETATM    2  C   UNL     1      -9.078   3.710  64.708  1.00  0.00    -0.134 C  
HETATM    3  C   UNL     1     -10.430   3.637  63.972  1.00  0.00    -0.271 C  
HETATM    4  C   UNL     1      -8.409   5.062  64.387  1.00  0.00    -0.136 C  
ENDROOT
BRANCH   2   5
HETATM    5  C   UNL     1      -9.283   3.498  66.243  1.00  0.00    -0.171 C  
HETATM    6  O   UNL     1      -8.194   2.761  66.794  1.00  0.00    -0.082 OA 
HETATM    7  H   UNL     1      -8.318   2.632  67.727  1.00  0.00     0.000 HD 
BRANCH   5   8
HETATM    8  C   UNL     1      -9.421   4.767  67.044  1.00  0.00    -0.164 C  
HETATM    9  C   UNL     1     -10.513   5.096  67.755  1.00  0.00    -0.112 C  
BRANCH   9  10
HETATM   10  C   UNL     1     -10.650   6.346  68.520  1.00  0.00    -0.302 A  
HETATM   11  C   UNL     1     -11.302   6.313  69.762  1.00  0.00    -0.506 A  
HETATM   12  C   UNL     1     -11.443   7.497  70.457  1.00  0.00    -0.237 A  
HETATM   13  C   UNL     1     -10.977   8.691  69.961  1.00  0.00    -0.203 A  
HETATM   14  C   UNL     1     -10.350   8.770  68.738  1.00  0.00    -0.234 A  
HETATM   15  O   UNL     1     -11.215   9.733  70.800  1.00  0.00    -0.293 OA 
HETATM   16  C   UNL     1     -10.196   7.584  68.010  1.00  0.00    -0.239 A  
HETATM   17  C   UNL     1     -11.887   9.058  71.884  1.00  0.00    -0.376 C  
HETATM   18  O   UNL     1     -12.038   7.639  71.672  1.00  0.00    -0.284 OA 
ENDBRANCH   9  10
ENDBRANCH   5   8
ENDBRANCH   2   5
TORSDOF 3
ENDMDL
MODEL      151
REMARK 921   NORMALIZED FREE ENERGY PREDICTED BY IDOCK:   -3.27 KCAL/MOL
REMARK 922        TOTAL FREE ENERGY PREDICTED BY IDOCK:   -4.22 KCAL/MOL
REMARK 923 INTER-LIGAND FREE ENERGY PREDICTED BY IDOCK:   -3.86 KCAL/MOL
REMARK 924 INTRA-LIGAND FREE ENERGY PREDICTED BY IDOCK:   -0.36 KCAL/MOL
REMARK 927      BINDING AFFINITY PREDICTED BY RF-SCORE:    0.00 PKD
ROOT
HETATM    1  C   UNL     1     -11.022  15.639  69.909  1.00  0.00    -0.323 C  
HETATM    2  C   UNL     1     -10.725  15.307  68.431  1.00  0.00    -0.250 C  
HETATM    3  C   UNL     1     -10.665  16.628  67.641  1.00  0.00    -0.306 C  
HETATM    4  C   UNL     1     -11.897  14.459  67.896  1.00  0.00    -0.384 C  
ENDROOT
BRANCH   2   5
HETATM    5  C   UNL     1      -9.358  14.556  68.338  1.00  0.00    -0.208 C  
HETATM    6  O   UNL     1      -8.577  14.796  69.508  1.00  0.00    -0.403 OA 
HETATM    7  H   UNL     1      -7.746  14.340  69.452  1.00  0.00     0.000 HD 
BRANCH   5   8
HETATM    8  C   UNL     1      -9.466  13.063  68.165  1.00  0.00    -0.218 C  
HETATM    9  C   UNL     1      -9.050  12.397  67.075  1.00  0.00    -0.207 C  
BRANCH   9  10
HETATM   10  C   UNL     1      -9.176  10.941  66.903  1.00  0.00    -0.175 A  
HETATM   11  C   UNL     1      -8.046  10.203  66.522  1.00  0.00    -0.121 A  
HETATM   12  C   UNL     1      -8.185   8.841  66.343  1.00  0.00    -0.111 A  
HETATM   13  C   UNL     1      -9.391   8.204  66.515  1.00  0.00    -0.206 A  
HETATM   14  C   UNL     1     -10.528   8.895  66.868  1.00  0.00    -0.304 A  
HETATM   15  O   UNL     1      -9.311   6.867  66.291  1.00  0.00    -0.163 OA 
HETATM   16  C   UNL     1     -10.416  10.278  67.054  1.00  0.00    -0.304 A  
HETATM   17  C   UNL     1      -7.914   6.732  65.957  1.00  0.00    -0.109 C  
HETATM   18  O   UNL     1      -7.193   7.981  65.984  1.00  0.00    -0.067 OA 
ENDBRANCH   9  10
ENDBRANCH   5   8
ENDBRANCH   2   5
TORSDOF 3
ENDMDL
MODEL      152
REMARK 921   NORMALIZED FREE ENERGY PREDICTED BY IDOCK:   -3.26 KCAL/MOL
REMARK 922        TOTAL FREE ENERGY PREDICTED BY IDOCK:   -4.22 KCAL/MOL
REMARK 923 INTER-LIGAND FREE ENERGY PREDICTED BY IDOCK:   -3.79 KCAL/MOL
REMARK 924 INTRA-LIGAND FREE ENERGY PREDICTED BY IDOCK:   -0.42 KCAL/MOL
REMARK 927      BINDING AFFINITY PREDICTED BY RF-SCORE:    0.00 PKD
ROOT
HETATM    1  C   UNL     1      -7.234   5.444  69.714  1.00  0.00    -0.064 C  
HETATM    2  C   UNL     1      -8.235   4.270  69.760  1.00  0.00    -0.069 C  
HETATM    3  C   UNL     1      -7.478   3.006  70.212  1.00  0.00    -0.043 C  
HETATM    4  C   UNL     1      -8.764   4.048  68.328  1.00  0.00    -0.123 C  
ENDROOT
BRANCH   2   5
HETATM    5  C   UNL     1      -9.378   4.609  70.770  1.00  0.00    -0.151 C  
HETATM    6  O   UNL     1      -9.051   4.129  72.072  1.00  0.00    -0.116 OA 
HETATM    7  H   UNL     1      -9.745   4.335  72.687  1.00  0.00     0.000 HD 
BRANCH   5   8
HETATM    8  C   UNL     1      -9.697   6.076  70.895  1.00  0.00    -0.207 C  
HETATM    9  C   UNL     1     -10.731   6.680  70.284  1.00  0.00    -0.294 C  
BRANCH   9  10
HETATM   10  C   UNL     1     -11.026   8.117  70.395  1.00  0.00    -0.248 A  
HETATM   11  C   UNL     1     -12.157   8.523  71.118  1.00  0.00    -0.283 A  
HETATM   12  C   UNL     1     -12.434   9.873  71.194  1.00  0.00    -0.368 A  
HETATM   13  C   UNL     1     -11.644  10.813  70.576  1.00  0.00    -0.330 A  
HETATM   14  C   UNL     1     -10.538  10.455  69.840  1.00  0.00    -0.299 A  
HETATM   15  O   UNL     1     -12.090  12.081  70.775  1.00  0.00    -0.349 OA 
HETATM   16  C   UNL     1     -10.235   9.092  69.744  1.00  0.00    -0.214 A  
HETATM   17  C   UNL     1     -13.253  11.833  71.591  1.00  0.00    -0.266 C  
HETATM   18  O   UNL     1     -13.481  10.434  71.859  1.00  0.00    -0.372 OA 
ENDBRANCH   9  10
ENDBRANCH   5   8
ENDBRANCH   2   5
TORSDOF 3
ENDMDL
MODEL      153
REMARK 921   NORMALIZED FREE ENERGY PREDICTED BY IDOCK:   -3.22 KCAL/MOL
REMARK 922        TOTAL FREE ENERGY PREDICTED BY IDOCK:   -4.17 KCAL/MOL
REMARK 923 INTER-LIGAND FREE ENERGY PREDICTED BY IDOCK:   -3.86 KCAL/MOL
REMARK 924 INTRA-LIGAND FREE ENERGY PREDICTED BY IDOCK:   -0.32 KCAL/MOL
REMARK 927      BINDING AFFINITY PREDICTED BY RF-SCORE:    0.00 PKD
ROOT
HETATM    1  C   UNL     1     -10.900  15.060  64.744  1.00  0.00    -0.375 C  
HETATM    2  C   UNL     1     -11.138  13.583  65.124  1.00  0.00    -0.326 C  
HETATM    3  C   UNL     1     -10.747  12.705  63.919  1.00  0.00    -0.465 C  
HETATM    4  C   UNL     1     -12.645  13.406  65.401  1.00  0.00    -0.528 C  
ENDROOT
BRANCH   2   5
HETATM    5  C   UNL     1     -10.259  13.224  66.365  1.00  0.00    -0.292 C  
HETATM    6  O   UNL     1     -10.764  13.864  67.535  1.00  0.00    -0.263 OA 
HETATM    7  H   UNL     1     -10.230  13.646  68.290  1.00  0.00     0.000 HD 
BRANCH   5   8
HETATM    8  C   UNL     1     -10.159  11.750  66.663  1.00  0.00    -0.231 C  
HETATM    9  C   UNL     1      -9.405  11.227  67.646  1.00  0.00    -0.162 C  
BRANCH   9  10
HETATM   10  C   UNL     1      -9.295   9.786  67.920  1.00  0.00    -0.139 A  
HETATM   11  C   UNL     1      -8.097   9.126  67.610  1.00  0.00    -0.104 A  
HETATM   12  C   UNL     1      -8.017   7.769  67.852  1.00  0.00    -0.125 A  
HETATM   13  C   UNL     1      -9.074   7.060  68.370  1.00  0.00    -0.127 A  
HETATM   14  C   UNL     1     -10.273   7.666  68.670  1.00  0.00    -0.214 A  
HETATM   15  O   UNL     1      -8.788   5.741  68.532  1.00  0.00    -0.111 OA 
HETATM   16  C   UNL     1     -10.383   9.041  68.432  1.00  0.00    -0.242 A  
HETATM   17  C   UNL     1      -7.428   5.700  68.054  1.00  0.00    -0.074 C  
HETATM   18  O   UNL     1      -6.932   6.982  67.617  1.00  0.00    -0.077 OA 
ENDBRANCH   9  10
ENDBRANCH   5   8
ENDBRANCH   2   5
TORSDOF 3
ENDMDL
MODEL      154
REMARK 921   NORMALIZED FREE ENERGY PREDICTED BY IDOCK:   -3.22 KCAL/MOL
REMARK 922        TOTAL FREE ENERGY PREDICTED BY IDOCK:   -4.17 KCAL/MOL
REMARK 923 INTER-LIGAND FREE ENERGY PREDICTED BY IDOCK:   -3.78 KCAL/MOL
REMARK 924 INTRA-LIGAND FREE ENERGY PREDICTED BY IDOCK:   -0.39 KCAL/MOL
REMARK 927      BINDING AFFINITY PREDICTED BY RF-SCORE:    0.00 PKD
ROOT
HETATM    1  C   UNL     1      -6.805  10.110  65.692  1.00  0.00    -0.124 C  
HETATM    2  C   UNL     1      -7.720   9.066  65.017  1.00  0.00    -0.109 C  
HETATM    3  C   UNL     1      -6.942   8.420  63.855  1.00  0.00    -0.079 C  
HETATM    4  C   UNL     1      -8.942   9.813  64.444  1.00  0.00    -0.284 C  
ENDROOT
BRANCH   2   5
HETATM    5  C   UNL     1      -8.125   7.983  66.067  1.00  0.00    -0.110 C  
HETATM    6  O   UNL     1      -6.997   7.605  66.854  1.00  0.00    -0.075 OA 
HETATM    7  H   UNL     1      -7.242   6.946  67.493  1.00  0.00     0.000 HD 
BRANCH   5   8
HETATM    8  C   UNL     1      -9.218   8.400  67.016  1.00  0.00    -0.186 C  
HETATM    9  C   UNL     1      -9.036   8.620  68.330  1.00  0.00    -0.141 C  
BRANCH   9  10
HETATM   10  C   UNL     1     -10.112   9.008  69.255  1.00  0.00    -0.197 A  
HETATM   11  C   UNL     1     -10.696   8.025  70.068  1.00  0.00    -0.244 A  
HETATM   12  C   UNL     1     -11.719   8.400  70.915  1.00  0.00    -0.246 A  
HETATM   13  C   UNL     1     -12.180   9.694  70.970  1.00  0.00    -0.323 A  
HETATM   14  C   UNL     1     -11.648  10.684  70.175  1.00  0.00    -0.414 A  
HETATM   15  O   UNL     1     -13.188   9.850  71.867  1.00  0.00    -0.408 OA 
HETATM   16  C   UNL     1     -10.611  10.331  69.305  1.00  0.00    -0.254 A  
HETATM   17  C   UNL     1     -13.312   8.505  72.372  1.00  0.00    -0.282 C  
HETATM   18  O   UNL     1     -12.385   7.577  71.770  1.00  0.00    -0.304 OA 
ENDBRANCH   9  10
ENDBRANCH   5   8
ENDBRANCH   2   5
TORSDOF 3
ENDMDL
MODEL      155
REMARK 921   NORMALIZED FREE ENERGY PREDICTED BY IDOCK:   -3.20 KCAL/MOL
REMARK 922        TOTAL FREE ENERGY PREDICTED BY IDOCK:   -4.15 KCAL/MOL
REMARK 923 INTER-LIGAND FREE ENERGY PREDICTED BY IDOCK:   -3.87 KCAL/MOL
REMARK 924 INTRA-LIGAND FREE ENERGY PREDICTED BY IDOCK:   -0.28 KCAL/MOL
REMARK 927      BINDING AFFINITY PREDICTED BY RF-SCORE:    0.00 PKD
ROOT
HETATM    1  C   UNL     1     -12.536   8.520  72.370  1.00  0.00    -0.416 C  
HETATM    2  C   UNL     1     -11.246   7.882  71.810  1.00  0.00    -0.305 C  
HETATM    3  C   UNL     1     -10.038   8.611  72.429  1.00  0.00    -0.321 C  
HETATM    4  C   UNL     1     -11.235   8.108  70.284  1.00  0.00    -0.182 C  
ENDROOT
BRANCH   2   5
HETATM    5  C   UNL     1     -11.217   6.366  72.186  1.00  0.00    -0.279 C  
HETATM    6  O   UNL     1     -12.444   5.983  72.806  1.00  0.00    -0.485 OA 
HETATM    7  H   UNL     1     -12.427   5.062  73.035  1.00  0.00     0.000 HD 
BRANCH   5   8
HETATM    8  C   UNL     1     -10.985   5.431  71.028  1.00  0.00    -0.120 C  
HETATM    9  C   UNL     1      -9.772   5.125  70.535  1.00  0.00    -0.260 C  
BRANCH   9  10
HETATM   10  C   UNL     1      -9.552   4.226  69.392  1.00  0.00    -0.267 A  
HETATM   11  C   UNL     1      -9.847   4.687  68.100  1.00  0.00    -0.170 A  
HETATM   12  C   UNL     1      -9.658   3.825  67.039  1.00  0.00    -0.180 A  
HETATM   13  C   UNL     1      -9.205   2.539  67.219  1.00  0.00    -0.130 A  
HETATM   14  C   UNL     1      -8.924   2.042  68.471  1.00  0.00    -0.171 A  
HETATM   15  O   UNL     1      -9.087   1.860  66.048  1.00  0.00    -0.117 OA 
HETATM   16  C   UNL     1      -9.110   2.894  69.565  1.00  0.00    -0.194 A  
HETATM   17  C   UNL     1      -9.518   2.865  65.108  1.00  0.00    -0.083 C  
HETATM   18  O   UNL     1      -9.885   4.114  65.729  1.00  0.00    -0.189 OA 
ENDBRANCH   9  10
ENDBRANCH   5   8
ENDBRANCH   2   5
TORSDOF 3
ENDMDL
MODEL      156
REMARK 921   NORMALIZED FREE ENERGY PREDICTED BY IDOCK:   -3.20 KCAL/MOL
REMARK 922        TOTAL FREE ENERGY PREDICTED BY IDOCK:   -4.15 KCAL/MOL
REMARK 923 INTER-LIGAND FREE ENERGY PREDICTED BY IDOCK:   -3.76 KCAL/MOL
REMARK 924 INTRA-LIGAND FREE ENERGY PREDICTED BY IDOCK:   -0.39 KCAL/MOL
REMARK 927      BINDING AFFINITY PREDICTED BY RF-SCORE:    0.00 PKD
ROOT
HETATM    1  C   UNL     1     -12.093  13.088  66.003  1.00  0.00    -0.493 C  
HETATM    2  C   UNL     1     -11.292  13.689  64.829  1.00  0.00    -0.365 C  
HETATM    3  C   UNL     1     -11.859  15.089  64.523  1.00  0.00    -0.377 C  
HETATM    4  C   UNL     1     -11.509  12.784  63.599  1.00  0.00    -0.544 C  
ENDROOT
BRANCH   2   5
HETATM    5  C   UNL     1      -9.786  13.790  65.233  1.00  0.00    -0.124 C  
HETATM    6  O   UNL     1      -9.489  15.093  65.731  1.00  0.00    -0.365 OA 
HETATM    7  H   UNL     1      -8.574  15.155  65.977  1.00  0.00     0.000 HD 
BRANCH   5   8
HETATM    8  C   UNL     1      -9.343  12.796  66.276  1.00  0.00    -0.156 C  
HETATM    9  C   UNL     1      -8.451  13.064  67.245  1.00  0.00    -0.199 C  
BRANCH   9  10
HETATM   10  C   UNL     1      -8.009  12.084  68.248  1.00  0.00    -0.149 A  
HETATM   11  C   UNL     1      -8.781  10.931  68.458  1.00  0.00    -0.153 A  
HETATM   12  C   UNL     1      -8.365  10.032  69.419  1.00  0.00    -0.165 A  
HETATM   13  C   UNL     1      -7.235  10.243  70.172  1.00  0.00    -0.129 A  
HETATM   14  C   UNL     1      -6.461  11.370  70.011  1.00  0.00    -0.094 A  
HETATM   15  O   UNL     1      -7.003   9.239  71.058  1.00  0.00    -0.099 OA 
HETATM   16  C   UNL     1      -6.861  12.300  69.046  1.00  0.00    -0.094 A  
HETATM   17  C   UNL     1      -8.119   8.369  70.778  1.00  0.00    -0.111 C  
HETATM   18  O   UNL     1      -8.990   8.867  69.741  1.00  0.00    -0.140 OA 
ENDBRANCH   9  10
ENDBRANCH   5   8
ENDBRANCH   2   5
TORSDOF 3
ENDMDL
MODEL      157
REMARK 921   NORMALIZED FREE ENERGY PREDICTED BY IDOCK:   -3.18 KCAL/MOL
REMARK 922        TOTAL FREE ENERGY PREDICTED BY IDOCK:   -4.12 KCAL/MOL
REMARK 923 INTER-LIGAND FREE ENERGY PREDICTED BY IDOCK:   -3.71 KCAL/MOL
REMARK 924 INTRA-LIGAND FREE ENERGY PREDICTED BY IDOCK:   -0.40 KCAL/MOL
REMARK 927      BINDING AFFINITY PREDICTED BY RF-SCORE:    0.00 PKD
ROOT
HETATM    1  C   UNL     1     -10.009  11.916  65.597  1.00  0.00    -0.269 C  
HETATM    2  C   UNL     1      -9.678  11.088  66.857  1.00  0.00    -0.215 C  
HETATM    3  C   UNL     1      -8.429  10.235  66.561  1.00  0.00    -0.126 C  
HETATM    4  C   UNL     1     -10.870  10.149  67.129  1.00  0.00    -0.257 C  
ENDROOT
BRANCH   2   5
HETATM    5  C   UNL     1      -9.401  12.059  68.050  1.00  0.00    -0.196 C  
HETATM    6  O   UNL     1      -8.344  11.558  68.865  1.00  0.00    -0.313 OA 
HETATM    7  H   UNL     1      -8.175  12.148  69.591  1.00  0.00     0.000 HD 
BRANCH   5   8
HETATM    8  C   UNL     1      -9.037  13.465  67.650  1.00  0.00    -0.203 C  
HETATM    9  C   UNL     1      -7.914  14.094  68.036  1.00  0.00    -0.149 C  
BRANCH   9  10
HETATM   10  C   UNL     1      -7.573  15.474  67.658  1.00  0.00    -0.182 A  
HETATM   11  C   UNL     1      -8.604  16.350  67.285  1.00  0.00    -0.200 A  
HETATM   12  C   UNL     1      -8.267  17.635  66.911  1.00  0.00    -0.225 A  
HETATM   13  C   UNL     1      -6.962  18.065  66.884  1.00  0.00    -0.191 A  
HETATM   14  C   UNL     1      -5.920  17.232  67.223  1.00  0.00    -0.168 A  
HETATM   15  O   UNL     1      -6.848  19.361  66.489  1.00  0.00    -0.189 OA 
HETATM   16  C   UNL     1      -6.233  15.923  67.604  1.00  0.00    -0.182 A  
HETATM   17  C   UNL     1      -8.233  19.698  66.269  1.00  0.00    -0.347 C  
HETATM   18  O   UNL     1      -9.140  18.607  66.531  1.00  0.00    -0.305 OA 
ENDBRANCH   9  10
ENDBRANCH   5   8
ENDBRANCH   2   5
TORSDOF 3
ENDMDL
MODEL      158
REMARK 921   NORMALIZED FREE ENERGY PREDICTED BY IDOCK:   -3.17 KCAL/MOL
REMARK 922        TOTAL FREE ENERGY PREDICTED BY IDOCK:   -4.11 KCAL/MOL
REMARK 923 INTER-LIGAND FREE ENERGY PREDICTED BY IDOCK:   -3.75 KCAL/MOL
REMARK 924 INTRA-LIGAND FREE ENERGY PREDICTED BY IDOCK:   -0.36 KCAL/MOL
REMARK 927      BINDING AFFINITY PREDICTED BY RF-SCORE:    0.00 PKD
ROOT
HETATM    1  C   UNL     1      -6.429   8.728  66.735  1.00  0.00    -0.060 C  
HETATM    2  C   UNL     1      -7.049   8.913  65.334  1.00  0.00    -0.080 C  
HETATM    3  C   UNL     1      -6.856   7.604  64.543  1.00  0.00    -0.055 C  
HETATM    4  C   UNL     1      -6.276  10.042  64.623  1.00  0.00    -0.124 C  
ENDROOT
BRANCH   2   5
HETATM    5  C   UNL     1      -8.570   9.237  65.484  1.00  0.00    -0.152 C  
HETATM    6  O   UNL     1      -9.317   8.623  64.436  1.00  0.00    -0.131 OA 
HETATM    7  H   UNL     1     -10.242   8.819  64.527  1.00  0.00     0.000 HD 
BRANCH   5   8
HETATM    8  C   UNL     1      -9.183   8.804  66.791  1.00  0.00    -0.211 C  
HETATM    9  C   UNL     1      -9.838   9.626  67.628  1.00  0.00    -0.202 C  
BRANCH   9  10
HETATM   10  C   UNL     1     -10.418   9.201  68.911  1.00  0.00    -0.239 A  
HETATM   11  C   UNL     1     -10.629   7.833  69.141  1.00  0.00    -0.193 A  
HETATM   12  C   UNL     1     -11.195   7.451  70.341  1.00  0.00    -0.262 A  
HETATM   13  C   UNL     1     -11.562   8.369  71.296  1.00  0.00    -0.283 A  
HETATM   14  C   UNL     1     -11.390   9.721  71.102  1.00  0.00    -0.459 A  
HETATM   15  O   UNL     1     -12.097   7.786  72.400  1.00  0.00    -0.304 OA 
HETATM   16  C   UNL     1     -10.821  10.136  69.893  1.00  0.00    -0.347 A  
HETATM   17  C   UNL     1     -12.026   6.393  72.032  1.00  0.00    -0.326 C  
HETATM   18  O   UNL     1     -11.458   6.173  70.724  1.00  0.00    -0.324 OA 
ENDBRANCH   9  10
ENDBRANCH   5   8
ENDBRANCH   2   5
TORSDOF 3
ENDMDL
MODEL      159
REMARK 921   NORMALIZED FREE ENERGY PREDICTED BY IDOCK:   -3.14 KCAL/MOL
REMARK 922        TOTAL FREE ENERGY PREDICTED BY IDOCK:   -4.07 KCAL/MOL
REMARK 923 INTER-LIGAND FREE ENERGY PREDICTED BY IDOCK:   -3.75 KCAL/MOL
REMARK 924 INTRA-LIGAND FREE ENERGY PREDICTED BY IDOCK:   -0.32 KCAL/MOL
REMARK 927      BINDING AFFINITY PREDICTED BY RF-SCORE:    0.00 PKD
ROOT
HETATM    1  C   UNL     1      -6.511   6.678  65.320  1.00  0.00    -0.046 C  
HETATM    2  C   UNL     1      -7.185   7.535  66.414  1.00  0.00    -0.075 C  
HETATM    3  C   UNL     1      -8.499   8.101  65.842  1.00  0.00    -0.153 C  
HETATM    4  C   UNL     1      -6.238   8.708  66.741  1.00  0.00    -0.059 C  
ENDROOT
BRANCH   2   5
HETATM    5  C   UNL     1      -7.475   6.641  67.661  1.00  0.00    -0.097 C  
HETATM    6  O   UNL     1      -6.271   6.379  68.378  1.00  0.00    -0.032 OA 
HETATM    7  H   UNL     1      -6.447   5.835  69.137  1.00  0.00     0.000 HD 
BRANCH   5   8
HETATM    8  C   UNL     1      -8.467   7.219  68.637  1.00  0.00    -0.129 C  
HETATM    9  C   UNL     1      -9.721   6.765  68.799  1.00  0.00    -0.132 C  
BRANCH   9  10
HETATM   10  C   UNL     1     -10.691   7.347  69.740  1.00  0.00    -0.252 A  
HETATM   11  C   UNL     1     -10.793   8.743  69.833  1.00  0.00    -0.211 A  
HETATM   12  C   UNL     1     -11.691   9.274  70.736  1.00  0.00    -0.269 A  
HETATM   13  C   UNL     1     -12.467   8.477  71.544  1.00  0.00    -0.317 A  
HETATM   14  C   UNL     1     -12.382   7.104  71.499  1.00  0.00    -0.406 A  
HETATM   15  O   UNL     1     -13.282   9.197  72.359  1.00  0.00    -0.426 OA 
HETATM   16  C   UNL     1     -11.478   6.539  70.593  1.00  0.00    -0.433 A  
HETATM   17  C   UNL     1     -12.931  10.542  71.972  1.00  0.00    -0.385 C  
HETATM   18  O   UNL     1     -11.920  10.599  70.945  1.00  0.00    -0.332 OA 
ENDBRANCH   9  10
ENDBRANCH   5   8
ENDBRANCH   2   5
TORSDOF 3
ENDMDL
MODEL      160
REMARK 921   NORMALIZED FREE ENERGY PREDICTED BY IDOCK:   -3.13 KCAL/MOL
REMARK 922        TOTAL FREE ENERGY PREDICTED BY IDOCK:   -4.06 KCAL/MOL
REMARK 923 INTER-LIGAND FREE ENERGY PREDICTED BY IDOCK:   -3.95 KCAL/MOL
REMARK 924 INTRA-LIGAND FREE ENERGY PREDICTED BY IDOCK:   -0.12 KCAL/MOL
REMARK 927      BINDING AFFINITY PREDICTED BY RF-SCORE:    0.00 PKD
ROOT
HETATM    1  C   UNL     1     -11.116   6.719  71.346  1.00  0.00    -0.293 C  
HETATM    2  C   UNL     1     -10.364   6.142  70.128  1.00  0.00    -0.269 C  
HETATM    3  C   UNL     1     -11.274   6.274  68.891  1.00  0.00    -0.387 C  
HETATM    4  C   UNL     1     -10.107   4.646  70.400  1.00  0.00    -0.275 C  
ENDROOT
BRANCH   2   5
HETATM    5  C   UNL     1      -9.040   6.943  69.915  1.00  0.00    -0.144 C  
HETATM    6  O   UNL     1      -8.139   6.208  69.090  1.00  0.00    -0.106 OA 
HETATM    7  H   UNL     1      -7.334   6.695  68.960  1.00  0.00     0.000 HD 
BRANCH   5   8
HETATM    8  C   UNL     1      -9.217   8.303  69.291  1.00  0.00    -0.151 C  
HETATM    9  C   UNL     1      -9.834   9.336  69.891  1.00  0.00    -0.219 C  
BRANCH   9  10
HETATM   10  C   UNL     1     -10.020  10.656  69.269  1.00  0.00    -0.215 A  
HETATM   11  C   UNL     1      -9.028  11.147  68.408  1.00  0.00    -0.165 A  
HETATM   12  C   UNL     1      -9.206  12.397  67.850  1.00  0.00    -0.192 A  
HETATM   13  C   UNL     1     -10.313  13.164  68.125  1.00  0.00    -0.244 A  
HETATM   14  C   UNL     1     -11.299  12.728  68.980  1.00  0.00    -0.346 A  
HETATM   15  O   UNL     1     -10.295  14.357  67.474  1.00  0.00    -0.249 OA 
HETATM   16  C   UNL     1     -11.143  11.466  69.562  1.00  0.00    -0.274 A  
HETATM   17  C   UNL     1      -9.048  14.254  66.757  1.00  0.00    -0.249 C  
HETATM   18  O   UNL     1      -8.349  13.014  66.992  1.00  0.00    -0.170 OA 
ENDBRANCH   9  10
ENDBRANCH   5   8
ENDBRANCH   2   5
TORSDOF 3
ENDMDL
MODEL      161
REMARK 921   NORMALIZED FREE ENERGY PREDICTED BY IDOCK:   -3.06 KCAL/MOL
REMARK 922        TOTAL FREE ENERGY PREDICTED BY IDOCK:   -3.98 KCAL/MOL
REMARK 923 INTER-LIGAND FREE ENERGY PREDICTED BY IDOCK:   -3.57 KCAL/MOL
REMARK 924 INTRA-LIGAND FREE ENERGY PREDICTED BY IDOCK:   -0.41 KCAL/MOL
REMARK 927      BINDING AFFINITY PREDICTED BY RF-SCORE:    0.00 PKD
ROOT
HETATM    1  C   UNL     1      -6.985   1.860  67.835  1.00  0.00    -0.036 C  
HETATM    2  C   UNL     1      -8.302   2.653  67.695  1.00  0.00    -0.094 C  
HETATM    3  C   UNL     1      -9.187   2.341  68.917  1.00  0.00    -0.216 C  
HETATM    4  C   UNL     1      -9.017   2.155  66.422  1.00  0.00    -0.109 C  
ENDROOT
BRANCH   2   5
HETATM    5  C   UNL     1      -7.978   4.180  67.635  1.00  0.00    -0.091 C  
HETATM    6  O   UNL     1      -8.199   4.686  66.320  1.00  0.00    -0.106 OA 
HETATM    7  H   UNL     1      -8.002   5.614  66.283  1.00  0.00     0.000 HD 
BRANCH   5   8
HETATM    8  C   UNL     1      -8.776   5.034  68.587  1.00  0.00    -0.101 C  
HETATM    9  C   UNL     1      -9.661   5.970  68.203  1.00  0.00    -0.122 C  
BRANCH   9  10
HETATM   10  C   UNL     1     -10.422   6.813  69.137  1.00  0.00    -0.240 A  
HETATM   11  C   UNL     1     -10.233   8.203  69.104  1.00  0.00    -0.219 A  
HETATM   12  C   UNL     1     -10.938   8.980  70.002  1.00  0.00    -0.214 A  
HETATM   13  C   UNL     1     -11.798   8.429  70.922  1.00  0.00    -0.217 A  
HETATM   14  C   UNL     1     -11.996   7.069  71.000  1.00  0.00    -0.406 A  
HETATM   15  O   UNL     1     -12.390   9.365  71.708  1.00  0.00    -0.350 OA 
HETATM   16  C   UNL     1     -11.292   6.257  70.103  1.00  0.00    -0.476 A  
HETATM   17  C   UNL     1     -11.803  10.572  71.179  1.00  0.00    -0.295 C  
HETATM   18  O   UNL     1     -10.878  10.336  70.098  1.00  0.00    -0.281 OA 
ENDBRANCH   9  10
ENDBRANCH   5   8
ENDBRANCH   2   5
TORSDOF 3
ENDMDL
MODEL      162
REMARK 921   NORMALIZED FREE ENERGY PREDICTED BY IDOCK:   -3.05 KCAL/MOL
REMARK 922        TOTAL FREE ENERGY PREDICTED BY IDOCK:   -3.97 KCAL/MOL
REMARK 923 INTER-LIGAND FREE ENERGY PREDICTED BY IDOCK:   -4.84 KCAL/MOL
REMARK 924 INTRA-LIGAND FREE ENERGY PREDICTED BY IDOCK:    0.88 KCAL/MOL
REMARK 927      BINDING AFFINITY PREDICTED BY RF-SCORE:    0.00 PKD
ROOT
HETATM    1  C   UNL     1     -13.739  14.397  71.164  1.00  0.00    -0.297 C  
HETATM    2  C   UNL     1     -12.423  14.104  70.412  1.00  0.00    -0.424 C  
HETATM    3  C   UNL     1     -12.224  12.577  70.362  1.00  0.00    -0.368 C  
HETATM    4  C   UNL     1     -11.270  14.731  71.222  1.00  0.00    -0.059 C  
ENDROOT
BRANCH   2   5
HETATM    5  C   UNL     1     -12.518  14.687  68.965  1.00  0.00     0.064 C  
HETATM    6  O   UNL     1     -11.801  15.916  68.875  1.00  0.00    -0.402 OA 
HETATM    7  H   UNL     1     -11.858  16.271  67.995  1.00  0.00     0.000 HD 
BRANCH   5   8
HETATM    8  C   UNL     1     -11.996  13.778  67.882  1.00  0.00    -0.391 C  
HETATM    9  C   UNL     1     -11.169  12.741  68.099  1.00  0.00    -0.310 C  
BRANCH   9  10
HETATM   10  C   UNL     1     -10.648  11.869  67.035  1.00  0.00    -0.260 A  
HETATM   11  C   UNL     1     -10.514  12.387  65.738  1.00  0.00    -0.288 A  
HETATM   12  C   UNL     1     -10.045  11.550  64.745  1.00  0.00    -0.269 A  
HETATM   13  C   UNL     1      -9.723  10.237  64.993  1.00  0.00    -0.305 A  
HETATM   14  C   UNL     1      -9.859   9.685  66.247  1.00  0.00    -0.323 A  
HETATM   15  O   UNL     1      -9.281   9.590  63.883  1.00  0.00    -0.213 OA 
HETATM   16  C   UNL     1     -10.335  10.510  67.272  1.00  0.00    -0.275 A  
HETATM   17  C   UNL     1      -9.362  10.647  62.905  1.00  0.00    -0.331 C  
HETATM   18  O   UNL     1      -9.850  11.893  63.443  1.00  0.00    -0.393 OA 
ENDBRANCH   9  10
ENDBRANCH   5   8
ENDBRANCH   2   5
TORSDOF 3
ENDMDL
MODEL      163
REMARK 921   NORMALIZED FREE ENERGY PREDICTED BY IDOCK:   -3.04 KCAL/MOL
REMARK 922        TOTAL FREE ENERGY PREDICTED BY IDOCK:   -3.96 KCAL/MOL
REMARK 923 INTER-LIGAND FREE ENERGY PREDICTED BY IDOCK:   -3.64 KCAL/MOL
REMARK 924 INTRA-LIGAND FREE ENERGY PREDICTED BY IDOCK:   -0.32 KCAL/MOL
REMARK 927      BINDING AFFINITY PREDICTED BY RF-SCORE:    0.00 PKD
ROOT
HETATM    1  C   UNL     1     -10.450   6.432  66.634  1.00  0.00    -0.240 C  
HETATM    2  C   UNL     1      -9.629   6.983  67.819  1.00  0.00    -0.138 C  
HETATM    3  C   UNL     1      -8.286   7.508  67.275  1.00  0.00    -0.118 C  
HETATM    4  C   UNL     1      -9.353   5.812  68.784  1.00  0.00    -0.135 C  
ENDROOT
BRANCH   2   5
HETATM    5  C   UNL     1     -10.427   8.140  68.502  1.00  0.00    -0.162 C  
HETATM    6  O   UNL     1     -10.171   8.162  69.905  1.00  0.00    -0.196 OA 
HETATM    7  H   UNL     1     -10.655   8.865  70.321  1.00  0.00     0.000 HD 
BRANCH   5   8
HETATM    8  C   UNL     1     -10.128   9.516  67.966  1.00  0.00    -0.226 C  
HETATM    9  C   UNL     1     -10.817  10.622  68.297  1.00  0.00    -0.287 C  
BRANCH   9  10
HETATM   10  C   UNL     1     -10.533  11.960  67.756  1.00  0.00    -0.224 A  
HETATM   11  C   UNL     1      -9.454  12.689  68.280  1.00  0.00    -0.203 A  
HETATM   12  C   UNL     1      -9.214  13.952  67.778  1.00  0.00    -0.197 A  
HETATM   13  C   UNL     1     -10.004  14.509  66.800  1.00  0.00    -0.264 A  
HETATM   14  C   UNL     1     -11.084  13.835  66.275  1.00  0.00    -0.302 A  
HETATM   15  O   UNL     1      -9.596  15.756  66.447  1.00  0.00    -0.244 OA 
HETATM   16  C   UNL     1     -11.352  12.553  66.768  1.00  0.00    -0.390 A  
HETATM   17  C   UNL     1      -8.457  15.923  67.316  1.00  0.00    -0.184 C  
HETATM   18  O   UNL     1      -8.210  14.784  68.166  1.00  0.00    -0.131 OA 
ENDBRANCH   9  10
ENDBRANCH   5   8
ENDBRANCH   2   5
TORSDOF 3
ENDMDL
MODEL      164
REMARK 921   NORMALIZED FREE ENERGY PREDICTED BY IDOCK:   -3.01 KCAL/MOL
REMARK 922        TOTAL FREE ENERGY PREDICTED BY IDOCK:   -3.92 KCAL/MOL
REMARK 923 INTER-LIGAND FREE ENERGY PREDICTED BY IDOCK:   -3.54 KCAL/MOL
REMARK 924 INTRA-LIGAND FREE ENERGY PREDICTED BY IDOCK:   -0.38 KCAL/MOL
REMARK 927      BINDING AFFINITY PREDICTED BY RF-SCORE:    0.00 PKD
ROOT
HETATM    1  C   UNL     1      -7.441   4.112  65.923  1.00  0.00    -0.081 C  
HETATM    2  C   UNL     1      -8.671   4.870  65.378  1.00  0.00    -0.143 C  
HETATM    3  C   UNL     1      -9.453   3.919  64.451  1.00  0.00    -0.163 C  
HETATM    4  C   UNL     1      -8.158   6.064  64.548  1.00  0.00    -0.126 C  
ENDROOT
BRANCH   2   5
HETATM    5  C   UNL     1      -9.568   5.321  66.575  1.00  0.00    -0.156 C  
HETATM    6  O   UNL     1      -9.041   4.828  67.806  1.00  0.00    -0.109 OA 
HETATM    7  H   UNL     1      -9.586   5.102  68.534  1.00  0.00     0.000 HD 
BRANCH   5   8
HETATM    8  C   UNL     1      -9.731   6.812  66.717  1.00  0.00    -0.222 C  
HETATM    9  C   UNL     1      -9.305   7.521  67.777  1.00  0.00    -0.150 C  
BRANCH   9  10
HETATM   10  C   UNL     1      -9.485   8.974  67.918  1.00  0.00    -0.159 A  
HETATM   11  C   UNL     1     -10.778   9.510  67.829  1.00  0.00    -0.302 A  
HETATM   12  C   UNL     1     -10.928  10.878  67.942  1.00  0.00    -0.271 A  
HETATM   13  C   UNL     1      -9.853  11.715  68.124  1.00  0.00    -0.191 A  
HETATM   14  C   UNL     1      -8.566  11.231  68.197  1.00  0.00    -0.150 A  
HETATM   15  O   UNL     1     -10.218  13.021  68.211  1.00  0.00    -0.235 OA 
HETATM   16  C   UNL     1      -8.385   9.848  68.083  1.00  0.00    -0.110 A  
HETATM   17  C   UNL     1     -11.648  12.912  68.061  1.00  0.00    -0.342 C  
HETATM   18  O   UNL     1     -12.107  11.556  67.887  1.00  0.00    -0.630 OA 
ENDBRANCH   9  10
ENDBRANCH   5   8
ENDBRANCH   2   5
TORSDOF 3
ENDMDL
MODEL      165
REMARK 921   NORMALIZED FREE ENERGY PREDICTED BY IDOCK:   -3.00 KCAL/MOL
REMARK 922        TOTAL FREE ENERGY PREDICTED BY IDOCK:   -3.91 KCAL/MOL
REMARK 923 INTER-LIGAND FREE ENERGY PREDICTED BY IDOCK:   -3.54 KCAL/MOL
REMARK 924 INTRA-LIGAND FREE ENERGY PREDICTED BY IDOCK:   -0.37 KCAL/MOL
REMARK 927      BINDING AFFINITY PREDICTED BY RF-SCORE:    0.00 PKD
ROOT
HETATM    1  C   UNL     1     -12.290   9.140  71.746  1.00  0.00    -0.444 C  
HETATM    2  C   UNL     1     -11.192   8.070  71.564  1.00  0.00    -0.296 C  
HETATM    3  C   UNL     1     -11.805   6.691  71.875  1.00  0.00    -0.375 C  
HETATM    4  C   UNL     1     -10.078   8.362  72.590  1.00  0.00    -0.322 C  
ENDROOT
BRANCH   2   5
HETATM    5  C   UNL     1     -10.671   8.113  70.092  1.00  0.00    -0.243 C  
HETATM    6  O   UNL     1     -11.760   8.031  69.175  1.00  0.00     0.176 OA 
HETATM    7  H   UNL     1     -11.444   8.057  68.280  1.00  0.00     0.000 HD 
BRANCH   5   8
HETATM    8  C   UNL     1      -9.874   9.342  69.739  1.00  0.00    -0.218 C  
HETATM    9  C   UNL     1     -10.163  10.162  68.713  1.00  0.00    -0.200 C  
BRANCH   9  10
HETATM   10  C   UNL     1      -9.371  11.350  68.362  1.00  0.00    -0.194 A  
HETATM   11  C   UNL     1     -10.017  12.591  68.261  1.00  0.00    -0.229 A  
HETATM   12  C   UNL     1      -9.264  13.693  67.908  1.00  0.00    -0.203 A  
HETATM   13  C   UNL     1      -7.918  13.600  67.644  1.00  0.00    -0.177 A  
HETATM   14  C   UNL     1      -7.251  12.398  67.712  1.00  0.00    -0.119 A  
HETATM   15  O   UNL     1      -7.367  14.798  67.317  1.00  0.00    -0.195 OA 
HETATM   16  C   UNL     1      -7.991  11.263  68.065  1.00  0.00    -0.119 A  
HETATM   17  C   UNL     1      -8.521  15.659  67.404  1.00  0.00    -0.172 C  
HETATM   18  O   UNL     1      -9.729  14.965  67.775  1.00  0.00    -0.210 OA 
ENDBRANCH   9  10
ENDBRANCH   5   8
ENDBRANCH   2   5
TORSDOF 3
ENDMDL
MODEL      166
REMARK 921   NORMALIZED FREE ENERGY PREDICTED BY IDOCK:   -3.00 KCAL/MOL
REMARK 922        TOTAL FREE ENERGY PREDICTED BY IDOCK:   -3.91 KCAL/MOL
REMARK 923 INTER-LIGAND FREE ENERGY PREDICTED BY IDOCK:   -3.53 KCAL/MOL
REMARK 924 INTRA-LIGAND FREE ENERGY PREDICTED BY IDOCK:   -0.39 KCAL/MOL
REMARK 927      BINDING AFFINITY PREDICTED BY RF-SCORE:    0.00 PKD
ROOT
HETATM    1  C   UNL     1      -8.496   4.912  67.666  1.00  0.00    -0.104 C  
HETATM    2  C   UNL     1      -9.247   6.260  67.675  1.00  0.00    -0.111 C  
HETATM    3  C   UNL     1      -9.491   6.667  69.142  1.00  0.00    -0.136 C  
HETATM    4  C   UNL     1     -10.610   6.044  66.986  1.00  0.00    -0.385 C  
ENDROOT
BRANCH   2   5
HETATM    5  C   UNL     1      -8.379   7.337  66.950  1.00  0.00    -0.118 C  
HETATM    6  O   UNL     1      -8.515   7.218  65.535  1.00  0.00    -0.141 OA 
HETATM    7  H   UNL     1      -7.987   7.872  65.094  1.00  0.00     0.000 HD 
BRANCH   5   8
HETATM    8  C   UNL     1      -8.702   8.762  67.317  1.00  0.00    -0.133 C  
HETATM    9  C   UNL     1      -9.134   9.689  66.443  1.00  0.00    -0.191 C  
BRANCH   9  10
HETATM   10  C   UNL     1      -9.429  11.084  66.804  1.00  0.00    -0.203 A  
HETATM   11  C   UNL     1     -10.764  11.465  67.003  1.00  0.00    -0.304 A  
HETATM   12  C   UNL     1     -11.028  12.783  67.318  1.00  0.00    -0.262 A  
HETATM   13  C   UNL     1     -10.027  13.718  67.427  1.00  0.00    -0.237 A  
HETATM   14  C   UNL     1      -8.706  13.390  67.220  1.00  0.00    -0.219 A  
HETATM   15  O   UNL     1     -10.499  14.952  67.746  1.00  0.00    -0.250 OA 
HETATM   16  C   UNL     1      -8.411  12.061  66.896  1.00  0.00    -0.159 A  
HETATM   17  C   UNL     1     -11.914  14.688  67.824  1.00  0.00    -0.268 C  
HETATM   18  O   UNL     1     -12.259  13.314  67.551  1.00  0.00    -0.304 OA 
ENDBRANCH   9  10
ENDBRANCH   5   8
ENDBRANCH   2   5
TORSDOF 3
ENDMDL
MODEL      167
REMARK 921   NORMALIZED FREE ENERGY PREDICTED BY IDOCK:   -2.98 KCAL/MOL
REMARK 922        TOTAL FREE ENERGY PREDICTED BY IDOCK:   -3.88 KCAL/MOL
REMARK 923 INTER-LIGAND FREE ENERGY PREDICTED BY IDOCK:   -3.53 KCAL/MOL
REMARK 924 INTRA-LIGAND FREE ENERGY PREDICTED BY IDOCK:   -0.35 KCAL/MOL
REMARK 927      BINDING AFFINITY PREDICTED BY RF-SCORE:    0.00 PKD
ROOT
HETATM    1  C   UNL     1      -8.658   5.822  67.912  1.00  0.00    -0.101 C  
HETATM    2  C   UNL     1      -8.079   6.529  66.667  1.00  0.00    -0.110 C  
HETATM    3  C   UNL     1      -8.825   6.007  65.424  1.00  0.00    -0.042 C  
HETATM    4  C   UNL     1      -6.591   6.140  66.556  1.00  0.00    -0.055 C  
ENDROOT
BRANCH   2   5
HETATM    5  C   UNL     1      -8.280   8.071  66.813  1.00  0.00    -0.111 C  
HETATM    6  O   UNL     1      -8.758   8.629  65.590  1.00  0.00    -0.163 OA 
HETATM    7  H   UNL     1      -8.881   9.567  65.678  1.00  0.00     0.000 HD 
BRANCH   5   8
HETATM    8  C   UNL     1      -9.236   8.484  67.902  1.00  0.00    -0.148 C  
HETATM    9  C   UNL     1      -9.591   9.756  68.154  1.00  0.00    -0.158 C  
BRANCH   9  10
HETATM   10  C   UNL     1     -10.510  10.155  69.232  1.00  0.00    -0.246 A  
HETATM   11  C   UNL     1     -11.175  11.387  69.135  1.00  0.00    -0.335 A  
HETATM   12  C   UNL     1     -12.016  11.758  70.165  1.00  0.00    -0.339 A  
HETATM   13  C   UNL     1     -12.204  10.965  71.272  1.00  0.00    -0.290 A  
HETATM   14  C   UNL     1     -11.555   9.759  71.415  1.00  0.00    -0.452 A  
HETATM   15  O   UNL     1     -13.070  11.512  72.164  1.00  0.00    -0.466 OA 
HETATM   16  C   UNL     1     -10.694   9.359  70.387  1.00  0.00    -0.317 A  
HETATM   17  C   UNL     1     -13.407  12.743  71.493  1.00  0.00    -0.144 C  
HETATM   18  O   UNL     1     -12.739  12.909  70.225  1.00  0.00    -0.055 OA 
ENDBRANCH   9  10
ENDBRANCH   5   8
ENDBRANCH   2   5
TORSDOF 3
ENDMDL
MODEL      168
REMARK 921   NORMALIZED FREE ENERGY PREDICTED BY IDOCK:   -2.97 KCAL/MOL
REMARK 922        TOTAL FREE ENERGY PREDICTED BY IDOCK:   -3.88 KCAL/MOL
REMARK 923 INTER-LIGAND FREE ENERGY PREDICTED BY IDOCK:   -3.44 KCAL/MOL
REMARK 924 INTRA-LIGAND FREE ENERGY PREDICTED BY IDOCK:   -0.43 KCAL/MOL
REMARK 927      BINDING AFFINITY PREDICTED BY RF-SCORE:    0.00 PKD
ROOT
HETATM    1  C   UNL     1      -7.234  10.301  65.249  1.00  0.00    -0.134 C  
HETATM    2  C   UNL     1      -6.867  10.664  66.704  1.00  0.00    -0.114 C  
HETATM    3  C   UNL     1      -8.025  11.485  67.304  1.00  0.00    -0.153 C  
HETATM    4  C   UNL     1      -5.601  11.543  66.664  1.00  0.00    -0.140 C  
ENDROOT
BRANCH   2   5
HETATM    5  C   UNL     1      -6.653   9.350  67.522  1.00  0.00    -0.064 C  
HETATM    6  O   UNL     1      -5.441   9.420  68.270  1.00  0.00    -0.037 OA 
HETATM    7  H   UNL     1      -5.310   8.622  68.767  1.00  0.00     0.000 HD 
BRANCH   5   8
HETATM    8  C   UNL     1      -7.761   9.018  68.487  1.00  0.00    -0.097 C  
HETATM    9  C   UNL     1      -8.675   8.053  68.287  1.00  0.00    -0.130 C  
BRANCH   9  10
HETATM   10  C   UNL     1      -9.767   7.747  69.224  1.00  0.00    -0.165 A  
HETATM   11  C   UNL     1     -10.425   8.805  69.868  1.00  0.00    -0.227 A  
HETATM   12  C   UNL     1     -11.432   8.501  70.762  1.00  0.00    -0.253 A  
HETATM   13  C   UNL     1     -11.790   7.203  71.040  1.00  0.00    -0.333 A  
HETATM   14  C   UNL     1     -11.156   6.136  70.445  1.00  0.00    -0.420 A  
HETATM   15  O   UNL     1     -12.801   7.124  71.944  1.00  0.00    -0.318 OA 
HETATM   16  C   UNL     1     -10.129   6.416  69.536  1.00  0.00    -0.203 A  
HETATM   17  C   UNL     1     -13.040   8.522  72.206  1.00  0.00    -0.334 C  
HETATM   18  O   UNL     1     -12.172   9.403  71.462  1.00  0.00    -0.322 OA 
ENDBRANCH   9  10
ENDBRANCH   5   8
ENDBRANCH   2   5
TORSDOF 3
ENDMDL
MODEL      169
REMARK 921   NORMALIZED FREE ENERGY PREDICTED BY IDOCK:   -2.97 KCAL/MOL
REMARK 922        TOTAL FREE ENERGY PREDICTED BY IDOCK:   -3.87 KCAL/MOL
REMARK 923 INTER-LIGAND FREE ENERGY PREDICTED BY IDOCK:   -3.49 KCAL/MOL
REMARK 924 INTRA-LIGAND FREE ENERGY PREDICTED BY IDOCK:   -0.39 KCAL/MOL
REMARK 927      BINDING AFFINITY PREDICTED BY RF-SCORE:    0.00 PKD
ROOT
HETATM    1  C   UNL     1      -6.665   5.871  69.407  1.00  0.00    -0.060 C  
HETATM    2  C   UNL     1      -7.777   4.813  69.580  1.00  0.00    -0.062 C  
HETATM    3  C   UNL     1      -7.122   3.495  70.035  1.00  0.00    -0.041 C  
HETATM    4  C   UNL     1      -8.434   4.594  68.202  1.00  0.00    -0.104 C  
ENDROOT
BRANCH   2   5
HETATM    5  C   UNL     1      -8.797   5.312  70.653  1.00  0.00    -0.130 C  
HETATM    6  O   UNL     1      -8.134   5.576  71.887  1.00  0.00    -0.112 OA 
HETATM    7  H   UNL     1      -8.754   5.879  72.540  1.00  0.00     0.000 HD 
BRANCH   5   8
HETATM    8  C   UNL     1      -9.557   6.556  70.273  1.00  0.00    -0.172 C  
HETATM    9  C   UNL     1      -9.566   7.688  70.997  1.00  0.00    -0.169 C  
BRANCH   9  10
HETATM   10  C   UNL     1     -10.325   8.893  70.631  1.00  0.00    -0.265 A  
HETATM   11  C   UNL     1     -10.118   9.468  69.368  1.00  0.00    -0.206 A  
HETATM   12  C   UNL     1     -10.821  10.612  69.048  1.00  0.00    -0.235 A  
HETATM   13  C   UNL     1     -11.697  11.198  69.930  1.00  0.00    -0.355 A  
HETATM   14  C   UNL     1     -11.914  10.677  71.185  1.00  0.00    -0.401 A  
HETATM   15  O   UNL     1     -12.285  12.311  69.419  1.00  0.00    -0.199 OA 
HETATM   16  C   UNL     1     -11.212   9.519  71.538  1.00  0.00    -0.437 A  
HETATM   17  C   UNL     1     -11.678  12.361  68.111  1.00  0.00    -0.353 C  
HETATM   18  O   UNL     1     -10.745  11.288  67.869  1.00  0.00    -0.186 OA 
ENDBRANCH   9  10
ENDBRANCH   5   8
ENDBRANCH   2   5
TORSDOF 3
ENDMDL
MODEL      170
REMARK 921   NORMALIZED FREE ENERGY PREDICTED BY IDOCK:   -2.91 KCAL/MOL
REMARK 922        TOTAL FREE ENERGY PREDICTED BY IDOCK:   -3.81 KCAL/MOL
REMARK 923 INTER-LIGAND FREE ENERGY PREDICTED BY IDOCK:   -3.55 KCAL/MOL
REMARK 924 INTRA-LIGAND FREE ENERGY PREDICTED BY IDOCK:   -0.26 KCAL/MOL
REMARK 927      BINDING AFFINITY PREDICTED BY RF-SCORE:    0.00 PKD
ROOT
HETATM    1  C   UNL     1     -11.421  10.590  69.775  1.00  0.00    -0.365 C  
HETATM    2  C   UNL     1     -10.566  10.203  68.550  1.00  0.00    -0.245 C  
HETATM    3  C   UNL     1      -9.100  10.575  68.846  1.00  0.00    -0.180 C  
HETATM    4  C   UNL     1     -11.059  11.038  67.350  1.00  0.00    -0.370 C  
ENDROOT
BRANCH   2   5
HETATM    5  C   UNL     1     -10.696   8.667  68.298  1.00  0.00    -0.052 C  
HETATM    6  O   UNL     1      -9.961   8.288  67.136  1.00  0.00    -0.191 OA 
HETATM    7  H   UNL     1     -10.040   7.354  66.982  1.00  0.00     0.000 HD 
BRANCH   5   8
HETATM    8  C   UNL     1     -10.224   7.797  69.434  1.00  0.00    -0.208 C  
HETATM    9  C   UNL     1     -11.028   7.302  70.392  1.00  0.00    -0.273 C  
BRANCH   9  10
HETATM   10  C   UNL     1     -10.558   6.470  71.510  1.00  0.00    -0.265 A  
HETATM   11  C   UNL     1      -9.178   6.302  71.698  1.00  0.00    -0.147 A  
HETATM   12  C   UNL     1      -8.753   5.500  72.737  1.00  0.00    -0.119 A  
HETATM   13  C   UNL     1      -9.638   4.861  73.572  1.00  0.00    -0.132 A  
HETATM   14  C   UNL     1     -11.000   4.983  73.409  1.00  0.00    -0.393 A  
HETATM   15  O   UNL     1      -9.015   4.124  74.528  1.00  0.00    -0.099 OA 
HETATM   16  C   UNL     1     -11.459   5.789  72.361  1.00  0.00    -0.343 A  
HETATM   17  C   UNL     1      -7.632   4.370  74.200  1.00  0.00    -0.081 C  
HETATM   18  O   UNL     1      -7.457   5.240  73.062  1.00  0.00    -0.092 OA 
ENDBRANCH   9  10
ENDBRANCH   5   8
ENDBRANCH   2   5
TORSDOF 3
ENDMDL
MODEL      171
REMARK 921   NORMALIZED FREE ENERGY PREDICTED BY IDOCK:   -2.90 KCAL/MOL
REMARK 922        TOTAL FREE ENERGY PREDICTED BY IDOCK:   -3.79 KCAL/MOL
REMARK 923 INTER-LIGAND FREE ENERGY PREDICTED BY IDOCK:   -3.38 KCAL/MOL
REMARK 924 INTRA-LIGAND FREE ENERGY PREDICTED BY IDOCK:   -0.41 KCAL/MOL
REMARK 927      BINDING AFFINITY PREDICTED BY RF-SCORE:    0.00 PKD
ROOT
HETATM    1  C   UNL     1      -9.887  10.782  65.994  1.00  0.00    -0.285 C  
HETATM    2  C   UNL     1     -10.528  11.930  66.803  1.00  0.00    -0.253 C  
HETATM    3  C   UNL     1     -11.796  12.395  66.062  1.00  0.00    -0.459 C  
HETATM    4  C   UNL     1      -9.519  13.096  66.844  1.00  0.00    -0.244 C  
ENDROOT
BRANCH   2   5
HETATM    5  C   UNL     1     -10.893  11.410  68.230  1.00  0.00    -0.209 C  
HETATM    6  O   UNL     1     -12.264  11.022  68.284  1.00  0.00    -0.769 OA 
HETATM    7  H   UNL     1     -12.487  10.705  69.151  1.00  0.00     0.000 HD 
BRANCH   5   8
HETATM    8  C   UNL     1     -10.072  10.240  68.706  1.00  0.00    -0.198 C  
HETATM    9  C   UNL     1      -9.214  10.288  69.740  1.00  0.00    -0.101 C  
BRANCH   9  10
HETATM   10  C   UNL     1      -8.401   9.147  70.188  1.00  0.00    -0.174 A  
HETATM   11  C   UNL     1      -8.850   7.846  69.915  1.00  0.00    -0.141 A  
HETATM   12  C   UNL     1      -8.088   6.785  70.362  1.00  0.00    -0.116 A  
HETATM   13  C   UNL     1      -6.924   6.972  71.068  1.00  0.00    -0.065 A  
HETATM   14  C   UNL     1      -6.460   8.231  71.373  1.00  0.00    -0.046 A  
HETATM   15  O   UNL     1      -6.328   5.800  71.411  1.00  0.00    -0.040 OA 
HETATM   16  C   UNL     1      -7.214   9.326  70.935  1.00  0.00    -0.113 A  
HETATM   17  C   UNL     1      -7.252   4.851  70.841  1.00  0.00    -0.060 C  
HETATM   18  O   UNL     1      -8.373   5.467  70.176  1.00  0.00    -0.112 OA 
ENDBRANCH   9  10
ENDBRANCH   5   8
ENDBRANCH   2   5
TORSDOF 3
ENDMDL
MODEL      172
REMARK 921   NORMALIZED FREE ENERGY PREDICTED BY IDOCK:   -2.86 KCAL/MOL
REMARK 922        TOTAL FREE ENERGY PREDICTED BY IDOCK:   -3.74 KCAL/MOL
REMARK 923 INTER-LIGAND FREE ENERGY PREDICTED BY IDOCK:   -3.36 KCAL/MOL
REMARK 924 INTRA-LIGAND FREE ENERGY PREDICTED BY IDOCK:   -0.38 KCAL/MOL
REMARK 927      BINDING AFFINITY PREDICTED BY RF-SCORE:    0.00 PKD
ROOT
HETATM    1  C   UNL     1      -6.901   3.928  65.468  1.00  0.00    -0.057 C  
HETATM    2  C   UNL     1      -8.117   4.610  64.804  1.00  0.00    -0.107 C  
HETATM    3  C   UNL     1      -8.805   3.582  63.885  1.00  0.00    -0.094 C  
HETATM    4  C   UNL     1      -7.590   5.774  63.942  1.00  0.00    -0.083 C  
ENDROOT
BRANCH   2   5
HETATM    5  C   UNL     1      -9.105   5.092  65.914  1.00  0.00    -0.150 C  
HETATM    6  O   UNL     1      -8.535   4.898  67.207  1.00  0.00    -0.106 OA 
HETATM    7  H   UNL     1      -9.135   5.191  67.883  1.00  0.00     0.000 HD 
BRANCH   5   8
HETATM    8  C   UNL     1      -9.513   6.539  65.813  1.00  0.00     0.190 C  
HETATM    9  C   UNL     1      -9.759   7.331  66.870  1.00  0.00    -0.252 C  
BRANCH   9  10
HETATM   10  C   UNL     1     -10.177   8.738  66.764  1.00  0.00    -0.354 A  
HETATM   11  C   UNL     1      -9.784   9.479  65.639  1.00  0.00    -0.361 A  
HETATM   12  C   UNL     1     -10.164  10.804  65.565  1.00  0.00    -0.266 A  
HETATM   13  C   UNL     1     -10.896  11.407  66.559  1.00  0.00    -0.283 A  
HETATM   14  C   UNL     1     -11.284  10.721  67.687  1.00  0.00    -0.370 A  
HETATM   15  O   UNL     1     -11.165  12.712  66.290  1.00  0.00    -0.285 OA 
HETATM   16  C   UNL     1     -10.910   9.377  67.791  1.00  0.00    -0.223 A  
HETATM   17  C   UNL     1     -10.516  12.863  65.011  1.00  0.00    -0.318 C  
HETATM   18  O   UNL     1      -9.876  11.657  64.545  1.00  0.00    -0.243 OA 
ENDBRANCH   9  10
ENDBRANCH   5   8
ENDBRANCH   2   5
TORSDOF 3
ENDMDL
MODEL      173
REMARK 921   NORMALIZED FREE ENERGY PREDICTED BY IDOCK:   -2.85 KCAL/MOL
REMARK 922        TOTAL FREE ENERGY PREDICTED BY IDOCK:   -3.73 KCAL/MOL
REMARK 923 INTER-LIGAND FREE ENERGY PREDICTED BY IDOCK:   -3.37 KCAL/MOL
REMARK 924 INTRA-LIGAND FREE ENERGY PREDICTED BY IDOCK:   -0.36 KCAL/MOL
REMARK 927      BINDING AFFINITY PREDICTED BY RF-SCORE:    0.00 PKD
ROOT
HETATM    1  C   UNL     1      -9.075  15.595  68.773  1.00  0.00    -0.208 C  
HETATM    2  C   UNL     1     -10.246  15.486  67.773  1.00  0.00    -0.243 C  
HETATM    3  C   UNL     1     -10.181  16.694  66.818  1.00  0.00    -0.301 C  
HETATM    4  C   UNL     1     -11.559  15.558  68.578  1.00  0.00    -0.379 C  
ENDROOT
BRANCH   2   5
HETATM    5  C   UNL     1     -10.113  14.152  66.971  1.00  0.00    -0.261 C  
HETATM    6  O   UNL     1      -9.289  14.341  65.822  1.00  0.00    -0.520 OA 
HETATM    7  H   UNL     1      -9.208  13.530  65.334  1.00  0.00     0.000 HD 
BRANCH   5   8
HETATM    8  C   UNL     1      -9.541  12.998  67.753  1.00  0.00    -0.208 C  
HETATM    9  C   UNL     1      -8.975  11.914  67.196  1.00  0.00    -0.178 C  
BRANCH   9  10
HETATM   10  C   UNL     1      -8.435  10.781  67.964  1.00  0.00    -0.124 A  
HETATM   11  C   UNL     1      -7.783  11.036  69.180  1.00  0.00    -0.102 A  
HETATM   12  C   UNL     1      -7.262   9.966  69.879  1.00  0.00    -0.129 A  
HETATM   13  C   UNL     1      -7.355   8.677  69.410  1.00  0.00    -0.072 A  
HETATM   14  C   UNL     1      -7.969   8.387  68.213  1.00  0.00    -0.119 A  
HETATM   15  O   UNL     1      -6.781   7.775  70.248  1.00  0.00    -0.038 OA 
HETATM   16  C   UNL     1      -8.504   9.454  67.482  1.00  0.00    -0.122 A  
HETATM   17  C   UNL     1      -6.312   8.643  71.300  1.00  0.00    -0.053 C  
HETATM   18  O   UNL     1      -6.611  10.036  71.072  1.00  0.00    -0.309 OA 
ENDBRANCH   9  10
ENDBRANCH   5   8
ENDBRANCH   2   5
TORSDOF 3
ENDMDL
MODEL      174
REMARK 921   NORMALIZED FREE ENERGY PREDICTED BY IDOCK:   -2.84 KCAL/MOL
REMARK 922        TOTAL FREE ENERGY PREDICTED BY IDOCK:   -3.73 KCAL/MOL
REMARK 923 INTER-LIGAND FREE ENERGY PREDICTED BY IDOCK:   -3.31 KCAL/MOL
REMARK 924 INTRA-LIGAND FREE ENERGY PREDICTED BY IDOCK:   -0.42 KCAL/MOL
REMARK 927      BINDING AFFINITY PREDICTED BY RF-SCORE:    0.00 PKD
ROOT
HETATM    1  C   UNL     1      -7.882   3.763  67.780  1.00  0.00    -0.081 C  
HETATM    2  C   UNL     1      -8.924   4.900  67.703  1.00  0.00    -0.116 C  
HETATM    3  C   UNL     1      -9.404   5.212  69.133  1.00  0.00    -0.171 C  
HETATM    4  C   UNL     1     -10.120   4.385  66.877  1.00  0.00    -0.159 C  
ENDROOT
BRANCH   2   5
HETATM    5  C   UNL     1      -8.261   6.162  67.065  1.00  0.00    -0.106 C  
HETATM    6  O   UNL     1      -8.429   6.152  65.649  1.00  0.00    -0.143 OA 
HETATM    7  H   UNL     1      -8.026   6.919  65.260  1.00  0.00     0.000 HD 
BRANCH   5   8
HETATM    8  C   UNL     1      -8.787   7.479  67.574  1.00  0.00    -0.127 C  
HETATM    9  C   UNL     1      -9.610   8.284  66.879  1.00  0.00    -0.269 C  
BRANCH   9  10
HETATM   10  C   UNL     1     -10.105   9.577  67.373  1.00  0.00    -0.262 A  
HETATM   11  C   UNL     1      -9.595  10.758  66.813  1.00  0.00    -0.201 A  
HETATM   12  C   UNL     1     -10.053  11.965  67.303  1.00  0.00    -0.196 A  
HETATM   13  C   UNL     1     -10.974  12.034  68.321  1.00  0.00    -0.234 A  
HETATM   14  C   UNL     1     -11.484  10.900  68.911  1.00  0.00    -0.369 A  
HETATM   15  O   UNL     1     -11.290  13.313  68.652  1.00  0.00    -0.250 OA 
HETATM   16  C   UNL     1     -11.035   9.662  68.436  1.00  0.00    -0.161 A  
HETATM   17  C   UNL     1     -10.461  14.044  67.725  1.00  0.00    -0.236 C  
HETATM   18  O   UNL     1      -9.670  13.196  66.868  1.00  0.00    -0.230 OA 
ENDBRANCH   9  10
ENDBRANCH   5   8
ENDBRANCH   2   5
TORSDOF 3
ENDMDL
MODEL      175
REMARK 921   NORMALIZED FREE ENERGY PREDICTED BY IDOCK:   -2.81 KCAL/MOL
REMARK 922        TOTAL FREE ENERGY PREDICTED BY IDOCK:   -3.68 KCAL/MOL
REMARK 923 INTER-LIGAND FREE ENERGY PREDICTED BY IDOCK:   -3.34 KCAL/MOL
REMARK 924 INTRA-LIGAND FREE ENERGY PREDICTED BY IDOCK:   -0.34 KCAL/MOL
REMARK 927      BINDING AFFINITY PREDICTED BY RF-SCORE:    0.00 PKD
ROOT
HETATM    1  C   UNL     1      -5.600  10.349  68.861  1.00  0.00    -0.041 C  
HETATM    2  C   UNL     1      -6.435  10.866  67.670  1.00  0.00    -0.056 C  
HETATM    3  C   UNL     1      -6.340   9.834  66.530  1.00  0.00    -0.069 C  
HETATM    4  C   UNL     1      -5.806  12.192  67.195  1.00  0.00    -0.139 C  
ENDROOT
BRANCH   2   5
HETATM    5  C   UNL     1      -7.920  11.041  68.121  1.00  0.00    -0.119 C  
HETATM    6  O   UNL     1      -8.793  10.994  66.994  1.00  0.00    -0.139 OA 
HETATM    7  H   UNL     1      -9.696  11.101  67.268  1.00  0.00     0.000 HD 
BRANCH   5   8
HETATM    8  C   UNL     1      -8.406  10.014  69.111  1.00  0.00    -0.146 C  
HETATM    9  C   UNL     1      -9.682   9.899  69.516  1.00  0.00    -0.238 C  
BRANCH   9  10
HETATM   10  C   UNL     1     -10.147   8.906  70.498  1.00  0.00    -0.248 A  
HETATM   11  C   UNL     1      -9.464   8.788  71.718  1.00  0.00    -0.363 A  
HETATM   12  C   UNL     1      -9.897   7.837  72.620  1.00  0.00    -0.225 A  
HETATM   13  C   UNL     1     -10.959   7.008  72.348  1.00  0.00    -0.248 A  
HETATM   14  C   UNL     1     -11.642   7.078  71.155  1.00  0.00    -0.351 A  
HETATM   15  O   UNL     1     -11.223   6.147  73.366  1.00  0.00    -0.147 OA 
HETATM   16  C   UNL     1     -11.222   8.031  70.221  1.00  0.00    -0.192 A  
HETATM   17  C   UNL     1     -10.203   6.529  74.312  1.00  0.00    -0.350 C  
HETATM   18  O   UNL     1      -9.356   7.599  73.845  1.00  0.00    -0.270 OA 
ENDBRANCH   9  10
ENDBRANCH   5   8
ENDBRANCH   2   5
TORSDOF 3
ENDMDL
MODEL      176
REMARK 921   NORMALIZED FREE ENERGY PREDICTED BY IDOCK:   -2.74 KCAL/MOL
REMARK 922        TOTAL FREE ENERGY PREDICTED BY IDOCK:   -3.60 KCAL/MOL
REMARK 923 INTER-LIGAND FREE ENERGY PREDICTED BY IDOCK:   -3.25 KCAL/MOL
REMARK 924 INTRA-LIGAND FREE ENERGY PREDICTED BY IDOCK:   -0.35 KCAL/MOL
REMARK 927      BINDING AFFINITY PREDICTED BY RF-SCORE:    0.00 PKD
ROOT
HETATM    1  C   UNL     1      -9.199   7.638  72.768  1.00  0.00    -0.226 C  
HETATM    2  C   UNL     1      -9.573   6.312  72.070  1.00  0.00    -0.161 C  
HETATM    3  C   UNL     1     -10.423   5.476  73.046  1.00  0.00    -0.244 C  
HETATM    4  C   UNL     1      -8.264   5.553  71.773  1.00  0.00    -0.119 C  
ENDROOT
BRANCH   2   5
HETATM    5  C   UNL     1     -10.385   6.626  70.773  1.00  0.00    -0.202 C  
HETATM    6  O   UNL     1     -11.775   6.738  71.071  1.00  0.00    -0.317 OA 
HETATM    7  H   UNL     1     -12.270   6.929  70.282  1.00  0.00     0.000 HD 
BRANCH   5   8
HETATM    8  C   UNL     1      -9.973   7.887  70.058  1.00  0.00    -0.191 C  
HETATM    9  C   UNL     1     -10.594   8.378  68.972  1.00  0.00    -0.172 C  
BRANCH   9  10
HETATM   10  C   UNL     1     -10.175   9.599  68.267  1.00  0.00    -0.216 A  
HETATM   11  C   UNL     1      -9.659  10.670  69.012  1.00  0.00    -0.207 A  
HETATM   12  C   UNL     1      -9.292  11.817  68.339  1.00  0.00    -0.185 A  
HETATM   13  C   UNL     1      -9.430  11.937  66.977  1.00  0.00    -0.188 A  
HETATM   14  C   UNL     1      -9.950  10.918  66.212  1.00  0.00    -0.274 A  
HETATM   15  O   UNL     1      -9.009  13.143  66.514  1.00  0.00    -0.177 OA 
HETATM   16  C   UNL     1     -10.334   9.743  66.869  1.00  0.00    -0.301 A  
HETATM   17  C   UNL     1      -8.590  13.772  67.742  1.00  0.00    -0.184 C  
HETATM   18  O   UNL     1      -8.769  12.938  68.906  1.00  0.00     0.114 OA 
ENDBRANCH   9  10
ENDBRANCH   5   8
ENDBRANCH   2   5
TORSDOF 3
ENDMDL
MODEL      177
REMARK 921   NORMALIZED FREE ENERGY PREDICTED BY IDOCK:   -2.61 KCAL/MOL
REMARK 922        TOTAL FREE ENERGY PREDICTED BY IDOCK:   -3.45 KCAL/MOL
REMARK 923 INTER-LIGAND FREE ENERGY PREDICTED BY IDOCK:   -4.35 KCAL/MOL
REMARK 924 INTRA-LIGAND FREE ENERGY PREDICTED BY IDOCK:    0.90 KCAL/MOL
REMARK 927      BINDING AFFINITY PREDICTED BY RF-SCORE:    0.00 PKD
ROOT
HETATM    1  C   UNL     1      -9.516  11.942  68.013  1.00  0.00    -0.197 C  
HETATM    2  C   UNL     1     -11.057  12.024  68.009  1.00  0.00    -0.292 C  
HETATM    3  C   UNL     1     -11.608  10.814  68.788  1.00  0.00    -0.350 C  
HETATM    4  C   UNL     1     -11.529  11.928  66.543  1.00  0.00    -0.381 C  
ENDROOT
BRANCH   2   5
HETATM    5  C   UNL     1     -11.502  13.357  68.690  1.00  0.00    -0.310 C  
HETATM    6  O   UNL     1     -11.606  13.184  70.102  1.00  0.00    -0.506 OA 
HETATM    7  H   UNL     1     -11.877  13.995  70.518  1.00  0.00     0.000 HD 
BRANCH   5   8
HETATM    8  C   UNL     1     -10.588  14.529  68.444  1.00  0.00    -0.244 C  
HETATM    9  C   UNL     1      -9.274  14.421  68.183  1.00  0.00    -0.199 C  
BRANCH   9  10
HETATM   10  C   UNL     1      -8.382  15.570  67.963  1.00  0.00    -0.142 A  
HETATM   11  C   UNL     1      -8.175  16.026  66.653  1.00  0.00    -0.324 A  
HETATM   12  C   UNL     1      -7.318  17.091  66.459  1.00  0.00    -0.285 A  
HETATM   13  C   UNL     1      -6.663  17.696  67.505  1.00  0.00    -0.163 A  
HETATM   14  C   UNL     1      -6.823  17.266  68.803  1.00  0.00    -0.219 A  
HETATM   15  O   UNL     1      -5.870  18.723  67.101  1.00  0.00    -0.152 OA 
HETATM   16  C   UNL     1      -7.685  16.186  69.028  1.00  0.00    -0.222 A  
HETATM   17  C   UNL     1      -6.099  18.695  65.677  1.00  0.00    -0.233 C  
HETATM   18  O   UNL     1      -7.014  17.660  65.261  1.00  0.00    -0.133 OA 
ENDBRANCH   9  10
ENDBRANCH   5   8
ENDBRANCH   2   5
TORSDOF 3
ENDMDL
MODEL      178
REMARK 921   NORMALIZED FREE ENERGY PREDICTED BY IDOCK:   -2.58 KCAL/MOL
REMARK 922        TOTAL FREE ENERGY PREDICTED BY IDOCK:   -3.42 KCAL/MOL
REMARK 923 INTER-LIGAND FREE ENERGY PREDICTED BY IDOCK:   -3.08 KCAL/MOL
REMARK 924 INTRA-LIGAND FREE ENERGY PREDICTED BY IDOCK:   -0.34 KCAL/MOL
REMARK 927      BINDING AFFINITY PREDICTED BY RF-SCORE:    0.00 PKD
ROOT
HETATM    1  C   UNL     1     -10.109  12.667  68.798  1.00  0.00    -0.057 C  
HETATM    2  C   UNL     1      -8.946  12.862  67.801  1.00  0.00    -0.191 C  
HETATM    3  C   UNL     1      -7.624  12.578  68.540  1.00  0.00    -0.119 C  
HETATM    4  C   UNL     1      -8.958  14.336  67.349  1.00  0.00    -0.205 C  
ENDROOT
BRANCH   2   5
HETATM    5  C   UNL     1      -9.124  11.872  66.606  1.00  0.00    -0.203 C  
HETATM    6  O   UNL     1      -7.982  11.911  65.752  1.00  0.00    -0.139 OA 
HETATM    7  H   UNL     1      -8.090  11.309  65.025  1.00  0.00     0.000 HD 
BRANCH   5   8
HETATM    8  C   UNL     1      -9.342  10.434  67.002  1.00  0.00    -0.176 C  
HETATM    9  C   UNL     1      -9.136   9.386  66.187  1.00  0.00    -0.214 C  
BRANCH   9  10
HETATM   10  C   UNL     1      -9.370   7.986  66.573  1.00  0.00    -0.261 A  
HETATM   11  C   UNL     1      -8.591   6.980  65.982  1.00  0.00    -0.154 A  
HETATM   12  C   UNL     1      -8.837   5.669  66.338  1.00  0.00    -0.129 A  
HETATM   13  C   UNL     1      -9.823   5.331  67.235  1.00  0.00    -0.161 A  
HETATM   14  C   UNL     1     -10.622   6.286  67.822  1.00  0.00    -0.329 A  
HETATM   15  O   UNL     1      -9.899   3.992  67.446  1.00  0.00    -0.177 OA 
HETATM   16  C   UNL     1     -10.396   7.624  67.477  1.00  0.00    -0.326 A  
HETATM   17  C   UNL     1      -8.848   3.521  66.578  1.00  0.00    -0.133 C  
HETATM   18  O   UNL     1      -8.172   4.579  65.868  1.00  0.00    -0.108 OA 
ENDBRANCH   9  10
ENDBRANCH   5   8
ENDBRANCH   2   5
TORSDOF 3
ENDMDL
MODEL      179
REMARK 921   NORMALIZED FREE ENERGY PREDICTED BY IDOCK:   -2.58 KCAL/MOL
REMARK 922        TOTAL FREE ENERGY PREDICTED BY IDOCK:   -3.42 KCAL/MOL
REMARK 923 INTER-LIGAND FREE ENERGY PREDICTED BY IDOCK:   -3.18 KCAL/MOL
REMARK 924 INTRA-LIGAND FREE ENERGY PREDICTED BY IDOCK:   -0.24 KCAL/MOL
REMARK 927      BINDING AFFINITY PREDICTED BY RF-SCORE:    0.00 PKD
ROOT
HETATM    1  C   UNL     1      -7.486  10.602  67.258  1.00  0.00    -0.099 C  
HETATM    2  C   UNL     1      -8.267  10.006  66.067  1.00  0.00    -0.126 C  
HETATM    3  C   UNL     1      -7.326   9.059  65.298  1.00  0.00    -0.092 C  
HETATM    4  C   UNL     1      -8.668  11.171  65.139  1.00  0.00     0.005 C  
ENDROOT
BRANCH   2   5
HETATM    5  C   UNL     1      -9.505   9.222  66.606  1.00  0.00    -0.191 C  
HETATM    6  O   UNL     1      -9.844   8.155  65.722  1.00  0.00    -0.423 OA 
HETATM    7  H   UNL     1     -10.597   7.678  66.049  1.00  0.00     0.000 HD 
BRANCH   5   8
HETATM    8  C   UNL     1      -9.330   8.631  67.981  1.00  0.00    -0.147 C  
HETATM    9  C   UNL     1      -9.875   9.142  69.099  1.00  0.00    -0.171 C  
BRANCH   9  10
HETATM   10  C   UNL     1      -9.685   8.572  70.441  1.00  0.00    -0.193 A  
HETATM   11  C   UNL     1      -8.591   8.997  71.210  1.00  0.00    -0.221 A  
HETATM   12  C   UNL     1      -8.412   8.436  72.459  1.00  0.00    -0.162 A  
HETATM   13  C   UNL     1      -9.263   7.476  72.953  1.00  0.00    -0.168 A  
HETATM   14  C   UNL     1     -10.335   7.017  72.222  1.00  0.00    -0.216 A  
HETATM   15  O   UNL     1      -8.911   7.058  74.197  1.00  0.00    -0.162 OA 
HETATM   16  C   UNL     1     -10.538   7.566  70.952  1.00  0.00    -0.227 A  
HETATM   17  C   UNL     1      -7.739   7.865  74.431  1.00  0.00    -0.207 C  
HETATM   18  O   UNL     1      -7.414   8.740  73.332  1.00  0.00    -0.376 OA 
ENDBRANCH   9  10
ENDBRANCH   5   8
ENDBRANCH   2   5
TORSDOF 3
ENDMDL
MODEL      180
REMARK 921   NORMALIZED FREE ENERGY PREDICTED BY IDOCK:   -2.56 KCAL/MOL
REMARK 922        TOTAL FREE ENERGY PREDICTED BY IDOCK:   -3.39 KCAL/MOL
REMARK 923 INTER-LIGAND FREE ENERGY PREDICTED BY IDOCK:   -3.39 KCAL/MOL
REMARK 924 INTRA-LIGAND FREE ENERGY PREDICTED BY IDOCK:   -0.00 KCAL/MOL
REMARK 927      BINDING AFFINITY PREDICTED BY RF-SCORE:    0.00 PKD
ROOT
HETATM    1  C   UNL     1      -7.067   3.027  67.875  1.00  0.00    -0.050 C  
HETATM    2  C   UNL     1      -8.232   3.667  67.088  1.00  0.00    -0.091 C  
HETATM    3  C   UNL     1      -8.664   2.686  65.981  1.00  0.00    -0.128 C  
HETATM    4  C   UNL     1      -7.701   4.957  66.431  1.00  0.00    -0.092 C  
ENDROOT
BRANCH   2   5
HETATM    5  C   UNL     1      -9.420   3.941  68.064  1.00  0.00    -0.165 C  
HETATM    6  O   UNL     1      -9.022   3.709  69.413  1.00  0.00    -0.090 OA 
HETATM    7  H   UNL     1      -9.744   3.876  70.007  1.00  0.00     0.000 HD 
BRANCH   5   8
HETATM    8  C   UNL     1      -9.987   5.336  67.994  1.00  0.00    -0.202 C  
HETATM    9  C   UNL     1      -9.394   6.420  68.522  1.00  0.00    -0.122 C  
BRANCH   9  10
HETATM   10  C   UNL     1      -9.961   7.776  68.467  1.00  0.00    -0.193 A  
HETATM   11  C   UNL     1     -10.462   8.350  69.645  1.00  0.00    -0.221 A  
HETATM   12  C   UNL     1     -11.012   9.614  69.573  1.00  0.00    -0.208 A  
HETATM   13  C   UNL     1     -11.090  10.307  68.389  1.00  0.00    -0.247 A  
HETATM   14  C   UNL     1     -10.629   9.772  67.208  1.00  0.00    -0.320 A  
HETATM   15  O   UNL     1     -11.663  11.530  68.537  1.00  0.00    -0.290 OA 
HETATM   16  C   UNL     1     -10.068   8.490  67.251  1.00  0.00    -0.317 A  
HETATM   17  C   UNL     1     -11.940  11.529  69.953  1.00  0.00    -0.351 C  
HETATM   18  O   UNL     1     -11.532  10.315  70.617  1.00  0.00    -0.306 OA 
ENDBRANCH   9  10
ENDBRANCH   5   8
ENDBRANCH   2   5
TORSDOF 3
ENDMDL
MODEL      181
REMARK 921   NORMALIZED FREE ENERGY PREDICTED BY IDOCK:   -2.54 KCAL/MOL
REMARK 922        TOTAL FREE ENERGY PREDICTED BY IDOCK:   -3.37 KCAL/MOL
REMARK 923 INTER-LIGAND FREE ENERGY PREDICTED BY IDOCK:   -2.98 KCAL/MOL
REMARK 924 INTRA-LIGAND FREE ENERGY PREDICTED BY IDOCK:   -0.39 KCAL/MOL
REMARK 927      BINDING AFFINITY PREDICTED BY RF-SCORE:    0.00 PKD
ROOT
HETATM    1  C   UNL     1      -6.854  10.151  63.703  1.00  0.00    -0.112 C  
HETATM    2  C   UNL     1      -7.837   9.382  64.611  1.00  0.00    -0.120 C  
HETATM    3  C   UNL     1      -8.111   8.007  63.971  1.00  0.00    -0.102 C  
HETATM    4  C   UNL     1      -9.155  10.180  64.660  1.00  0.00    -0.268 C  
ENDROOT
BRANCH   2   5
HETATM    5  C   UNL     1      -7.198   9.204  66.026  1.00  0.00    -0.094 C  
HETATM    6  O   UNL     1      -6.587  10.420  66.453  1.00  0.00    -0.084 OA 
HETATM    7  H   UNL     1      -6.199  10.313  67.313  1.00  0.00     0.000 HD 
BRANCH   5   8
HETATM    8  C   UNL     1      -8.159   8.777  67.105  1.00  0.00    -0.100 C  
HETATM    9  C   UNL     1      -8.160   7.561  67.678  1.00  0.00    -0.118 C  
BRANCH   9  10
HETATM   10  C   UNL     1      -9.113   7.143  68.717  1.00  0.00    -0.134 A  
HETATM   11  C   UNL     1      -8.635   6.883  70.011  1.00  0.00    -0.141 A  
HETATM   12  C   UNL     1      -9.538   6.470  70.970  1.00  0.00    -0.175 A  
HETATM   13  C   UNL     1     -10.871   6.297  70.687  1.00  0.00    -0.280 A  
HETATM   14  C   UNL     1     -11.377   6.521  69.426  1.00  0.00    -0.395 A  
HETATM   15  O   UNL     1     -11.585   5.889  71.768  1.00  0.00    -0.254 OA 
HETATM   16  C   UNL     1     -10.483   6.939  68.433  1.00  0.00    -0.235 A  
HETATM   17  C   UNL     1     -10.547   5.822  72.768  1.00  0.00    -0.226 C  
HETATM   18  O   UNL     1      -9.244   6.186  72.268  1.00  0.00    -0.145 OA 
ENDBRANCH   9  10
ENDBRANCH   5   8
ENDBRANCH   2   5
TORSDOF 3
ENDMDL
MODEL      182
REMARK 921   NORMALIZED FREE ENERGY PREDICTED BY IDOCK:   -2.50 KCAL/MOL
REMARK 922        TOTAL FREE ENERGY PREDICTED BY IDOCK:   -3.32 KCAL/MOL
REMARK 923 INTER-LIGAND FREE ENERGY PREDICTED BY IDOCK:   -2.98 KCAL/MOL
REMARK 924 INTRA-LIGAND FREE ENERGY PREDICTED BY IDOCK:   -0.34 KCAL/MOL
REMARK 927      BINDING AFFINITY PREDICTED BY RF-SCORE:    0.00 PKD
ROOT
HETATM    1  C   UNL     1      -9.805  12.743  65.594  1.00  0.00    -0.190 C  
HETATM    2  C   UNL     1      -9.716  11.254  65.194  1.00  0.00    -0.285 C  
HETATM    3  C   UNL     1      -9.319  11.177  63.707  1.00  0.00    -0.204 C  
HETATM    4  C   UNL     1     -11.118  10.637  65.368  1.00  0.00     0.303 C  
ENDROOT
BRANCH   2   5
HETATM    5  C   UNL     1      -8.641  10.548  66.080  1.00  0.00    -0.150 C  
HETATM    6  O   UNL     1      -7.483  11.369  66.210  1.00  0.00    -0.329 OA 
HETATM    7  H   UNL     1      -6.829  10.940  66.749  1.00  0.00     0.000 HD 
BRANCH   5   8
HETATM    8  C   UNL     1      -9.102  10.193  67.470  1.00  0.00    -0.143 C  
HETATM    9  C   UNL     1      -8.446   9.358  68.294  1.00  0.00    -0.120 C  
BRANCH   9  10
HETATM   10  C   UNL     1      -8.910   9.000  69.643  1.00  0.00    -0.145 A  
HETATM   11  C   UNL     1      -7.964   8.635  70.612  1.00  0.00    -0.113 A  
HETATM   12  C   UNL     1      -8.417   8.280  71.867  1.00  0.00    -0.160 A  
HETATM   13  C   UNL     1      -9.755   8.265  72.180  1.00  0.00    -0.274 A  
HETATM   14  C   UNL     1     -10.716   8.597  71.252  1.00  0.00    -0.322 A  
HETATM   15  O   UNL     1      -9.986   7.889  73.465  1.00  0.00    -0.296 OA 
HETATM   16  C   UNL     1     -10.285   8.958  69.971  1.00  0.00    -0.214 A  
HETATM   17  C   UNL     1      -8.638   7.667  73.928  1.00  0.00    -0.237 C  
HETATM   18  O   UNL     1      -7.636   7.910  72.919  1.00  0.00    -0.102 OA 
ENDBRANCH   9  10
ENDBRANCH   5   8
ENDBRANCH   2   5
TORSDOF 3
ENDMDL
MODEL      183
REMARK 921   NORMALIZED FREE ENERGY PREDICTED BY IDOCK:   -2.47 KCAL/MOL
REMARK 922        TOTAL FREE ENERGY PREDICTED BY IDOCK:   -3.29 KCAL/MOL
REMARK 923 INTER-LIGAND FREE ENERGY PREDICTED BY IDOCK:   -2.95 KCAL/MOL
REMARK 924 INTRA-LIGAND FREE ENERGY PREDICTED BY IDOCK:   -0.34 KCAL/MOL
REMARK 927      BINDING AFFINITY PREDICTED BY RF-SCORE:    0.00 PKD
ROOT
HETATM    1  C   UNL     1      -6.125   8.518  66.840  1.00  0.00    -0.054 C  
HETATM    2  C   UNL     1      -7.098   8.584  65.644  1.00  0.00    -0.079 C  
HETATM    3  C   UNL     1      -6.578   7.638  64.545  1.00  0.00    -0.048 C  
HETATM    4  C   UNL     1      -7.083  10.029  65.106  1.00  0.00    -0.135 C  
ENDROOT
BRANCH   2   5
HETATM    5  C   UNL     1      -8.520   8.140  66.114  1.00  0.00    -0.136 C  
HETATM    6  O   UNL     1      -9.136   7.313  65.129  1.00  0.00    -0.320 OA 
HETATM    7  H   UNL     1     -10.001   7.043  65.415  1.00  0.00     0.000 HD 
BRANCH   5   8
HETATM    8  C   UNL     1      -8.549   7.387  67.419  1.00  0.00    -0.118 C  
HETATM    9  C   UNL     1      -9.670   6.938  68.008  1.00  0.00    -0.138 C  
BRANCH   9  10
HETATM   10  C   UNL     1      -9.693   6.220  69.292  1.00  0.00    -0.157 A  
HETATM   11  C   UNL     1     -10.770   6.428  70.167  1.00  0.00    -0.328 A  
HETATM   12  C   UNL     1     -10.766   5.765  71.377  1.00  0.00    -0.256 A  
HETATM   13  C   UNL     1      -9.740   4.927  71.744  1.00  0.00    -0.166 A  
HETATM   14  C   UNL     1      -8.656   4.711  70.924  1.00  0.00    -0.124 A  
HETATM   15  O   UNL     1      -9.931   4.375  72.971  1.00  0.00    -0.140 OA 
HETATM   16  C   UNL     1      -8.632   5.373  69.691  1.00  0.00    -0.103 A  
HETATM   17  C   UNL     1     -11.197   4.962  73.337  1.00  0.00    -0.338 C  
HETATM   18  O   UNL     1     -11.732   5.848  72.332  1.00  0.00    -0.309 OA 
ENDBRANCH   9  10
ENDBRANCH   5   8
ENDBRANCH   2   5
TORSDOF 3
ENDMDL
MODEL      184
REMARK 921   NORMALIZED FREE ENERGY PREDICTED BY IDOCK:   -2.39 KCAL/MOL
REMARK 922        TOTAL FREE ENERGY PREDICTED BY IDOCK:   -3.19 KCAL/MOL
REMARK 923 INTER-LIGAND FREE ENERGY PREDICTED BY IDOCK:   -2.78 KCAL/MOL
REMARK 924 INTRA-LIGAND FREE ENERGY PREDICTED BY IDOCK:   -0.41 KCAL/MOL
REMARK 927      BINDING AFFINITY PREDICTED BY RF-SCORE:    0.00 PKD
ROOT
HETATM    1  C   UNL     1     -10.255  11.270  68.848  1.00  0.00    -0.195 C  
HETATM    2  C   UNL     1     -10.231   9.740  69.048  1.00  0.00    -0.214 C  
HETATM    3  C   UNL     1     -10.550   9.070  67.698  1.00  0.00    -0.298 C  
HETATM    4  C   UNL     1     -11.340   9.381  70.057  1.00  0.00    -0.172 C  
ENDROOT
BRANCH   2   5
HETATM    5  C   UNL     1      -8.814   9.309  69.546  1.00  0.00    -0.151 C  
HETATM    6  O   UNL     1      -8.179  10.385  70.234  1.00  0.00    -0.375 OA 
HETATM    7  H   UNL     1      -7.317  10.124  70.536  1.00  0.00     0.000 HD 
BRANCH   5   8
HETATM    8  C   UNL     1      -8.801   8.115  70.464  1.00  0.00    -0.144 C  
HETATM    9  C   UNL     1      -8.825   6.838  70.045  1.00  0.00    -0.142 C  
BRANCH   9  10
HETATM   10  C   UNL     1      -8.832   5.677  70.948  1.00  0.00    -0.147 A  
HETATM   11  C   UNL     1      -9.694   5.683  72.055  1.00  0.00    -0.182 A  
HETATM   12  C   UNL     1      -9.673   4.596  72.905  1.00  0.00    -0.136 A  
HETATM   13  C   UNL     1      -8.831   3.529  72.701  1.00  0.00    -0.085 A  
HETATM   14  C   UNL     1      -7.956   3.493  71.639  1.00  0.00    -0.061 A  
HETATM   15  O   UNL     1      -8.969   2.567  73.650  1.00  0.00    -0.076 OA 
HETATM   16  C   UNL     1      -7.954   4.584  70.762  1.00  0.00    -0.068 A  
HETATM   17  C   UNL     1      -9.996   3.150  74.478  1.00  0.00    -0.138 C  
HETATM   18  O   UNL     1     -10.446   4.440  74.014  1.00  0.00    -0.197 OA 
ENDBRANCH   9  10
ENDBRANCH   5   8
ENDBRANCH   2   5
TORSDOF 3
ENDMDL
MODEL      185
REMARK 921   NORMALIZED FREE ENERGY PREDICTED BY IDOCK:   -2.34 KCAL/MOL
REMARK 922        TOTAL FREE ENERGY PREDICTED BY IDOCK:   -3.13 KCAL/MOL
REMARK 923 INTER-LIGAND FREE ENERGY PREDICTED BY IDOCK:   -3.02 KCAL/MOL
REMARK 924 INTRA-LIGAND FREE ENERGY PREDICTED BY IDOCK:   -0.11 KCAL/MOL
REMARK 927      BINDING AFFINITY PREDICTED BY RF-SCORE:    0.00 PKD
ROOT
HETATM    1  C   UNL     1     -12.784  15.154  73.539  1.00  0.00    -0.678 C  
HETATM    2  C   UNL     1     -12.823  14.742  72.051  1.00  0.00    -0.399 C  
HETATM    3  C   UNL     1     -11.575  15.321  71.357  1.00  0.00    -0.446 C  
HETATM    4  C   UNL     1     -14.081  15.373  71.422  1.00  0.00    -0.539 C  
ENDROOT
BRANCH   2   5
HETATM    5  C   UNL     1     -12.826  13.183  71.950  1.00  0.00    -0.225 C  
HETATM    6  O   UNL     1     -14.113  12.711  71.556  1.00  0.00     0.627 OA 
HETATM    7  H   UNL     1     -14.116  11.764  71.494  1.00  0.00     0.000 HD 
BRANCH   5   8
HETATM    8  C   UNL     1     -11.820  12.609  70.986  1.00  0.00     0.488 C  
HETATM    9  C   UNL     1     -11.911  12.711  69.649  1.00  0.00    -0.352 C  
BRANCH   9  10
HETATM   10  C   UNL     1     -10.936  12.132  68.712  1.00  0.00    -0.274 A  
HETATM   11  C   UNL     1      -9.714  12.791  68.512  1.00  0.00    -0.129 A  
HETATM   12  C   UNL     1      -8.818  12.249  67.613  1.00  0.00    -0.175 A  
HETATM   13  C   UNL     1      -9.097  11.100  66.911  1.00  0.00    -0.159 A  
HETATM   14  C   UNL     1     -10.292  10.435  67.064  1.00  0.00    -0.295 A  
HETATM   15  O   UNL     1      -8.084  10.736  66.082  1.00  0.00    -0.152 OA 
HETATM   16  C   UNL     1     -11.221  10.964  67.967  1.00  0.00    -0.378 A  
HETATM   17  C   UNL     1      -7.132  11.788  66.341  1.00  0.00     0.223 C  
HETATM   18  O   UNL     1      -7.591  12.754  67.309  1.00  0.00    -0.156 OA 
ENDBRANCH   9  10
ENDBRANCH   5   8
ENDBRANCH   2   5
TORSDOF 3
ENDMDL
MODEL      186
REMARK 921   NORMALIZED FREE ENERGY PREDICTED BY IDOCK:   -2.29 KCAL/MOL
REMARK 922        TOTAL FREE ENERGY PREDICTED BY IDOCK:   -3.08 KCAL/MOL
REMARK 923 INTER-LIGAND FREE ENERGY PREDICTED BY IDOCK:   -2.73 KCAL/MOL
REMARK 924 INTRA-LIGAND FREE ENERGY PREDICTED BY IDOCK:   -0.35 KCAL/MOL
REMARK 927      BINDING AFFINITY PREDICTED BY RF-SCORE:    0.00 PKD
ROOT
HETATM    1  C   UNL     1      -9.178   7.647  72.746  1.00  0.00    -0.226 C  
HETATM    2  C   UNL     1      -9.564   6.315  72.067  1.00  0.00    -0.161 C  
HETATM    3  C   UNL     1     -10.525   5.556  73.003  1.00  0.00    -0.244 C  
HETATM    4  C   UNL     1      -8.276   5.485  71.895  1.00  0.00    -0.119 C  
ENDROOT
BRANCH   2   5
HETATM    5  C   UNL     1     -10.263   6.618  70.703  1.00  0.00    -0.189 C  
HETATM    6  O   UNL     1     -10.114   7.995  70.361  1.00  0.00    -0.192 OA 
HETATM    7  H   UNL     1     -10.539   8.180  69.532  1.00  0.00     0.000 HD 
BRANCH   5   8
HETATM    8  C   UNL     1      -9.757   5.806  69.539  1.00  0.00    -0.199 C  
HETATM    9  C   UNL     1     -10.176   5.960  68.271  1.00  0.00    -0.226 C  
BRANCH   9  10
HETATM   10  C   UNL     1      -9.692   5.151  67.142  1.00  0.00    -0.171 A  
HETATM   11  C   UNL     1      -8.351   4.739  67.127  1.00  0.00    -0.106 A  
HETATM   12  C   UNL     1      -7.906   4.000  66.050  1.00  0.00    -0.090 A  
HETATM   13  C   UNL     1      -8.733   3.674  65.001  1.00  0.00    -0.115 A  
HETATM   14  C   UNL     1     -10.049   4.075  64.967  1.00  0.00    -0.203 A  
HETATM   15  O   UNL     1      -8.100   2.943  64.046  1.00  0.00    -0.081 OA 
HETATM   16  C   UNL     1     -10.526   4.829  66.046  1.00  0.00    -0.332 A  
HETATM   17  C   UNL     1      -6.777   2.846  64.614  1.00  0.00    -0.040 C  
HETATM   18  O   UNL     1      -6.645   3.517  65.883  1.00  0.00    -0.038 OA 
ENDBRANCH   9  10
ENDBRANCH   5   8
ENDBRANCH   2   5
TORSDOF 3
ENDMDL
MODEL      187
REMARK 921   NORMALIZED FREE ENERGY PREDICTED BY IDOCK:   -2.15 KCAL/MOL
REMARK 922        TOTAL FREE ENERGY PREDICTED BY IDOCK:   -2.91 KCAL/MOL
REMARK 923 INTER-LIGAND FREE ENERGY PREDICTED BY IDOCK:   -2.54 KCAL/MOL
REMARK 924 INTRA-LIGAND FREE ENERGY PREDICTED BY IDOCK:   -0.37 KCAL/MOL
REMARK 927      BINDING AFFINITY PREDICTED BY RF-SCORE:    0.00 PKD
ROOT
HETATM    1  C   UNL     1      -6.211   8.742  66.577  1.00  0.00    -0.061 C  
HETATM    2  C   UNL     1      -6.465   8.863  65.059  1.00  0.00    -0.065 C  
HETATM    3  C   UNL     1      -5.695   7.734  64.348  1.00  0.00    -0.041 C  
HETATM    4  C   UNL     1      -5.901  10.221  64.594  1.00  0.00    -0.133 C  
ENDROOT
BRANCH   2   5
HETATM    5  C   UNL     1      -7.997   8.732  64.783  1.00  0.00    -0.132 C  
HETATM    6  O   UNL     1      -8.499   7.512  65.326  1.00  0.00    -0.223 OA 
HETATM    7  H   UNL     1      -9.430   7.431  65.159  1.00  0.00     0.000 HD 
BRANCH   5   8
HETATM    8  C   UNL     1      -8.838   9.853  65.337  1.00  0.00    -0.196 C  
HETATM    9  C   UNL     1      -9.685  10.596  64.604  1.00  0.00    -0.360 C  
BRANCH   9  10
HETATM   10  C   UNL     1     -10.489  11.702  65.146  1.00  0.00    -0.329 A  
HETATM   11  C   UNL     1     -10.771  12.803  64.324  1.00  0.00    -0.419 A  
HETATM   12  C   UNL     1     -11.507  13.844  64.854  1.00  0.00    -0.350 A  
HETATM   13  C   UNL     1     -11.952  13.830  66.154  1.00  0.00    -0.418 A  
HETATM   14  C   UNL     1     -11.680  12.779  67.000  1.00  0.00    -0.440 A  
HETATM   15  O   UNL     1     -12.657  14.946  66.475  1.00  0.00     0.184 OA 
HETATM   16  C   UNL     1     -10.933  11.711  66.489  1.00  0.00    -0.349 A  
HETATM   17  C   UNL     1     -12.604  15.667  65.227  1.00  0.00     1.139 C  
HETATM   18  O   UNL     1     -11.873  14.976  64.194  1.00  0.00    -0.348 OA 
ENDBRANCH   9  10
ENDBRANCH   5   8
ENDBRANCH   2   5
TORSDOF 3
ENDMDL
MODEL      188
REMARK 921   NORMALIZED FREE ENERGY PREDICTED BY IDOCK:   -2.06 KCAL/MOL
REMARK 922        TOTAL FREE ENERGY PREDICTED BY IDOCK:   -2.80 KCAL/MOL
REMARK 923 INTER-LIGAND FREE ENERGY PREDICTED BY IDOCK:   -2.47 KCAL/MOL
REMARK 924 INTRA-LIGAND FREE ENERGY PREDICTED BY IDOCK:   -0.33 KCAL/MOL
REMARK 927      BINDING AFFINITY PREDICTED BY RF-SCORE:    0.00 PKD
ROOT
HETATM    1  C   UNL     1      -8.837   9.511  64.701  1.00  0.00    -0.250 C  
HETATM    2  C   UNL     1      -9.133   9.289  66.200  1.00  0.00    -0.224 C  
HETATM    3  C   UNL     1     -10.343  10.160  66.588  1.00  0.00    -0.274 C  
HETATM    4  C   UNL     1      -7.901   9.763  66.997  1.00  0.00    -0.102 C  
ENDROOT
BRANCH   2   5
HETATM    5  C   UNL     1      -9.452   7.779  66.442  1.00  0.00    -0.180 C  
HETATM    6  O   UNL     1      -8.856   6.974  65.426  1.00  0.00    -0.352 OA 
HETATM    7  H   UNL     1      -9.049   6.056  65.573  1.00  0.00     0.000 HD 
BRANCH   5   8
HETATM    8  C   UNL     1      -8.993   7.241  67.772  1.00  0.00    -0.126 C  
HETATM    9  C   UNL     1      -8.681   5.953  68.000  1.00  0.00    -0.111 C  
BRANCH   9  10
HETATM   10  C   UNL     1      -8.253   5.430  69.307  1.00  0.00    -0.093 A  
HETATM   11  C   UNL     1      -9.177   5.401  70.362  1.00  0.00    -0.190 A  
HETATM   12  C   UNL     1      -8.754   4.929  71.588  1.00  0.00    -0.127 A  
HETATM   13  C   UNL     1      -7.463   4.504  71.798  1.00  0.00    -0.074 A  
HETATM   14  C   UNL     1      -6.521   4.534  70.794  1.00  0.00    -0.030 A  
HETATM   15  O   UNL     1      -7.255   4.077  73.071  1.00  0.00    -0.063 OA 
HETATM   16  C   UNL     1      -6.922   5.012  69.541  1.00  0.00    -0.054 A  
HETATM   17  C   UNL     1      -8.563   4.283  73.642  1.00  0.00    -0.092 C  
HETATM   18  O   UNL     1      -9.520   4.826  72.708  1.00  0.00    -0.131 OA 
ENDBRANCH   9  10
ENDBRANCH   5   8
ENDBRANCH   2   5
TORSDOF 3
ENDMDL
MODEL      189
REMARK 921   NORMALIZED FREE ENERGY PREDICTED BY IDOCK:   -2.05 KCAL/MOL
REMARK 922        TOTAL FREE ENERGY PREDICTED BY IDOCK:   -2.80 KCAL/MOL
REMARK 923 INTER-LIGAND FREE ENERGY PREDICTED BY IDOCK:   -2.39 KCAL/MOL
REMARK 924 INTRA-LIGAND FREE ENERGY PREDICTED BY IDOCK:   -0.41 KCAL/MOL
REMARK 927      BINDING AFFINITY PREDICTED BY RF-SCORE:    0.00 PKD
ROOT
HETATM    1  C   UNL     1      -8.412   9.734  65.151  1.00  0.00    -0.157 C  
HETATM    2  C   UNL     1      -8.514  10.518  66.478  1.00  0.00    -0.139 C  
HETATM    3  C   UNL     1      -9.588  11.610  66.313  1.00  0.00    -0.241 C  
HETATM    4  C   UNL     1      -7.150  11.193  66.730  1.00  0.00    -0.139 C  
ENDROOT
BRANCH   2   5
HETATM    5  C   UNL     1      -8.911   9.535  67.625  1.00  0.00    -0.117 C  
HETATM    6  O   UNL     1     -10.098   9.983  68.277  1.00  0.00    -0.149 OA 
HETATM    7  H   UNL     1     -10.340   9.386  68.975  1.00  0.00     0.000 HD 
BRANCH   5   8
HETATM    8  C   UNL     1      -9.146   8.112  67.187  1.00  0.00    -0.163 C  
HETATM    9  C   UNL     1      -8.524   7.045  67.718  1.00  0.00    -0.120 C  
BRANCH   9  10
HETATM   10  C   UNL     1      -8.743   5.661  67.272  1.00  0.00    -0.107 A  
HETATM   11  C   UNL     1      -8.692   5.373  65.900  1.00  0.00    -0.145 A  
HETATM   12  C   UNL     1      -8.922   4.074  65.495  1.00  0.00    -0.131 A  
HETATM   13  C   UNL     1      -9.208   3.073  66.393  1.00  0.00    -0.119 A  
HETATM   14  C   UNL     1      -9.288   3.317  67.745  1.00  0.00    -0.246 A  
HETATM   15  O   UNL     1      -9.399   1.870  65.789  1.00  0.00    -0.038 OA 
HETATM   16  C   UNL     1      -9.062   4.627  68.183  1.00  0.00    -0.148 A  
HETATM   17  C   UNL     1      -9.201   2.228  64.406  1.00  0.00    -0.127 C  
HETATM   18  O   UNL     1      -8.901   3.625  64.211  1.00  0.00    -0.103 OA 
ENDBRANCH   9  10
ENDBRANCH   5   8
ENDBRANCH   2   5
TORSDOF 3
ENDMDL
MODEL      190
REMARK 921   NORMALIZED FREE ENERGY PREDICTED BY IDOCK:   -1.83 KCAL/MOL
REMARK 922        TOTAL FREE ENERGY PREDICTED BY IDOCK:   -2.54 KCAL/MOL
REMARK 923 INTER-LIGAND FREE ENERGY PREDICTED BY IDOCK:   -2.18 KCAL/MOL
REMARK 924 INTRA-LIGAND FREE ENERGY PREDICTED BY IDOCK:   -0.36 KCAL/MOL
REMARK 927      BINDING AFFINITY PREDICTED BY RF-SCORE:    0.00 PKD
ROOT
HETATM    1  C   UNL     1     -10.922  11.684  69.767  1.00  0.00    -0.001 C  
HETATM    2  C   UNL     1     -10.969  10.162  69.511  1.00  0.00    -0.295 C  
HETATM    3  C   UNL     1     -11.261   9.933  68.015  1.00  0.00    -0.129 C  
HETATM    4  C   UNL     1     -12.131   9.581  70.341  1.00  0.00    -0.061 C  
ENDROOT
BRANCH   2   5
HETATM    5  C   UNL     1      -9.591   9.534  69.897  1.00  0.00    -0.223 C  
HETATM    6  O   UNL     1      -9.339   9.703  71.290  1.00  0.00    -0.321 OA 
HETATM    7  H   UNL     1      -8.502   9.322  71.526  1.00  0.00     0.000 HD 
BRANCH   5   8
HETATM    8  C   UNL     1      -9.457   8.065  69.588  1.00  0.00    -0.163 C  
HETATM    9  C   UNL     1      -8.600   7.557  68.687  1.00  0.00    -0.129 C  
BRANCH   9  10
HETATM   10  C   UNL     1      -8.487   6.124  68.376  1.00  0.00    -0.114 A  
HETATM   11  C   UNL     1      -7.258   5.623  67.920  1.00  0.00    -0.072 A  
HETATM   12  C   UNL     1      -7.174   4.280  67.611  1.00  0.00    -0.068 A  
HETATM   13  C   UNL     1      -8.254   3.439  67.726  1.00  0.00    -0.080 A  
HETATM   14  C   UNL     1      -9.482   3.894  68.150  1.00  0.00    -0.219 A  
HETATM   15  O   UNL     1      -7.959   2.160  67.374  1.00  0.00    -0.064 OA 
HETATM   16  C   UNL     1      -9.596   5.252  68.468  1.00  0.00    -0.180 A  
HETATM   17  C   UNL     1      -6.566   2.292  67.022  1.00  0.00    -0.039 C  
HETATM   18  O   UNL     1      -6.061   3.635  67.166  1.00  0.00    -0.023 OA 
ENDBRANCH   9  10
ENDBRANCH   5   8
ENDBRANCH   2   5
TORSDOF 3
ENDMDL
MODEL      191
REMARK 921   NORMALIZED FREE ENERGY PREDICTED BY IDOCK:   -1.64 KCAL/MOL
REMARK 922        TOTAL FREE ENERGY PREDICTED BY IDOCK:   -2.32 KCAL/MOL
REMARK 923 INTER-LIGAND FREE ENERGY PREDICTED BY IDOCK:   -1.94 KCAL/MOL
REMARK 924 INTRA-LIGAND FREE ENERGY PREDICTED BY IDOCK:   -0.37 KCAL/MOL
REMARK 927      BINDING AFFINITY PREDICTED BY RF-SCORE:    0.00 PKD
ROOT
HETATM    1  C   UNL     1      -6.772   9.718  66.678  1.00  0.00    -0.079 C  
HETATM    2  C   UNL     1      -7.086   8.978  65.359  1.00  0.00    -0.081 C  
HETATM    3  C   UNL     1      -5.857   8.130  64.977  1.00  0.00    -0.045 C  
HETATM    4  C   UNL     1      -7.316  10.042  64.267  1.00  0.00    -0.133 C  
ENDROOT
BRANCH   2   5
HETATM    5  C   UNL     1      -8.334   8.062  65.569  1.00  0.00    -0.147 C  
HETATM    6  O   UNL     1      -8.765   7.515  64.325  1.00  0.00    -0.317 OA 
HETATM    7  H   UNL     1      -9.524   6.958  64.452  1.00  0.00     0.000 HD 
BRANCH   5   8
HETATM    8  C   UNL     1      -8.122   6.912  66.520  1.00  0.00    -0.111 C  
HETATM    9  C   UNL     1      -8.684   6.824  67.737  1.00  0.00    -0.120 C  
BRANCH   9  10
HETATM   10  C   UNL     1      -8.458   5.708  68.668  1.00  0.00    -0.105 A  
HETATM   11  C   UNL     1      -9.413   5.451  69.664  1.00  0.00    -0.194 A  
HETATM   12  C   UNL     1      -9.176   4.415  70.544  1.00  0.00    -0.125 A  
HETATM   13  C   UNL     1      -8.037   3.649  70.477  1.00  0.00    -0.053 A  
HETATM   14  C   UNL     1      -7.067   3.881  69.529  1.00  0.00    -0.046 A  
HETATM   15  O   UNL     1      -8.000   2.684  71.432  1.00  0.00    -0.050 OA 
HETATM   16  C   UNL     1      -7.280   4.928  68.624  1.00  0.00    -0.058 A  
HETATM   17  C   UNL     1      -9.248   2.929  72.112  1.00  0.00    -0.096 C  
HETATM   18  O   UNL     1      -9.999   4.028  71.557  1.00  0.00    -0.183 OA 
ENDBRANCH   9  10
ENDBRANCH   5   8
ENDBRANCH   2   5
TORSDOF 3
ENDMDL
MODEL      192
REMARK 921   NORMALIZED FREE ENERGY PREDICTED BY IDOCK:   -1.57 KCAL/MOL
REMARK 922        TOTAL FREE ENERGY PREDICTED BY IDOCK:   -2.23 KCAL/MOL
REMARK 923 INTER-LIGAND FREE ENERGY PREDICTED BY IDOCK:   -1.96 KCAL/MOL
REMARK 924 INTRA-LIGAND FREE ENERGY PREDICTED BY IDOCK:   -0.26 KCAL/MOL
REMARK 927      BINDING AFFINITY PREDICTED BY RF-SCORE:    0.00 PKD
ROOT
HETATM    1  C   UNL     1      -9.119  12.425  68.606  1.00  0.00     0.022 C  
HETATM    2  C   UNL     1      -7.746  12.544  67.911  1.00  0.00    -0.138 C  
HETATM    3  C   UNL     1      -6.656  12.131  68.920  1.00  0.00    -0.090 C  
HETATM    4  C   UNL     1      -7.538  14.024  67.531  1.00  0.00    -0.195 C  
ENDROOT
BRANCH   2   5
HETATM    5  C   UNL     1      -7.717  11.601  66.665  1.00  0.00    -0.065 C  
HETATM    6  O   UNL     1      -6.392  11.496  66.150  1.00  0.00    -0.361 OA 
HETATM    7  H   UNL     1      -6.374  10.923  65.393  1.00  0.00     0.000 HD 
BRANCH   5   8
HETATM    8  C   UNL     1      -8.216  10.202  66.919  1.00  0.00    -0.122 C  
HETATM    9  C   UNL     1      -7.477   9.225  67.472  1.00  0.00    -0.088 C  
BRANCH   9  10
HETATM   10  C   UNL     1      -7.964   7.855  67.699  1.00  0.00    -0.124 A  
HETATM   11  C   UNL     1      -7.483   7.140  68.806  1.00  0.00    -0.102 A  
HETATM   12  C   UNL     1      -7.931   5.848  68.994  1.00  0.00    -0.099 A  
HETATM   13  C   UNL     1      -8.815   5.252  68.127  1.00  0.00    -0.105 A  
HETATM   14  C   UNL     1      -9.296   5.912  67.019  1.00  0.00    -0.125 A  
HETATM   15  O   UNL     1      -9.129   3.981  68.493  1.00  0.00    -0.116 OA 
HETATM   16  C   UNL     1      -8.856   7.223  66.802  1.00  0.00    -0.143 A  
HETATM   17  C   UNL     1      -8.338   3.843  69.692  1.00  0.00    -0.056 C  
HETATM   18  O   UNL     1      -7.573   5.022  70.015  1.00  0.00    -0.058 OA 
ENDBRANCH   9  10
ENDBRANCH   5   8
ENDBRANCH   2   5
TORSDOF 3
ENDMDL
MODEL      193
REMARK 921   NORMALIZED FREE ENERGY PREDICTED BY IDOCK:   -1.51 KCAL/MOL
REMARK 922        TOTAL FREE ENERGY PREDICTED BY IDOCK:   -2.16 KCAL/MOL
REMARK 923 INTER-LIGAND FREE ENERGY PREDICTED BY IDOCK:   -2.63 KCAL/MOL
REMARK 924 INTRA-LIGAND FREE ENERGY PREDICTED BY IDOCK:    0.46 KCAL/MOL
REMARK 927      BINDING AFFINITY PREDICTED BY RF-SCORE:    0.00 PKD
ROOT
HETATM    1  C   UNL     1     -10.387   9.319  71.545  1.00  0.00    -0.364 C  
HETATM    2  C   UNL     1     -11.674   9.080  70.726  1.00  0.00    -0.286 C  
HETATM    3  C   UNL     1     -11.352   9.319  69.239  1.00  0.00     0.176 C  
HETATM    4  C   UNL     1     -12.720  10.116  71.183  1.00  0.00    -0.494 C  
ENDROOT
BRANCH   2   5
HETATM    5  C   UNL     1     -12.157   7.611  70.948  1.00  0.00    -0.202 C  
HETATM    6  O   UNL     1     -13.407   7.393  70.297  1.00  0.00     0.124 OA 
HETATM    7  H   UNL     1     -13.701   6.500  70.431  1.00  0.00     0.000 HD 
BRANCH   5   8
HETATM    8  C   UNL     1     -11.203   6.551  70.460  1.00  0.00    -0.401 C  
HETATM    9  C   UNL     1     -10.439   6.670  69.360  1.00  0.00    -0.254 C  
BRANCH   9  10
HETATM   10  C   UNL     1      -9.523   5.624  68.878  1.00  0.00    -0.157 A  
HETATM   11  C   UNL     1      -9.981   4.714  67.913  1.00  0.00    -0.138 A  
HETATM   12  C   UNL     1      -9.118   3.724  67.487  1.00  0.00    -0.158 A  
HETATM   13  C   UNL     1      -7.844   3.605  67.989  1.00  0.00    -0.068 A  
HETATM   14  C   UNL     1      -7.364   4.465  68.950  1.00  0.00    -0.056 A  
HETATM   15  O   UNL     1      -7.161   2.568  67.437  1.00  0.00    -0.051 OA 
HETATM   16  C   UNL     1      -8.219   5.476  69.403  1.00  0.00    -0.098 A  
HETATM   17  C   UNL     1      -8.153   2.046  66.528  1.00  0.00    -0.080 C  
HETATM   18  O   UNL     1      -9.399   2.772  66.557  1.00  0.00    -0.120 OA 
ENDBRANCH   9  10
ENDBRANCH   5   8
ENDBRANCH   2   5
TORSDOF 3
ENDMDL
MODEL      194
REMARK 921   NORMALIZED FREE ENERGY PREDICTED BY IDOCK:   -1.48 KCAL/MOL
REMARK 922        TOTAL FREE ENERGY PREDICTED BY IDOCK:   -2.12 KCAL/MOL
REMARK 923 INTER-LIGAND FREE ENERGY PREDICTED BY IDOCK:   -2.42 KCAL/MOL
REMARK 924 INTRA-LIGAND FREE ENERGY PREDICTED BY IDOCK:    0.30 KCAL/MOL
REMARK 927      BINDING AFFINITY PREDICTED BY RF-SCORE:    0.00 PKD
ROOT
HETATM    1  C   UNL     1     -10.210  11.438  69.409  1.00  0.00     0.083 C  
HETATM    2  C   UNL     1     -10.023   9.926  69.156  1.00  0.00    -0.205 C  
HETATM    3  C   UNL     1     -10.378   9.635  67.685  1.00  0.00    -0.290 C  
HETATM    4  C   UNL     1     -11.013   9.172  70.067  1.00  0.00    -0.240 C  
ENDROOT
BRANCH   2   5
HETATM    5  C   UNL     1      -8.537   9.538  69.443  1.00  0.00    -0.159 C  
HETATM    6  O   UNL     1      -7.957  10.444  70.379  1.00  0.00    -0.411 OA 
HETATM    7  H   UNL     1      -7.054  10.209  70.554  1.00  0.00     0.000 HD 
BRANCH   5   8
HETATM    8  C   UNL     1      -8.340   8.145  69.980  1.00  0.00    -0.122 C  
HETATM    9  C   UNL     1      -9.065   7.078  69.601  1.00  0.00    -0.144 C  
BRANCH   9  10
HETATM   10  C   UNL     1      -8.881   5.724  70.144  1.00  0.00    -0.144 A  
HETATM   11  C   UNL     1      -7.620   5.117  70.040  1.00  0.00    -0.064 A  
HETATM   12  C   UNL     1      -7.468   3.837  70.533  1.00  0.00    -0.041 A  
HETATM   13  C   UNL     1      -8.512   3.149  71.104  1.00  0.00    -0.066 A  
HETATM   14  C   UNL     1      -9.769   3.700  71.207  1.00  0.00    -0.239 A  
HETATM   15  O   UNL     1      -8.152   1.909  71.525  1.00  0.00    -0.040 OA 
HETATM   16  C   UNL     1      -9.953   4.996  70.712  1.00  0.00    -0.291 A  
HETATM   17  C   UNL     1      -6.758   1.892  71.153  1.00  0.00    -0.024 C  
HETATM   18  O   UNL     1      -6.317   3.111  70.520  1.00  0.00    -0.026 OA 
ENDBRANCH   9  10
ENDBRANCH   5   8
ENDBRANCH   2   5
TORSDOF 3
ENDMDL
MODEL      195
REMARK 921   NORMALIZED FREE ENERGY PREDICTED BY IDOCK:    0.01 KCAL/MOL
REMARK 922        TOTAL FREE ENERGY PREDICTED BY IDOCK:   -0.37 KCAL/MOL
REMARK 923 INTER-LIGAND FREE ENERGY PREDICTED BY IDOCK:   -0.90 KCAL/MOL
REMARK 924 INTRA-LIGAND FREE ENERGY PREDICTED BY IDOCK:    0.53 KCAL/MOL
REMARK 927      BINDING AFFINITY PREDICTED BY RF-SCORE:    0.00 PKD
ROOT
HETATM    1  C   UNL     1     -11.106  16.696  65.045  1.00  0.00    -0.121 C  
HETATM    2  C   UNL     1     -10.147  15.709  65.746  1.00  0.00    -0.394 C  
HETATM    3  C   UNL     1      -8.718  15.980  65.237  1.00  0.00     1.843 C  
HETATM    4  C   UNL     1     -10.560  14.281  65.335  1.00  0.00    -0.367 C  
ENDROOT
BRANCH   2   5
HETATM    5  C   UNL     1     -10.224  15.929  67.291  1.00  0.00    -0.278 C  
HETATM    6  O   UNL     1     -11.572  15.824  67.743  1.00  0.00    -0.246 OA 
HETATM    7  H   UNL     1     -11.619  15.957  68.682  1.00  0.00     0.000 HD 
BRANCH   5   8
HETATM    8  C   UNL     1      -9.397  14.970  68.107  1.00  0.00    -0.187 C  
HETATM    9  C   UNL     1      -8.622  14.004  67.584  1.00  0.00    -0.188 C  
BRANCH   9  10
HETATM   10  C   UNL     1      -7.832  13.058  68.387  1.00  0.00    -0.134 A  
HETATM   11  C   UNL     1      -8.316  11.754  68.571  1.00  0.00    -0.131 A  
HETATM   12  C   UNL     1      -7.575  10.885  69.346  1.00  0.00    -0.094 A  
HETATM   13  C   UNL     1      -6.398  11.267  69.943  1.00  0.00    -0.142 A  
HETATM   14  C   UNL     1      -5.898  12.542  69.804  1.00  0.00    -0.123 A  
HETATM   15  O   UNL     1      -5.827  10.263  70.659  1.00  0.00    -0.082 OA 
HETATM   16  C   UNL     1      -6.631  13.445  69.026  1.00  0.00    -0.107 A  
HETATM   17  C   UNL     1      -6.781   9.203  70.446  1.00  0.00    -0.058 C  
HETATM   18  O   UNL     1      -7.896   9.590  69.617  1.00  0.00    -0.091 OA 
ENDBRANCH   9  10
ENDBRANCH   5   8
ENDBRANCH   2   5
TORSDOF 3
ENDMDL
MODEL      196
REMARK 921   NORMALIZED FREE ENERGY PREDICTED BY IDOCK:    0.15 KCAL/MOL
REMARK 922        TOTAL FREE ENERGY PREDICTED BY IDOCK:   -0.21 KCAL/MOL
REMARK 923 INTER-LIGAND FREE ENERGY PREDICTED BY IDOCK:    0.02 KCAL/MOL
REMARK 924 INTRA-LIGAND FREE ENERGY PREDICTED BY IDOCK:   -0.23 KCAL/MOL
REMARK 927      BINDING AFFINITY PREDICTED BY RF-SCORE:    0.00 PKD
ROOT
HETATM    1  C   UNL     1      -8.461  13.257  69.491  1.00  0.00     1.323 C  
HETATM    2  C   UNL     1      -7.122  13.888  69.054  1.00  0.00    -0.098 C  
HETATM    3  C   UNL     1      -5.983  13.179  69.812  1.00  0.00    -0.127 C  
HETATM    4  C   UNL     1      -7.146  15.374  69.466  1.00  0.00    -0.200 C  
ENDROOT
BRANCH   2   5
HETATM    5  C   UNL     1      -6.946  13.702  67.512  1.00  0.00    -0.143 C  
HETATM    6  O   UNL     1      -5.627  14.070  67.113  1.00  0.00    -0.162 OA 
HETATM    7  H   UNL     1      -5.520  13.958  66.176  1.00  0.00     0.000 HD 
BRANCH   5   8
HETATM    8  C   UNL     1      -7.196  12.303  67.012  1.00  0.00    -0.039 C  
HETATM    9  C   UNL     1      -6.321  11.290  67.130  1.00  0.00    -0.096 C  
BRANCH   9  10
HETATM   10  C   UNL     1      -6.563   9.931  66.621  1.00  0.00    -0.072 A  
HETATM   11  C   UNL     1      -7.886   9.494  66.458  1.00  0.00    -0.101 A  
HETATM   12  C   UNL     1      -8.097   8.208  66.002  1.00  0.00    -0.112 A  
HETATM   13  C   UNL     1      -7.056   7.356  65.720  1.00  0.00    -0.065 A  
HETATM   14  C   UNL     1      -5.745   7.739  65.886  1.00  0.00    -0.037 A  
HETATM   15  O   UNL     1      -7.480   6.141  65.284  1.00  0.00    -0.077 OA 
HETATM   16  C   UNL     1      -5.501   9.037  66.350  1.00  0.00    -0.038 A  
HETATM   17  C   UNL     1      -8.910   6.324  65.323  1.00  0.00     0.073 C  
HETATM   18  O   UNL     1      -9.310   7.632  65.781  1.00  0.00    -0.015 OA 
ENDBRANCH   9  10
ENDBRANCH   5   8
ENDBRANCH   2   5
TORSDOF 3
ENDMDL
MODEL      197
REMARK 921   NORMALIZED FREE ENERGY PREDICTED BY IDOCK:    1.50 KCAL/MOL
REMARK 922        TOTAL FREE ENERGY PREDICTED BY IDOCK:    1.37 KCAL/MOL
REMARK 923 INTER-LIGAND FREE ENERGY PREDICTED BY IDOCK:    1.09 KCAL/MOL
REMARK 924 INTRA-LIGAND FREE ENERGY PREDICTED BY IDOCK:    0.28 KCAL/MOL
REMARK 927      BINDING AFFINITY PREDICTED BY RF-SCORE:    0.00 PKD
ROOT
HETATM    1  C   UNL     1     -10.541  17.497  65.116  1.00  0.00     0.275 C  
HETATM    2  C   UNL     1     -11.017  16.029  65.158  1.00  0.00    -0.360 C  
HETATM    3  C   UNL     1     -10.983  15.468  63.723  1.00  0.00     1.659 C  
HETATM    4  C   UNL     1     -12.475  16.023  65.661  1.00  0.00     2.085 C  
ENDROOT
BRANCH   2   5
HETATM    5  C   UNL     1     -10.066  15.207  66.085  1.00  0.00    -0.295 C  
HETATM    6  O   UNL     1      -8.703  15.519  65.803  1.00  0.00    -0.297 OA 
HETATM    7  H   UNL     1      -8.124  15.019  66.366  1.00  0.00     0.000 HD 
BRANCH   5   8
HETATM    8  C   UNL     1     -10.281  15.420  67.561  1.00  0.00    -0.244 C  
HETATM    9  C   UNL     1     -11.450  15.211  68.193  1.00  0.00    -0.356 C  
BRANCH   9  10
HETATM   10  C   UNL     1     -11.659  15.439  69.631  1.00  0.00    -0.344 A  
HETATM   11  C   UNL     1     -12.729  14.796  70.271  1.00  0.00    -0.324 A  
HETATM   12  C   UNL     1     -12.927  15.037  71.616  1.00  0.00    -0.353 A  
HETATM   13  C   UNL     1     -12.119  15.892  72.327  1.00  0.00    -0.503 A  
HETATM   14  C   UNL     1     -11.072  16.558  71.732  1.00  0.00     0.546 A  
HETATM   15  O   UNL     1     -12.483  15.988  73.633  1.00  0.00    -0.482 OA 
HETATM   16  C   UNL     1     -10.850  16.334  70.369  1.00  0.00    -0.211 A  
HETATM   17  C   UNL     1     -13.616  15.096  73.663  1.00  0.00     0.730 C  
HETATM   18  O   UNL     1     -13.906  14.491  72.386  1.00  0.00    -0.432 OA 
ENDBRANCH   9  10
ENDBRANCH   5   8
ENDBRANCH   2   5
TORSDOF 3
ENDMDL
MODEL      198
REMARK 921   NORMALIZED FREE ENERGY PREDICTED BY IDOCK:   14.28 KCAL/MOL
REMARK 922        TOTAL FREE ENERGY PREDICTED BY IDOCK:   16.40 KCAL/MOL
REMARK 923 INTER-LIGAND FREE ENERGY PREDICTED BY IDOCK:   16.36 KCAL/MOL
REMARK 924 INTRA-LIGAND FREE ENERGY PREDICTED BY IDOCK:    0.04 KCAL/MOL
REMARK 927      BINDING AFFINITY PREDICTED BY RF-SCORE:    0.00 PKD
ROOT
HETATM    1  C   UNL     1     -10.403  17.732  65.337  1.00  0.00     0.215 C  
HETATM    2  C   UNL     1     -10.566  16.243  65.709  1.00  0.00    -0.336 C  
HETATM    3  C   UNL     1     -10.778  15.440  64.411  1.00  0.00     0.204 C  
HETATM    4  C   UNL     1     -11.827  16.113  66.587  1.00  0.00     1.100 C  
ENDROOT
BRANCH   2   5
HETATM    5  C   UNL     1      -9.277  15.754  66.445  1.00  0.00    -0.312 C  
HETATM    6  O   UNL     1      -8.261  15.418  65.501  1.00  0.00     0.985 OA 
HETATM    7  H   UNL     1      -7.478  15.121  65.948  1.00  0.00     0.000 HD 
BRANCH   5   8
HETATM    8  C   UNL     1      -8.686  16.747  67.412  1.00  0.00    -0.202 C  
HETATM    9  C   UNL     1      -9.383  17.365  68.381  1.00  0.00    -0.285 C  
BRANCH   9  10
HETATM   10  C   UNL     1      -8.804  18.348  69.310  1.00  0.00     0.226 A  
HETATM   11  C   UNL     1      -9.575  18.792  70.395  1.00  0.00     1.920 A  
HETATM   12  C   UNL     1      -9.028  19.731  71.245  1.00  0.00     2.768 A  
HETATM   13  C   UNL     1      -7.767  20.243  71.048  1.00  0.00     1.580 A  
HETATM   14  C   UNL     1      -6.987  19.849  69.985  1.00  0.00    -0.055 A  
HETATM   15  O   UNL     1      -7.419  21.151  71.997  1.00  0.00     1.933 OA 
HETATM   16  C   UNL     1      -7.518  18.899  69.106  1.00  0.00    -0.243 A  
HETATM   17  C   UNL     1      -8.607  21.155  72.815  1.00  0.00     4.982 C  
HETATM   18  O   UNL     1      -9.634  20.259  72.343  1.00  0.00     1.877 OA 
ENDBRANCH   9  10
ENDBRANCH   5   8
ENDBRANCH   2   5
TORSDOF 3
ENDMDL
