MODEL        1
REMARK 921   NORMALIZED FREE ENERGY PREDICTED BY IDOCK:   -6.47 KCAL/MOL
REMARK 922        TOTAL FREE ENERGY PREDICTED BY IDOCK:   -9.18 KCAL/MOL
REMARK 923 INTER-LIGAND FREE ENERGY PREDICTED BY IDOCK:   -8.36 KCAL/MOL
REMARK 924 INTRA-LIGAND FREE ENERGY PREDICTED BY IDOCK:   -0.82 KCAL/MOL
REMARK 927      BINDING AFFINITY PREDICTED BY RF-SCORE:    0.00 PKD
ROOT
HETATM    1  C   UNL     1     -11.274  12.933  64.186  1.00  0.00    -0.389 C  
HETATM    2  N   UNL     1     -11.469  14.305  64.626  1.00  0.00    -0.382 N  
ENDROOT
BRANCH   2   3
HETATM    3  N   UNL     1     -12.261  15.196  63.898  1.00  0.00    -0.989 NA 
HETATM    4  H   UNL     1     -13.181  14.942  63.537  1.00  0.00     0.000 HD 
HETATM    5  O   UNL     1     -11.767  16.312  63.726  1.00  0.00    -1.511 OA 
HETATM    6  H   UNL     1     -12.306  16.917  63.231  1.00  0.00     0.000 HD 
ENDBRANCH   2   3
BRANCH   2   7
HETATM    7  C   UNL     1     -10.972  14.679  65.874  1.00  0.00    -0.332 C  
HETATM    8  O   UNL     1     -11.354  14.168  66.929  1.00  0.00    -0.307 OA 
BRANCH   7   9
HETATM    9  N   UNL     1     -10.036  15.685  65.863  1.00  0.00    -0.326 N  
HETATM   10  H   UNL     1      -9.649  15.992  64.970  1.00  0.00     0.000 HD 
BRANCH   9  11
HETATM   11  C   UNL     1      -9.579  16.331  67.105  1.00  0.00    -0.233 C  
HETATM   12  C   UNL     1      -8.117  16.784  66.931  1.00  0.00    -0.211 C  
HETATM   13  O   UNL     1      -8.002  17.797  65.932  1.00  0.00    -0.523 OA 
HETATM   14  O   UNL     1      -7.352  15.659  66.494  1.00  0.00    -0.231 OA 
HETATM   15  H   UNL     1      -6.450  15.938  66.386  1.00  0.00     0.000 HD 
HETATM   16  C   UNL     1      -8.745  18.994  66.215  1.00  0.00    -0.273 C  
HETATM   17  C   UNL     1     -10.240  18.700  66.476  1.00  0.00    -0.412 C  
HETATM   18  H   UNL     1     -10.620  18.725  69.036  1.00  0.00     0.000 HD 
HETATM   19  C   UNL     1     -10.441  17.550  67.481  1.00  0.00    -0.355 C  
HETATM   20  O   UNL     1     -10.876  18.372  65.231  1.00  0.00    -0.624 OA 
HETATM   21  O   UNL     1     -10.088  17.973  68.803  1.00  0.00    -0.372 OA 
HETATM   22  H   UNL     1     -11.795  18.191  65.392  1.00  0.00     0.000 HD 
BRANCH  16  23
HETATM   23  C   UNL     1      -8.071  19.831  67.314  1.00  0.00    -0.292 C  
HETATM   24  O   UNL     1      -8.310  21.223  67.139  1.00  0.00    -0.595 OA 
HETATM   25  H   UNL     1      -7.893  21.741  67.818  1.00  0.00     0.000 HD 
ENDBRANCH  16  23
ENDBRANCH   9  11
ENDBRANCH   7   9
ENDBRANCH   2   7
TORSDOF 5
ENDMDL
MODEL        2
REMARK 921   NORMALIZED FREE ENERGY PREDICTED BY IDOCK:   -6.27 KCAL/MOL
REMARK 922        TOTAL FREE ENERGY PREDICTED BY IDOCK:   -8.93 KCAL/MOL
REMARK 923 INTER-LIGAND FREE ENERGY PREDICTED BY IDOCK:   -7.57 KCAL/MOL
REMARK 924 INTRA-LIGAND FREE ENERGY PREDICTED BY IDOCK:   -1.35 KCAL/MOL
REMARK 927      BINDING AFFINITY PREDICTED BY RF-SCORE:    0.00 PKD
ROOT
HETATM    1  C   UNL     1     -11.769  15.855  70.985  1.00  0.00    -0.432 C  
HETATM    2  N   UNL     1     -11.710  15.004  69.808  1.00  0.00    -0.287 N  
ENDROOT
BRANCH   2   3
HETATM    3  N   UNL     1     -12.276  13.727  69.806  1.00  0.00    -0.327 NA 
HETATM    4  H   UNL     1     -13.274  13.569  69.668  1.00  0.00     0.000 HD 
HETATM    5  O   UNL     1     -11.478  12.804  69.984  1.00  0.00    -0.508 OA 
HETATM    6  H   UNL     1     -11.862  11.936  69.983  1.00  0.00     0.000 HD 
ENDBRANCH   2   3
BRANCH   2   7
HETATM    7  C   UNL     1     -11.211  15.543  68.622  1.00  0.00    -0.325 C  
HETATM    8  O   UNL     1     -11.114  16.756  68.425  1.00  0.00    -0.357 OA 
BRANCH   7   9
HETATM    9  N   UNL     1     -10.854  14.630  67.660  1.00  0.00    -0.277 N  
HETATM   10  H   UNL     1     -10.340  13.793  67.937  1.00  0.00     0.000 HD 
BRANCH   9  11
HETATM   11  C   UNL     1     -11.193  14.827  66.241  1.00  0.00    -0.343 C  
HETATM   12  C   UNL     1      -9.990  14.416  65.371  1.00  0.00    -0.311 C  
HETATM   13  O   UNL     1      -9.719  13.019  65.488  1.00  0.00    -0.182 OA 
HETATM   14  O   UNL     1      -8.839  15.119  65.842  1.00  0.00    -0.436 OA 
HETATM   15  H   UNL     1      -8.098  14.865  65.305  1.00  0.00     0.000 HD 
HETATM   16  C   UNL     1     -10.802  12.169  65.075  1.00  0.00    -0.300 C  
HETATM   17  C   UNL     1     -12.114  12.500  65.822  1.00  0.00    -0.378 C  
HETATM   18  H   UNL     1     -13.590  13.925  64.245  1.00  0.00     0.000 HD 
HETATM   19  C   UNL     1     -12.425  14.009  65.815  1.00  0.00    -0.494 C  
HETATM   20  O   UNL     1     -12.013  12.033  67.176  1.00  0.00    -0.601 OA 
HETATM   21  O   UNL     1     -12.830  14.431  64.507  1.00  0.00    -0.634 OA 
HETATM   22  H   UNL     1     -12.820  12.236  67.635  1.00  0.00     0.000 HD 
BRANCH  16  23
HETATM   23  C   UNL     1     -10.945  12.137  63.545  1.00  0.00    -0.453 C  
HETATM   24  O   UNL     1     -12.239  11.701  63.144  1.00  0.00    -0.928 OA 
HETATM   25  H   UNL     1     -12.327  11.681  62.198  1.00  0.00     0.000 HD 
ENDBRANCH  16  23
ENDBRANCH   9  11
ENDBRANCH   7   9
ENDBRANCH   2   7
TORSDOF 5
ENDMDL
MODEL        3
REMARK 921   NORMALIZED FREE ENERGY PREDICTED BY IDOCK:   -6.21 KCAL/MOL
REMARK 922        TOTAL FREE ENERGY PREDICTED BY IDOCK:   -8.85 KCAL/MOL
REMARK 923 INTER-LIGAND FREE ENERGY PREDICTED BY IDOCK:   -7.64 KCAL/MOL
REMARK 924 INTRA-LIGAND FREE ENERGY PREDICTED BY IDOCK:   -1.21 KCAL/MOL
REMARK 927      BINDING AFFINITY PREDICTED BY RF-SCORE:    0.00 PKD
ROOT
HETATM    1  C   UNL     1     -10.631  11.318  64.078  1.00  0.00    -0.386 C  
HETATM    2  N   UNL     1     -11.623  12.366  64.254  1.00  0.00    -0.344 N  
ENDROOT
BRANCH   2   3
HETATM    3  N   UNL     1     -12.461  12.757  63.206  1.00  0.00    -0.755 NA 
HETATM    4  H   UNL     1     -12.985  12.086  62.644  1.00  0.00     0.000 HD 
HETATM    5  O   UNL     1     -12.518  13.973  63.012  1.00  0.00    -1.101 OA 
HETATM    6  H   UNL     1     -13.088  14.239  62.300  1.00  0.00     0.000 HD 
ENDBRANCH   2   3
BRANCH   2   7
HETATM    7  C   UNL     1     -11.833  12.874  65.536  1.00  0.00    -0.411 C  
HETATM    8  O   UNL     1     -12.177  12.171  66.488  1.00  0.00    -0.584 OA 
BRANCH   7   9
HETATM    9  N   UNL     1     -11.656  14.229  65.672  1.00  0.00    -0.339 N  
HETATM   10  H   UNL     1     -12.472  14.824  65.819  1.00  0.00     0.000 HD 
BRANCH   9  11
HETATM   11  C   UNL     1     -10.320  14.846  65.612  1.00  0.00    -0.349 C  
HETATM   12  C   UNL     1     -10.467  16.339  65.264  1.00  0.00    -0.300 C  
HETATM   13  O   UNL     1     -11.146  17.049  66.300  1.00  0.00     0.107 OA 
HETATM   14  O   UNL     1     -11.258  16.444  64.079  1.00  0.00    -1.333 OA 
HETATM   15  H   UNL     1     -11.349  17.366  63.865  1.00  0.00     0.000 HD 
HETATM   16  C   UNL     1     -10.485  17.013  67.575  1.00  0.00    -0.334 C  
HETATM   17  C   UNL     1     -10.207  15.566  68.043  1.00  0.00    -0.229 C  
HETATM   18  H   UNL     1      -7.722  15.034  67.552  1.00  0.00     0.000 HD 
HETATM   19  C   UNL     1      -9.554  14.712  66.940  1.00  0.00    -0.244 C  
HETATM   20  O   UNL     1     -11.443  14.962  68.455  1.00  0.00    -0.290 OA 
HETATM   21  O   UNL     1      -8.195  15.116  66.732  1.00  0.00    -0.221 OA 
HETATM   22  H   UNL     1     -11.272  14.073  68.742  1.00  0.00     0.000 HD 
BRANCH  16  23
HETATM   23  C   UNL     1      -9.247  17.925  67.596  1.00  0.00    -0.258 C  
HETATM   24  O   UNL     1      -8.341  17.562  68.631  1.00  0.00    -0.272 OA 
HETATM   25  H   UNL     1      -7.576  18.126  68.644  1.00  0.00     0.000 HD 
ENDBRANCH  16  23
ENDBRANCH   9  11
ENDBRANCH   7   9
ENDBRANCH   2   7
TORSDOF 5
ENDMDL
MODEL        4
REMARK 921   NORMALIZED FREE ENERGY PREDICTED BY IDOCK:   -6.06 KCAL/MOL
REMARK 922        TOTAL FREE ENERGY PREDICTED BY IDOCK:   -8.66 KCAL/MOL
REMARK 923 INTER-LIGAND FREE ENERGY PREDICTED BY IDOCK:   -7.68 KCAL/MOL
REMARK 924 INTRA-LIGAND FREE ENERGY PREDICTED BY IDOCK:   -0.98 KCAL/MOL
REMARK 927      BINDING AFFINITY PREDICTED BY RF-SCORE:    0.00 PKD
ROOT
HETATM    1  C   UNL     1     -10.228   9.825  70.161  1.00  0.00    -0.275 C  
HETATM    2  N   UNL     1     -11.056  10.721  69.371  1.00  0.00    -0.248 N  
ENDROOT
BRANCH   2   3
HETATM    3  N   UNL     1     -11.958  11.599  69.977  1.00  0.00    -0.340 NA 
HETATM    4  H   UNL     1     -12.922  11.337  70.186  1.00  0.00     0.000 HD 
HETATM    5  O   UNL     1     -11.504  12.714  70.239  1.00  0.00    -0.518 OA 
HETATM    6  H   UNL     1     -12.118  13.311  70.651  1.00  0.00     0.000 HD 
ENDBRANCH   2   3
BRANCH   2   7
HETATM    7  C   UNL     1     -10.826  10.801  67.998  1.00  0.00    -0.255 C  
HETATM    8  O   UNL     1     -10.577   9.815  67.301  1.00  0.00    -0.258 OA 
BRANCH   7   9
HETATM    9  N   UNL     1     -10.867  12.065  67.462  1.00  0.00    -0.231 N  
HETATM   10  H   UNL     1     -10.075  12.692  67.607  1.00  0.00     0.000 HD 
BRANCH   9  11
HETATM   11  C   UNL     1     -12.024  12.539  66.684  1.00  0.00    -0.281 C  
HETATM   12  C   UNL     1     -12.153  14.065  66.846  1.00  0.00    -0.430 C  
HETATM   13  O   UNL     1     -11.033  14.744  66.279  1.00  0.00    -0.319 OA 
HETATM   14  O   UNL     1     -12.175  14.364  68.243  1.00  0.00    -0.570 OA 
HETATM   15  H   UNL     1     -12.254  15.305  68.343  1.00  0.00     0.000 HD 
HETATM   16  C   UNL     1     -10.855  14.519  64.870  1.00  0.00    -0.421 C  
HETATM   17  C   UNL     1     -10.768  13.014  64.530  1.00  0.00    -0.385 C  
HETATM   18  H   UNL     1     -13.074  12.268  63.622  1.00  0.00     0.000 HD 
HETATM   19  C   UNL     1     -11.899  12.201  65.187  1.00  0.00    -0.298 C  
HETATM   20  O   UNL     1      -9.495  12.510  64.963  1.00  0.00    -0.457 OA 
HETATM   21  O   UNL     1     -13.151  12.477  64.546  1.00  0.00    -0.816 OA 
HETATM   22  H   UNL     1      -9.441  11.584  64.754  1.00  0.00     0.000 HD 
BRANCH  16  23
HETATM   23  C   UNL     1     -11.895  15.289  64.040  1.00  0.00     0.022 C  
HETATM   24  O   UNL     1     -11.523  16.650  63.856  1.00  0.00    -1.604 OA 
HETATM   25  H   UNL     1     -12.166  17.126  63.343  1.00  0.00     0.000 HD 
ENDBRANCH  16  23
ENDBRANCH   9  11
ENDBRANCH   7   9
ENDBRANCH   2   7
TORSDOF 5
ENDMDL
MODEL        5
REMARK 921   NORMALIZED FREE ENERGY PREDICTED BY IDOCK:   -6.06 KCAL/MOL
REMARK 922        TOTAL FREE ENERGY PREDICTED BY IDOCK:   -8.65 KCAL/MOL
REMARK 923 INTER-LIGAND FREE ENERGY PREDICTED BY IDOCK:   -7.43 KCAL/MOL
REMARK 924 INTRA-LIGAND FREE ENERGY PREDICTED BY IDOCK:   -1.22 KCAL/MOL
REMARK 927      BINDING AFFINITY PREDICTED BY RF-SCORE:    0.00 PKD
ROOT
HETATM    1  C   UNL     1      -9.891  11.531  63.117  1.00  0.00    -0.390 C  
HETATM    2  N   UNL     1     -10.862  12.415  63.740  1.00  0.00    -0.419 N  
ENDROOT
BRANCH   2   3
HETATM    3  N   UNL     1     -11.943  12.930  63.019  1.00  0.00    -0.785 NA 
HETATM    4  H   UNL     1     -12.325  12.463  62.196  1.00  0.00     0.000 HD 
HETATM    5  O   UNL     1     -12.399  13.989  63.452  1.00  0.00    -1.099 OA 
HETATM    6  H   UNL     1     -13.134  14.339  62.962  1.00  0.00     0.000 HD 
ENDBRANCH   2   3
BRANCH   2   7
HETATM    7  C   UNL     1     -10.786  12.622  65.117  1.00  0.00    -0.292 C  
HETATM    8  O   UNL     1     -11.504  12.030  65.925  1.00  0.00    -0.350 OA 
BRANCH   7   9
HETATM    9  N   UNL     1      -9.868  13.559  65.525  1.00  0.00    -0.492 N  
HETATM   10  H   UNL     1      -9.077  13.776  64.919  1.00  0.00     0.000 HD 
BRANCH   9  11
HETATM   11  C   UNL     1      -9.997  14.258  66.815  1.00  0.00    -0.265 C  
HETATM   12  C   UNL     1      -8.649  14.911  67.173  1.00  0.00    -0.225 C  
HETATM   13  O   UNL     1      -8.304  15.935  66.240  1.00  0.00    -0.299 OA 
HETATM   14  O   UNL     1      -7.635  13.907  67.105  1.00  0.00    -0.347 OA 
HETATM   15  H   UNL     1      -6.804  14.310  67.326  1.00  0.00     0.000 HD 
HETATM   16  C   UNL     1      -9.250  17.015  66.169  1.00  0.00    -0.210 C  
HETATM   17  C   UNL     1     -10.681  16.513  65.873  1.00  0.00    -0.190 C  
HETATM   18  H   UNL     1     -11.989  16.474  68.105  1.00  0.00     0.000 HD 
HETATM   19  C   UNL     1     -11.089  15.342  66.786  1.00  0.00    -0.278 C  
HETATM   20  O   UNL     1     -10.758  16.104  64.498  1.00  0.00    -0.828 OA 
HETATM   21  O   UNL     1     -11.315  15.805  68.123  1.00  0.00    -0.350 OA 
HETATM   22  H   UNL     1     -11.638  15.796  64.316  1.00  0.00     0.000 HD 
BRANCH  16  23
HETATM   23  C   UNL     1      -9.151  17.934  67.398  1.00  0.00    -0.245 C  
HETATM   24  O   UNL     1     -10.369  18.630  67.636  1.00  0.00    -0.369 OA 
HETATM   25  H   UNL     1     -10.309  19.198  68.395  1.00  0.00     0.000 HD 
ENDBRANCH  16  23
ENDBRANCH   9  11
ENDBRANCH   7   9
ENDBRANCH   2   7
TORSDOF 5
ENDMDL
MODEL        6
REMARK 921   NORMALIZED FREE ENERGY PREDICTED BY IDOCK:   -6.05 KCAL/MOL
REMARK 922        TOTAL FREE ENERGY PREDICTED BY IDOCK:   -8.64 KCAL/MOL
REMARK 923 INTER-LIGAND FREE ENERGY PREDICTED BY IDOCK:   -7.82 KCAL/MOL
REMARK 924 INTRA-LIGAND FREE ENERGY PREDICTED BY IDOCK:   -0.82 KCAL/MOL
REMARK 927      BINDING AFFINITY PREDICTED BY RF-SCORE:    0.00 PKD
ROOT
HETATM    1  C   UNL     1     -10.282  18.777  68.064  1.00  0.00    -0.386 C  
HETATM    2  N   UNL     1     -10.458  17.762  67.038  1.00  0.00    -0.343 N  
ENDROOT
BRANCH   2   3
HETATM    3  N   UNL     1     -10.095  18.002  65.710  1.00  0.00    -0.574 NA 
HETATM    4  H   UNL     1      -9.155  18.295  65.443  1.00  0.00     0.000 HD 
HETATM    5  O   UNL     1     -10.996  17.834  64.886  1.00  0.00    -0.866 OA 
HETATM    6  H   UNL     1     -10.750  17.997  63.983  1.00  0.00     0.000 HD 
ENDBRANCH   2   3
BRANCH   2   7
HETATM    7  C   UNL     1     -10.856  16.484  67.428  1.00  0.00    -0.202 C  
HETATM    8  O   UNL     1     -11.332  16.239  68.538  1.00  0.00    -0.367 OA 
BRANCH   7   9
HETATM    9  N   UNL     1     -10.658  15.492  66.499  1.00  0.00    -0.304 N  
HETATM   10  H   UNL     1      -9.828  15.526  65.906  1.00  0.00     0.000 HD 
BRANCH   9  11
HETATM   11  C   UNL     1     -11.611  14.382  66.336  1.00  0.00    -0.375 C  
HETATM   12  C   UNL     1     -11.778  14.073  64.837  1.00  0.00    -0.380 C  
HETATM   13  O   UNL     1     -10.562  13.591  64.267  1.00  0.00    -0.412 OA 
HETATM   14  O   UNL     1     -12.116  15.289  64.167  1.00  0.00    -0.801 OA 
HETATM   15  H   UNL     1     -12.219  15.099  63.242  1.00  0.00     0.000 HD 
HETATM   16  C   UNL     1     -10.071  12.376  64.858  1.00  0.00    -0.236 C  
HETATM   17  C   UNL     1      -9.904  12.504  66.389  1.00  0.00    -0.253 C  
HETATM   18  H   UNL     1     -11.943  11.371  67.509  1.00  0.00     0.000 HD 
HETATM   19  C   UNL     1     -11.152  13.105  67.064  1.00  0.00    -0.279 C  
HETATM   20  O   UNL     1      -8.760  13.326  66.668  1.00  0.00    -0.411 OA 
HETATM   21  O   UNL     1     -12.227  12.159  67.060  1.00  0.00    -0.522 OA 
HETATM   22  H   UNL     1      -8.657  13.404  67.610  1.00  0.00     0.000 HD 
BRANCH  16  23
HETATM   23  C   UNL     1     -10.900  11.159  64.419  1.00  0.00    -0.270 C  
HETATM   24  O   UNL     1     -11.403  11.312  63.096  1.00  0.00    -0.837 OA 
HETATM   25  H   UNL     1     -11.915  10.559  62.824  1.00  0.00     0.000 HD 
ENDBRANCH  16  23
ENDBRANCH   9  11
ENDBRANCH   7   9
ENDBRANCH   2   7
TORSDOF 5
ENDMDL
MODEL        7
REMARK 921   NORMALIZED FREE ENERGY PREDICTED BY IDOCK:   -6.03 KCAL/MOL
REMARK 922        TOTAL FREE ENERGY PREDICTED BY IDOCK:   -8.62 KCAL/MOL
REMARK 923 INTER-LIGAND FREE ENERGY PREDICTED BY IDOCK:   -7.93 KCAL/MOL
REMARK 924 INTRA-LIGAND FREE ENERGY PREDICTED BY IDOCK:   -0.69 KCAL/MOL
REMARK 927      BINDING AFFINITY PREDICTED BY RF-SCORE:    0.00 PKD
ROOT
HETATM    1  C   UNL     1      -9.678   9.574  66.055  1.00  0.00    -0.272 C  
HETATM    2  N   UNL     1     -10.577   9.548  67.197  1.00  0.00    -0.248 N  
ENDROOT
BRANCH   2   3
HETATM    3  N   UNL     1     -10.652   8.434  68.037  1.00  0.00    -0.403 NA 
HETATM    4  H   UNL     1     -10.343   8.459  69.009  1.00  0.00     0.000 HD 
HETATM    5  O   UNL     1     -11.120   7.420  67.516  1.00  0.00    -0.531 OA 
HETATM    6  H   UNL     1     -11.170   6.662  68.088  1.00  0.00     0.000 HD 
ENDBRANCH   2   3
BRANCH   2   7
HETATM    7  C   UNL     1     -11.259  10.717  67.533  1.00  0.00    -0.253 C  
HETATM    8  O   UNL     1     -12.166  10.748  68.367  1.00  0.00    -0.470 OA 
BRANCH   7   9
HETATM    9  N   UNL     1     -10.875  11.845  66.851  1.00  0.00    -0.250 N  
HETATM   10  H   UNL     1      -9.927  11.900  66.477  1.00  0.00     0.000 HD 
BRANCH   9  11
HETATM   11  C   UNL     1     -11.795  12.976  66.643  1.00  0.00    -0.393 C  
HETATM   12  C   UNL     1     -11.180  14.248  67.257  1.00  0.00    -0.318 C  
HETATM   13  O   UNL     1      -9.983  14.626  66.578  1.00  0.00    -0.262 OA 
HETATM   14  O   UNL     1     -10.834  13.964  68.614  1.00  0.00    -0.248 OA 
HETATM   15  H   UNL     1     -10.454  14.749  68.993  1.00  0.00     0.000 HD 
HETATM   16  C   UNL     1     -10.161  14.919  65.182  1.00  0.00    -0.375 C  
HETATM   17  C   UNL     1     -10.832  13.749  64.426  1.00  0.00    -0.328 C  
HETATM   18  H   UNL     1     -13.336  14.328  64.125  1.00  0.00     0.000 HD 
HETATM   19  C   UNL     1     -12.086  13.227  65.153  1.00  0.00    -0.413 C  
HETATM   20  O   UNL     1      -9.881  12.684  64.275  1.00  0.00    -0.573 OA 
HETATM   21  O   UNL     1     -13.157  14.173  65.045  1.00  0.00    -0.728 OA 
HETATM   22  H   UNL     1     -10.294  11.965  63.810  1.00  0.00     0.000 HD 
BRANCH  16  23
HETATM   23  C   UNL     1     -10.852  16.276  64.973  1.00  0.00    -0.320 C  
HETATM   24  O   UNL     1     -11.567  16.321  63.743  1.00  0.00    -1.539 OA 
HETATM   25  H   UNL     1     -11.995  17.160  63.614  1.00  0.00     0.000 HD 
ENDBRANCH  16  23
ENDBRANCH   9  11
ENDBRANCH   7   9
ENDBRANCH   2   7
TORSDOF 5
ENDMDL
MODEL        8
REMARK 921   NORMALIZED FREE ENERGY PREDICTED BY IDOCK:   -6.03 KCAL/MOL
REMARK 922        TOTAL FREE ENERGY PREDICTED BY IDOCK:   -8.61 KCAL/MOL
REMARK 923 INTER-LIGAND FREE ENERGY PREDICTED BY IDOCK:   -7.68 KCAL/MOL
REMARK 924 INTRA-LIGAND FREE ENERGY PREDICTED BY IDOCK:   -0.93 KCAL/MOL
REMARK 927      BINDING AFFINITY PREDICTED BY RF-SCORE:    0.00 PKD
ROOT
HETATM    1  C   UNL     1     -10.763  17.666  66.017  1.00  0.00    -0.117 C  
HETATM    2  N   UNL     1     -10.684  16.514  65.134  1.00  0.00    -0.326 N  
ENDROOT
BRANCH   2   3
HETATM    3  N   UNL     1     -11.297  16.518  63.879  1.00  0.00    -1.559 NA 
HETATM    4  H   UNL     1     -10.975  17.110  63.113  1.00  0.00     0.000 HD 
HETATM    5  O   UNL     1     -12.256  15.751  63.765  1.00  0.00    -1.113 OA 
HETATM    6  H   UNL     1     -12.672  15.754  62.911  1.00  0.00     0.000 HD 
ENDBRANCH   2   3
BRANCH   2   7
HETATM    7  C   UNL     1      -9.854  15.454  65.498  1.00  0.00    -0.324 C  
HETATM    8  O   UNL     1      -8.931  15.571  66.306  1.00  0.00    -0.297 OA 
BRANCH   7   9
HETATM    9  N   UNL     1     -10.112  14.258  64.873  1.00  0.00    -0.548 N  
HETATM   10  H   UNL     1      -9.575  14.006  64.043  1.00  0.00     0.000 HD 
BRANCH   9  11
HETATM   11  C   UNL     1     -11.143  13.331  65.370  1.00  0.00    -0.282 C  
HETATM   12  C   UNL     1     -11.255  12.135  64.407  1.00  0.00    -0.341 C  
HETATM   13  O   UNL     1     -10.054  11.365  64.392  1.00  0.00    -0.251 OA 
HETATM   14  O   UNL     1     -11.457  12.644  63.087  1.00  0.00    -0.744 OA 
HETATM   15  H   UNL     1     -11.526  11.906  62.493  1.00  0.00     0.000 HD 
HETATM   16  C   UNL     1      -9.695  10.802  65.666  1.00  0.00    -0.237 C  
HETATM   17  C   UNL     1      -9.600  11.881  66.768  1.00  0.00    -0.204 C  
HETATM   18  H   UNL     1     -11.781  11.793  68.158  1.00  0.00     0.000 HD 
HETATM   19  C   UNL     1     -10.828  12.810  66.784  1.00  0.00    -0.264 C  
HETATM   20  O   UNL     1      -8.409  12.656  66.563  1.00  0.00    -0.411 OA 
HETATM   21  O   UNL     1     -11.976  12.115  67.286  1.00  0.00    -0.573 OA 
HETATM   22  H   UNL     1      -8.350  13.319  67.242  1.00  0.00     0.000 HD 
BRANCH  16  23
HETATM   23  C   UNL     1     -10.597   9.612  66.031  1.00  0.00     0.179 C  
HETATM   24  O   UNL     1     -10.651   9.403  67.438  1.00  0.00    -0.265 OA 
HETATM   25  H   UNL     1     -11.208   8.667  67.664  1.00  0.00     0.000 HD 
ENDBRANCH  16  23
ENDBRANCH   9  11
ENDBRANCH   7   9
ENDBRANCH   2   7
TORSDOF 5
ENDMDL
MODEL        9
REMARK 921   NORMALIZED FREE ENERGY PREDICTED BY IDOCK:   -6.01 KCAL/MOL
REMARK 922        TOTAL FREE ENERGY PREDICTED BY IDOCK:   -8.59 KCAL/MOL
REMARK 923 INTER-LIGAND FREE ENERGY PREDICTED BY IDOCK:   -7.46 KCAL/MOL
REMARK 924 INTRA-LIGAND FREE ENERGY PREDICTED BY IDOCK:   -1.12 KCAL/MOL
REMARK 927      BINDING AFFINITY PREDICTED BY RF-SCORE:    0.00 PKD
ROOT
HETATM    1  C   UNL     1     -12.863  11.808  64.003  1.00  0.00    -0.072 C  
HETATM    2  N   UNL     1     -11.978  12.868  63.550  1.00  0.00    -0.535 N  
ENDROOT
BRANCH   2   3
HETATM    3  N   UNL     1     -12.480  14.031  62.960  1.00  0.00    -0.988 NA 
HETATM    4  H   UNL     1     -12.793  14.061  61.989  1.00  0.00     0.000 HD 
HETATM    5  O   UNL     1     -12.518  15.016  63.699  1.00  0.00    -1.036 OA 
HETATM    6  H   UNL     1     -12.859  15.806  63.298  1.00  0.00     0.000 HD 
ENDBRANCH   2   3
BRANCH   2   7
HETATM    7  C   UNL     1     -10.620  12.775  63.852  1.00  0.00    -0.395 C  
HETATM    8  O   UNL     1      -9.888  11.900  63.386  1.00  0.00    -0.393 OA 
BRANCH   7   9
HETATM    9  N   UNL     1     -10.143  13.714  64.734  1.00  0.00    -0.621 N  
HETATM   10  H   UNL     1      -9.597  14.498  64.377  1.00  0.00     0.000 HD 
BRANCH   9  11
HETATM   11  C   UNL     1     -10.400  13.618  66.181  1.00  0.00    -0.297 C  
HETATM   12  C   UNL     1      -9.058  13.626  66.936  1.00  0.00    -0.240 C  
HETATM   13  O   UNL     1      -8.377  14.870  66.771  1.00  0.00    -0.219 OA 
HETATM   14  O   UNL     1      -8.229  12.604  66.380  1.00  0.00    -0.391 OA 
HETATM   15  H   UNL     1      -7.400  12.609  66.845  1.00  0.00     0.000 HD 
HETATM   16  C   UNL     1      -9.101  16.011  67.261  1.00  0.00    -0.204 C  
HETATM   17  C   UNL     1     -10.511  16.112  66.637  1.00  0.00    -0.300 C  
HETATM   18  H   UNL     1     -12.212  15.202  68.362  1.00  0.00     0.000 HD 
HETATM   19  C   UNL     1     -11.274  14.775  66.698  1.00  0.00    -0.346 C  
HETATM   20  O   UNL     1     -10.389  16.538  65.271  1.00  0.00    -0.596 OA 
HETATM   21  O   UNL     1     -11.673  14.487  68.043  1.00  0.00    -0.320 OA 
HETATM   22  H   UNL     1     -11.257  16.601  64.887  1.00  0.00     0.000 HD 
BRANCH  16  23
HETATM   23  C   UNL     1      -9.091  16.070  68.797  1.00  0.00    -0.222 C  
HETATM   24  O   UNL     1     -10.164  16.856  69.302  1.00  0.00    -0.290 OA 
HETATM   25  H   UNL     1     -10.158  16.893  70.252  1.00  0.00     0.000 HD 
ENDBRANCH  16  23
ENDBRANCH   9  11
ENDBRANCH   7   9
ENDBRANCH   2   7
TORSDOF 5
ENDMDL
MODEL       10
REMARK 921   NORMALIZED FREE ENERGY PREDICTED BY IDOCK:   -6.00 KCAL/MOL
REMARK 922        TOTAL FREE ENERGY PREDICTED BY IDOCK:   -8.58 KCAL/MOL
REMARK 923 INTER-LIGAND FREE ENERGY PREDICTED BY IDOCK:   -7.43 KCAL/MOL
REMARK 924 INTRA-LIGAND FREE ENERGY PREDICTED BY IDOCK:   -1.15 KCAL/MOL
REMARK 927      BINDING AFFINITY PREDICTED BY RF-SCORE:    0.00 PKD
ROOT
HETATM    1  C   UNL     1     -10.755  19.293  66.825  1.00  0.00    -0.431 C  
HETATM    2  N   UNL     1      -9.984  18.185  66.286  1.00  0.00    -0.352 N  
ENDROOT
BRANCH   2   3
HETATM    3  N   UNL     1      -8.599  18.113  66.454  1.00  0.00    -0.374 NA 
HETATM    4  H   UNL     1      -8.097  18.704  67.118  1.00  0.00     0.000 HD 
HETATM    5  O   UNL     1      -8.030  17.284  65.742  1.00  0.00    -0.511 OA 
HETATM    6  H   UNL     1      -7.088  17.236  65.857  1.00  0.00     0.000 HD 
ENDBRANCH   2   3
BRANCH   2   7
HETATM    7  C   UNL     1     -10.671  17.109  65.723  1.00  0.00    -0.138 C  
HETATM    8  O   UNL     1     -11.067  17.103  64.556  1.00  0.00    -1.105 OA 
BRANCH   7   9
HETATM    9  N   UNL     1     -10.907  16.051  66.567  1.00  0.00    -0.230 N  
HETATM   10  H   UNL     1     -11.054  16.231  67.560  1.00  0.00     0.000 HD 
BRANCH   9  11
HETATM   11  C   UNL     1     -10.955  14.664  66.074  1.00  0.00    -0.325 C  
HETATM   12  C   UNL     1      -9.734  13.894  66.611  1.00  0.00    -0.289 C  
HETATM   13  O   UNL     1      -9.779  13.775  68.032  1.00  0.00    -0.217 OA 
HETATM   14  O   UNL     1      -8.559  14.635  66.277  1.00  0.00    -0.433 OA 
HETATM   15  H   UNL     1      -7.806  14.160  66.609  1.00  0.00     0.000 HD 
HETATM   16  C   UNL     1     -10.929  13.071  68.532  1.00  0.00    -0.263 C  
HETATM   17  C   UNL     1     -12.251  13.692  68.028  1.00  0.00    -0.140 C  
HETATM   18  H   UNL     1     -13.116  12.240  66.068  1.00  0.00     0.000 HD 
HETATM   19  C   UNL     1     -12.239  13.934  66.507  1.00  0.00    -0.442 C  
HETATM   20  O   UNL     1     -12.477  14.933  68.714  1.00  0.00    -0.584 OA 
HETATM   21  O   UNL     1     -12.323  12.690  65.801  1.00  0.00    -0.594 OA 
HETATM   22  H   UNL     1     -13.290  15.314  68.404  1.00  0.00     0.000 HD 
BRANCH  16  23
HETATM   23  C   UNL     1     -10.815  11.558  68.287  1.00  0.00    -0.216 C  
HETATM   24  O   UNL     1     -12.094  10.939  68.205  1.00  0.00    -0.785 OA 
HETATM   25  H   UNL     1     -12.024  10.003  68.053  1.00  0.00     0.000 HD 
ENDBRANCH  16  23
ENDBRANCH   9  11
ENDBRANCH   7   9
ENDBRANCH   2   7
TORSDOF 5
ENDMDL
MODEL       11
REMARK 921   NORMALIZED FREE ENERGY PREDICTED BY IDOCK:   -5.95 KCAL/MOL
REMARK 922        TOTAL FREE ENERGY PREDICTED BY IDOCK:   -8.51 KCAL/MOL
REMARK 923 INTER-LIGAND FREE ENERGY PREDICTED BY IDOCK:   -7.42 KCAL/MOL
REMARK 924 INTRA-LIGAND FREE ENERGY PREDICTED BY IDOCK:   -1.08 KCAL/MOL
REMARK 927      BINDING AFFINITY PREDICTED BY RF-SCORE:    0.00 PKD
ROOT
HETATM    1  C   UNL     1     -10.508  18.059  66.796  1.00  0.00    -0.328 C  
HETATM    2  N   UNL     1     -10.574  17.084  65.721  1.00  0.00    -0.287 N  
ENDROOT
BRANCH   2   3
HETATM    3  N   UNL     1     -11.244  17.362  64.527  1.00  0.00    -0.789 NA 
HETATM    4  H   UNL     1     -11.517  18.309  64.260  1.00  0.00     0.000 HD 
HETATM    5  O   UNL     1     -11.481  16.380  63.822  1.00  0.00    -1.590 OA 
HETATM    6  H   UNL     1     -11.937  16.570  63.010  1.00  0.00     0.000 HD 
ENDBRANCH   2   3
BRANCH   2   7
HETATM    7  C   UNL     1      -9.825  15.913  65.839  1.00  0.00    -0.351 C  
HETATM    8  O   UNL     1      -8.593  15.908  65.883  1.00  0.00    -0.237 OA 
BRANCH   7   9
HETATM    9  N   UNL     1     -10.549  14.747  65.875  1.00  0.00    -0.300 N  
HETATM   10  H   UNL     1     -10.362  14.025  65.178  1.00  0.00     0.000 HD 
BRANCH   9  11
HETATM   11  C   UNL     1     -11.587  14.511  66.893  1.00  0.00    -0.385 C  
HETATM   12  C   UNL     1     -12.273  13.161  66.613  1.00  0.00    -0.267 C  
HETATM   13  O   UNL     1     -11.361  12.073  66.767  1.00  0.00    -0.307 OA 
HETATM   14  O   UNL     1     -12.718  13.161  65.255  1.00  0.00    -0.551 OA 
HETATM   15  H   UNL     1     -13.141  12.328  65.082  1.00  0.00     0.000 HD 
HETATM   16  C   UNL     1     -10.798  11.954  68.084  1.00  0.00    -0.221 C  
HETATM   17  C   UNL     1     -10.116  13.263  68.543  1.00  0.00    -0.206 C  
HETATM   18  H   UNL     1     -11.743  14.492  70.136  1.00  0.00     0.000 HD 
HETATM   19  C   UNL     1     -11.012  14.496  68.321  1.00  0.00    -0.247 C  
HETATM   20  O   UNL     1      -8.883  13.424  67.825  1.00  0.00    -0.177 OA 
HETATM   21  O   UNL     1     -12.098  14.501  69.255  1.00  0.00    -0.321 OA 
HETATM   22  H   UNL     1      -8.464  14.229  68.107  1.00  0.00     0.000 HD 
BRANCH  16  23
HETATM   23  C   UNL     1     -11.821  11.397  69.087  1.00  0.00    -0.345 C  
HETATM   24  O   UNL     1     -11.575  11.866  70.408  1.00  0.00    -0.516 OA 
HETATM   25  H   UNL     1     -12.207  11.522  71.029  1.00  0.00     0.000 HD 
ENDBRANCH  16  23
ENDBRANCH   9  11
ENDBRANCH   7   9
ENDBRANCH   2   7
TORSDOF 5
ENDMDL
MODEL       12
REMARK 921   NORMALIZED FREE ENERGY PREDICTED BY IDOCK:   -5.94 KCAL/MOL
REMARK 922        TOTAL FREE ENERGY PREDICTED BY IDOCK:   -8.50 KCAL/MOL
REMARK 923 INTER-LIGAND FREE ENERGY PREDICTED BY IDOCK:   -7.96 KCAL/MOL
REMARK 924 INTRA-LIGAND FREE ENERGY PREDICTED BY IDOCK:   -0.54 KCAL/MOL
REMARK 927      BINDING AFFINITY PREDICTED BY RF-SCORE:    0.00 PKD
ROOT
HETATM    1  C   UNL     1     -10.424  13.721  65.776  1.00  0.00    -0.299 C  
HETATM    2  N   UNL     1     -11.295  14.628  65.047  1.00  0.00    -0.372 N  
ENDROOT
BRANCH   2   3
HETATM    3  N   UNL     1     -12.505  14.192  64.502  1.00  0.00    -0.655 NA 
HETATM    4  H   UNL     1     -13.344  14.060  65.067  1.00  0.00     0.000 HD 
HETATM    5  O   UNL     1     -12.482  13.981  63.288  1.00  0.00    -1.139 OA 
HETATM    6  H   UNL     1     -13.305  13.684  62.918  1.00  0.00     0.000 HD 
ENDBRANCH   2   3
BRANCH   2   7
HETATM    7  C   UNL     1     -10.975  15.986  65.029  1.00  0.00    -0.380 C  
HETATM    8  O   UNL     1     -11.319  16.744  64.120  1.00  0.00    -1.194 OA 
BRANCH   7   9
HETATM    9  N   UNL     1     -10.219  16.431  66.086  1.00  0.00    -0.333 N  
HETATM   10  H   UNL     1      -9.431  15.868  66.405  1.00  0.00     0.000 HD 
BRANCH   9  11
HETATM   11  C   UNL     1     -10.517  17.702  66.769  1.00  0.00    -0.289 C  
HETATM   12  C   UNL     1     -10.163  17.568  68.262  1.00  0.00    -0.365 C  
HETATM   13  O   UNL     1      -8.760  17.377  68.448  1.00  0.00    -0.256 OA 
HETATM   14  O   UNL     1     -10.826  16.412  68.775  1.00  0.00    -0.297 OA 
HETATM   15  H   UNL     1     -10.607  16.329  69.696  1.00  0.00     0.000 HD 
HETATM   16  C   UNL     1      -7.945  18.452  67.953  1.00  0.00    -0.258 C  
HETATM   17  C   UNL     1      -8.228  18.755  66.464  1.00  0.00    -0.291 C  
HETATM   18  H   UNL     1      -9.766  20.833  66.352  1.00  0.00     0.000 HD 
HETATM   19  C   UNL     1      -9.735  18.884  66.171  1.00  0.00    -0.277 C  
HETATM   20  O   UNL     1      -7.667  17.707  65.658  1.00  0.00    -0.527 OA 
HETATM   21  O   UNL     1     -10.249  20.103  66.721  1.00  0.00    -0.445 OA 
HETATM   22  H   UNL     1      -7.841  17.893  64.743  1.00  0.00     0.000 HD 
BRANCH  16  23
HETATM   23  C   UNL     1      -8.021  19.686  68.867  1.00  0.00    -0.250 C  
HETATM   24  O   UNL     1      -6.800  19.903  69.564  1.00  0.00    -0.336 OA 
HETATM   25  H   UNL     1      -6.846  20.665  70.129  1.00  0.00     0.000 HD 
ENDBRANCH  16  23
ENDBRANCH   9  11
ENDBRANCH   7   9
ENDBRANCH   2   7
TORSDOF 5
ENDMDL
MODEL       13
REMARK 921   NORMALIZED FREE ENERGY PREDICTED BY IDOCK:   -5.91 KCAL/MOL
REMARK 922        TOTAL FREE ENERGY PREDICTED BY IDOCK:   -8.46 KCAL/MOL
REMARK 923 INTER-LIGAND FREE ENERGY PREDICTED BY IDOCK:   -7.05 KCAL/MOL
REMARK 924 INTRA-LIGAND FREE ENERGY PREDICTED BY IDOCK:   -1.41 KCAL/MOL
REMARK 927      BINDING AFFINITY PREDICTED BY RF-SCORE:    0.00 PKD
ROOT
HETATM    1  C   UNL     1     -10.227  19.197  68.284  1.00  0.00    -0.401 C  
HETATM    2  N   UNL     1      -9.801  18.093  67.440  1.00  0.00    -0.302 N  
ENDROOT
BRANCH   2   3
HETATM    3  N   UNL     1      -9.202  18.317  66.198  1.00  0.00    -0.506 NA 
HETATM    4  H   UNL     1      -9.281  19.207  65.705  1.00  0.00     0.000 HD 
HETATM    5  O   UNL     1      -8.572  17.360  65.744  1.00  0.00    -0.526 OA 
HETATM    6  H   UNL     1      -8.165  17.513  64.899  1.00  0.00     0.000 HD 
ENDBRANCH   2   3
BRANCH   2   7
HETATM    7  C   UNL     1      -9.861  16.799  67.958  1.00  0.00    -0.265 C  
HETATM    8  O   UNL     1      -9.086  16.386  68.822  1.00  0.00    -0.224 OA 
BRANCH   7   9
HETATM    9  N   UNL     1     -10.833  15.990  67.421  1.00  0.00    -0.307 N  
HETATM   10  H   UNL     1     -11.749  16.387  67.211  1.00  0.00     0.000 HD 
BRANCH   9  11
HETATM   11  C   UNL     1     -10.586  14.566  67.139  1.00  0.00    -0.274 C  
HETATM   12  C   UNL     1     -11.924  13.804  67.175  1.00  0.00    -0.405 C  
HETATM   13  O   UNL     1     -12.795  14.234  66.129  1.00  0.00    -0.326 OA 
HETATM   14  O   UNL     1     -12.568  14.093  68.417  1.00  0.00    -0.443 OA 
HETATM   15  H   UNL     1     -13.393  13.623  68.439  1.00  0.00     0.000 HD 
HETATM   16  C   UNL     1     -12.274  14.036  64.804  1.00  0.00    -0.433 C  
HETATM   17  C   UNL     1     -10.889  14.697  64.622  1.00  0.00    -0.313 C  
HETATM   18  H   UNL     1      -9.090  12.847  64.825  1.00  0.00     0.000 HD 
HETATM   19  C   UNL     1      -9.920  14.348  65.768  1.00  0.00    -0.329 C  
HETATM   20  O   UNL     1     -11.057  16.121  64.547  1.00  0.00    -0.826 OA 
HETATM   21  O   UNL     1      -9.501  12.982  65.671  1.00  0.00    -0.077 OA 
HETATM   22  H   UNL     1     -10.205  16.528  64.435  1.00  0.00     0.000 HD 
BRANCH  16  23
HETATM   23  C   UNL     1     -12.317  12.554  64.396  1.00  0.00    -0.455 C  
HETATM   24  O   UNL     1     -11.418  12.273  63.329  1.00  0.00    -0.639 OA 
HETATM   25  H   UNL     1     -11.445  11.358  63.077  1.00  0.00     0.000 HD 
ENDBRANCH  16  23
ENDBRANCH   9  11
ENDBRANCH   7   9
ENDBRANCH   2   7
TORSDOF 5
ENDMDL
MODEL       14
REMARK 921   NORMALIZED FREE ENERGY PREDICTED BY IDOCK:   -5.90 KCAL/MOL
REMARK 922        TOTAL FREE ENERGY PREDICTED BY IDOCK:   -8.45 KCAL/MOL
REMARK 923 INTER-LIGAND FREE ENERGY PREDICTED BY IDOCK:   -8.07 KCAL/MOL
REMARK 924 INTRA-LIGAND FREE ENERGY PREDICTED BY IDOCK:   -0.38 KCAL/MOL
REMARK 927      BINDING AFFINITY PREDICTED BY RF-SCORE:    0.00 PKD
ROOT
HETATM    1  C   UNL     1     -12.996  14.216  65.358  1.00  0.00    -0.270 C  
HETATM    2  N   UNL     1     -11.887  14.830  64.648  1.00  0.00    -0.439 N  
ENDROOT
BRANCH   2   3
HETATM    3  N   UNL     1     -12.086  15.910  63.784  1.00  0.00    -1.230 NA 
HETATM    4  H   UNL     1     -12.745  15.876  63.006  1.00  0.00     0.000 HD 
HETATM    5  O   UNL     1     -11.406  16.908  64.033  1.00  0.00    -1.375 OA 
HETATM    6  H   UNL     1     -11.541  17.642  63.446  1.00  0.00     0.000 HD 
ENDBRANCH   2   3
BRANCH   2   7
HETATM    7  C   UNL     1     -10.590  14.420  64.958  1.00  0.00    -0.432 C  
HETATM    8  O   UNL     1      -9.780  15.142  65.542  1.00  0.00    -0.332 OA 
BRANCH   7   9
HETATM    9  N   UNL     1     -10.254  13.154  64.544  1.00  0.00    -0.572 N  
HETATM   10  H   UNL     1      -9.533  13.040  63.831  1.00  0.00     0.000 HD 
BRANCH   9  11
HETATM   11  C   UNL     1     -10.907  11.958  65.103  1.00  0.00    -0.300 C  
HETATM   12  C   UNL     1     -10.527  10.731  64.253  1.00  0.00    -0.259 C  
HETATM   13  O   UNL     1      -9.129  10.453  64.338  1.00  0.00    -0.197 OA 
HETATM   14  O   UNL     1     -10.826  11.025  62.888  1.00  0.00    -0.797 OA 
HETATM   15  H   UNL     1     -10.591  10.268  62.364  1.00  0.00     0.000 HD 
HETATM   16  C   UNL     1      -8.662  10.162  65.666  1.00  0.00    -0.158 C  
HETATM   17  C   UNL     1      -9.023  11.285  66.665  1.00  0.00    -0.176 C  
HETATM   18  H   UNL     1     -11.098  10.519  68.008  1.00  0.00     0.000 HD 
HETATM   19  C   UNL     1     -10.503  11.701  66.566  1.00  0.00    -0.239 C  
HETATM   20  O   UNL     1      -8.182  12.422  66.414  1.00  0.00    -0.396 OA 
HETATM   21  O   UNL     1     -11.348  10.678  67.105  1.00  0.00    -0.344 OA 
HETATM   22  H   UNL     1      -8.404  13.112  67.028  1.00  0.00     0.000 HD 
BRANCH  16  23
HETATM   23  C   UNL     1      -9.092   8.758  66.121  1.00  0.00    -0.202 C  
HETATM   24  O   UNL     1      -8.696   7.757  65.191  1.00  0.00    -0.350 OA 
HETATM   25  H   UNL     1      -8.961   6.889  65.472  1.00  0.00     0.000 HD 
ENDBRANCH  16  23
ENDBRANCH   9  11
ENDBRANCH   7   9
ENDBRANCH   2   7
TORSDOF 5
ENDMDL
MODEL       15
REMARK 921   NORMALIZED FREE ENERGY PREDICTED BY IDOCK:   -5.87 KCAL/MOL
REMARK 922        TOTAL FREE ENERGY PREDICTED BY IDOCK:   -8.41 KCAL/MOL
REMARK 923 INTER-LIGAND FREE ENERGY PREDICTED BY IDOCK:   -7.69 KCAL/MOL
REMARK 924 INTRA-LIGAND FREE ENERGY PREDICTED BY IDOCK:   -0.73 KCAL/MOL
REMARK 927      BINDING AFFINITY PREDICTED BY RF-SCORE:    0.00 PKD
ROOT
HETATM    1  C   UNL     1      -9.422  17.910  68.475  1.00  0.00    -0.313 C  
HETATM    2  N   UNL     1      -9.723  17.895  67.053  1.00  0.00    -0.287 N  
ENDROOT
BRANCH   2   3
HETATM    3  N   UNL     1     -10.713  18.719  66.511  1.00  0.00    -0.339 NA 
HETATM    4  H   UNL     1     -11.578  18.934  67.006  1.00  0.00     0.000 HD 
HETATM    5  O   UNL     1     -10.461  19.167  65.391  1.00  0.00    -0.462 OA 
HETATM    6  H   UNL     1     -11.134  19.727  65.023  1.00  0.00     0.000 HD 
ENDBRANCH   2   3
BRANCH   2   7
HETATM    7  C   UNL     1      -8.901  17.150  66.207  1.00  0.00    -0.231 C  
HETATM    8  O   UNL     1      -7.825  17.571  65.777  1.00  0.00    -0.544 OA 
BRANCH   7   9
HETATM    9  N   UNL     1      -9.380  15.913  65.853  1.00  0.00    -0.338 N  
HETATM   10  H   UNL     1      -8.751  15.247  65.403  1.00  0.00     0.000 HD 
BRANCH   9  11
HETATM   11  C   UNL     1     -10.777  15.522  66.107  1.00  0.00    -0.313 C  
HETATM   12  C   UNL     1     -11.483  15.265  64.763  1.00  0.00    -0.363 C  
HETATM   13  O   UNL     1     -10.913  14.148  64.082  1.00  0.00    -0.184 OA 
HETATM   14  O   UNL     1     -11.297  16.415  63.936  1.00  0.00    -1.510 OA 
HETATM   15  H   UNL     1     -11.732  16.257  63.106  1.00  0.00     0.000 HD 
HETATM   16  C   UNL     1     -10.996  12.908  64.804  1.00  0.00    -0.318 C  
HETATM   17  C   UNL     1     -10.377  13.018  66.215  1.00  0.00    -0.285 C  
HETATM   18  H   UNL     1     -12.310  13.300  67.913  1.00  0.00     0.000 HD 
HETATM   19  C   UNL     1     -10.881  14.257  66.979  1.00  0.00    -0.297 C  
HETATM   20  O   UNL     1      -8.947  13.071  66.096  1.00  0.00    -0.446 OA 
HETATM   21  O   UNL     1     -12.246  14.081  67.375  1.00  0.00    -0.384 OA 
HETATM   22  H   UNL     1      -8.567  13.138  66.964  1.00  0.00     0.000 HD 
BRANCH  16  23
HETATM   23  C   UNL     1     -12.425  12.341  64.790  1.00  0.00    -0.302 C  
HETATM   24  O   UNL     1     -12.905  12.151  63.464  1.00  0.00    -0.768 OA 
HETATM   25  H   UNL     1     -13.789  11.801  63.455  1.00  0.00     0.000 HD 
ENDBRANCH  16  23
ENDBRANCH   9  11
ENDBRANCH   7   9
ENDBRANCH   2   7
TORSDOF 5
ENDMDL
MODEL       16
REMARK 921   NORMALIZED FREE ENERGY PREDICTED BY IDOCK:   -5.85 KCAL/MOL
REMARK 922        TOTAL FREE ENERGY PREDICTED BY IDOCK:   -8.38 KCAL/MOL
REMARK 923 INTER-LIGAND FREE ENERGY PREDICTED BY IDOCK:   -7.49 KCAL/MOL
REMARK 924 INTRA-LIGAND FREE ENERGY PREDICTED BY IDOCK:   -0.89 KCAL/MOL
REMARK 927      BINDING AFFINITY PREDICTED BY RF-SCORE:    0.00 PKD
ROOT
HETATM    1  C   UNL     1     -11.955  15.933  71.321  1.00  0.00    -0.442 C  
HETATM    2  N   UNL     1     -12.064  14.942  70.264  1.00  0.00    -0.303 N  
ENDROOT
BRANCH   2   3
HETATM    3  N   UNL     1     -12.590  13.671  70.511  1.00  0.00    -0.299 NA 
HETATM    4  H   UNL     1     -13.581  13.515  70.698  1.00  0.00     0.000 HD 
HETATM    5  O   UNL     1     -11.768  12.753  70.487  1.00  0.00    -0.531 OA 
HETATM    6  H   UNL     1     -12.125  11.890  70.655  1.00  0.00     0.000 HD 
ENDBRANCH   2   3
BRANCH   2   7
HETATM    7  C   UNL     1     -11.775  15.329  68.956  1.00  0.00    -0.347 C  
HETATM    8  O   UNL     1     -11.393  16.464  68.662  1.00  0.00    -0.355 OA 
BRANCH   7   9
HETATM    9  N   UNL     1     -11.968  14.367  67.995  1.00  0.00    -0.509 N  
HETATM   10  H   UNL     1     -12.855  13.863  67.969  1.00  0.00     0.000 HD 
BRANCH   9  11
HETATM   11  C   UNL     1     -10.929  14.044  67.003  1.00  0.00    -0.297 C  
HETATM   12  C   UNL     1     -10.837  12.515  66.845  1.00  0.00    -0.248 C  
HETATM   13  O   UNL     1     -12.041  11.976  66.298  1.00  0.00    -0.596 OA 
HETATM   14  O   UNL     1     -10.661  11.943  68.143  1.00  0.00    -0.194 OA 
HETATM   15  H   UNL     1     -10.605  11.000  68.046  1.00  0.00     0.000 HD 
HETATM   16  C   UNL     1     -12.375  12.479  64.993  1.00  0.00    -0.453 C  
HETATM   17  C   UNL     1     -12.448  14.022  64.969  1.00  0.00    -0.425 C  
HETATM   18  H   UNL     1     -10.240  14.906  63.948  1.00  0.00     0.000 HD 
HETATM   19  C   UNL     1     -11.218  14.674  65.628  1.00  0.00    -0.342 C  
HETATM   20  O   UNL     1     -13.641  14.445  65.646  1.00  0.00    -0.558 OA 
HETATM   21  O   UNL     1     -10.062  14.517  64.797  1.00  0.00    -0.340 OA 
HETATM   22  H   UNL     1     -13.686  15.394  65.631  1.00  0.00     0.000 HD 
BRANCH  16  23
HETATM   23  C   UNL     1     -11.469  11.878  63.907  1.00  0.00    -0.426 C  
HETATM   24  O   UNL     1     -12.201  11.549  62.732  1.00  0.00    -0.820 OA 
HETATM   25  H   UNL     1     -11.641  11.177  62.059  1.00  0.00     0.000 HD 
ENDBRANCH  16  23
ENDBRANCH   9  11
ENDBRANCH   7   9
ENDBRANCH   2   7
TORSDOF 5
ENDMDL
MODEL       17
REMARK 921   NORMALIZED FREE ENERGY PREDICTED BY IDOCK:   -5.82 KCAL/MOL
REMARK 922        TOTAL FREE ENERGY PREDICTED BY IDOCK:   -8.34 KCAL/MOL
REMARK 923 INTER-LIGAND FREE ENERGY PREDICTED BY IDOCK:   -8.13 KCAL/MOL
REMARK 924 INTRA-LIGAND FREE ENERGY PREDICTED BY IDOCK:   -0.21 KCAL/MOL
REMARK 927      BINDING AFFINITY PREDICTED BY RF-SCORE:    0.00 PKD
ROOT
HETATM    1  C   UNL     1     -10.094  10.001  69.572  1.00  0.00    -0.227 C  
HETATM    2  N   UNL     1     -11.110  10.248  68.562  1.00  0.00    -0.253 N  
ENDROOT
BRANCH   2   3
HETATM    3  N   UNL     1     -12.401  10.650  68.914  1.00  0.00    -0.790 NA 
HETATM    4  H   UNL     1     -12.938  11.315  68.357  1.00  0.00     0.000 HD 
HETATM    5  O   UNL     1     -12.842  10.140  69.945  1.00  0.00    -0.553 OA 
HETATM    6  H   UNL     1     -13.720  10.413  70.184  1.00  0.00     0.000 HD 
ENDBRANCH   2   3
BRANCH   2   7
HETATM    7  C   UNL     1     -10.732  10.224  67.220  1.00  0.00    -0.263 C  
HETATM    8  O   UNL     1     -10.092   9.297  66.719  1.00  0.00    -0.225 OA 
BRANCH   7   9
HETATM    9  N   UNL     1     -11.097  11.324  66.482  1.00  0.00    -0.261 N  
HETATM   10  H   UNL     1     -11.588  11.188  65.598  1.00  0.00     0.000 HD 
BRANCH   9  11
HETATM   11  C   UNL     1     -10.797  12.693  66.934  1.00  0.00    -0.254 C  
HETATM   12  C   UNL     1      -9.708  13.298  66.028  1.00  0.00    -0.219 C  
HETATM   13  O   UNL     1     -10.174  13.453  64.688  1.00  0.00    -0.376 OA 
HETATM   14  O   UNL     1      -8.602  12.394  65.998  1.00  0.00    -0.386 OA 
HETATM   15  H   UNL     1      -7.930  12.766  65.439  1.00  0.00     0.000 HD 
HETATM   16  C   UNL     1     -11.312  14.320  64.553  1.00  0.00    -0.334 C  
HETATM   17  C   UNL     1     -12.486  13.878  65.456  1.00  0.00    -0.511 C  
HETATM   18  H   UNL     1     -12.492  15.393  67.553  1.00  0.00     0.000 HD 
HETATM   19  C   UNL     1     -12.038  13.603  66.903  1.00  0.00    -0.386 C  
HETATM   20  O   UNL     1     -13.083  12.695  64.901  1.00  0.00    -0.850 OA 
HETATM   21  O   UNL     1     -11.726  14.831  67.572  1.00  0.00    -0.363 OA 
HETATM   22  H   UNL     1     -13.805  12.424  65.456  1.00  0.00     0.000 HD 
BRANCH  16  23
HETATM   23  C   UNL     1     -10.920  15.797  64.716  1.00  0.00    -0.393 C  
HETATM   24  O   UNL     1     -11.725  16.649  63.909  1.00  0.00    -1.487 OA 
HETATM   25  H   UNL     1     -11.483  17.563  64.010  1.00  0.00     0.000 HD 
ENDBRANCH  16  23
ENDBRANCH   9  11
ENDBRANCH   7   9
ENDBRANCH   2   7
TORSDOF 5
ENDMDL
MODEL       18
REMARK 921   NORMALIZED FREE ENERGY PREDICTED BY IDOCK:   -5.77 KCAL/MOL
REMARK 922        TOTAL FREE ENERGY PREDICTED BY IDOCK:   -8.28 KCAL/MOL
REMARK 923 INTER-LIGAND FREE ENERGY PREDICTED BY IDOCK:   -7.32 KCAL/MOL
REMARK 924 INTRA-LIGAND FREE ENERGY PREDICTED BY IDOCK:   -0.96 KCAL/MOL
REMARK 927      BINDING AFFINITY PREDICTED BY RF-SCORE:    0.00 PKD
ROOT
HETATM    1  C   UNL     1     -13.668  14.399  72.191  1.00  0.00    -0.463 C  
HETATM    2  N   UNL     1     -12.403  14.271  71.487  1.00  0.00    -0.349 N  
ENDROOT
BRANCH   2   3
HETATM    3  N   UNL     1     -11.381  15.209  71.655  1.00  0.00    -0.528 NA 
HETATM    4  H   UNL     1     -10.400  14.941  71.742  1.00  0.00     0.000 HD 
HETATM    5  O   UNL     1     -11.752  16.384  71.688  1.00  0.00    -0.608 OA 
HETATM    6  H   UNL     1     -11.057  17.021  71.802  1.00  0.00     0.000 HD 
ENDBRANCH   2   3
BRANCH   2   7
HETATM    7  C   UNL     1     -12.165  13.110  70.752  1.00  0.00    -0.290 C  
HETATM    8  O   UNL     1     -12.580  12.002  71.096  1.00  0.00    -0.367 OA 
BRANCH   7   9
HETATM    9  N   UNL     1     -11.407  13.271  69.618  1.00  0.00    -0.465 N  
HETATM   10  H   UNL     1     -10.390  13.284  69.699  1.00  0.00     0.000 HD 
BRANCH   9  11
HETATM   11  C   UNL     1     -12.023  13.425  68.290  1.00  0.00    -0.317 C  
HETATM   12  C   UNL     1     -11.761  14.852  67.772  1.00  0.00    -0.317 C  
HETATM   13  O   UNL     1     -10.368  15.076  67.553  1.00  0.00    -0.238 OA 
HETATM   14  O   UNL     1     -12.194  15.775  68.772  1.00  0.00    -0.560 OA 
HETATM   15  H   UNL     1     -12.032  16.655  68.453  1.00  0.00     0.000 HD 
HETATM   16  C   UNL     1      -9.772  14.199  66.584  1.00  0.00    -0.288 C  
HETATM   17  C   UNL     1     -10.002  12.711  66.932  1.00  0.00    -0.230 C  
HETATM   18  H   UNL     1     -11.942  11.839  65.457  1.00  0.00     0.000 HD 
HETATM   19  C   UNL     1     -11.474  12.411  67.270  1.00  0.00    -0.354 C  
HETATM   20  O   UNL     1      -9.168  12.356  68.045  1.00  0.00    -0.190 OA 
HETATM   21  O   UNL     1     -12.281  12.465  66.087  1.00  0.00    -0.635 OA 
HETATM   22  H   UNL     1      -9.309  11.441  68.259  1.00  0.00     0.000 HD 
BRANCH  16  23
HETATM   23  C   UNL     1     -10.182  14.577  65.151  1.00  0.00    -0.389 C  
HETATM   24  O   UNL     1     -10.025  13.485  64.251  1.00  0.00    -0.732 OA 
HETATM   25  H   UNL     1     -10.278  13.718  63.366  1.00  0.00     0.000 HD 
ENDBRANCH  16  23
ENDBRANCH   9  11
ENDBRANCH   7   9
ENDBRANCH   2   7
TORSDOF 5
ENDMDL
MODEL       19
REMARK 921   NORMALIZED FREE ENERGY PREDICTED BY IDOCK:   -5.77 KCAL/MOL
REMARK 922        TOTAL FREE ENERGY PREDICTED BY IDOCK:   -8.28 KCAL/MOL
REMARK 923 INTER-LIGAND FREE ENERGY PREDICTED BY IDOCK:   -7.36 KCAL/MOL
REMARK 924 INTRA-LIGAND FREE ENERGY PREDICTED BY IDOCK:   -0.91 KCAL/MOL
REMARK 927      BINDING AFFINITY PREDICTED BY RF-SCORE:    0.00 PKD
ROOT
HETATM    1  C   UNL     1     -10.139   9.232  69.718  1.00  0.00    -0.204 C  
HETATM    2  N   UNL     1     -10.671   9.945  68.568  1.00  0.00    -0.223 N  
ENDROOT
BRANCH   2   3
HETATM    3  N   UNL     1     -10.860   9.305  67.341  1.00  0.00    -0.412 NA 
HETATM    4  H   UNL     1     -11.632   8.659  67.172  1.00  0.00     0.000 HD 
HETATM    5  O   UNL     1     -10.025   9.579  66.477  1.00  0.00    -0.225 OA 
HETATM    6  H   UNL     1     -10.153   9.143  65.642  1.00  0.00     0.000 HD 
ENDBRANCH   2   3
BRANCH   2   7
HETATM    7  C   UNL     1     -11.135  11.247  68.750  1.00  0.00    -0.233 C  
HETATM    8  O   UNL     1     -11.681  11.626  69.788  1.00  0.00    -0.306 OA 
BRANCH   7   9
HETATM    9  N   UNL     1     -10.972  12.090  67.678  1.00  0.00    -0.226 N  
HETATM   10  H   UNL     1     -10.032  12.397  67.427  1.00  0.00     0.000 HD 
BRANCH   9  11
HETATM   11  C   UNL     1     -12.118  12.561  66.881  1.00  0.00    -0.094 C  
HETATM   12  C   UNL     1     -12.264  14.084  67.057  1.00  0.00    -0.352 C  
HETATM   13  O   UNL     1     -11.139  14.779  66.518  1.00  0.00    -0.324 OA 
HETATM   14  O   UNL     1     -12.317  14.368  68.456  1.00  0.00    -0.588 OA 
HETATM   15  H   UNL     1     -12.406  15.308  68.564  1.00  0.00     0.000 HD 
HETATM   16  C   UNL     1     -10.932  14.571  65.111  1.00  0.00    -0.379 C  
HETATM   17  C   UNL     1     -10.824  13.070  64.758  1.00  0.00    -0.337 C  
HETATM   18  H   UNL     1     -13.104  12.313  63.797  1.00  0.00     0.000 HD 
HETATM   19  C   UNL     1     -11.961  12.240  65.384  1.00  0.00    -0.332 C  
HETATM   20  O   UNL     1      -9.555  12.573  65.211  1.00  0.00    -0.449 OA 
HETATM   21  O   UNL     1     -13.202  12.511  64.722  1.00  0.00    -0.839 OA 
HETATM   22  H   UNL     1      -9.489  11.651  64.993  1.00  0.00     0.000 HD 
BRANCH  16  23
HETATM   23  C   UNL     1     -11.963  15.339  64.269  1.00  0.00    -0.223 C  
HETATM   24  O   UNL     1     -11.416  16.535  63.726  1.00  0.00    -1.615 OA 
HETATM   25  H   UNL     1     -12.053  17.010  63.205  1.00  0.00     0.000 HD 
ENDBRANCH  16  23
ENDBRANCH   9  11
ENDBRANCH   7   9
ENDBRANCH   2   7
TORSDOF 5
ENDMDL
MODEL       20
REMARK 921   NORMALIZED FREE ENERGY PREDICTED BY IDOCK:   -5.77 KCAL/MOL
REMARK 922        TOTAL FREE ENERGY PREDICTED BY IDOCK:   -8.27 KCAL/MOL
REMARK 923 INTER-LIGAND FREE ENERGY PREDICTED BY IDOCK:   -7.26 KCAL/MOL
REMARK 924 INTRA-LIGAND FREE ENERGY PREDICTED BY IDOCK:   -1.02 KCAL/MOL
REMARK 927      BINDING AFFINITY PREDICTED BY RF-SCORE:    0.00 PKD
ROOT
HETATM    1  C   UNL     1     -12.271  12.628  63.410  1.00  0.00    -0.517 C  
HETATM    2  N   UNL     1     -11.776  13.744  64.199  1.00  0.00    -0.387 N  
ENDROOT
BRANCH   2   3
HETATM    3  N   UNL     1     -12.509  14.926  64.324  1.00  0.00    -0.770 NA 
HETATM    4  H   UNL     1     -13.327  15.003  64.930  1.00  0.00     0.000 HD 
HETATM    5  O   UNL     1     -12.094  15.870  63.649  1.00  0.00    -1.223 OA 
HETATM    6  H   UNL     1     -12.592  16.674  63.734  1.00  0.00     0.000 HD 
ENDBRANCH   2   3
BRANCH   2   7
HETATM    7  C   UNL     1     -10.622  13.560  64.960  1.00  0.00    -0.372 C  
HETATM    8  O   UNL     1     -10.157  12.447  65.215  1.00  0.00    -0.276 OA 
BRANCH   7   9
HETATM    9  N   UNL     1     -10.038  14.707  65.439  1.00  0.00    -0.375 N  
HETATM   10  H   UNL     1      -9.678  15.395  64.776  1.00  0.00     0.000 HD 
BRANCH   9  11
HETATM   11  C   UNL     1      -9.919  14.971  66.883  1.00  0.00    -0.244 C  
HETATM   12  C   UNL     1      -8.438  15.212  67.232  1.00  0.00    -0.198 C  
HETATM   13  O   UNL     1      -7.943  16.396  66.607  1.00  0.00    -0.228 OA 
HETATM   14  O   UNL     1      -7.678  14.111  66.734  1.00  0.00    -0.272 OA 
HETATM   15  H   UNL     1      -6.765  14.260  66.949  1.00  0.00     0.000 HD 
HETATM   16  C   UNL     1      -8.631  17.600  66.987  1.00  0.00    -0.237 C  
HETATM   17  C   UNL     1     -10.155  17.494  66.752  1.00  0.00    -0.320 C  
HETATM   18  H   UNL     1     -11.279  16.994  69.028  1.00  0.00     0.000 HD 
HETATM   19  C   UNL     1     -10.745  16.192  67.324  1.00  0.00    -0.277 C  
HETATM   20  O   UNL     1     -10.416  17.566  65.342  1.00  0.00    -0.647 OA 
HETATM   21  O   UNL     1     -10.769  16.240  68.756  1.00  0.00    -0.270 OA 
HETATM   22  H   UNL     1     -11.353  17.502  65.197  1.00  0.00     0.000 HD 
BRANCH  16  23
HETATM   23  C   UNL     1      -8.247  18.045  68.408  1.00  0.00    -0.298 C  
HETATM   24  O   UNL     1      -8.297  19.460  68.549  1.00  0.00    -0.346 OA 
HETATM   25  H   UNL     1      -8.059  19.735  69.427  1.00  0.00     0.000 HD 
ENDBRANCH  16  23
ENDBRANCH   9  11
ENDBRANCH   7   9
ENDBRANCH   2   7
TORSDOF 5
ENDMDL
MODEL       21
REMARK 921   NORMALIZED FREE ENERGY PREDICTED BY IDOCK:   -5.75 KCAL/MOL
REMARK 922        TOTAL FREE ENERGY PREDICTED BY IDOCK:   -8.25 KCAL/MOL
REMARK 923 INTER-LIGAND FREE ENERGY PREDICTED BY IDOCK:   -7.44 KCAL/MOL
REMARK 924 INTRA-LIGAND FREE ENERGY PREDICTED BY IDOCK:   -0.81 KCAL/MOL
REMARK 927      BINDING AFFINITY PREDICTED BY RF-SCORE:    0.00 PKD
ROOT
HETATM    1  C   UNL     1      -7.375  17.809  66.269  1.00  0.00    -0.299 C  
HETATM    2  N   UNL     1      -8.606  18.577  66.358  1.00  0.00    -0.280 N  
ENDROOT
BRANCH   2   3
HETATM    3  N   UNL     1      -8.642  19.933  66.027  1.00  0.00    -0.464 NA 
HETATM    4  H   UNL     1      -8.356  20.282  65.112  1.00  0.00     0.000 HD 
HETATM    5  O   UNL     1      -9.044  20.678  66.923  1.00  0.00    -0.571 OA 
HETATM    6  H   UNL     1      -9.068  21.600  66.698  1.00  0.00     0.000 HD 
ENDBRANCH   2   3
BRANCH   2   7
HETATM    7  C   UNL     1      -9.793  17.899  66.636  1.00  0.00    -0.342 C  
HETATM    8  O   UNL     1     -10.674  18.361  67.364  1.00  0.00    -0.416 OA 
BRANCH   7   9
HETATM    9  N   UNL     1      -9.914  16.656  66.064  1.00  0.00    -0.328 N  
HETATM   10  H   UNL     1      -9.144  16.290  65.505  1.00  0.00     0.000 HD 
BRANCH   9  11
HETATM   11  C   UNL     1     -11.127  15.839  66.239  1.00  0.00    -0.073 C  
HETATM   12  C   UNL     1     -11.504  15.198  64.890  1.00  0.00    -0.374 C  
HETATM   13  O   UNL     1     -10.505  14.276  64.456  1.00  0.00    -0.381 OA 
HETATM   14  O   UNL     1     -11.586  16.236  63.912  1.00  0.00    -1.489 OA 
HETATM   15  H   UNL     1     -11.819  15.841  63.080  1.00  0.00     0.000 HD 
HETATM   16  C   UNL     1     -10.281  13.177  65.355  1.00  0.00    -0.290 C  
HETATM   17  C   UNL     1      -9.947  13.659  66.785  1.00  0.00    -0.270 C  
HETATM   18  H   UNL     1     -12.092  13.451  68.217  1.00  0.00     0.000 HD 
HETATM   19  C   UNL     1     -10.936  14.728  67.287  1.00  0.00    -0.318 C  
HETATM   20  O   UNL     1      -8.612  14.189  66.800  1.00  0.00    -0.387 OA 
HETATM   21  O   UNL     1     -12.210  14.137  67.571  1.00  0.00    -0.370 OA 
HETATM   22  H   UNL     1      -8.407  14.485  67.680  1.00  0.00     0.000 HD 
BRANCH  16  23
HETATM   23  C   UNL     1     -11.426  12.153  65.292  1.00  0.00    -0.336 C  
HETATM   24  O   UNL     1     -11.687  11.573  66.565  1.00  0.00    -0.455 OA 
HETATM   25  H   UNL     1     -12.395  10.940  66.527  1.00  0.00     0.000 HD 
ENDBRANCH  16  23
ENDBRANCH   9  11
ENDBRANCH   7   9
ENDBRANCH   2   7
TORSDOF 5
ENDMDL
MODEL       22
REMARK 921   NORMALIZED FREE ENERGY PREDICTED BY IDOCK:   -5.73 KCAL/MOL
REMARK 922        TOTAL FREE ENERGY PREDICTED BY IDOCK:   -8.22 KCAL/MOL
REMARK 923 INTER-LIGAND FREE ENERGY PREDICTED BY IDOCK:   -7.31 KCAL/MOL
REMARK 924 INTRA-LIGAND FREE ENERGY PREDICTED BY IDOCK:   -0.91 KCAL/MOL
REMARK 927      BINDING AFFINITY PREDICTED BY RF-SCORE:    0.00 PKD
ROOT
HETATM    1  C   UNL     1     -10.235  11.197  65.290  1.00  0.00    -0.280 C  
HETATM    2  N   UNL     1     -11.171  12.071  64.602  1.00  0.00    -0.319 N  
ENDROOT
BRANCH   2   3
HETATM    3  N   UNL     1     -11.372  11.979  63.223  1.00  0.00    -0.695 NA 
HETATM    4  H   UNL     1     -10.675  12.289  62.545  1.00  0.00     0.000 HD 
HETATM    5  O   UNL     1     -12.454  11.495  62.885  1.00  0.00    -0.964 OA 
HETATM    6  H   UNL     1     -12.590  11.433  61.947  1.00  0.00     0.000 HD 
ENDBRANCH   2   3
BRANCH   2   7
HETATM    7  C   UNL     1     -11.983  12.908  65.367  1.00  0.00    -0.426 C  
HETATM    8  O   UNL     1     -13.180  13.082  65.129  1.00  0.00    -0.703 OA 
BRANCH   7   9
HETATM    9  N   UNL     1     -11.356  13.560  66.401  1.00  0.00    -0.308 N  
HETATM   10  H   UNL     1     -10.861  13.012  67.105  1.00  0.00     0.000 HD 
BRANCH   9  11
HETATM   11  C   UNL     1     -11.381  15.028  66.519  1.00  0.00    -0.280 C  
HETATM   12  C   UNL     1     -11.410  15.415  68.009  1.00  0.00    -0.341 C  
HETATM   13  O   UNL     1     -10.210  15.018  68.673  1.00  0.00    -0.219 OA 
HETATM   14  O   UNL     1     -12.494  14.720  68.628  1.00  0.00    -0.583 OA 
HETATM   15  H   UNL     1     -12.512  14.959  69.548  1.00  0.00     0.000 HD 
HETATM   16  C   UNL     1      -9.015  15.616  68.143  1.00  0.00    -0.179 C  
HETATM   17  C   UNL     1      -8.868  15.366  66.625  1.00  0.00    -0.295 C  
HETATM   18  H   UNL     1      -9.620  17.512  65.389  1.00  0.00     0.000 HD 
HETATM   19  C   UNL     1     -10.161  15.688  65.852  1.00  0.00    -0.353 C  
HETATM   20  O   UNL     1      -8.504  13.994  66.409  1.00  0.00    -0.380 OA 
HETATM   21  O   UNL     1     -10.374  17.104  65.800  1.00  0.00    -0.504 OA 
HETATM   22  H   UNL     1      -8.413  13.841  65.476  1.00  0.00     0.000 HD 
BRANCH  16  23
HETATM   23  C   UNL     1      -8.894  17.094  68.548  1.00  0.00    -0.265 C  
HETATM   24  O   UNL     1      -8.129  17.839  67.607  1.00  0.00    -0.217 OA 
HETATM   25  H   UNL     1      -8.055  18.752  67.858  1.00  0.00     0.000 HD 
ENDBRANCH  16  23
ENDBRANCH   9  11
ENDBRANCH   7   9
ENDBRANCH   2   7
TORSDOF 5
ENDMDL
MODEL       23
REMARK 921   NORMALIZED FREE ENERGY PREDICTED BY IDOCK:   -5.72 KCAL/MOL
REMARK 922        TOTAL FREE ENERGY PREDICTED BY IDOCK:   -8.22 KCAL/MOL
REMARK 923 INTER-LIGAND FREE ENERGY PREDICTED BY IDOCK:   -6.98 KCAL/MOL
REMARK 924 INTRA-LIGAND FREE ENERGY PREDICTED BY IDOCK:   -1.24 KCAL/MOL
REMARK 927      BINDING AFFINITY PREDICTED BY RF-SCORE:    0.00 PKD
ROOT
HETATM    1  C   UNL     1      -9.484  10.358  62.580  1.00  0.00    -0.258 C  
HETATM    2  N   UNL     1     -10.362  11.044  63.514  1.00  0.00    -0.359 N  
ENDROOT
BRANCH   2   3
HETATM    3  N   UNL     1     -11.575  11.598  63.097  1.00  0.00    -0.861 NA 
HETATM    4  H   UNL     1     -12.426  11.044  63.002  1.00  0.00     0.000 HD 
HETATM    5  O   UNL     1     -11.540  12.805  62.854  1.00  0.00    -0.748 OA 
HETATM    6  H   UNL     1     -12.365  13.182  62.571  1.00  0.00     0.000 HD 
ENDBRANCH   2   3
BRANCH   2   7
HETATM    7  C   UNL     1     -10.045  11.010  64.872  1.00  0.00    -0.300 C  
HETATM    8  O   UNL     1      -9.931   9.960  65.507  1.00  0.00    -0.304 OA 
BRANCH   7   9
HETATM    9  N   UNL     1      -9.892  12.234  65.475  1.00  0.00    -0.316 N  
HETATM   10  H   UNL     1      -9.655  13.044  64.902  1.00  0.00     0.000 HD 
BRANCH   9  11
HETATM   11  C   UNL     1     -10.060  12.407  66.928  1.00  0.00    -0.219 C  
HETATM   12  C   UNL     1      -9.288  13.660  67.381  1.00  0.00    -0.227 C  
HETATM   13  O   UNL     1      -9.841  14.845  66.810  1.00  0.00    -0.234 OA 
HETATM   14  O   UNL     1      -7.942  13.545  66.918  1.00  0.00    -0.400 OA 
HETATM   15  H   UNL     1      -7.465  14.319  67.197  1.00  0.00     0.000 HD 
HETATM   16  C   UNL     1     -11.213  15.089  67.162  1.00  0.00    -0.336 C  
HETATM   17  C   UNL     1     -12.120  13.885  66.822  1.00  0.00    -0.439 C  
HETATM   18  H   UNL     1     -12.548  12.569  69.009  1.00  0.00     0.000 HD 
HETATM   19  C   UNL     1     -11.538  12.554  67.332  1.00  0.00    -0.370 C  
HETATM   20  O   UNL     1     -12.299  13.822  65.399  1.00  0.00    -0.417 OA 
HETATM   21  O   UNL     1     -11.636  12.478  68.759  1.00  0.00    -0.275 OA 
HETATM   22  H   UNL     1     -12.858  13.082  65.190  1.00  0.00     0.000 HD 
BRANCH  16  23
HETATM   23  C   UNL     1     -11.345  15.582  68.612  1.00  0.00    -0.344 C  
HETATM   24  O   UNL     1     -12.566  15.156  69.205  1.00  0.00    -0.576 OA 
HETATM   25  H   UNL     1     -12.648  15.461  70.102  1.00  0.00     0.000 HD 
ENDBRANCH  16  23
ENDBRANCH   9  11
ENDBRANCH   7   9
ENDBRANCH   2   7
TORSDOF 5
ENDMDL
MODEL       24
REMARK 921   NORMALIZED FREE ENERGY PREDICTED BY IDOCK:   -5.72 KCAL/MOL
REMARK 922        TOTAL FREE ENERGY PREDICTED BY IDOCK:   -8.21 KCAL/MOL
REMARK 923 INTER-LIGAND FREE ENERGY PREDICTED BY IDOCK:   -7.19 KCAL/MOL
REMARK 924 INTRA-LIGAND FREE ENERGY PREDICTED BY IDOCK:   -1.02 KCAL/MOL
REMARK 927      BINDING AFFINITY PREDICTED BY RF-SCORE:    0.00 PKD
ROOT
HETATM    1  C   UNL     1     -11.377   9.217  71.231  1.00  0.00    -0.353 C  
HETATM    2  N   UNL     1     -12.618   9.944  71.437  1.00  0.00    -0.366 N  
ENDROOT
BRANCH   2   3
HETATM    3  N   UNL     1     -13.770   9.299  71.893  1.00  0.00    -0.404 NA 
HETATM    4  H   UNL     1     -14.438   8.857  71.261  1.00  0.00     0.000 HD 
HETATM    5  O   UNL     1     -13.919   9.303  73.117  1.00  0.00    -1.037 OA 
HETATM    6  H   UNL     1     -14.703   8.865  73.427  1.00  0.00     0.000 HD 
ENDBRANCH   2   3
BRANCH   2   7
HETATM    7  C   UNL     1     -12.603  11.333  71.316  1.00  0.00    -0.382 C  
HETATM    8  O   UNL     1     -13.355  12.070  71.956  1.00  0.00    -0.495 OA 
BRANCH   7   9
HETATM    9  N   UNL     1     -11.707  11.839  70.407  1.00  0.00    -0.519 N  
HETATM   10  H   UNL     1     -10.729  11.945  70.680  1.00  0.00     0.000 HD 
BRANCH   9  11
HETATM   11  C   UNL     1     -12.120  12.234  69.049  1.00  0.00    -0.145 C  
HETATM   12  C   UNL     1     -11.927  13.752  68.882  1.00  0.00    -0.359 C  
HETATM   13  O   UNL     1     -10.548  14.112  68.960  1.00  0.00    -0.246 OA 
HETATM   14  O   UNL     1     -12.604  14.408  69.956  1.00  0.00    -0.441 OA 
HETATM   15  H   UNL     1     -12.485  15.344  69.853  1.00  0.00     0.000 HD 
HETATM   16  C   UNL     1      -9.719  13.505  67.954  1.00  0.00    -0.225 C  
HETATM   17  C   UNL     1      -9.847  11.965  67.951  1.00  0.00    -0.190 C  
HETATM   18  H   UNL     1     -11.432  11.302  66.015  1.00  0.00     0.000 HD 
HETATM   19  C   UNL     1     -11.316  11.502  67.959  1.00  0.00    -0.298 C  
HETATM   20  O   UNL     1      -9.167  11.437  69.099  1.00  0.00    -0.405 OA 
HETATM   21  O   UNL     1     -11.928  11.754  66.688  1.00  0.00    -0.561 OA 
HETATM   22  H   UNL     1      -9.245  10.490  69.097  1.00  0.00     0.000 HD 
BRANCH  16  23
HETATM   23  C   UNL     1      -9.936  14.154  66.577  1.00  0.00    -0.283 C  
HETATM   24  O   UNL     1      -9.529  13.294  65.518  1.00  0.00    -0.485 OA 
HETATM   25  H   UNL     1      -9.663  13.695  64.667  1.00  0.00     0.000 HD 
ENDBRANCH  16  23
ENDBRANCH   9  11
ENDBRANCH   7   9
ENDBRANCH   2   7
TORSDOF 5
ENDMDL
MODEL       25
REMARK 921   NORMALIZED FREE ENERGY PREDICTED BY IDOCK:   -5.67 KCAL/MOL
REMARK 922        TOTAL FREE ENERGY PREDICTED BY IDOCK:   -8.14 KCAL/MOL
REMARK 923 INTER-LIGAND FREE ENERGY PREDICTED BY IDOCK:   -7.17 KCAL/MOL
REMARK 924 INTRA-LIGAND FREE ENERGY PREDICTED BY IDOCK:   -0.98 KCAL/MOL
REMARK 927      BINDING AFFINITY PREDICTED BY RF-SCORE:    0.00 PKD
ROOT
HETATM    1  C   UNL     1     -10.208  17.991  67.177  1.00  0.00    -0.360 C  
HETATM    2  N   UNL     1      -9.668  17.181  66.097  1.00  0.00    -0.266 N  
ENDROOT
BRANCH   2   3
HETATM    3  N   UNL     1      -8.293  16.971  65.964  1.00  0.00    -0.517 NA 
HETATM    4  H   UNL     1      -7.701  17.571  65.389  1.00  0.00     0.000 HD 
HETATM    5  O   UNL     1      -7.850  16.008  66.592  1.00  0.00    -0.244 OA 
HETATM    6  H   UNL     1      -6.915  15.866  66.500  1.00  0.00     0.000 HD 
ENDBRANCH   2   3
BRANCH   2   7
HETATM    7  C   UNL     1     -10.558  16.486  65.278  1.00  0.00    -0.253 C  
HETATM    8  O   UNL     1     -11.248  17.037  64.419  1.00  0.00    -1.167 OA 
BRANCH   7   9
HETATM    9  N   UNL     1     -10.643  15.134  65.508  1.00  0.00    -0.338 N  
HETATM   10  H   UNL     1     -10.177  14.492  64.866  1.00  0.00     0.000 HD 
BRANCH   9  11
HETATM   11  C   UNL     1     -11.387  14.589  66.656  1.00  0.00    -0.356 C  
HETATM   12  C   UNL     1     -12.261  13.414  66.180  1.00  0.00    -0.415 C  
HETATM   13  O   UNL     1     -11.462  12.326  65.717  1.00  0.00    -0.338 OA 
HETATM   14  O   UNL     1     -13.053  13.866  65.080  1.00  0.00    -0.773 OA 
HETATM   15  H   UNL     1     -13.593  13.141  64.787  1.00  0.00     0.000 HD 
HETATM   16  C   UNL     1     -10.581  11.773  66.709  1.00  0.00    -0.238 C  
HETATM   17  C   UNL     1      -9.667  12.850  67.334  1.00  0.00    -0.201 C  
HETATM   18  H   UNL     1     -10.664  13.505  69.631  1.00  0.00     0.000 HD 
HETATM   19  C   UNL     1     -10.453  14.098  67.777  1.00  0.00    -0.246 C  
HETATM   20  O   UNL     1      -8.663  13.224  66.378  1.00  0.00    -0.437 OA 
HETATM   21  O   UNL     1     -11.240  13.808  68.939  1.00  0.00    -0.248 OA 
HETATM   22  H   UNL     1      -8.100  13.886  66.764  1.00  0.00     0.000 HD 
BRANCH  16  23
HETATM   23  C   UNL     1     -11.349  10.929  67.739  1.00  0.00    -0.292 C  
HETATM   24  O   UNL     1     -11.090   9.539  67.581  1.00  0.00    -0.481 OA 
HETATM   25  H   UNL     1     -11.564   9.016  68.218  1.00  0.00     0.000 HD 
ENDBRANCH  16  23
ENDBRANCH   9  11
ENDBRANCH   7   9
ENDBRANCH   2   7
TORSDOF 5
ENDMDL
MODEL       26
REMARK 921   NORMALIZED FREE ENERGY PREDICTED BY IDOCK:   -5.66 KCAL/MOL
REMARK 922        TOTAL FREE ENERGY PREDICTED BY IDOCK:   -8.13 KCAL/MOL
REMARK 923 INTER-LIGAND FREE ENERGY PREDICTED BY IDOCK:   -7.12 KCAL/MOL
REMARK 924 INTRA-LIGAND FREE ENERGY PREDICTED BY IDOCK:   -1.01 KCAL/MOL
REMARK 927      BINDING AFFINITY PREDICTED BY RF-SCORE:    0.00 PKD
ROOT
HETATM    1  C   UNL     1     -12.845  14.561  73.096  1.00  0.00    -0.444 C  
HETATM    2  N   UNL     1     -13.226  14.338  71.711  1.00  0.00    -0.345 N  
ENDROOT
BRANCH   2   3
HETATM    3  N   UNL     1     -13.799  15.354  70.942  1.00  0.00    -0.844 NA 
HETATM    4  H   UNL     1     -14.788  15.598  71.006  1.00  0.00     0.000 HD 
HETATM    5  O   UNL     1     -13.021  15.934  70.183  1.00  0.00    -0.652 OA 
HETATM    6  H   UNL     1     -13.411  16.625  69.660  1.00  0.00     0.000 HD 
ENDBRANCH   2   3
BRANCH   2   7
HETATM    7  C   UNL     1     -12.870  13.131  71.110  1.00  0.00    -0.264 C  
HETATM    8  O   UNL     1     -12.831  12.063  71.723  1.00  0.00    -0.348 OA 
BRANCH   7   9
HETATM    9  N   UNL     1     -12.534  13.207  69.780  1.00  0.00    -0.075 N  
HETATM   10  H   UNL     1     -13.187  13.642  69.127  1.00  0.00     0.000 HD 
BRANCH   9  11
HETATM   11  C   UNL     1     -11.256  12.679  69.273  1.00  0.00    -0.193 C  
HETATM   12  C   UNL     1     -11.537  11.488  68.338  1.00  0.00    -0.308 C  
HETATM   13  O   UNL     1     -12.247  11.900  67.170  1.00  0.00    -0.501 OA 
HETATM   14  O   UNL     1     -12.363  10.557  69.039  1.00  0.00    -0.759 OA 
HETATM   15  H   UNL     1     -12.537   9.822  68.462  1.00  0.00     0.000 HD 
HETATM   16  C   UNL     1     -11.552  12.867  66.365  1.00  0.00    -0.371 C  
HETATM   17  C   UNL     1     -11.142  14.113  67.182  1.00  0.00    -0.307 C  
HETATM   18  H   UNL     1      -8.635  13.883  67.781  1.00  0.00     0.000 HD 
HETATM   19  C   UNL     1     -10.448  13.741  68.506  1.00  0.00    -0.244 C  
HETATM   20  O   UNL     1     -12.312  14.900  67.454  1.00  0.00    -0.437 OA 
HETATM   21  O   UNL     1      -9.134  13.228  68.255  1.00  0.00    -0.196 OA 
HETATM   22  H   UNL     1     -12.060  15.666  67.956  1.00  0.00     0.000 HD 
BRANCH  16  23
HETATM   23  C   UNL     1     -10.395  12.225  65.583  1.00  0.00    -0.257 C  
HETATM   24  O   UNL     1      -9.961  13.051  64.509  1.00  0.00    -0.577 OA 
HETATM   25  H   UNL     1      -9.246  12.654  64.025  1.00  0.00     0.000 HD 
ENDBRANCH  16  23
ENDBRANCH   9  11
ENDBRANCH   7   9
ENDBRANCH   2   7
TORSDOF 5
ENDMDL
MODEL       27
REMARK 921   NORMALIZED FREE ENERGY PREDICTED BY IDOCK:   -5.63 KCAL/MOL
REMARK 922        TOTAL FREE ENERGY PREDICTED BY IDOCK:   -8.10 KCAL/MOL
REMARK 923 INTER-LIGAND FREE ENERGY PREDICTED BY IDOCK:   -6.80 KCAL/MOL
REMARK 924 INTRA-LIGAND FREE ENERGY PREDICTED BY IDOCK:   -1.30 KCAL/MOL
REMARK 927      BINDING AFFINITY PREDICTED BY RF-SCORE:    0.00 PKD
ROOT
HETATM    1  C   UNL     1     -12.825  10.344  71.514  1.00  0.00    -0.464 C  
HETATM    2  N   UNL     1     -11.912  11.005  70.596  1.00  0.00    -0.354 N  
ENDROOT
BRANCH   2   3
HETATM    3  N   UNL     1     -11.027  10.275  69.800  1.00  0.00    -0.269 NA 
HETATM    4  H   UNL     1     -11.344   9.651  69.058  1.00  0.00     0.000 HD 
HETATM    5  O   UNL     1      -9.833  10.441  70.060  1.00  0.00    -0.414 OA 
HETATM    6  H   UNL     1      -9.232   9.944  69.518  1.00  0.00     0.000 HD 
ENDBRANCH   2   3
BRANCH   2   7
HETATM    7  C   UNL     1     -12.038  12.382  70.410  1.00  0.00    -0.297 C  
HETATM    8  O   UNL     1     -12.726  13.097  71.141  1.00  0.00    -0.355 OA 
BRANCH   7   9
HETATM    9  N   UNL     1     -11.361  12.899  69.333  1.00  0.00    -0.408 N  
HETATM   10  H   UNL     1     -10.365  13.102  69.423  1.00  0.00     0.000 HD 
BRANCH   9  11
HETATM   11  C   UNL     1     -12.034  13.167  68.051  1.00  0.00    -0.304 C  
HETATM   12  C   UNL     1     -11.719  14.607  67.605  1.00  0.00    -0.363 C  
HETATM   13  O   UNL     1     -10.329  14.771  67.324  1.00  0.00    -0.244 OA 
HETATM   14  O   UNL     1     -12.049  15.488  68.680  1.00  0.00    -0.556 OA 
HETATM   15  H   UNL     1     -11.854  16.376  68.405  1.00  0.00     0.000 HD 
HETATM   16  C   UNL     1      -9.833  13.925  66.274  1.00  0.00    -0.306 C  
HETATM   17  C   UNL     1     -10.128  12.432  66.546  1.00  0.00    -0.232 C  
HETATM   18  H   UNL     1     -12.186  11.757  65.129  1.00  0.00     0.000 HD 
HETATM   19  C   UNL     1     -11.596  12.190  66.945  1.00  0.00    -0.341 C  
HETATM   20  O   UNL     1      -9.259  11.966  67.590  1.00  0.00    -0.173 OA 
HETATM   21  O   UNL     1     -12.457  12.359  65.812  1.00  0.00    -0.615 OA 
HETATM   22  H   UNL     1      -9.440  11.048  67.756  1.00  0.00     0.000 HD 
BRANCH  16  23
HETATM   23  C   UNL     1     -10.294  14.411  64.891  1.00  0.00    -0.389 C  
HETATM   24  O   UNL     1     -10.239  13.372  63.920  1.00  0.00    -0.712 OA 
HETATM   25  H   UNL     1     -10.524  13.673  63.064  1.00  0.00     0.000 HD 
ENDBRANCH  16  23
ENDBRANCH   9  11
ENDBRANCH   7   9
ENDBRANCH   2   7
TORSDOF 5
ENDMDL
MODEL       28
REMARK 921   NORMALIZED FREE ENERGY PREDICTED BY IDOCK:   -5.61 KCAL/MOL
REMARK 922        TOTAL FREE ENERGY PREDICTED BY IDOCK:   -8.07 KCAL/MOL
REMARK 923 INTER-LIGAND FREE ENERGY PREDICTED BY IDOCK:   -6.80 KCAL/MOL
REMARK 924 INTRA-LIGAND FREE ENERGY PREDICTED BY IDOCK:   -1.27 KCAL/MOL
REMARK 927      BINDING AFFINITY PREDICTED BY RF-SCORE:    0.00 PKD
ROOT
HETATM    1  C   UNL     1     -12.877  13.045  65.112  1.00  0.00    -0.266 C  
HETATM    2  N   UNL     1     -11.889  14.111  65.124  1.00  0.00    -0.355 N  
ENDROOT
BRANCH   2   3
HETATM    3  N   UNL     1     -11.730  14.967  64.032  1.00  0.00    -0.752 NA 
HETATM    4  H   UNL     1     -10.928  14.910  63.403  1.00  0.00     0.000 HD 
HETATM    5  O   UNL     1     -12.631  15.795  63.883  1.00  0.00    -0.837 OA 
HETATM    6  H   UNL     1     -12.523  16.376  63.140  1.00  0.00     0.000 HD 
ENDBRANCH   2   3
BRANCH   2   7
HETATM    7  C   UNL     1     -11.200  14.365  66.310  1.00  0.00    -0.338 C  
HETATM    8  O   UNL     1     -10.748  13.471  67.027  1.00  0.00    -0.273 OA 
BRANCH   7   9
HETATM    9  N   UNL     1     -11.076  15.689  66.651  1.00  0.00    -0.217 N  
HETATM   10  H   UNL     1     -11.871  16.170  67.072  1.00  0.00     0.000 HD 
BRANCH   9  11
HETATM   11  C   UNL     1      -9.825  16.433  66.426  1.00  0.00    -0.294 C  
HETATM   12  C   UNL     1     -10.162  17.864  65.967  1.00  0.00    -0.295 C  
HETATM   13  O   UNL     1     -10.837  18.593  66.991  1.00  0.00    -0.382 OA 
HETATM   14  O   UNL     1     -11.046  17.775  64.848  1.00  0.00    -0.821 OA 
HETATM   15  H   UNL     1     -11.254  18.658  64.564  1.00  0.00     0.000 HD 
HETATM   16  C   UNL     1     -10.082  18.746  68.205  1.00  0.00    -0.383 C  
HETATM   17  C   UNL     1      -9.611  17.386  68.769  1.00  0.00    -0.267 C  
HETATM   18  H   UNL     1      -7.127  17.071  68.117  1.00  0.00     0.000 HD 
HETATM   19  C   UNL     1      -8.951  16.505  67.692  1.00  0.00    -0.197 C  
HETATM   20  O   UNL     1     -10.739  16.698  69.333  1.00  0.00    -0.321 OA 
HETATM   21  O   UNL     1      -7.666  17.027  67.336  1.00  0.00    -0.163 OA 
HETATM   22  H   UNL     1     -10.449  15.862  69.680  1.00  0.00     0.000 HD 
BRANCH  16  23
HETATM   23  C   UNL     1      -8.956  19.779  68.043  1.00  0.00    -0.311 C  
HETATM   24  O   UNL     1      -7.948  19.622  69.036  1.00  0.00    -0.330 OA 
HETATM   25  H   UNL     1      -7.251  20.260  68.936  1.00  0.00     0.000 HD 
ENDBRANCH  16  23
ENDBRANCH   9  11
ENDBRANCH   7   9
ENDBRANCH   2   7
TORSDOF 5
ENDMDL
MODEL       29
REMARK 921   NORMALIZED FREE ENERGY PREDICTED BY IDOCK:   -5.55 KCAL/MOL
REMARK 922        TOTAL FREE ENERGY PREDICTED BY IDOCK:   -8.00 KCAL/MOL
REMARK 923 INTER-LIGAND FREE ENERGY PREDICTED BY IDOCK:   -7.54 KCAL/MOL
REMARK 924 INTRA-LIGAND FREE ENERGY PREDICTED BY IDOCK:   -0.46 KCAL/MOL
REMARK 927      BINDING AFFINITY PREDICTED BY RF-SCORE:    0.00 PKD
ROOT
HETATM    1  C   UNL     1      -8.831   9.415  68.194  1.00  0.00    -0.124 C  
HETATM    2  N   UNL     1     -10.044   9.376  67.393  1.00  0.00    -0.200 N  
ENDROOT
BRANCH   2   3
HETATM    3  N   UNL     1     -10.326   8.295  66.554  1.00  0.00    -0.423 NA 
HETATM    4  H   UNL     1     -11.051   7.610  66.768  1.00  0.00     0.000 HD 
HETATM    5  O   UNL     1      -9.633   8.230  65.538  1.00  0.00    -0.413 OA 
HETATM    6  H   UNL     1      -9.825   7.494  64.968  1.00  0.00     0.000 HD 
ENDBRANCH   2   3
BRANCH   2   7
HETATM    7  C   UNL     1     -11.002  10.371  67.588  1.00  0.00    -0.312 C  
HETATM    8  O   UNL     1     -11.857  10.313  68.473  1.00  0.00    -0.197 OA 
BRANCH   7   9
HETATM    9  N   UNL     1     -10.954  11.422  66.705  1.00  0.00    -0.291 N  
HETATM   10  H   UNL     1     -11.029  11.234  65.705  1.00  0.00     0.000 HD 
BRANCH   9  11
HETATM   11  C   UNL     1     -10.797  12.812  67.164  1.00  0.00    -0.256 C  
HETATM   12  C   UNL     1      -9.741  13.517  66.291  1.00  0.00    -0.277 C  
HETATM   13  O   UNL     1     -10.179  13.630  64.937  1.00  0.00    -0.372 OA 
HETATM   14  O   UNL     1      -8.556  12.720  66.295  1.00  0.00    -0.409 OA 
HETATM   15  H   UNL     1      -7.905  13.155  65.757  1.00  0.00     0.000 HD 
HETATM   16  C   UNL     1     -11.389  14.388  64.767  1.00  0.00    -0.388 C  
HETATM   17  C   UNL     1     -12.543  13.837  65.634  1.00  0.00    -0.509 C  
HETATM   18  H   UNL     1     -12.753  15.342  67.729  1.00  0.00     0.000 HD 
HETATM   19  C   UNL     1     -12.115  13.603  67.095  1.00  0.00    -0.362 C  
HETATM   20  O   UNL     1     -13.010  12.605  65.063  1.00  0.00    -0.812 OA 
HETATM   21  O   UNL     1     -11.939  14.853  67.772  1.00  0.00    -0.321 OA 
HETATM   22  H   UNL     1     -13.721  12.267  65.596  1.00  0.00     0.000 HD 
BRANCH  16  23
HETATM   23  C   UNL     1     -11.141  15.895  64.940  1.00  0.00    -0.389 C  
HETATM   24  O   UNL     1     -11.690  16.648  63.865  1.00  0.00    -1.487 OA 
HETATM   25  H   UNL     1     -11.537  17.580  63.972  1.00  0.00     0.000 HD 
ENDBRANCH  16  23
ENDBRANCH   9  11
ENDBRANCH   7   9
ENDBRANCH   2   7
TORSDOF 5
ENDMDL
MODEL       30
REMARK 921   NORMALIZED FREE ENERGY PREDICTED BY IDOCK:   -5.53 KCAL/MOL
REMARK 922        TOTAL FREE ENERGY PREDICTED BY IDOCK:   -7.97 KCAL/MOL
REMARK 923 INTER-LIGAND FREE ENERGY PREDICTED BY IDOCK:   -6.69 KCAL/MOL
REMARK 924 INTRA-LIGAND FREE ENERGY PREDICTED BY IDOCK:   -1.27 KCAL/MOL
REMARK 927      BINDING AFFINITY PREDICTED BY RF-SCORE:    0.00 PKD
ROOT
HETATM    1  C   UNL     1     -10.389  17.669  68.499  1.00  0.00    -0.370 C  
HETATM    2  N   UNL     1     -10.172  16.234  68.433  1.00  0.00    -0.240 N  
ENDROOT
BRANCH   2   3
HETATM    3  N   UNL     1      -8.896  15.684  68.579  1.00  0.00    -0.179 NA 
HETATM    4  H   UNL     1      -8.053  16.165  68.264  1.00  0.00     0.000 HD 
HETATM    5  O   UNL     1      -8.864  14.576  69.116  1.00  0.00    -0.350 OA 
HETATM    6  H   UNL     1      -7.996  14.202  69.215  1.00  0.00     0.000 HD 
ENDBRANCH   2   3
BRANCH   2   7
HETATM    7  C   UNL     1     -11.285  15.395  68.372  1.00  0.00    -0.315 C  
HETATM    8  O   UNL     1     -11.959  15.103  69.361  1.00  0.00    -0.313 OA 
BRANCH   7   9
HETATM    9  N   UNL     1     -11.575  14.884  67.130  1.00  0.00    -0.348 N  
HETATM   10  H   UNL     1     -11.481  15.486  66.312  1.00  0.00     0.000 HD 
BRANCH   9  11
HETATM   11  C   UNL     1     -12.017  13.491  66.950  1.00  0.00    -0.399 C  
HETATM   12  C   UNL     1     -12.594  13.322  65.533  1.00  0.00    -0.446 C  
HETATM   13  O   UNL     1     -11.590  13.514  64.537  1.00  0.00    -0.351 OA 
HETATM   14  O   UNL     1     -13.593  14.324  65.337  1.00  0.00    -0.583 OA 
HETATM   15  H   UNL     1     -13.950  14.220  64.463  1.00  0.00     0.000 HD 
HETATM   16  C   UNL     1     -10.491  12.592  64.617  1.00  0.00    -0.319 C  
HETATM   17  C   UNL     1      -9.833  12.597  66.015  1.00  0.00    -0.254 C  
HETATM   18  H   UNL     1     -10.711  10.540  67.316  1.00  0.00     0.000 HD 
HETATM   19  C   UNL     1     -10.870  12.484  67.149  1.00  0.00    -0.250 C  
HETATM   20  O   UNL     1      -9.075  13.807  66.171  1.00  0.00    -0.484 OA 
HETATM   21  O   UNL     1     -11.419  11.161  67.194  1.00  0.00    -0.461 OA 
HETATM   22  H   UNL     1      -8.670  13.810  67.031  1.00  0.00     0.000 HD 
BRANCH  16  23
HETATM   23  C   UNL     1     -10.889  11.193  64.119  1.00  0.00    -0.285 C  
HETATM   24  O   UNL     1     -10.393  10.938  62.809  1.00  0.00    -0.745 OA 
HETATM   25  H   UNL     1     -10.639  10.074  62.501  1.00  0.00     0.000 HD 
ENDBRANCH  16  23
ENDBRANCH   9  11
ENDBRANCH   7   9
ENDBRANCH   2   7
TORSDOF 5
ENDMDL
MODEL       31
REMARK 921   NORMALIZED FREE ENERGY PREDICTED BY IDOCK:   -5.50 KCAL/MOL
REMARK 922        TOTAL FREE ENERGY PREDICTED BY IDOCK:   -7.93 KCAL/MOL
REMARK 923 INTER-LIGAND FREE ENERGY PREDICTED BY IDOCK:   -6.75 KCAL/MOL
REMARK 924 INTRA-LIGAND FREE ENERGY PREDICTED BY IDOCK:   -1.18 KCAL/MOL
REMARK 927      BINDING AFFINITY PREDICTED BY RF-SCORE:    0.00 PKD
ROOT
HETATM    1  C   UNL     1     -11.451  12.942  68.623  1.00  0.00    -0.308 C  
HETATM    2  N   UNL     1     -11.913  11.596  68.921  1.00  0.00    -0.327 N  
ENDROOT
BRANCH   2   3
HETATM    3  N   UNL     1     -11.783  10.561  67.992  1.00  0.00    -0.750 NA 
HETATM    4  H   UNL     1     -12.565  10.232  67.425  1.00  0.00     0.000 HD 
HETATM    5  O   UNL     1     -10.653  10.075  67.908  1.00  0.00    -0.215 OA 
HETATM    6  H   UNL     1     -10.565   9.371  67.276  1.00  0.00     0.000 HD 
ENDBRANCH   2   3
BRANCH   2   7
HETATM    7  C   UNL     1     -12.353  11.316  70.215  1.00  0.00    -0.307 C  
HETATM    8  O   UNL     1     -12.658  12.194  71.024  1.00  0.00    -0.362 OA 
BRANCH   7   9
HETATM    9  N   UNL     1     -12.403   9.984  70.548  1.00  0.00    -0.450 N  
HETATM   10  H   UNL     1     -12.974   9.353  69.986  1.00  0.00     0.000 HD 
BRANCH   9  11
HETATM   11  C   UNL     1     -11.653   9.445  71.696  1.00  0.00    -0.396 C  
HETATM   12  C   UNL     1     -12.565   8.498  72.497  1.00  0.00    -0.284 C  
HETATM   13  O   UNL     1     -12.925   7.351  71.728  1.00  0.00    -0.338 OA 
HETATM   14  O   UNL     1     -13.769   9.201  72.812  1.00  0.00    -0.768 OA 
HETATM   15  H   UNL     1     -14.332   8.616  73.306  1.00  0.00     0.000 HD 
HETATM   16  C   UNL     1     -11.811   6.547  71.306  1.00  0.00    -0.329 C  
HETATM   17  C   UNL     1     -10.762   7.374  70.530  1.00  0.00    -0.233 C  
HETATM   18  H   UNL     1      -8.821   7.922  72.153  1.00  0.00     0.000 HD 
HETATM   19  C   UNL     1     -10.391   8.679  71.260  1.00  0.00    -0.239 C  
HETATM   20  O   UNL     1     -11.278   7.680  69.226  1.00  0.00    -0.442 OA 
HETATM   21  O   UNL     1      -9.600   8.395  72.421  1.00  0.00    -0.261 OA 
HETATM   22  H   UNL     1     -10.633   8.188  68.748  1.00  0.00     0.000 HD 
BRANCH  16  23
HETATM   23  C   UNL     1     -11.228   5.733  72.472  1.00  0.00    -0.297 C  
HETATM   24  O   UNL     1     -12.238   5.017  73.174  1.00  0.00    -0.445 OA 
HETATM   25  H   UNL     1     -11.877   4.513  73.895  1.00  0.00     0.000 HD 
ENDBRANCH  16  23
ENDBRANCH   9  11
ENDBRANCH   7   9
ENDBRANCH   2   7
TORSDOF 5
ENDMDL
MODEL       32
REMARK 921   NORMALIZED FREE ENERGY PREDICTED BY IDOCK:   -5.46 KCAL/MOL
REMARK 922        TOTAL FREE ENERGY PREDICTED BY IDOCK:   -7.88 KCAL/MOL
REMARK 923 INTER-LIGAND FREE ENERGY PREDICTED BY IDOCK:   -6.69 KCAL/MOL
REMARK 924 INTRA-LIGAND FREE ENERGY PREDICTED BY IDOCK:   -1.18 KCAL/MOL
REMARK 927      BINDING AFFINITY PREDICTED BY RF-SCORE:    0.00 PKD
ROOT
HETATM    1  C   UNL     1     -12.602  12.460  64.554  1.00  0.00    -0.391 C  
HETATM    2  N   UNL     1     -11.438  12.180  65.379  1.00  0.00    -0.344 N  
ENDROOT
BRANCH   2   3
HETATM    3  N   UNL     1     -10.224  11.785  64.813  1.00  0.00    -0.270 NA 
HETATM    4  H   UNL     1     -10.150  11.456  63.850  1.00  0.00     0.000 HD 
HETATM    5  O   UNL     1      -9.250  11.863  65.563  1.00  0.00    -0.403 OA 
HETATM    6  H   UNL     1      -8.424  11.593  65.178  1.00  0.00     0.000 HD 
ENDBRANCH   2   3
BRANCH   2   7
HETATM    7  C   UNL     1     -11.508  12.461  66.744  1.00  0.00    -0.362 C  
HETATM    8  O   UNL     1     -12.154  11.774  67.538  1.00  0.00    -0.599 OA 
BRANCH   7   9
HETATM    9  N   UNL     1     -10.827  13.581  67.154  1.00  0.00    -0.282 N  
HETATM   10  H   UNL     1     -10.048  13.477  67.805  1.00  0.00     0.000 HD 
BRANCH   9  11
HETATM   11  C   UNL     1     -11.191  14.926  66.679  1.00  0.00    -0.340 C  
HETATM   12  C   UNL     1     -11.218  15.895  67.876  1.00  0.00    -0.297 C  
HETATM   13  O   UNL     1      -9.920  16.052  68.447  1.00  0.00    -0.214 OA 
HETATM   14  O   UNL     1     -12.067  15.338  68.881  1.00  0.00    -0.535 OA 
HETATM   15  H   UNL     1     -12.083  15.935  69.619  1.00  0.00     0.000 HD 
HETATM   16  C   UNL     1      -8.935  16.583  67.544  1.00  0.00    -0.196 C  
HETATM   17  C   UNL     1      -8.828  15.746  66.249  1.00  0.00    -0.343 C  
HETATM   18  H   UNL     1     -10.142  16.980  64.392  1.00  0.00     0.000 HD 
HETATM   19  C   UNL     1     -10.206  15.459  65.623  1.00  0.00    -0.376 C  
HETATM   20  O   UNL     1      -8.163  14.508  66.546  1.00  0.00    -0.353 OA 
HETATM   21  O   UNL     1     -10.750  16.651  65.044  1.00  0.00    -0.677 OA 
HETATM   22  H   UNL     1      -8.097  13.994  65.749  1.00  0.00     0.000 HD 
BRANCH  16  23
HETATM   23  C   UNL     1      -9.143  18.087  67.301  1.00  0.00    -0.255 C  
HETATM   24  O   UNL     1      -8.549  18.512  66.080  1.00  0.00    -0.456 OA 
HETATM   25  H   UNL     1      -8.677  19.441  65.930  1.00  0.00     0.000 HD 
ENDBRANCH  16  23
ENDBRANCH   9  11
ENDBRANCH   7   9
ENDBRANCH   2   7
TORSDOF 5
ENDMDL
MODEL       33
REMARK 921   NORMALIZED FREE ENERGY PREDICTED BY IDOCK:   -5.46 KCAL/MOL
REMARK 922        TOTAL FREE ENERGY PREDICTED BY IDOCK:   -7.87 KCAL/MOL
REMARK 923 INTER-LIGAND FREE ENERGY PREDICTED BY IDOCK:   -7.10 KCAL/MOL
REMARK 924 INTRA-LIGAND FREE ENERGY PREDICTED BY IDOCK:   -0.77 KCAL/MOL
REMARK 927      BINDING AFFINITY PREDICTED BY RF-SCORE:    0.00 PKD
ROOT
HETATM    1  C   UNL     1     -11.110  11.625  65.975  1.00  0.00    -0.270 C  
HETATM    2  N   UNL     1     -11.747  12.729  66.672  1.00  0.00    -0.375 N  
ENDROOT
BRANCH   2   3
HETATM    3  N   UNL     1     -11.724  12.818  68.066  1.00  0.00    -0.345 NA 
HETATM    4  H   UNL     1     -11.197  12.168  68.648  1.00  0.00     0.000 HD 
HETATM    5  O   UNL     1     -12.389  13.742  68.540  1.00  0.00    -0.441 OA 
HETATM    6  H   UNL     1     -12.374  13.802  69.488  1.00  0.00     0.000 HD 
ENDBRANCH   2   3
BRANCH   2   7
HETATM    7  C   UNL     1     -12.255  13.787  65.918  1.00  0.00    -0.466 C  
HETATM    8  O   UNL     1     -13.055  13.628  64.994  1.00  0.00    -0.742 OA 
BRANCH   7   9
HETATM    9  N   UNL     1     -11.784  15.033  66.252  1.00  0.00    -0.179 N  
HETATM   10  H   UNL     1     -12.382  15.661  66.790  1.00  0.00     0.000 HD 
BRANCH   9  11
HETATM   11  C   UNL     1     -10.441  15.486  65.854  1.00  0.00    -0.342 C  
HETATM   12  C   UNL     1     -10.570  16.738  64.967  1.00  0.00    -0.039 C  
HETATM   13  O   UNL     1     -11.121  17.835  65.695  1.00  0.00     0.036 OA 
HETATM   14  O   UNL     1     -11.469  16.435  63.899  1.00  0.00    -1.569 OA 
HETATM   15  H   UNL     1     -11.550  17.207  63.351  1.00  0.00     0.000 HD 
HETATM   16  C   UNL     1     -10.339  18.246  66.829  1.00  0.00    -0.384 C  
HETATM   17  C   UNL     1     -10.066  17.074  67.798  1.00  0.00    -0.302 C  
HETATM   18  H   UNL     1      -7.661  16.224  67.363  1.00  0.00     0.000 HD 
HETATM   19  C   UNL     1      -9.553  15.819  67.067  1.00  0.00    -0.226 C  
HETATM   20  O   UNL     1     -11.276  16.761  68.506  1.00  0.00    -0.319 OA 
HETATM   21  O   UNL     1      -8.209  16.018  66.614  1.00  0.00    -0.239 OA 
HETATM   22  H   UNL     1     -11.108  16.040  69.103  1.00  0.00     0.000 HD 
BRANCH  16  23
HETATM   23  C   UNL     1      -9.076  19.008  66.398  1.00  0.00    -0.329 C  
HETATM   24  O   UNL     1      -9.394  20.221  65.726  1.00  0.00    -0.571 OA 
HETATM   25  H   UNL     1      -8.613  20.693  65.460  1.00  0.00     0.000 HD 
ENDBRANCH  16  23
ENDBRANCH   9  11
ENDBRANCH   7   9
ENDBRANCH   2   7
TORSDOF 5
ENDMDL
MODEL       34
REMARK 921   NORMALIZED FREE ENERGY PREDICTED BY IDOCK:   -5.44 KCAL/MOL
REMARK 922        TOTAL FREE ENERGY PREDICTED BY IDOCK:   -7.86 KCAL/MOL
REMARK 923 INTER-LIGAND FREE ENERGY PREDICTED BY IDOCK:   -6.89 KCAL/MOL
REMARK 924 INTRA-LIGAND FREE ENERGY PREDICTED BY IDOCK:   -0.96 KCAL/MOL
REMARK 927      BINDING AFFINITY PREDICTED BY RF-SCORE:    0.00 PKD
ROOT
HETATM    1  C   UNL     1     -10.155   9.660  70.132  1.00  0.00    -0.262 C  
HETATM    2  N   UNL     1     -11.032  10.547  69.385  1.00  0.00    -0.233 N  
ENDROOT
BRANCH   2   3
HETATM    3  N   UNL     1     -11.817  11.505  70.030  1.00  0.00    -0.335 NA 
HETATM    4  H   UNL     1     -12.738  11.291  70.414  1.00  0.00     0.000 HD 
HETATM    5  O   UNL     1     -11.314  12.628  70.100  1.00  0.00    -0.499 OA 
HETATM    6  H   UNL     1     -11.849  13.280  70.539  1.00  0.00     0.000 HD 
ENDBRANCH   2   3
BRANCH   2   7
HETATM    7  C   UNL     1     -10.965  10.529  67.992  1.00  0.00    -0.290 C  
HETATM    8  O   UNL     1     -10.637   9.530  67.349  1.00  0.00    -0.268 OA 
BRANCH   7   9
HETATM    9  N   UNL     1     -11.264  11.716  67.369  1.00  0.00    -0.280 N  
HETATM   10  H   UNL     1     -12.228  12.049  67.370  1.00  0.00     0.000 HD 
BRANCH   9  11
HETATM   11  C   UNL     1     -10.228  12.521  66.699  1.00  0.00    -0.230 C  
HETATM   12  C   UNL     1     -10.606  12.699  65.216  1.00  0.00    -0.291 C  
HETATM   13  O   UNL     1     -11.804  13.460  65.073  1.00  0.00    -0.327 OA 
HETATM   14  O   UNL     1     -10.848  11.405  64.660  1.00  0.00    -0.317 OA 
HETATM   15  H   UNL     1     -11.081  11.515  63.746  1.00  0.00     0.000 HD 
HETATM   16  C   UNL     1     -11.730  14.790  65.614  1.00  0.00    -0.257 C  
HETATM   17  C   UNL     1     -11.299  14.787  67.098  1.00  0.00    -0.356 C  
HETATM   18  H   UNL     1      -8.783  15.386  67.197  1.00  0.00     0.000 HD 
HETATM   19  C   UNL     1     -10.058  13.908  67.344  1.00  0.00    -0.244 C  
HETATM   20  O   UNL     1     -12.392  14.317  67.902  1.00  0.00    -0.589 OA 
HETATM   21  O   UNL     1      -8.888  14.530  66.799  1.00  0.00    -0.245 OA 
HETATM   22  H   UNL     1     -12.127  14.316  68.815  1.00  0.00     0.000 HD 
BRANCH  16  23
HETATM   23  C   UNL     1     -10.891  15.717  64.720  1.00  0.00    -0.344 C  
HETATM   24  O   UNL     1     -11.707  16.492  63.850  1.00  0.00    -1.527 OA 
HETATM   25  H   UNL     1     -11.188  17.066  63.297  1.00  0.00     0.000 HD 
ENDBRANCH  16  23
ENDBRANCH   9  11
ENDBRANCH   7   9
ENDBRANCH   2   7
TORSDOF 5
ENDMDL
MODEL       35
REMARK 921   NORMALIZED FREE ENERGY PREDICTED BY IDOCK:   -5.39 KCAL/MOL
REMARK 922        TOTAL FREE ENERGY PREDICTED BY IDOCK:   -7.78 KCAL/MOL
REMARK 923 INTER-LIGAND FREE ENERGY PREDICTED BY IDOCK:   -6.98 KCAL/MOL
REMARK 924 INTRA-LIGAND FREE ENERGY PREDICTED BY IDOCK:   -0.80 KCAL/MOL
REMARK 927      BINDING AFFINITY PREDICTED BY RF-SCORE:    0.00 PKD
ROOT
HETATM    1  C   UNL     1     -12.263  13.240  63.886  1.00  0.00    -0.425 C  
HETATM    2  N   UNL     1     -11.710  14.522  64.290  1.00  0.00    -0.340 N  
ENDROOT
BRANCH   2   3
HETATM    3  N   UNL     1     -12.205  15.722  63.775  1.00  0.00    -1.100 NA 
HETATM    4  H   UNL     1     -13.075  15.773  63.245  1.00  0.00     0.000 HD 
HETATM    5  O   UNL     1     -11.513  16.715  64.009  1.00  0.00    -1.523 OA 
HETATM    6  H   UNL     1     -11.851  17.531  63.659  1.00  0.00     0.000 HD 
ENDBRANCH   2   3
BRANCH   2   7
HETATM    7  C   UNL     1     -10.771  14.546  65.322  1.00  0.00    -0.376 C  
HETATM    8  O   UNL     1      -9.674  13.990  65.243  1.00  0.00    -0.196 OA 
BRANCH   7   9
HETATM    9  N   UNL     1     -11.157  15.212  66.459  1.00  0.00    -0.327 N  
HETATM   10  H   UNL     1     -12.115  15.554  66.533  1.00  0.00     0.000 HD 
BRANCH   9  11
HETATM   11  C   UNL     1     -10.224  15.443  67.575  1.00  0.00    -0.244 C  
HETATM   12  C   UNL     1     -10.593  16.763  68.278  1.00  0.00    -0.352 C  
HETATM   13  O   UNL     1     -11.879  16.682  68.893  1.00  0.00     0.006 OA 
HETATM   14  O   UNL     1     -10.652  17.792  67.289  1.00  0.00    -0.362 OA 
HETATM   15  H   UNL     1     -10.880  18.606  67.723  1.00  0.00     0.000 HD 
HETATM   16  C   UNL     1     -11.991  15.663  69.901  1.00  0.00    -0.360 C  
HETATM   17  C   UNL     1     -11.591  14.271  69.363  1.00  0.00    -0.306 C  
HETATM   18  H   UNL     1      -9.178  13.773  70.157  1.00  0.00     0.000 HD 
HETATM   19  C   UNL     1     -10.250  14.300  68.606  1.00  0.00    -0.246 C  
HETATM   20  O   UNL     1     -12.627  13.789  68.494  1.00  0.00    -0.260 OA 
HETATM   21  O   UNL     1      -9.162  14.479  69.520  1.00  0.00     0.112 OA 
HETATM   22  H   UNL     1     -12.382  12.933  68.164  1.00  0.00     0.000 HD 
BRANCH  16  23
HETATM   23  C   UNL     1     -11.264  16.067  71.194  1.00  0.00    -0.260 C  
HETATM   24  O   UNL     1     -11.113  14.964  72.081  1.00  0.00    -0.423 OA 
HETATM   25  H   UNL     1     -10.664  15.213  72.881  1.00  0.00     0.000 HD 
ENDBRANCH  16  23
ENDBRANCH   9  11
ENDBRANCH   7   9
ENDBRANCH   2   7
TORSDOF 5
ENDMDL
MODEL       36
REMARK 921   NORMALIZED FREE ENERGY PREDICTED BY IDOCK:   -5.38 KCAL/MOL
REMARK 922        TOTAL FREE ENERGY PREDICTED BY IDOCK:   -7.78 KCAL/MOL
REMARK 923 INTER-LIGAND FREE ENERGY PREDICTED BY IDOCK:   -6.94 KCAL/MOL
REMARK 924 INTRA-LIGAND FREE ENERGY PREDICTED BY IDOCK:   -0.84 KCAL/MOL
REMARK 927      BINDING AFFINITY PREDICTED BY RF-SCORE:    0.00 PKD
ROOT
HETATM    1  C   UNL     1     -11.909  12.943  63.519  1.00  0.00    -0.536 C  
HETATM    2  N   UNL     1     -11.525  14.208  64.123  1.00  0.00    -0.251 N  
ENDROOT
BRANCH   2   3
HETATM    3  N   UNL     1     -12.278  15.368  63.923  1.00  0.00    -0.965 NA 
HETATM    4  H   UNL     1     -13.296  15.379  63.993  1.00  0.00     0.000 HD 
HETATM    5  O   UNL     1     -11.621  16.375  63.655  1.00  0.00    -1.514 OA 
HETATM    6  H   UNL     1     -12.134  17.163  63.518  1.00  0.00     0.000 HD 
ENDBRANCH   2   3
BRANCH   2   7
HETATM    7  C   UNL     1     -10.470  14.216  65.035  1.00  0.00    -0.425 C  
HETATM    8  O   UNL     1      -9.949  15.253  65.450  1.00  0.00    -0.347 OA 
BRANCH   7   9
HETATM    9  N   UNL     1     -10.019  12.980  65.431  1.00  0.00    -0.440 N  
HETATM   10  H   UNL     1      -9.900  12.248  64.730  1.00  0.00     0.000 HD 
BRANCH   9  11
HETATM   11  C   UNL     1      -9.701  12.686  66.838  1.00  0.00    -0.234 C  
HETATM   12  C   UNL     1     -10.591  11.527  67.326  1.00  0.00    -0.228 C  
HETATM   13  O   UNL     1     -10.297  10.317  66.628  1.00  0.00    -0.227 OA 
HETATM   14  O   UNL     1     -11.952  11.864  67.050  1.00  0.00    -0.615 OA 
HETATM   15  H   UNL     1     -12.501  11.149  67.350  1.00  0.00     0.000 HD 
HETATM   16  C   UNL     1      -8.944   9.857  66.784  1.00  0.00    -0.138 C  
HETATM   17  C   UNL     1      -7.915  10.940  66.388  1.00  0.00    -0.157 C  
HETATM   18  H   UNL     1      -7.029  12.028  68.563  1.00  0.00     0.000 HD 
HETATM   19  C   UNL     1      -8.224  12.302  67.036  1.00  0.00    -0.155 C  
HETATM   20  O   UNL     1      -7.905  11.074  64.959  1.00  0.00    -0.355 OA 
HETATM   21  O   UNL     1      -7.941  12.265  68.440  1.00  0.00    -0.151 OA 
HETATM   22  H   UNL     1      -7.271  11.740  64.716  1.00  0.00     0.000 HD 
BRANCH  16  23
HETATM   23  C   UNL     1      -8.711   9.252  68.178  1.00  0.00    -0.125 C  
HETATM   24  O   UNL     1      -7.335   9.279  68.542  1.00  0.00    -0.075 OA 
HETATM   25  H   UNL     1      -7.191   8.905  69.404  1.00  0.00     0.000 HD 
ENDBRANCH  16  23
ENDBRANCH   9  11
ENDBRANCH   7   9
ENDBRANCH   2   7
TORSDOF 5
ENDMDL
MODEL       37
REMARK 921   NORMALIZED FREE ENERGY PREDICTED BY IDOCK:   -5.36 KCAL/MOL
REMARK 922        TOTAL FREE ENERGY PREDICTED BY IDOCK:   -7.75 KCAL/MOL
REMARK 923 INTER-LIGAND FREE ENERGY PREDICTED BY IDOCK:   -6.66 KCAL/MOL
REMARK 924 INTRA-LIGAND FREE ENERGY PREDICTED BY IDOCK:   -1.09 KCAL/MOL
REMARK 927      BINDING AFFINITY PREDICTED BY RF-SCORE:    0.00 PKD
ROOT
HETATM    1  C   UNL     1      -8.233  16.506  68.633  1.00  0.00    -0.234 C  
HETATM    2  N   UNL     1      -9.660  16.778  68.589  1.00  0.00    -0.246 N  
ENDROOT
BRANCH   2   3
HETATM    3  N   UNL     1     -10.146  18.076  68.414  1.00  0.00    -0.367 NA 
HETATM    4  H   UNL     1     -10.041  18.801  69.124  1.00  0.00     0.000 HD 
HETATM    5  O   UNL     1     -10.713  18.279  67.338  1.00  0.00    -0.412 OA 
HETATM    6  H   UNL     1     -11.043  19.162  67.220  1.00  0.00     0.000 HD 
ENDBRANCH   2   3
BRANCH   2   7
HETATM    7  C   UNL     1     -10.543  15.698  68.572  1.00  0.00    -0.256 C  
HETATM    8  O   UNL     1     -11.260  15.403  69.530  1.00  0.00    -0.246 OA 
BRANCH   7   9
HETATM    9  N   UNL     1     -10.547  14.954  67.418  1.00  0.00    -0.259 N  
HETATM   10  H   UNL     1      -9.778  14.308  67.240  1.00  0.00     0.000 HD 
BRANCH   9  11
HETATM   11  C   UNL     1     -11.634  15.065  66.430  1.00  0.00    -0.172 C  
HETATM   12  C   UNL     1     -11.030  15.349  65.042  1.00  0.00    -0.436 C  
HETATM   13  O   UNL     1     -10.237  14.253  64.586  1.00  0.00    -0.387 OA 
HETATM   14  O   UNL     1     -10.171  16.485  65.155  1.00  0.00    -0.590 OA 
HETATM   15  H   UNL     1      -9.798  16.661  64.299  1.00  0.00     0.000 HD 
HETATM   16  C   UNL     1     -10.958  13.018  64.447  1.00  0.00    -0.374 C  
HETATM   17  C   UNL     1     -11.680  12.619  65.754  1.00  0.00    -0.419 C  
HETATM   18  H   UNL     1     -14.175  13.263  65.512  1.00  0.00     0.000 HD 
HETATM   19  C   UNL     1     -12.487  13.786  66.354  1.00  0.00    -0.355 C  
HETATM   20  O   UNL     1     -10.707  12.163  66.706  1.00  0.00    -0.222 OA 
HETATM   21  O   UNL     1     -13.649  14.052  65.559  1.00  0.00    -0.596 OA 
HETATM   22  H   UNL     1     -11.151  11.917  67.509  1.00  0.00     0.000 HD 
BRANCH  16  23
HETATM   23  C   UNL     1     -11.868  13.031  63.208  1.00  0.00    -0.364 C  
HETATM   24  O   UNL     1     -13.089  12.339  63.442  1.00  0.00    -0.727 OA 
HETATM   25  H   UNL     1     -13.652  12.347  62.677  1.00  0.00     0.000 HD 
ENDBRANCH  16  23
ENDBRANCH   9  11
ENDBRANCH   7   9
ENDBRANCH   2   7
TORSDOF 5
ENDMDL
MODEL       38
REMARK 921   NORMALIZED FREE ENERGY PREDICTED BY IDOCK:   -5.26 KCAL/MOL
REMARK 922        TOTAL FREE ENERGY PREDICTED BY IDOCK:   -7.62 KCAL/MOL
REMARK 923 INTER-LIGAND FREE ENERGY PREDICTED BY IDOCK:   -6.93 KCAL/MOL
REMARK 924 INTRA-LIGAND FREE ENERGY PREDICTED BY IDOCK:   -0.69 KCAL/MOL
REMARK 927      BINDING AFFINITY PREDICTED BY RF-SCORE:    0.00 PKD
ROOT
HETATM    1  C   UNL     1     -10.929  15.529  65.412  1.00  0.00    -0.357 C  
HETATM    2  N   UNL     1     -11.874  14.574  64.855  1.00  0.00    -0.398 N  
ENDROOT
BRANCH   2   3
HETATM    3  N   UNL     1     -12.486  14.796  63.619  1.00  0.00    -1.051 NA 
HETATM    4  H   UNL     1     -12.852  15.708  63.344  1.00  0.00     0.000 HD 
HETATM    5  O   UNL     1     -12.552  13.807  62.886  1.00  0.00    -0.944 OA 
HETATM    6  H   UNL     1     -12.968  13.958  62.045  1.00  0.00     0.000 HD 
ENDBRANCH   2   3
BRANCH   2   7
HETATM    7  C   UNL     1     -12.046  13.353  65.505  1.00  0.00    -0.428 C  
HETATM    8  O   UNL     1     -13.025  12.627  65.319  1.00  0.00    -0.657 OA 
BRANCH   7   9
HETATM    9  N   UNL     1     -11.061  13.013  66.400  1.00  0.00    -0.281 N  
HETATM   10  H   UNL     1     -11.021  13.492  67.299  1.00  0.00     0.000 HD 
BRANCH   9  11
HETATM   11  C   UNL     1     -10.062  11.975  66.094  1.00  0.00    -0.226 C  
HETATM   12  C   UNL     1      -8.816  12.198  66.970  1.00  0.00    -0.203 C  
HETATM   13  O   UNL     1      -9.115  12.015  68.354  1.00  0.00    -0.188 OA 
HETATM   14  O   UNL     1      -8.386  13.549  66.797  1.00  0.00    -0.412 OA 
HETATM   15  H   UNL     1      -7.617  13.686  67.338  1.00  0.00     0.000 HD 
HETATM   16  C   UNL     1      -9.592  10.701  68.689  1.00  0.00    -0.179 C  
HETATM   17  C   UNL     1     -10.820  10.298  67.842  1.00  0.00    -0.284 C  
HETATM   18  H   UNL     1     -10.004   8.731  65.951  1.00  0.00     0.000 HD 
HETATM   19  C   UNL     1     -10.602  10.554  66.339  1.00  0.00    -0.149 C  
HETATM   20  O   UNL     1     -11.965  11.036  68.297  1.00  0.00    -0.668 OA 
HETATM   21  O   UNL     1      -9.671   9.608  65.800  1.00  0.00    -0.244 OA 
HETATM   22  H   UNL     1     -12.720  10.788  67.777  1.00  0.00     0.000 HD 
BRANCH  16  23
HETATM   23  C   UNL     1      -8.456   9.666  68.674  1.00  0.00    -0.119 C  
HETATM   24  O   UNL     1      -8.926   8.360  68.987  1.00  0.00    -0.145 OA 
HETATM   25  H   UNL     1      -8.223   7.720  68.978  1.00  0.00     0.000 HD 
ENDBRANCH  16  23
ENDBRANCH   9  11
ENDBRANCH   7   9
ENDBRANCH   2   7
TORSDOF 5
ENDMDL
MODEL       39
REMARK 921   NORMALIZED FREE ENERGY PREDICTED BY IDOCK:   -5.26 KCAL/MOL
REMARK 922        TOTAL FREE ENERGY PREDICTED BY IDOCK:   -7.61 KCAL/MOL
REMARK 923 INTER-LIGAND FREE ENERGY PREDICTED BY IDOCK:   -7.30 KCAL/MOL
REMARK 924 INTRA-LIGAND FREE ENERGY PREDICTED BY IDOCK:   -0.32 KCAL/MOL
REMARK 927      BINDING AFFINITY PREDICTED BY RF-SCORE:    0.00 PKD
ROOT
HETATM    1  C   UNL     1     -10.461  15.015  65.429  1.00  0.00    -0.384 C  
HETATM    2  N   UNL     1     -11.716  14.483  64.926  1.00  0.00    -0.384 N  
ENDROOT
BRANCH   2   3
HETATM    3  N   UNL     1     -12.430  15.136  63.919  1.00  0.00    -1.018 NA 
HETATM    4  H   UNL     1     -13.233  14.712  63.452  1.00  0.00     0.000 HD 
HETATM    5  O   UNL     1     -12.019  16.263  63.636  1.00  0.00    -1.356 OA 
HETATM    6  H   UNL     1     -12.505  16.707  62.951  1.00  0.00     0.000 HD 
ENDBRANCH   2   3
BRANCH   2   7
HETATM    7  C   UNL     1     -12.125  13.222  65.360  1.00  0.00    -0.422 C  
HETATM    8  O   UNL     1     -13.129  12.656  64.923  1.00  0.00    -0.850 OA 
BRANCH   7   9
HETATM    9  N   UNL     1     -11.347  12.650  66.336  1.00  0.00    -0.313 N  
HETATM   10  H   UNL     1     -11.070  13.211  67.142  1.00  0.00     0.000 HD 
BRANCH   9  11
HETATM   11  C   UNL     1     -10.904  11.248  66.251  1.00  0.00    -0.238 C  
HETATM   12  C   UNL     1      -9.443  11.208  65.763  1.00  0.00    -0.221 C  
HETATM   13  O   UNL     1      -8.562  11.809  66.711  1.00  0.00    -0.178 OA 
HETATM   14  O   UNL     1      -9.357  11.965  64.555  1.00  0.00    -0.430 OA 
HETATM   15  H   UNL     1      -8.456  11.941  64.254  1.00  0.00     0.000 HD 
HETATM   16  C   UNL     1      -8.556  11.173  68.000  1.00  0.00    -0.140 C  
HETATM   17  C   UNL     1      -9.974  11.079  68.606  1.00  0.00    -0.199 C  
HETATM   18  H   UNL     1     -10.844   8.671  68.227  1.00  0.00     0.000 HD 
HETATM   19  C   UNL     1     -11.001  10.521  67.604  1.00  0.00    -0.314 C  
HETATM   20  O   UNL     1     -10.384  12.384  69.043  1.00  0.00    -0.412 OA 
HETATM   21  O   UNL     1     -10.784   9.121  67.391  1.00  0.00    -0.277 OA 
HETATM   22  H   UNL     1     -11.256  12.326  69.416  1.00  0.00     0.000 HD 
BRANCH  16  23
HETATM   23  C   UNL     1      -7.801   9.834  67.965  1.00  0.00    -0.086 C  
HETATM   24  O   UNL     1      -7.750   9.223  69.249  1.00  0.00    -0.077 OA 
HETATM   25  H   UNL     1      -7.283   8.395  69.228  1.00  0.00     0.000 HD 
ENDBRANCH  16  23
ENDBRANCH   9  11
ENDBRANCH   7   9
ENDBRANCH   2   7
TORSDOF 5
ENDMDL
MODEL       40
REMARK 921   NORMALIZED FREE ENERGY PREDICTED BY IDOCK:   -5.24 KCAL/MOL
REMARK 922        TOTAL FREE ENERGY PREDICTED BY IDOCK:   -7.60 KCAL/MOL
REMARK 923 INTER-LIGAND FREE ENERGY PREDICTED BY IDOCK:   -6.63 KCAL/MOL
REMARK 924 INTRA-LIGAND FREE ENERGY PREDICTED BY IDOCK:   -0.97 KCAL/MOL
REMARK 927      BINDING AFFINITY PREDICTED BY RF-SCORE:    0.00 PKD
ROOT
HETATM    1  C   UNL     1     -10.124   9.507  70.273  1.00  0.00    -0.262 C  
HETATM    2  N   UNL     1     -10.384  10.227  69.037  1.00  0.00    -0.198 N  
ENDROOT
BRANCH   2   3
HETATM    3  N   UNL     1     -11.592  10.081  68.351  1.00  0.00    -0.603 NA 
HETATM    4  H   UNL     1     -11.789   9.277  67.754  1.00  0.00     0.000 HD 
HETATM    5  O   UNL     1     -12.401  10.994  68.521  1.00  0.00    -0.762 OA 
HETATM    6  H   UNL     1     -13.223  10.894  68.054  1.00  0.00     0.000 HD 
ENDBRANCH   2   3
BRANCH   2   7
HETATM    7  C   UNL     1      -9.463  11.190  68.622  1.00  0.00    -0.193 C  
HETATM    8  O   UNL     1      -8.246  10.995  68.617  1.00  0.00    -0.137 OA 
BRANCH   7   9
HETATM    9  N   UNL     1      -9.998  12.395  68.239  1.00  0.00    -0.222 N  
HETATM   10  H   UNL     1     -10.629  12.883  68.876  1.00  0.00     0.000 HD 
BRANCH   9  11
HETATM   11  C   UNL     1      -9.685  13.002  66.934  1.00  0.00    -0.238 C  
HETATM   12  C   UNL     1     -10.296  12.139  65.815  1.00  0.00    -0.258 C  
HETATM   13  O   UNL     1     -11.722  12.138  65.880  1.00  0.00    -0.411 OA 
HETATM   14  O   UNL     1      -9.856  10.792  66.000  1.00  0.00    -0.215 OA 
HETATM   15  H   UNL     1     -10.233  10.260  65.310  1.00  0.00     0.000 HD 
HETATM   16  C   UNL     1     -12.323  13.436  65.738  1.00  0.00    -0.460 C  
HETATM   17  C   UNL     1     -11.764  14.448  66.764  1.00  0.00    -0.397 C  
HETATM   18  H   UNL     1     -10.015  15.923  65.554  1.00  0.00     0.000 HD 
HETATM   19  C   UNL     1     -10.224  14.438  66.813  1.00  0.00    -0.270 C  
HETATM   20  O   UNL     1     -12.291  14.137  68.062  1.00  0.00    -0.560 OA 
HETATM   21  O   UNL     1      -9.682  15.036  65.629  1.00  0.00    -0.339 OA 
HETATM   22  H   UNL     1     -11.948  14.760  68.693  1.00  0.00     0.000 HD 
BRANCH  16  23
HETATM   23  C   UNL     1     -12.269  13.927  64.282  1.00  0.00    -0.408 C  
HETATM   24  O   UNL     1     -12.772  12.951  63.377  1.00  0.00    -0.695 OA 
HETATM   25  H   UNL     1     -12.739  13.254  62.477  1.00  0.00     0.000 HD 
ENDBRANCH  16  23
ENDBRANCH   9  11
ENDBRANCH   7   9
ENDBRANCH   2   7
TORSDOF 5
ENDMDL
MODEL       41
REMARK 921   NORMALIZED FREE ENERGY PREDICTED BY IDOCK:   -5.23 KCAL/MOL
REMARK 922        TOTAL FREE ENERGY PREDICTED BY IDOCK:   -7.58 KCAL/MOL
REMARK 923 INTER-LIGAND FREE ENERGY PREDICTED BY IDOCK:   -6.49 KCAL/MOL
REMARK 924 INTRA-LIGAND FREE ENERGY PREDICTED BY IDOCK:   -1.08 KCAL/MOL
REMARK 927      BINDING AFFINITY PREDICTED BY RF-SCORE:    0.00 PKD
ROOT
HETATM    1  C   UNL     1     -13.124  10.170  71.976  1.00  0.00    -0.437 C  
HETATM    2  N   UNL     1     -12.474  11.113  71.081  1.00  0.00    -0.396 N  
ENDROOT
BRANCH   2   3
HETATM    3  N   UNL     1     -11.739  10.677  69.976  1.00  0.00    -0.296 NA 
HETATM    4  H   UNL     1     -10.749  10.436  70.036  1.00  0.00     0.000 HD 
HETATM    5  O   UNL     1     -12.375  10.605  68.922  1.00  0.00    -0.800 OA 
HETATM    6  H   UNL     1     -11.875  10.309  68.171  1.00  0.00     0.000 HD 
ENDBRANCH   2   3
BRANCH   2   7
HETATM    7  C   UNL     1     -12.723  12.474  71.255  1.00  0.00    -0.252 C  
HETATM    8  O   UNL     1     -13.703  12.904  71.868  1.00  0.00    -0.351 OA 
BRANCH   7   9
HETATM    9  N   UNL     1     -11.814  13.322  70.672  1.00  0.00    -0.525 N  
HETATM   10  H   UNL     1     -10.851  13.326  71.010  1.00  0.00     0.000 HD 
BRANCH   9  11
HETATM   11  C   UNL     1     -12.192  14.226  69.573  1.00  0.00    -0.297 C  
HETATM   12  C   UNL     1     -11.614  15.627  69.848  1.00  0.00    -0.347 C  
HETATM   13  O   UNL     1     -10.187  15.613  69.829  1.00  0.00    -0.273 OA 
HETATM   14  O   UNL     1     -12.024  16.029  71.156  1.00  0.00    -0.433 OA 
HETATM   15  H   UNL     1     -11.667  16.893  71.326  1.00  0.00     0.000 HD 
HETATM   16  C   UNL     1      -9.615  15.198  68.577  1.00  0.00    -0.214 C  
HETATM   17  C   UNL     1     -10.147  13.819  68.126  1.00  0.00    -0.245 C  
HETATM   18  H   UNL     1     -11.969  14.217  66.333  1.00  0.00     0.000 HD 
HETATM   19  C   UNL     1     -11.682  13.731  68.207  1.00  0.00    -0.359 C  
HETATM   20  O   UNL     1      -9.559  12.799  68.949  1.00  0.00    -0.408 OA 
HETATM   21  O   UNL     1     -12.284  14.522  67.176  1.00  0.00    -0.355 OA 
HETATM   22  H   UNL     1      -9.886  11.951  68.671  1.00  0.00     0.000 HD 
BRANCH  16  23
HETATM   23  C   UNL     1      -9.738  16.296  67.509  1.00  0.00    -0.234 C  
HETATM   24  O   UNL     1      -9.672  15.761  66.192  1.00  0.00    -0.273 OA 
HETATM   25  H   UNL     1      -9.748  16.440  65.531  1.00  0.00     0.000 HD 
ENDBRANCH  16  23
ENDBRANCH   9  11
ENDBRANCH   7   9
ENDBRANCH   2   7
TORSDOF 5
ENDMDL
MODEL       42
REMARK 921   NORMALIZED FREE ENERGY PREDICTED BY IDOCK:   -5.18 KCAL/MOL
REMARK 922        TOTAL FREE ENERGY PREDICTED BY IDOCK:   -7.52 KCAL/MOL
REMARK 923 INTER-LIGAND FREE ENERGY PREDICTED BY IDOCK:   -6.10 KCAL/MOL
REMARK 924 INTRA-LIGAND FREE ENERGY PREDICTED BY IDOCK:   -1.42 KCAL/MOL
REMARK 927      BINDING AFFINITY PREDICTED BY RF-SCORE:    0.00 PKD
ROOT
HETATM    1  C   UNL     1      -9.959  19.437  68.470  1.00  0.00    -0.434 C  
HETATM    2  N   UNL     1      -9.185  18.600  67.568  1.00  0.00    -0.278 N  
ENDROOT
BRANCH   2   3
HETATM    3  N   UNL     1      -9.020  18.940  66.223  1.00  0.00    -0.429 NA 
HETATM    4  H   UNL     1      -9.583  19.658  65.766  1.00  0.00     0.000 HD 
HETATM    5  O   UNL     1      -8.144  18.308  65.630  1.00  0.00    -0.477 OA 
HETATM    6  H   UNL     1      -8.032  18.539  64.715  1.00  0.00     0.000 HD 
ENDBRANCH   2   3
BRANCH   2   7
HETATM    7  C   UNL     1      -8.478  17.523  68.103  1.00  0.00    -0.254 C  
HETATM    8  O   UNL     1      -7.526  17.662  68.873  1.00  0.00    -0.262 OA 
BRANCH   7   9
HETATM    9  N   UNL     1      -8.893  16.279  67.694  1.00  0.00    -0.189 N  
HETATM   10  H   UNL     1      -8.195  15.590  67.414  1.00  0.00     0.000 HD 
BRANCH   9  11
HETATM   11  C   UNL     1     -10.320  15.915  67.647  1.00  0.00    -0.281 C  
HETATM   12  C   UNL     1     -10.662  15.388  66.242  1.00  0.00    -0.312 C  
HETATM   13  O   UNL     1      -9.970  14.172  65.960  1.00  0.00    -0.301 OA 
HETATM   14  O   UNL     1     -10.234  16.359  65.285  1.00  0.00    -0.575 OA 
HETATM   15  H   UNL     1     -10.445  16.033  64.418  1.00  0.00     0.000 HD 
HETATM   16  C   UNL     1     -10.274  13.094  66.862  1.00  0.00    -0.245 C  
HETATM   17  C   UNL     1     -10.037  13.489  68.337  1.00  0.00    -0.240 C  
HETATM   18  H   UNL     1     -12.333  14.054  69.388  1.00  0.00     0.000 HD 
HETATM   19  C   UNL     1     -10.683  14.842  68.690  1.00  0.00    -0.250 C  
HETATM   20  O   UNL     1      -8.624  13.548  68.584  1.00  0.00    -0.311 OA 
HETATM   21  O   UNL     1     -12.109  14.717  68.745  1.00  0.00    -0.272 OA 
HETATM   22  H   UNL     1      -8.478  13.791  69.491  1.00  0.00     0.000 HD 
BRANCH  16  23
HETATM   23  C   UNL     1     -11.667  12.505  66.588  1.00  0.00    -0.387 C  
HETATM   24  O   UNL     1     -12.152  11.758  67.698  1.00  0.00    -0.598 OA 
HETATM   25  H   UNL     1     -13.014  11.394  67.529  1.00  0.00     0.000 HD 
ENDBRANCH  16  23
ENDBRANCH   9  11
ENDBRANCH   7   9
ENDBRANCH   2   7
TORSDOF 5
ENDMDL
MODEL       43
REMARK 921   NORMALIZED FREE ENERGY PREDICTED BY IDOCK:   -5.14 KCAL/MOL
REMARK 922        TOTAL FREE ENERGY PREDICTED BY IDOCK:   -7.47 KCAL/MOL
REMARK 923 INTER-LIGAND FREE ENERGY PREDICTED BY IDOCK:   -6.59 KCAL/MOL
REMARK 924 INTRA-LIGAND FREE ENERGY PREDICTED BY IDOCK:   -0.88 KCAL/MOL
REMARK 927      BINDING AFFINITY PREDICTED BY RF-SCORE:    0.00 PKD
ROOT
HETATM    1  C   UNL     1     -12.870  15.234  70.328  1.00  0.00    -0.260 C  
HETATM    2  N   UNL     1     -11.569  15.320  69.686  1.00  0.00    -0.298 N  
ENDROOT
BRANCH   2   3
HETATM    3  N   UNL     1     -10.399  14.975  70.367  1.00  0.00    -0.506 NA 
HETATM    4  H   UNL     1     -10.295  15.096  71.375  1.00  0.00     0.000 HD 
HETATM    5  O   UNL     1      -9.502  14.513  69.660  1.00  0.00    -0.386 OA 
HETATM    6  H   UNL     1      -8.706  14.278  70.123  1.00  0.00     0.000 HD 
ENDBRANCH   2   3
BRANCH   2   7
HETATM    7  C   UNL     1     -11.518  15.609  68.323  1.00  0.00    -0.350 C  
HETATM    8  O   UNL     1     -11.892  14.818  67.455  1.00  0.00    -0.377 OA 
BRANCH   7   9
HETATM    9  N   UNL     1     -10.992  16.835  67.996  1.00  0.00    -0.338 N  
HETATM   10  H   UNL     1     -11.559  17.672  68.138  1.00  0.00     0.000 HD 
BRANCH   9  11
HETATM   11  C   UNL     1      -9.633  16.974  67.447  1.00  0.00    -0.246 C  
HETATM   12  C   UNL     1      -9.719  17.563  66.026  1.00  0.00    -0.141 C  
HETATM   13  O   UNL     1     -10.238  18.892  66.046  1.00  0.00    -0.435 OA 
HETATM   14  O   UNL     1     -10.621  16.759  65.265  1.00  0.00    -0.621 OA 
HETATM   15  H   UNL     1     -10.674  17.123  64.389  1.00  0.00     0.000 HD 
HETATM   16  C   UNL     1      -9.449  19.825  66.804  1.00  0.00    -0.382 C  
HETATM   17  C   UNL     1      -9.219  19.344  68.254  1.00  0.00    -0.346 C  
HETATM   18  H   UNL     1      -6.839  18.335  68.389  1.00  0.00     0.000 HD 
HETATM   19  C   UNL     1      -8.742  17.880  68.314  1.00  0.00    -0.275 C  
HETATM   20  O   UNL     1     -10.441  19.485  68.994  1.00  0.00    -0.539 OA 
HETATM   21  O   UNL     1      -7.389  17.775  67.853  1.00  0.00    -0.206 OA 
HETATM   22  H   UNL     1     -10.299  19.190  69.886  1.00  0.00     0.000 HD 
BRANCH  16  23
HETATM   23  C   UNL     1      -8.160  20.210  66.060  1.00  0.00    -0.183 C  
HETATM   24  O   UNL     1      -7.456  21.251  66.728  1.00  0.00    -0.702 OA 
HETATM   25  H   UNL     1      -6.659  21.489  66.269  1.00  0.00     0.000 HD 
ENDBRANCH  16  23
ENDBRANCH   9  11
ENDBRANCH   7   9
ENDBRANCH   2   7
TORSDOF 5
ENDMDL
MODEL       44
REMARK 921   NORMALIZED FREE ENERGY PREDICTED BY IDOCK:   -5.09 KCAL/MOL
REMARK 922        TOTAL FREE ENERGY PREDICTED BY IDOCK:   -7.40 KCAL/MOL
REMARK 923 INTER-LIGAND FREE ENERGY PREDICTED BY IDOCK:   -6.46 KCAL/MOL
REMARK 924 INTRA-LIGAND FREE ENERGY PREDICTED BY IDOCK:   -0.94 KCAL/MOL
REMARK 927      BINDING AFFINITY PREDICTED BY RF-SCORE:    0.00 PKD
ROOT
HETATM    1  C   UNL     1      -9.293  10.167  66.760  1.00  0.00    -0.160 C  
HETATM    2  N   UNL     1     -10.572  10.836  66.933  1.00  0.00    -0.253 N  
ENDROOT
BRANCH   2   3
HETATM    3  N   UNL     1     -11.469  10.442  67.929  1.00  0.00    -0.653 NA 
HETATM    4  H   UNL     1     -11.490   9.493  68.303  1.00  0.00     0.000 HD 
HETATM    5  O   UNL     1     -12.234  11.326  68.320  1.00  0.00    -0.615 OA 
HETATM    6  H   UNL     1     -12.844  11.057  68.997  1.00  0.00     0.000 HD 
ENDBRANCH   2   3
BRANCH   2   7
HETATM    7  C   UNL     1     -10.828  11.984  66.184  1.00  0.00    -0.286 C  
HETATM    8  O   UNL     1     -11.242  11.949  65.023  1.00  0.00    -0.313 OA 
BRANCH   7   9
HETATM    9  N   UNL     1     -10.564  13.175  66.814  1.00  0.00    -0.262 N  
HETATM   10  H   UNL     1     -10.033  13.168  67.685  1.00  0.00     0.000 HD 
BRANCH   9  11
HETATM   11  C   UNL     1     -11.026  14.461  66.265  1.00  0.00    -0.318 C  
HETATM   12  C   UNL     1     -11.455  15.381  67.424  1.00  0.00    -0.195 C  
HETATM   13  O   UNL     1     -10.346  15.720  68.255  1.00  0.00    -0.231 OA 
HETATM   14  O   UNL     1     -12.397  14.671  68.230  1.00  0.00    -0.594 OA 
HETATM   15  H   UNL     1     -12.661  15.239  68.945  1.00  0.00     0.000 HD 
HETATM   16  C   UNL     1      -9.289  16.421  67.578  1.00  0.00    -0.214 C  
HETATM   17  C   UNL     1      -8.784  15.647  66.339  1.00  0.00    -0.318 C  
HETATM   18  H   UNL     1      -9.857  16.715  64.240  1.00  0.00     0.000 HD 
HETATM   19  C   UNL     1      -9.938  15.169  65.438  1.00  0.00    -0.330 C  
HETATM   20  O   UNL     1      -8.011  14.519  66.776  1.00  0.00    -0.358 OA 
HETATM   21  O   UNL     1     -10.529  16.278  64.751  1.00  0.00    -0.607 OA 
HETATM   22  H   UNL     1      -7.700  14.043  66.015  1.00  0.00     0.000 HD 
BRANCH  16  23
HETATM   23  C   UNL     1      -9.675  17.881  67.288  1.00  0.00    -0.289 C  
HETATM   24  O   UNL     1      -8.935  18.416  66.197  1.00  0.00    -0.465 OA 
HETATM   25  H   UNL     1      -9.173  19.319  66.018  1.00  0.00     0.000 HD 
ENDBRANCH  16  23
ENDBRANCH   9  11
ENDBRANCH   7   9
ENDBRANCH   2   7
TORSDOF 5
ENDMDL
MODEL       45
REMARK 921   NORMALIZED FREE ENERGY PREDICTED BY IDOCK:   -5.09 KCAL/MOL
REMARK 922        TOTAL FREE ENERGY PREDICTED BY IDOCK:   -7.39 KCAL/MOL
REMARK 923 INTER-LIGAND FREE ENERGY PREDICTED BY IDOCK:   -6.52 KCAL/MOL
REMARK 924 INTRA-LIGAND FREE ENERGY PREDICTED BY IDOCK:   -0.87 KCAL/MOL
REMARK 927      BINDING AFFINITY PREDICTED BY RF-SCORE:    0.00 PKD
ROOT
HETATM    1  C   UNL     1      -7.685  11.380  68.495  1.00  0.00    -0.133 C  
HETATM    2  N   UNL     1      -7.358  12.574  67.733  1.00  0.00    -0.110 N  
ENDROOT
BRANCH   2   3
HETATM    3  N   UNL     1      -6.301  12.585  66.820  1.00  0.00    -0.461 NA 
HETATM    4  H   UNL     1      -5.634  13.355  66.762  1.00  0.00     0.000 HD 
HETATM    5  O   UNL     1      -6.234  11.595  66.089  1.00  0.00    -0.426 OA 
HETATM    6  H   UNL     1      -5.515  11.603  65.467  1.00  0.00     0.000 HD 
ENDBRANCH   2   3
BRANCH   2   7
HETATM    7  C   UNL     1      -8.214  13.672  67.817  1.00  0.00    -0.179 C  
HETATM    8  O   UNL     1      -8.326  14.359  68.834  1.00  0.00    -0.148 OA 
BRANCH   7   9
HETATM    9  N   UNL     1      -8.957  13.931  66.691  1.00  0.00    -0.420 N  
HETATM   10  H   UNL     1      -8.484  14.261  65.850  1.00  0.00     0.000 HD 
BRANCH   9  11
HETATM   11  C   UNL     1     -10.418  13.743  66.667  1.00  0.00    -0.272 C  
HETATM   12  C   UNL     1     -11.003  14.481  65.449  1.00  0.00    -0.342 C  
HETATM   13  O   UNL     1     -10.544  13.907  64.225  1.00  0.00    -0.328 OA 
HETATM   14  O   UNL     1     -10.547  15.834  65.487  1.00  0.00    -0.360 OA 
HETATM   15  H   UNL     1     -10.908  16.290  64.735  1.00  0.00     0.000 HD 
HETATM   16  C   UNL     1     -10.902  12.526  64.047  1.00  0.00    -0.406 C  
HETATM   17  C   UNL     1     -10.432  11.650  65.231  1.00  0.00    -0.273 C  
HETATM   18  H   UNL     1     -12.472  11.230  66.768  1.00  0.00     0.000 HD 
HETATM   19  C   UNL     1     -10.815  12.258  66.594  1.00  0.00    -0.258 C  
HETATM   20  O   UNL     1      -9.007  11.488  65.157  1.00  0.00    -0.395 OA 
HETATM   21  O   UNL     1     -12.226  12.147  66.813  1.00  0.00    -0.553 OA 
HETATM   22  H   UNL     1      -8.719  10.949  65.884  1.00  0.00     0.000 HD 
BRANCH  16  23
HETATM   23  C   UNL     1     -12.392  12.367  63.705  1.00  0.00    -0.548 C  
HETATM   24  O   UNL     1     -12.611  11.307  62.782  1.00  0.00    -0.912 OA 
HETATM   25  H   UNL     1     -13.532  11.208  62.570  1.00  0.00     0.000 HD 
ENDBRANCH  16  23
ENDBRANCH   9  11
ENDBRANCH   7   9
ENDBRANCH   2   7
TORSDOF 5
ENDMDL
MODEL       46
REMARK 921   NORMALIZED FREE ENERGY PREDICTED BY IDOCK:   -5.03 KCAL/MOL
REMARK 922        TOTAL FREE ENERGY PREDICTED BY IDOCK:   -7.32 KCAL/MOL
REMARK 923 INTER-LIGAND FREE ENERGY PREDICTED BY IDOCK:   -6.97 KCAL/MOL
REMARK 924 INTRA-LIGAND FREE ENERGY PREDICTED BY IDOCK:   -0.35 KCAL/MOL
REMARK 927      BINDING AFFINITY PREDICTED BY RF-SCORE:    0.00 PKD
ROOT
HETATM    1  C   UNL     1     -10.460   8.572  67.235  1.00  0.00    -0.296 C  
HETATM    2  N   UNL     1      -9.533   8.679  66.120  1.00  0.00    -0.239 N  
ENDROOT
BRANCH   2   3
HETATM    3  N   UNL     1      -8.654   7.639  65.805  1.00  0.00    -0.158 NA 
HETATM    4  H   UNL     1      -7.886   7.366  66.419  1.00  0.00     0.000 HD 
HETATM    5  O   UNL     1      -8.876   7.077  64.731  1.00  0.00    -0.334 OA 
HETATM    6  H   UNL     1      -8.278   6.371  64.518  1.00  0.00     0.000 HD 
ENDBRANCH   2   3
BRANCH   2   7
HETATM    7  C   UNL     1      -9.639   9.779  65.270  1.00  0.00    -0.300 C  
HETATM    8  O   UNL     1      -9.523   9.694  64.046  1.00  0.00    -0.177 OA 
BRANCH   7   9
HETATM    9  N   UNL     1      -9.855  10.987  65.888  1.00  0.00    -0.221 N  
HETATM   10  H   UNL     1      -9.075  11.452  66.354  1.00  0.00     0.000 HD 
BRANCH   9  11
HETATM   11  C   UNL     1     -11.181  11.627  65.894  1.00  0.00    -0.238 C  
HETATM   12  C   UNL     1     -11.086  12.981  66.623  1.00  0.00    -0.289 C  
HETATM   13  O   UNL     1     -10.247  13.893  65.915  1.00  0.00    -0.297 OA 
HETATM   14  O   UNL     1     -10.495  12.756  67.904  1.00  0.00    -0.211 OA 
HETATM   15  H   UNL     1     -10.436  13.591  68.353  1.00  0.00     0.000 HD 
HETATM   16  C   UNL     1     -10.696  14.202  64.585  1.00  0.00    -0.389 C  
HETATM   17  C   UNL     1     -10.901  12.929  63.734  1.00  0.00    -0.314 C  
HETATM   18  H   UNL     1     -13.434  12.401  63.687  1.00  0.00     0.000 HD 
HETATM   19  C   UNL     1     -11.725  11.858  64.473  1.00  0.00    -0.248 C  
HETATM   20  O   UNL     1      -9.617  12.392  63.379  1.00  0.00    -0.660 OA 
HETATM   21  O   UNL     1     -13.098  12.258  64.564  1.00  0.00    -0.791 OA 
HETATM   22  H   UNL     1      -9.743  11.609  62.855  1.00  0.00     0.000 HD 
BRANCH  16  23
HETATM   23  C   UNL     1     -11.911  15.144  64.603  1.00  0.00    -0.298 C  
HETATM   24  O   UNL     1     -11.683  16.315  63.829  1.00  0.00    -1.511 OA 
HETATM   25  H   UNL     1     -12.434  16.898  63.840  1.00  0.00     0.000 HD 
ENDBRANCH  16  23
ENDBRANCH   9  11
ENDBRANCH   7   9
ENDBRANCH   2   7
TORSDOF 5
ENDMDL
MODEL       47
REMARK 921   NORMALIZED FREE ENERGY PREDICTED BY IDOCK:   -5.03 KCAL/MOL
REMARK 922        TOTAL FREE ENERGY PREDICTED BY IDOCK:   -7.32 KCAL/MOL
REMARK 923 INTER-LIGAND FREE ENERGY PREDICTED BY IDOCK:   -6.15 KCAL/MOL
REMARK 924 INTRA-LIGAND FREE ENERGY PREDICTED BY IDOCK:   -1.17 KCAL/MOL
REMARK 927      BINDING AFFINITY PREDICTED BY RF-SCORE:    0.00 PKD
ROOT
HETATM    1  C   UNL     1      -7.188  17.972  68.215  1.00  0.00    -0.248 C  
HETATM    2  N   UNL     1      -8.451  18.010  67.496  1.00  0.00    -0.235 N  
ENDROOT
BRANCH   2   3
HETATM    3  N   UNL     1      -8.584  18.717  66.299  1.00  0.00    -0.422 NA 
HETATM    4  H   UNL     1      -7.788  19.141  65.822  1.00  0.00     0.000 HD 
HETATM    5  O   UNL     1      -9.735  18.791  65.863  1.00  0.00    -0.485 OA 
HETATM    6  H   UNL     1      -9.825  19.272  65.049  1.00  0.00     0.000 HD 
ENDBRANCH   2   3
BRANCH   2   7
HETATM    7  C   UNL     1      -9.495  17.199  67.943  1.00  0.00    -0.257 C  
HETATM    8  O   UNL     1     -10.491  17.644  68.516  1.00  0.00    -0.359 OA 
BRANCH   7   9
HETATM    9  N   UNL     1      -9.333  15.852  67.728  1.00  0.00    -0.206 N  
HETATM   10  H   UNL     1      -9.036  15.258  68.503  1.00  0.00     0.000 HD 
BRANCH   9  11
HETATM   11  C   UNL     1      -9.577  15.244  66.409  1.00  0.00    -0.292 C  
HETATM   12  C   UNL     1      -9.201  13.751  66.463  1.00  0.00    -0.192 C  
HETATM   13  O   UNL     1     -10.051  13.033  67.357  1.00  0.00    -0.227 OA 
HETATM   14  O   UNL     1      -7.866  13.647  66.961  1.00  0.00    -0.368 OA 
HETATM   15  H   UNL     1      -7.633  12.726  66.995  1.00  0.00     0.000 HD 
HETATM   16  C   UNL     1     -11.444  13.066  67.004  1.00  0.00    -0.333 C  
HETATM   17  C   UNL     1     -11.967  14.512  66.851  1.00  0.00    -0.346 C  
HETATM   18  H   UNL     1     -12.060  15.061  64.323  1.00  0.00     0.000 HD 
HETATM   19  C   UNL     1     -11.046  15.376  65.968  1.00  0.00    -0.233 C  
HETATM   20  O   UNL     1     -12.088  15.107  68.152  1.00  0.00    -0.524 OA 
HETATM   21  O   UNL     1     -11.153  14.980  64.596  1.00  0.00    -0.372 OA 
HETATM   22  H   UNL     1     -12.410  15.996  68.057  1.00  0.00     0.000 HD 
BRANCH  16  23
HETATM   23  C   UNL     1     -11.744  12.161  65.798  1.00  0.00    -0.327 C  
HETATM   24  O   UNL     1     -12.899  12.593  65.088  1.00  0.00    -0.721 OA 
HETATM   25  H   UNL     1     -13.085  12.034  64.343  1.00  0.00     0.000 HD 
ENDBRANCH  16  23
ENDBRANCH   9  11
ENDBRANCH   7   9
ENDBRANCH   2   7
TORSDOF 5
ENDMDL
MODEL       48
REMARK 921   NORMALIZED FREE ENERGY PREDICTED BY IDOCK:   -5.00 KCAL/MOL
REMARK 922        TOTAL FREE ENERGY PREDICTED BY IDOCK:   -7.28 KCAL/MOL
REMARK 923 INTER-LIGAND FREE ENERGY PREDICTED BY IDOCK:   -6.59 KCAL/MOL
REMARK 924 INTRA-LIGAND FREE ENERGY PREDICTED BY IDOCK:   -0.69 KCAL/MOL
REMARK 927      BINDING AFFINITY PREDICTED BY RF-SCORE:    0.00 PKD
ROOT
HETATM    1  C   UNL     1      -9.805  19.019  66.735  1.00  0.00    -0.344 C  
HETATM    2  N   UNL     1      -9.324  17.753  66.206  1.00  0.00    -0.241 N  
ENDROOT
BRANCH   2   3
HETATM    3  N   UNL     1      -7.958  17.492  66.079  1.00  0.00    -0.525 NA 
HETATM    4  H   UNL     1      -7.503  16.711  66.552  1.00  0.00     0.000 HD 
HETATM    5  O   UNL     1      -7.343  18.274  65.352  1.00  0.00    -0.531 OA 
HETATM    6  H   UNL     1      -6.414  18.096  65.265  1.00  0.00     0.000 HD 
ENDBRANCH   2   3
BRANCH   2   7
HETATM    7  C   UNL     1     -10.250  16.738  65.966  1.00  0.00    -0.346 C  
HETATM    8  O   UNL     1     -10.739  16.525  64.855  1.00  0.00    -0.702 OA 
BRANCH   7   9
HETATM    9  N   UNL     1     -10.612  15.994  67.062  1.00  0.00    -0.312 N  
HETATM   10  H   UNL     1     -11.359  16.335  67.668  1.00  0.00     0.000 HD 
BRANCH   9  11
HETATM   11  C   UNL     1      -9.950  14.719  67.386  1.00  0.00    -0.223 C  
HETATM   12  C   UNL     1     -10.239  14.357  68.854  1.00  0.00    -0.213 C  
HETATM   13  O   UNL     1     -11.629  14.107  69.064  1.00  0.00    -0.262 OA 
HETATM   14  O   UNL     1      -9.875  15.473  69.668  1.00  0.00    -0.265 OA 
HETATM   15  H   UNL     1     -10.053  15.250  70.574  1.00  0.00     0.000 HD 
HETATM   16  C   UNL     1     -12.159  13.020  68.287  1.00  0.00    -0.156 C  
HETATM   17  C   UNL     1     -11.894  13.205  66.776  1.00  0.00    -0.385 C  
HETATM   18  H   UNL     1      -9.872  11.723  66.135  1.00  0.00     0.000 HD 
HETATM   19  C   UNL     1     -10.426  13.568  66.481  1.00  0.00    -0.284 C  
HETATM   20  O   UNL     1     -12.758  14.236  66.272  1.00  0.00    -0.510 OA 
HETATM   21  O   UNL     1      -9.578  12.433  66.693  1.00  0.00    -0.217 OA 
HETATM   22  H   UNL     1     -12.595  14.349  65.343  1.00  0.00     0.000 HD 
BRANCH  16  23
HETATM   23  C   UNL     1     -11.707  11.658  68.839  1.00  0.00    -0.334 C  
HETATM   24  O   UNL     1     -11.844  10.624  67.871  1.00  0.00    -0.738 OA 
HETATM   25  H   UNL     1     -11.565   9.782  68.211  1.00  0.00     0.000 HD 
ENDBRANCH  16  23
ENDBRANCH   9  11
ENDBRANCH   7   9
ENDBRANCH   2   7
TORSDOF 5
ENDMDL
MODEL       49
REMARK 921   NORMALIZED FREE ENERGY PREDICTED BY IDOCK:   -4.99 KCAL/MOL
REMARK 922        TOTAL FREE ENERGY PREDICTED BY IDOCK:   -7.28 KCAL/MOL
REMARK 923 INTER-LIGAND FREE ENERGY PREDICTED BY IDOCK:   -6.68 KCAL/MOL
REMARK 924 INTRA-LIGAND FREE ENERGY PREDICTED BY IDOCK:   -0.60 KCAL/MOL
REMARK 927      BINDING AFFINITY PREDICTED BY RF-SCORE:    0.00 PKD
ROOT
HETATM    1  C   UNL     1      -9.799   6.863  66.461  1.00  0.00    -0.103 C  
HETATM    2  N   UNL     1     -10.039   8.269  66.741  1.00  0.00    -0.283 N  
ENDROOT
BRANCH   2   3
HETATM    3  N   UNL     1     -10.701   8.675  67.903  1.00  0.00    -0.460 NA 
HETATM    4  H   UNL     1     -11.139   9.592  67.991  1.00  0.00     0.000 HD 
HETATM    5  O   UNL     1     -10.715   7.843  68.812  1.00  0.00    -0.359 OA 
HETATM    6  H   UNL     1     -11.165   8.120  69.601  1.00  0.00     0.000 HD 
ENDBRANCH   2   3
BRANCH   2   7
HETATM    7  C   UNL     1      -9.461   9.222  65.903  1.00  0.00    -0.259 C  
HETATM    8  O   UNL     1      -8.259   9.234  65.630  1.00  0.00    -0.112 OA 
BRANCH   7   9
HETATM    9  N   UNL     1     -10.317  10.178  65.414  1.00  0.00    -0.201 N  
HETATM   10  H   UNL     1     -11.296   9.936  65.263  1.00  0.00     0.000 HD 
BRANCH   9  11
HETATM   11  C   UNL     1      -9.857  11.542  65.102  1.00  0.00    -0.257 C  
HETATM   12  C   UNL     1     -10.656  12.083  63.901  1.00  0.00    -0.400 C  
HETATM   13  O   UNL     1     -12.039  12.231  64.221  1.00  0.00    -0.392 OA 
HETATM   14  O   UNL     1     -10.559  11.133  62.838  1.00  0.00    -0.755 OA 
HETATM   15  H   UNL     1     -11.051  11.466  62.097  1.00  0.00     0.000 HD 
HETATM   16  C   UNL     1     -12.302  13.142  65.301  1.00  0.00    -0.481 C  
HETATM   17  C   UNL     1     -11.518  12.767  66.579  1.00  0.00    -0.355 C  
HETATM   18  H   UNL     1      -9.455  14.322  66.731  1.00  0.00     0.000 HD 
HETATM   19  C   UNL     1     -10.028  12.503  66.292  1.00  0.00    -0.252 C  
HETATM   20  O   UNL     1     -12.113  11.600  67.167  1.00  0.00    -0.575 OA 
HETATM   21  O   UNL     1      -9.349  13.729  65.996  1.00  0.00    -0.160 OA 
HETATM   22  H   UNL     1     -11.631  11.370  67.953  1.00  0.00     0.000 HD 
BRANCH  16  23
HETATM   23  C   UNL     1     -12.122  14.605  64.863  1.00  0.00    -0.382 C  
HETATM   24  O   UNL     1     -12.772  14.869  63.625  1.00  0.00    -0.896 OA 
HETATM   25  H   UNL     1     -12.661  15.773  63.354  1.00  0.00     0.000 HD 
ENDBRANCH  16  23
ENDBRANCH   9  11
ENDBRANCH   7   9
ENDBRANCH   2   7
TORSDOF 5
ENDMDL
MODEL       50
REMARK 921   NORMALIZED FREE ENERGY PREDICTED BY IDOCK:   -4.97 KCAL/MOL
REMARK 922        TOTAL FREE ENERGY PREDICTED BY IDOCK:   -7.24 KCAL/MOL
REMARK 923 INTER-LIGAND FREE ENERGY PREDICTED BY IDOCK:   -6.10 KCAL/MOL
REMARK 924 INTRA-LIGAND FREE ENERGY PREDICTED BY IDOCK:   -1.14 KCAL/MOL
REMARK 927      BINDING AFFINITY PREDICTED BY RF-SCORE:    0.00 PKD
ROOT
HETATM    1  C   UNL     1     -11.739  11.873  69.381  1.00  0.00    -0.339 C  
HETATM    2  N   UNL     1     -11.865  13.237  68.894  1.00  0.00    -0.319 N  
ENDROOT
BRANCH   2   3
HETATM    3  N   UNL     1     -11.839  14.326  69.768  1.00  0.00    -0.304 NA 
HETATM    4  H   UNL     1     -11.077  14.480  70.429  1.00  0.00     0.000 HD 
HETATM    5  O   UNL     1     -12.805  15.087  69.682  1.00  0.00    -0.585 OA 
HETATM    6  H   UNL     1     -12.787  15.827  70.277  1.00  0.00     0.000 HD 
ENDBRANCH   2   3
BRANCH   2   7
HETATM    7  C   UNL     1     -11.861  13.454  67.516  1.00  0.00    -0.366 C  
HETATM    8  O   UNL     1     -12.329  12.648  66.709  1.00  0.00    -0.450 OA 
BRANCH   7   9
HETATM    9  N   UNL     1     -11.272  14.623  67.102  1.00  0.00    -0.333 N  
HETATM   10  H   UNL     1     -11.826  15.479  67.085  1.00  0.00     0.000 HD 
BRANCH   9  11
HETATM   11  C   UNL     1      -9.861  14.673  66.682  1.00  0.00    -0.269 C  
HETATM   12  C   UNL     1      -9.742  15.531  65.409  1.00  0.00    -0.197 C  
HETATM   13  O   UNL     1     -10.091  16.891  65.665  1.00  0.00    -0.546 OA 
HETATM   14  O   UNL     1     -10.663  15.024  64.442  1.00  0.00    -0.594 OA 
HETATM   15  H   UNL     1     -10.590  15.554  63.657  1.00  0.00     0.000 HD 
HETATM   16  C   UNL     1      -9.265  17.540  66.647  1.00  0.00    -0.262 C  
HETATM   17  C   UNL     1      -9.230  16.760  67.980  1.00  0.00    -0.228 C  
HETATM   18  H   UNL     1      -7.018  15.420  68.061  1.00  0.00     0.000 HD 
HETATM   19  C   UNL     1      -8.947  15.260  67.772  1.00  0.00    -0.177 C  
HETATM   20  O   UNL     1     -10.488  16.926  68.653  1.00  0.00    -0.307 OA 
HETATM   21  O   UNL     1      -7.582  15.057  67.388  1.00  0.00    -0.177 OA 
HETATM   22  H   UNL     1     -10.466  16.447  69.473  1.00  0.00     0.000 HD 
BRANCH  16  23
HETATM   23  C   UNL     1      -7.875  17.877  66.082  1.00  0.00    -0.222 C  
HETATM   24  O   UNL     1      -7.765  19.252  65.736  1.00  0.00    -0.427 OA 
HETATM   25  H   UNL     1      -6.905  19.461  65.387  1.00  0.00     0.000 HD 
ENDBRANCH  16  23
ENDBRANCH   9  11
ENDBRANCH   7   9
ENDBRANCH   2   7
TORSDOF 5
ENDMDL
MODEL       51
REMARK 921   NORMALIZED FREE ENERGY PREDICTED BY IDOCK:   -4.96 KCAL/MOL
REMARK 922        TOTAL FREE ENERGY PREDICTED BY IDOCK:   -7.23 KCAL/MOL
REMARK 923 INTER-LIGAND FREE ENERGY PREDICTED BY IDOCK:   -6.72 KCAL/MOL
REMARK 924 INTRA-LIGAND FREE ENERGY PREDICTED BY IDOCK:   -0.52 KCAL/MOL
REMARK 927      BINDING AFFINITY PREDICTED BY RF-SCORE:    0.00 PKD
ROOT
HETATM    1  C   UNL     1     -11.672  11.597  63.519  1.00  0.00    -0.279 C  
HETATM    2  N   UNL     1     -11.543  13.024  63.760  1.00  0.00    -0.448 N  
ENDROOT
BRANCH   2   3
HETATM    3  N   UNL     1     -12.428  13.941  63.187  1.00  0.00    -1.079 NA 
HETATM    4  H   UNL     1     -12.857  13.791  62.274  1.00  0.00     0.000 HD 
HETATM    5  O   UNL     1     -12.652  14.944  63.868  1.00  0.00    -0.964 OA 
HETATM    6  H   UNL     1     -13.253  15.567  63.478  1.00  0.00     0.000 HD 
ENDBRANCH   2   3
BRANCH   2   7
HETATM    7  C   UNL     1     -10.608  13.458  64.700  1.00  0.00    -0.415 C  
HETATM    8  O   UNL     1     -10.178  14.612  64.735  1.00  0.00    -0.367 OA 
BRANCH   7   9
HETATM    9  N   UNL     1     -10.167  12.502  65.582  1.00  0.00    -0.265 N  
HETATM   10  H   UNL     1      -9.991  11.556  65.242  1.00  0.00     0.000 HD 
BRANCH   9  11
HETATM   11  C   UNL     1      -9.941  12.806  67.005  1.00  0.00    -0.231 C  
HETATM   12  C   UNL     1     -11.300  13.013  67.700  1.00  0.00    -0.300 C  
HETATM   13  O   UNL     1     -12.069  11.811  67.705  1.00  0.00    -0.595 OA 
HETATM   14  O   UNL     1     -12.033  13.991  66.961  1.00  0.00    -0.403 OA 
HETATM   15  H   UNL     1     -12.871  14.119  67.390  1.00  0.00     0.000 HD 
HETATM   16  C   UNL     1     -11.448  10.713  68.393  1.00  0.00    -0.259 C  
HETATM   17  C   UNL     1     -10.034  10.413  67.847  1.00  0.00    -0.167 C  
HETATM   18  H   UNL     1      -8.314  11.460  69.473  1.00  0.00     0.000 HD 
HETATM   19  C   UNL     1      -9.173  11.685  67.728  1.00  0.00    -0.178 C  
HETATM   20  O   UNL     1     -10.153   9.787  66.560  1.00  0.00    -0.222 OA 
HETATM   21  O   UNL     1      -8.788  12.152  69.026  1.00  0.00     0.163 OA 
HETATM   22  H   UNL     1      -9.283   9.603  66.224  1.00  0.00     0.000 HD 
BRANCH  16  23
HETATM   23  C   UNL     1     -11.503  10.897  69.918  1.00  0.00    -0.323 C  
HETATM   24  O   UNL     1     -10.472  10.169  70.576  1.00  0.00    -0.384 OA 
HETATM   25  H   UNL     1     -10.506  10.283  71.519  1.00  0.00     0.000 HD 
ENDBRANCH  16  23
ENDBRANCH   9  11
ENDBRANCH   7   9
ENDBRANCH   2   7
TORSDOF 5
ENDMDL
MODEL       52
REMARK 921   NORMALIZED FREE ENERGY PREDICTED BY IDOCK:   -4.95 KCAL/MOL
REMARK 922        TOTAL FREE ENERGY PREDICTED BY IDOCK:   -7.21 KCAL/MOL
REMARK 923 INTER-LIGAND FREE ENERGY PREDICTED BY IDOCK:   -6.53 KCAL/MOL
REMARK 924 INTRA-LIGAND FREE ENERGY PREDICTED BY IDOCK:   -0.68 KCAL/MOL
REMARK 927      BINDING AFFINITY PREDICTED BY RF-SCORE:    0.00 PKD
ROOT
HETATM    1  C   UNL     1      -9.604  16.986  65.968  1.00  0.00    -0.187 C  
HETATM    2  N   UNL     1     -10.576  15.937  65.711  1.00  0.00    -0.348 N  
ENDROOT
BRANCH   2   3
HETATM    3  N   UNL     1     -10.980  15.624  64.411  1.00  0.00    -0.792 NA 
HETATM    4  H   UNL     1     -10.785  14.721  63.979  1.00  0.00     0.000 HD 
HETATM    5  O   UNL     1     -11.591  16.521  63.827  1.00  0.00    -1.617 OA 
HETATM    6  H   UNL     1     -11.866  16.308  62.942  1.00  0.00     0.000 HD 
ENDBRANCH   2   3
BRANCH   2   7
HETATM    7  C   UNL     1     -10.988  15.137  66.777  1.00  0.00    -0.321 C  
HETATM    8  O   UNL     1     -11.898  15.460  67.544  1.00  0.00    -0.182 OA 
BRANCH   7   9
HETATM    9  N   UNL     1     -10.294  13.964  66.942  1.00  0.00    -0.264 N  
HETATM   10  H   UNL     1      -9.322  14.001  67.250  1.00  0.00     0.000 HD 
BRANCH   9  11
HETATM   11  C   UNL     1     -10.916  12.653  66.686  1.00  0.00    -0.258 C  
HETATM   12  C   UNL     1     -10.105  11.910  65.608  1.00  0.00    -0.243 C  
HETATM   13  O   UNL     1      -8.789  11.603  66.068  1.00  0.00    -0.188 OA 
HETATM   14  O   UNL     1      -9.975  12.772  64.476  1.00  0.00    -0.532 OA 
HETATM   15  H   UNL     1      -9.475  12.314  63.811  1.00  0.00     0.000 HD 
HETATM   16  C   UNL     1      -8.750  10.758  67.230  1.00  0.00    -0.130 C  
HETATM   17  C   UNL     1      -9.577  11.342  68.397  1.00  0.00    -0.197 C  
HETATM   18  H   UNL     1     -11.847  10.101  68.464  1.00  0.00     0.000 HD 
HETATM   19  C   UNL     1     -10.985  11.782  67.953  1.00  0.00    -0.221 C  
HETATM   20  O   UNL     1      -8.873  12.463  68.955  1.00  0.00    -0.374 OA 
HETATM   21  O   UNL     1     -11.805  10.639  67.682  1.00  0.00    -0.411 OA 
HETATM   22  H   UNL     1      -9.382  12.821  69.673  1.00  0.00     0.000 HD 
BRANCH  16  23
HETATM   23  C   UNL     1      -9.100   9.302  66.882  1.00  0.00    -0.131 C  
HETATM   24  O   UNL     1      -8.759   8.411  67.938  1.00  0.00    -0.136 OA 
HETATM   25  H   UNL     1      -8.975   7.510  67.723  1.00  0.00     0.000 HD 
ENDBRANCH  16  23
ENDBRANCH   9  11
ENDBRANCH   7   9
ENDBRANCH   2   7
TORSDOF 5
ENDMDL
MODEL       53
REMARK 921   NORMALIZED FREE ENERGY PREDICTED BY IDOCK:   -4.93 KCAL/MOL
REMARK 922        TOTAL FREE ENERGY PREDICTED BY IDOCK:   -7.19 KCAL/MOL
REMARK 923 INTER-LIGAND FREE ENERGY PREDICTED BY IDOCK:   -6.21 KCAL/MOL
REMARK 924 INTRA-LIGAND FREE ENERGY PREDICTED BY IDOCK:   -0.98 KCAL/MOL
REMARK 927      BINDING AFFINITY PREDICTED BY RF-SCORE:    0.00 PKD
ROOT
HETATM    1  C   UNL     1     -10.033   8.639  67.079  1.00  0.00    -0.249 C  
HETATM    2  N   UNL     1     -10.708   9.903  67.322  1.00  0.00    -0.260 N  
ENDROOT
BRANCH   2   3
HETATM    3  N   UNL     1     -11.165  10.249  68.596  1.00  0.00    -0.400 NA 
HETATM    4  H   UNL     1     -10.550  10.276  69.410  1.00  0.00     0.000 HD 
HETATM    5  O   UNL     1     -12.365  10.520  68.663  1.00  0.00    -0.785 OA 
HETATM    6  H   UNL     1     -12.676  10.755  69.529  1.00  0.00     0.000 HD 
ENDBRANCH   2   3
BRANCH   2   7
HETATM    7  C   UNL     1     -10.759  10.839  66.289  1.00  0.00    -0.138 C  
HETATM    8  O   UNL     1     -10.309  10.620  65.163  1.00  0.00    -0.299 OA 
BRANCH   7   9
HETATM    9  N   UNL     1     -11.326  12.048  66.612  1.00  0.00    -0.327 N  
HETATM   10  H   UNL     1     -12.163  12.064  67.194  1.00  0.00     0.000 HD 
BRANCH   9  11
HETATM   11  C   UNL     1     -10.755  13.321  66.140  1.00  0.00    -0.279 C  
HETATM   12  C   UNL     1     -11.860  14.394  66.120  1.00  0.00    -0.382 C  
HETATM   13  O   UNL     1     -12.333  14.676  67.437  1.00  0.00    -0.193 OA 
HETATM   14  O   UNL     1     -12.961  13.885  65.366  1.00  0.00    -0.722 OA 
HETATM   15  H   UNL     1     -13.642  14.547  65.354  1.00  0.00     0.000 HD 
HETATM   16  C   UNL     1     -11.327  15.175  68.334  1.00  0.00    -0.315 C  
HETATM   17  C   UNL     1     -10.108  14.228  68.420  1.00  0.00    -0.243 C  
HETATM   18  H   UNL     1      -8.233  15.209  66.930  1.00  0.00     0.000 HD 
HETATM   19  C   UNL     1      -9.597  13.808  67.029  1.00  0.00    -0.251 C  
HETATM   20  O   UNL     1     -10.473  13.063  69.175  1.00  0.00    -0.432 OA 
HETATM   21  O   UNL     1      -8.948  14.908  66.381  1.00  0.00    -0.270 OA 
HETATM   22  H   UNL     1      -9.724  12.481  69.228  1.00  0.00     0.000 HD 
BRANCH  16  23
HETATM   23  C   UNL     1     -10.964  16.635  68.021  1.00  0.00    -0.311 C  
HETATM   24  O   UNL     1     -10.644  17.364  69.201  1.00  0.00    -0.354 OA 
HETATM   25  H   UNL     1     -10.420  18.267  69.007  1.00  0.00     0.000 HD 
ENDBRANCH  16  23
ENDBRANCH   9  11
ENDBRANCH   7   9
ENDBRANCH   2   7
TORSDOF 5
ENDMDL
MODEL       54
REMARK 921   NORMALIZED FREE ENERGY PREDICTED BY IDOCK:   -4.92 KCAL/MOL
REMARK 922        TOTAL FREE ENERGY PREDICTED BY IDOCK:   -7.18 KCAL/MOL
REMARK 923 INTER-LIGAND FREE ENERGY PREDICTED BY IDOCK:   -6.63 KCAL/MOL
REMARK 924 INTRA-LIGAND FREE ENERGY PREDICTED BY IDOCK:   -0.55 KCAL/MOL
REMARK 927      BINDING AFFINITY PREDICTED BY RF-SCORE:    0.00 PKD
ROOT
HETATM    1  C   UNL     1      -6.912  18.752  68.480  1.00  0.00    -0.265 C  
HETATM    2  N   UNL     1      -8.288  18.613  68.034  1.00  0.00    -0.270 N  
ENDROOT
BRANCH   2   3
HETATM    3  N   UNL     1      -9.357  19.017  68.839  1.00  0.00    -0.343 NA 
HETATM    4  H   UNL     1      -9.409  18.793  69.833  1.00  0.00     0.000 HD 
HETATM    5  O   UNL     1     -10.230  19.663  68.258  1.00  0.00    -0.420 OA 
HETATM    6  H   UNL     1     -10.957  19.938  68.805  1.00  0.00     0.000 HD 
ENDBRANCH   2   3
BRANCH   2   7
HETATM    7  C   UNL     1      -8.524  18.207  66.721  1.00  0.00    -0.259 C  
HETATM    8  O   UNL     1      -8.358  18.948  65.750  1.00  0.00    -0.443 OA 
BRANCH   7   9
HETATM    9  N   UNL     1      -8.986  16.922  66.571  1.00  0.00    -0.255 N  
HETATM   10  H   UNL     1      -8.339  16.195  66.263  1.00  0.00     0.000 HD 
BRANCH   9  11
HETATM   11  C   UNL     1     -10.389  16.567  66.844  1.00  0.00    -0.300 C  
HETATM   12  C   UNL     1     -11.151  16.458  65.510  1.00  0.00     0.007 C  
HETATM   13  O   UNL     1     -10.654  15.382  64.714  1.00  0.00    -0.392 OA 
HETATM   14  O   UNL     1     -10.944  17.667  64.779  1.00  0.00    -0.917 OA 
HETATM   15  H   UNL     1     -11.415  17.600  63.956  1.00  0.00     0.000 HD 
HETATM   16  C   UNL     1     -10.766  14.088  65.329  1.00  0.00    -0.358 C  
HETATM   17  C   UNL     1     -10.094  14.049  66.720  1.00  0.00    -0.264 C  
HETATM   18  H   UNL     1     -11.953  14.259  68.508  1.00  0.00     0.000 HD 
HETATM   19  C   UNL     1     -10.517  15.236  67.606  1.00  0.00    -0.263 C  
HETATM   20  O   UNL     1      -8.668  14.055  66.551  1.00  0.00    -0.444 OA 
HETATM   21  O   UNL     1     -11.874  15.080  68.038  1.00  0.00    -0.335 OA 
HETATM   22  H   UNL     1      -8.255  14.030  67.407  1.00  0.00     0.000 HD 
BRANCH  16  23
HETATM   23  C   UNL     1     -12.218  13.583  65.321  1.00  0.00    -0.441 C  
HETATM   24  O   UNL     1     -12.783  13.620  64.016  1.00  0.00    -0.666 OA 
HETATM   25  H   UNL     1     -13.680  13.307  64.011  1.00  0.00     0.000 HD 
ENDBRANCH  16  23
ENDBRANCH   9  11
ENDBRANCH   7   9
ENDBRANCH   2   7
TORSDOF 5
ENDMDL
MODEL       55
REMARK 921   NORMALIZED FREE ENERGY PREDICTED BY IDOCK:   -4.92 KCAL/MOL
REMARK 922        TOTAL FREE ENERGY PREDICTED BY IDOCK:   -7.18 KCAL/MOL
REMARK 923 INTER-LIGAND FREE ENERGY PREDICTED BY IDOCK:   -6.08 KCAL/MOL
REMARK 924 INTRA-LIGAND FREE ENERGY PREDICTED BY IDOCK:   -1.10 KCAL/MOL
REMARK 927      BINDING AFFINITY PREDICTED BY RF-SCORE:    0.00 PKD
ROOT
HETATM    1  C   UNL     1      -7.822  15.898  68.391  1.00  0.00    -0.145 C  
HETATM    2  N   UNL     1      -8.653  14.827  68.916  1.00  0.00    -0.172 N  
ENDROOT
BRANCH   2   3
HETATM    3  N   UNL     1      -9.481  15.027  70.024  1.00  0.00    -0.432 NA 
HETATM    4  H   UNL     1      -9.130  15.382  70.914  1.00  0.00     0.000 HD 
HETATM    5  O   UNL     1     -10.667  14.742  69.846  1.00  0.00    -0.390 OA 
HETATM    6  H   UNL     1     -11.229  14.877  70.600  1.00  0.00     0.000 HD 
ENDBRANCH   2   3
BRANCH   2   7
HETATM    7  C   UNL     1      -8.728  13.632  68.202  1.00  0.00    -0.177 C  
HETATM    8  O   UNL     1      -8.026  12.652  68.458  1.00  0.00    -0.141 OA 
BRANCH   7   9
HETATM    9  N   UNL     1      -9.624  13.619  67.161  1.00  0.00    -0.233 N  
HETATM   10  H   UNL     1      -9.882  14.500  66.716  1.00  0.00     0.000 HD 
BRANCH   9  11
HETATM   11  C   UNL     1     -10.223  12.365  66.671  1.00  0.00    -0.224 C  
HETATM   12  C   UNL     1     -11.750  12.426  66.861  1.00  0.00    -0.362 C  
HETATM   13  O   UNL     1     -12.334  13.447  66.052  1.00  0.00    -0.430 OA 
HETATM   14  O   UNL     1     -12.016  12.753  68.226  1.00  0.00    -0.319 OA 
HETATM   15  H   UNL     1     -12.958  12.791  68.344  1.00  0.00     0.000 HD 
HETATM   16  C   UNL     1     -12.128  13.274  64.640  1.00  0.00    -0.408 C  
HETATM   17  C   UNL     1     -10.630  13.135  64.287  1.00  0.00    -0.412 C  
HETATM   18  H   UNL     1     -10.126  10.621  63.933  1.00  0.00     0.000 HD 
HETATM   19  C   UNL     1      -9.912  12.111  65.185  1.00  0.00    -0.228 C  
HETATM   20  O   UNL     1      -9.998  14.418  64.414  1.00  0.00    -0.588 OA 
HETATM   21  O   UNL     1     -10.318  10.779  64.850  1.00  0.00    -0.312 OA 
HETATM   22  H   UNL     1      -9.077  14.333  64.196  1.00  0.00     0.000 HD 
BRANCH  16  23
HETATM   23  C   UNL     1     -13.011  12.151  64.073  1.00  0.00    -0.179 C  
HETATM   24  O   UNL     1     -12.485  11.626  62.860  1.00  0.00    -0.930 OA 
HETATM   25  H   UNL     1     -13.030  10.931  62.509  1.00  0.00     0.000 HD 
ENDBRANCH  16  23
ENDBRANCH   9  11
ENDBRANCH   7   9
ENDBRANCH   2   7
TORSDOF 5
ENDMDL
MODEL       56
REMARK 921   NORMALIZED FREE ENERGY PREDICTED BY IDOCK:   -4.90 KCAL/MOL
REMARK 922        TOTAL FREE ENERGY PREDICTED BY IDOCK:   -7.16 KCAL/MOL
REMARK 923 INTER-LIGAND FREE ENERGY PREDICTED BY IDOCK:   -6.39 KCAL/MOL
REMARK 924 INTRA-LIGAND FREE ENERGY PREDICTED BY IDOCK:   -0.77 KCAL/MOL
REMARK 927      BINDING AFFINITY PREDICTED BY RF-SCORE:    0.00 PKD
ROOT
HETATM    1  C   UNL     1      -7.196  16.477  67.088  1.00  0.00    -0.188 C  
HETATM    2  N   UNL     1      -7.798  15.502  67.982  1.00  0.00    -0.123 N  
ENDROOT
BRANCH   2   3
HETATM    3  N   UNL     1      -8.347  15.883  69.209  1.00  0.00    -0.247 NA 
HETATM    4  H   UNL     1      -8.441  16.860  69.488  1.00  0.00     0.000 HD 
HETATM    5  O   UNL     1      -8.710  14.950  69.928  1.00  0.00    -0.436 OA 
HETATM    6  H   UNL     1      -9.084  15.210  70.763  1.00  0.00     0.000 HD 
ENDBRANCH   2   3
BRANCH   2   7
HETATM    7  C   UNL     1      -7.957  14.193  67.528  1.00  0.00    -0.188 C  
HETATM    8  O   UNL     1      -7.436  13.223  68.081  1.00  0.00    -0.103 OA 
BRANCH   7   9
HETATM    9  N   UNL     1      -8.718  14.047  66.393  1.00  0.00    -0.435 N  
HETATM   10  H   UNL     1      -8.255  14.023  65.485  1.00  0.00     0.000 HD 
BRANCH   9  11
HETATM   11  C   UNL     1     -10.185  13.926  66.455  1.00  0.00    -0.280 C  
HETATM   12  C   UNL     1     -10.798  14.548  65.187  1.00  0.00    -0.395 C  
HETATM   13  O   UNL     1     -10.423  13.819  64.018  1.00  0.00    -0.164 OA 
HETATM   14  O   UNL     1     -10.286  15.874  65.050  1.00  0.00    -0.508 OA 
HETATM   15  H   UNL     1     -10.665  16.258  64.267  1.00  0.00     0.000 HD 
HETATM   16  C   UNL     1     -10.844  12.444  64.016  1.00  0.00    -0.397 C  
HETATM   17  C   UNL     1     -10.354  11.687  65.271  1.00  0.00    -0.269 C  
HETATM   18  H   UNL     1     -12.332  11.536  66.933  1.00  0.00     0.000 HD 
HETATM   19  C   UNL     1     -10.645  12.461  66.570  1.00  0.00    -0.235 C  
HETATM   20  O   UNL     1      -8.942  11.452  65.153  1.00  0.00    -0.373 OA 
HETATM   21  O   UNL     1     -12.047  12.440  66.862  1.00  0.00    -0.564 OA 
HETATM   22  H   UNL     1      -8.641  10.986  65.925  1.00  0.00     0.000 HD 
BRANCH  16  23
HETATM   23  C   UNL     1     -12.354  12.317  63.759  1.00  0.00    -0.538 C  
HETATM   24  O   UNL     1     -12.639  11.354  62.750  1.00  0.00    -0.952 OA 
HETATM   25  H   UNL     1     -13.573  11.275  62.591  1.00  0.00     0.000 HD 
ENDBRANCH  16  23
ENDBRANCH   9  11
ENDBRANCH   7   9
ENDBRANCH   2   7
TORSDOF 5
ENDMDL
MODEL       57
REMARK 921   NORMALIZED FREE ENERGY PREDICTED BY IDOCK:   -4.90 KCAL/MOL
REMARK 922        TOTAL FREE ENERGY PREDICTED BY IDOCK:   -7.15 KCAL/MOL
REMARK 923 INTER-LIGAND FREE ENERGY PREDICTED BY IDOCK:   -5.82 KCAL/MOL
REMARK 924 INTRA-LIGAND FREE ENERGY PREDICTED BY IDOCK:   -1.34 KCAL/MOL
REMARK 927      BINDING AFFINITY PREDICTED BY RF-SCORE:    0.00 PKD
ROOT
HETATM    1  C   UNL     1     -11.856  11.768  68.002  1.00  0.00    -0.234 C  
HETATM    2  N   UNL     1     -11.902  13.212  68.161  1.00  0.00    -0.352 N  
ENDROOT
BRANCH   2   3
HETATM    3  N   UNL     1     -12.307  13.798  69.363  1.00  0.00    -0.340 NA 
HETATM    4  H   UNL     1     -13.255  14.144  69.512  1.00  0.00     0.000 HD 
HETATM    5  O   UNL     1     -11.433  13.865  70.229  1.00  0.00    -0.477 OA 
HETATM    6  H   UNL     1     -11.708  14.264  71.046  1.00  0.00     0.000 HD 
ENDBRANCH   2   3
BRANCH   2   7
HETATM    7  C   UNL     1     -11.388  14.010  67.139  1.00  0.00    -0.331 C  
HETATM    8  O   UNL     1     -11.621  13.804  65.946  1.00  0.00    -0.317 OA 
BRANCH   7   9
HETATM    9  N   UNL     1     -10.573  15.038  67.543  1.00  0.00    -0.261 N  
HETATM   10  H   UNL     1      -9.730  14.824  68.076  1.00  0.00     0.000 HD 
BRANCH   9  11
HETATM   11  C   UNL     1     -10.883  16.443  67.226  1.00  0.00    -0.194 C  
HETATM   12  C   UNL     1     -10.544  17.323  68.444  1.00  0.00    -0.368 C  
HETATM   13  O   UNL     1      -9.143  17.315  68.717  1.00  0.00    -0.270 OA 
HETATM   14  O   UNL     1     -11.209  16.779  69.585  1.00  0.00    -0.344 OA 
HETATM   15  H   UNL     1     -11.000  17.321  70.336  1.00  0.00     0.000 HD 
HETATM   16  C   UNL     1      -8.327  17.812  67.643  1.00  0.00    -0.228 C  
HETATM   17  C   UNL     1      -8.596  17.063  66.318  1.00  0.00    -0.262 C  
HETATM   18  H   UNL     1     -10.141  18.545  64.864  1.00  0.00     0.000 HD 
HETATM   19  C   UNL     1     -10.100  16.953  66.003  1.00  0.00    -0.319 C  
HETATM   20  O   UNL     1      -8.021  15.749  66.399  1.00  0.00    -0.274 OA 
HETATM   21  O   UNL     1     -10.625  18.229  65.619  1.00  0.00    -0.614 OA 
HETATM   22  H   UNL     1      -8.186  15.289  65.584  1.00  0.00     0.000 HD 
BRANCH  16  23
HETATM   23  C   UNL     1      -8.419  19.342  67.525  1.00  0.00    -0.292 C  
HETATM   24  O   UNL     1      -8.192  19.784  66.192  1.00  0.00    -0.340 OA 
HETATM   25  H   UNL     1      -8.249  20.730  66.119  1.00  0.00     0.000 HD 
ENDBRANCH  16  23
ENDBRANCH   9  11
ENDBRANCH   7   9
ENDBRANCH   2   7
TORSDOF 5
ENDMDL
MODEL       58
REMARK 921   NORMALIZED FREE ENERGY PREDICTED BY IDOCK:   -4.87 KCAL/MOL
REMARK 922        TOTAL FREE ENERGY PREDICTED BY IDOCK:   -7.11 KCAL/MOL
REMARK 923 INTER-LIGAND FREE ENERGY PREDICTED BY IDOCK:   -6.27 KCAL/MOL
REMARK 924 INTRA-LIGAND FREE ENERGY PREDICTED BY IDOCK:   -0.85 KCAL/MOL
REMARK 927      BINDING AFFINITY PREDICTED BY RF-SCORE:    0.00 PKD
ROOT
HETATM    1  C   UNL     1     -12.148   6.393  71.991  1.00  0.00    -0.303 C  
HETATM    2  N   UNL     1     -12.713   7.716  71.784  1.00  0.00    -0.327 N  
ENDROOT
BRANCH   2   3
HETATM    3  N   UNL     1     -13.975   8.052  72.280  1.00  0.00    -0.557 NA 
HETATM    4  H   UNL     1     -14.836   7.657  71.902  1.00  0.00     0.000 HD 
HETATM    5  O   UNL     1     -13.970   8.862  73.210  1.00  0.00    -1.203 OA 
HETATM    6  H   UNL     1     -14.828   9.091  73.547  1.00  0.00     0.000 HD 
ENDBRANCH   2   3
BRANCH   2   7
HETATM    7  C   UNL     1     -11.909   8.699  71.209  1.00  0.00    -0.295 C  
HETATM    8  O   UNL     1     -11.553   9.712  71.814  1.00  0.00    -0.378 OA 
BRANCH   7   9
HETATM    9  N   UNL     1     -11.554   8.484  69.900  1.00  0.00    -0.425 N  
HETATM   10  H   UNL     1     -12.278   8.245  69.222  1.00  0.00     0.000 HD 
BRANCH   9  11
HETATM   11  C   UNL     1     -10.156   8.590  69.449  1.00  0.00    -0.205 C  
HETATM   12  C   UNL     1      -9.922   7.605  68.289  1.00  0.00    -0.176 C  
HETATM   13  O   UNL     1     -10.699   7.956  67.144  1.00  0.00    -0.326 OA 
HETATM   14  O   UNL     1     -10.345   6.308  68.715  1.00  0.00    -0.168 OA 
HETATM   15  H   UNL     1     -10.201   5.700  67.999  1.00  0.00     0.000 HD 
HETATM   16  C   UNL     1     -10.409   9.258  66.608  1.00  0.00    -0.222 C  
HETATM   17  C   UNL     1     -10.541  10.366  67.677  1.00  0.00    -0.257 C  
HETATM   18  H   UNL     1      -8.162  10.970  68.497  1.00  0.00     0.000 HD 
HETATM   19  C   UNL     1      -9.799  10.012  68.980  1.00  0.00    -0.199 C  
HETATM   20  O   UNL     1     -11.933  10.583  67.956  1.00  0.00    -0.758 OA 
HETATM   21  O   UNL     1      -8.382  10.092  68.787  1.00  0.00    -0.109 OA 
HETATM   22  H   UNL     1     -12.014  11.265  68.613  1.00  0.00     0.000 HD 
BRANCH  16  23
HETATM   23  C   UNL     1      -9.069   9.273  65.855  1.00  0.00    -0.197 C  
HETATM   24  O   UNL     1      -8.550  10.592  65.727  1.00  0.00    -0.160 OA 
HETATM   25  H   UNL     1      -7.721  10.601  65.261  1.00  0.00     0.000 HD 
ENDBRANCH  16  23
ENDBRANCH   9  11
ENDBRANCH   7   9
ENDBRANCH   2   7
TORSDOF 5
ENDMDL
MODEL       59
REMARK 921   NORMALIZED FREE ENERGY PREDICTED BY IDOCK:   -4.83 KCAL/MOL
REMARK 922        TOTAL FREE ENERGY PREDICTED BY IDOCK:   -7.06 KCAL/MOL
REMARK 923 INTER-LIGAND FREE ENERGY PREDICTED BY IDOCK:   -6.03 KCAL/MOL
REMARK 924 INTRA-LIGAND FREE ENERGY PREDICTED BY IDOCK:   -1.03 KCAL/MOL
REMARK 927      BINDING AFFINITY PREDICTED BY RF-SCORE:    0.00 PKD
ROOT
HETATM    1  C   UNL     1      -8.989   7.660  68.591  1.00  0.00    -0.133 C  
HETATM    2  N   UNL     1      -9.620   8.495  67.582  1.00  0.00    -0.148 N  
ENDROOT
BRANCH   2   3
HETATM    3  N   UNL     1     -10.070   7.958  66.373  1.00  0.00    -0.480 NA 
HETATM    4  H   UNL     1     -10.967   7.481  66.285  1.00  0.00     0.000 HD 
HETATM    5  O   UNL     1      -9.301   8.105  65.421  1.00  0.00    -0.407 OA 
HETATM    6  H   UNL     1      -9.607   7.741  64.599  1.00  0.00     0.000 HD 
ENDBRANCH   2   3
BRANCH   2   7
HETATM    7  C   UNL     1      -9.910   9.821  67.903  1.00  0.00    -0.149 C  
HETATM    8  O   UNL     1      -9.624  10.325  68.991  1.00  0.00    -0.182 OA 
BRANCH   7   9
HETATM    9  N   UNL     1     -10.567  10.536  66.932  1.00  0.00    -0.253 N  
HETATM   10  H   UNL     1     -11.526  10.284  66.693  1.00  0.00     0.000 HD 
BRANCH   9  11
HETATM   11  C   UNL     1      -9.922  11.657  66.226  1.00  0.00    -0.217 C  
HETATM   12  C   UNL     1     -10.532  11.785  64.818  1.00  0.00    -0.293 C  
HETATM   13  O   UNL     1     -11.913  12.143  64.880  1.00  0.00    -0.353 OA 
HETATM   14  O   UNL     1     -10.446  10.512  64.177  1.00  0.00    -0.409 OA 
HETATM   15  H   UNL     1     -10.822  10.591  63.308  1.00  0.00     0.000 HD 
HETATM   16  C   UNL     1     -12.171  13.400  65.529  1.00  0.00    -0.455 C  
HETATM   17  C   UNL     1     -11.563  13.454  66.948  1.00  0.00    -0.365 C  
HETATM   18  H   UNL     1      -9.356  14.799  66.819  1.00  0.00     0.000 HD 
HETATM   19  C   UNL     1     -10.093  12.992  66.972  1.00  0.00    -0.243 C  
HETATM   20  O   UNL     1     -12.344  12.626  67.824  1.00  0.00    -0.250 OA 
HETATM   21  O   UNL     1      -9.250  13.974  66.358  1.00  0.00    -0.246 OA 
HETATM   22  H   UNL     1     -11.971  12.660  68.697  1.00  0.00     0.000 HD 
BRANCH  16  23
HETATM   23  C   UNL     1     -11.779  14.587  64.635  1.00  0.00    -0.431 C  
HETATM   24  O   UNL     1     -12.590  14.660  63.468  1.00  0.00    -1.019 OA 
HETATM   25  H   UNL     1     -12.348  15.395  62.915  1.00  0.00     0.000 HD 
ENDBRANCH  16  23
ENDBRANCH   9  11
ENDBRANCH   7   9
ENDBRANCH   2   7
TORSDOF 5
ENDMDL
MODEL       60
REMARK 921   NORMALIZED FREE ENERGY PREDICTED BY IDOCK:   -4.81 KCAL/MOL
REMARK 922        TOTAL FREE ENERGY PREDICTED BY IDOCK:   -7.04 KCAL/MOL
REMARK 923 INTER-LIGAND FREE ENERGY PREDICTED BY IDOCK:   -6.28 KCAL/MOL
REMARK 924 INTRA-LIGAND FREE ENERGY PREDICTED BY IDOCK:   -0.76 KCAL/MOL
REMARK 927      BINDING AFFINITY PREDICTED BY RF-SCORE:    0.00 PKD
ROOT
HETATM    1  C   UNL     1     -12.640   7.074  71.271  1.00  0.00    -0.373 C  
HETATM    2  N   UNL     1     -12.709   8.424  71.806  1.00  0.00    -0.329 N  
ENDROOT
BRANCH   2   3
HETATM    3  N   UNL     1     -13.234   8.677  73.075  1.00  0.00    -0.816 NA 
HETATM    4  H   UNL     1     -12.689   8.551  73.929  1.00  0.00     0.000 HD 
HETATM    5  O   UNL     1     -14.404   9.062  73.087  1.00  0.00    -1.136 OA 
HETATM    6  H   UNL     1     -14.761   9.234  73.951  1.00  0.00     0.000 HD 
ENDBRANCH   2   3
BRANCH   2   7
HETATM    7  C   UNL     1     -12.099   9.454  71.090  1.00  0.00    -0.328 C  
HETATM    8  O   UNL     1     -12.252  10.645  71.368  1.00  0.00    -0.350 OA 
BRANCH   7   9
HETATM    9  N   UNL     1     -11.329   9.060  70.024  1.00  0.00    -0.422 N  
HETATM   10  H   UNL     1     -11.288   8.070  69.780  1.00  0.00     0.000 HD 
BRANCH   9  11
HETATM   11  C   UNL     1     -10.560  10.029  69.224  1.00  0.00    -0.227 C  
HETATM   12  C   UNL     1      -9.055   9.780  69.437  1.00  0.00    -0.201 C  
HETATM   13  O   UNL     1      -8.663   8.504  68.933  1.00  0.00    -0.130 OA 
HETATM   14  O   UNL     1      -8.798   9.787  70.842  1.00  0.00    -0.355 OA 
HETATM   15  H   UNL     1      -7.870   9.634  70.974  1.00  0.00     0.000 HD 
HETATM   16  C   UNL     1      -8.887   8.328  67.525  1.00  0.00    -0.135 C  
HETATM   17  C   UNL     1     -10.356   8.604  67.133  1.00  0.00    -0.299 C  
HETATM   18  H   UNL     1     -10.478  10.982  66.120  1.00  0.00     0.000 HD 
HETATM   19  C   UNL     1     -10.878   9.929  67.721  1.00  0.00    -0.264 C  
HETATM   20  O   UNL     1     -11.174   7.516  67.591  1.00  0.00    -0.495 OA 
HETATM   21  O   UNL     1     -10.282  11.044  67.048  1.00  0.00    -0.196 OA 
HETATM   22  H   UNL     1     -12.078   7.685  67.350  1.00  0.00     0.000 HD 
BRANCH  16  23
HETATM   23  C   UNL     1      -7.860   9.108  66.688  1.00  0.00    -0.100 C  
HETATM   24  O   UNL     1      -8.369   9.437  65.400  1.00  0.00    -0.126 OA 
HETATM   25  H   UNL     1      -7.734   9.919  64.882  1.00  0.00     0.000 HD 
ENDBRANCH  16  23
ENDBRANCH   9  11
ENDBRANCH   7   9
ENDBRANCH   2   7
TORSDOF 5
ENDMDL
MODEL       61
REMARK 921   NORMALIZED FREE ENERGY PREDICTED BY IDOCK:   -4.76 KCAL/MOL
REMARK 922        TOTAL FREE ENERGY PREDICTED BY IDOCK:   -6.97 KCAL/MOL
REMARK 923 INTER-LIGAND FREE ENERGY PREDICTED BY IDOCK:   -6.04 KCAL/MOL
REMARK 924 INTRA-LIGAND FREE ENERGY PREDICTED BY IDOCK:   -0.93 KCAL/MOL
REMARK 927      BINDING AFFINITY PREDICTED BY RF-SCORE:    0.00 PKD
ROOT
HETATM    1  C   UNL     1     -11.007   9.107  71.815  1.00  0.00    -0.359 C  
HETATM    2  N   UNL     1     -11.934   9.887  71.013  1.00  0.00    -0.337 N  
ENDROOT
BRANCH   2   3
HETATM    3  N   UNL     1     -13.270  10.042  71.392  1.00  0.00    -0.396 NA 
HETATM    4  H   UNL     1     -14.019   9.464  71.009  1.00  0.00     0.000 HD 
HETATM    5  O   UNL     1     -13.476  10.927  72.224  1.00  0.00    -0.599 OA 
HETATM    6  H   UNL     1     -14.385  11.032  72.481  1.00  0.00     0.000 HD 
ENDBRANCH   2   3
BRANCH   2   7
HETATM    7  C   UNL     1     -11.432  10.610  69.932  1.00  0.00    -0.317 C  
HETATM    8  O   UNL     1     -11.060  10.078  68.884  1.00  0.00    -0.225 OA 
BRANCH   7   9
HETATM    9  N   UNL     1     -11.350  11.969  70.114  1.00  0.00    -0.489 N  
HETATM   10  H   UNL     1     -10.731  12.336  70.837  1.00  0.00     0.000 HD 
BRANCH   9  11
HETATM   11  C   UNL     1     -12.132  12.909  69.293  1.00  0.00    -0.182 C  
HETATM   12  C   UNL     1     -12.321  14.225  70.072  1.00  0.00    -0.346 C  
HETATM   13  O   UNL     1     -11.073  14.884  70.287  1.00  0.00    -0.242 OA 
HETATM   14  O   UNL     1     -12.869  13.909  71.353  1.00  0.00    -0.330 OA 
HETATM   15  H   UNL     1     -12.985  14.720  71.833  1.00  0.00     0.000 HD 
HETATM   16  C   UNL     1     -10.378  15.246  69.082  1.00  0.00    -0.248 C  
HETATM   17  C   UNL     1     -10.161  14.030  68.153  1.00  0.00    -0.243 C  
HETATM   18  H   UNL     1     -11.952  14.125  66.287  1.00  0.00     0.000 HD 
HETATM   19  C   UNL     1     -11.452  13.215  67.947  1.00  0.00    -0.308 C  
HETATM   20  O   UNL     1      -9.142  13.188  68.714  1.00  0.00    -0.386 OA 
HETATM   21  O   UNL     1     -12.372  13.936  67.118  1.00  0.00    -0.372 OA 
HETATM   22  H   UNL     1      -9.008  12.441  68.142  1.00  0.00     0.000 HD 
BRANCH  16  23
HETATM   23  C   UNL     1     -11.034  16.452  68.391  1.00  0.00    -0.353 C  
HETATM   24  O   UNL     1     -10.498  16.672  67.092  1.00  0.00    -0.312 OA 
HETATM   25  H   UNL     1     -10.904  17.418  66.664  1.00  0.00     0.000 HD 
ENDBRANCH  16  23
ENDBRANCH   9  11
ENDBRANCH   7   9
ENDBRANCH   2   7
TORSDOF 5
ENDMDL
MODEL       62
REMARK 921   NORMALIZED FREE ENERGY PREDICTED BY IDOCK:   -4.74 KCAL/MOL
REMARK 922        TOTAL FREE ENERGY PREDICTED BY IDOCK:   -6.95 KCAL/MOL
REMARK 923 INTER-LIGAND FREE ENERGY PREDICTED BY IDOCK:   -6.37 KCAL/MOL
REMARK 924 INTRA-LIGAND FREE ENERGY PREDICTED BY IDOCK:   -0.58 KCAL/MOL
REMARK 927      BINDING AFFINITY PREDICTED BY RF-SCORE:    0.00 PKD
ROOT
HETATM    1  C   UNL     1     -11.322  13.586  66.857  1.00  0.00    -0.326 C  
HETATM    2  N   UNL     1     -10.959  14.135  68.153  1.00  0.00    -0.243 N  
ENDROOT
BRANCH   2   3
HETATM    3  N   UNL     1     -10.150  13.424  69.042  1.00  0.00    -0.430 NA 
HETATM    4  H   UNL     1     -10.532  12.864  69.804  1.00  0.00     0.000 HD 
HETATM    5  O   UNL     1      -8.939  13.522  68.836  1.00  0.00    -0.381 OA 
HETATM    6  H   UNL     1      -8.388  13.039  69.441  1.00  0.00     0.000 HD 
ENDBRANCH   2   3
BRANCH   2   7
HETATM    7  C   UNL     1     -11.309  15.455  68.438  1.00  0.00    -0.339 C  
HETATM    8  O   UNL     1     -12.202  15.755  69.233  1.00  0.00    -0.298 OA 
BRANCH   7   9
HETATM    9  N   UNL     1     -10.608  16.415  67.751  1.00  0.00    -0.314 N  
HETATM   10  H   UNL     1     -10.367  16.249  66.773  1.00  0.00     0.000 HD 
BRANCH   9  11
HETATM   11  C   UNL     1     -10.197  17.678  68.388  1.00  0.00    -0.381 C  
HETATM   12  C   UNL     1      -8.660  17.771  68.380  1.00  0.00    -0.292 C  
HETATM   13  O   UNL     1      -8.151  17.854  67.049  1.00  0.00    -0.210 OA 
HETATM   14  O   UNL     1      -8.139  16.577  68.967  1.00  0.00    -0.235 OA 
HETATM   15  H   UNL     1      -7.191  16.634  68.962  1.00  0.00     0.000 HD 
HETATM   16  C   UNL     1      -8.610  18.998  66.310  1.00  0.00    -0.274 C  
HETATM   17  C   UNL     1     -10.152  19.083  66.275  1.00  0.00    -0.422 C  
HETATM   18  H   UNL     1     -10.893  20.830  68.035  1.00  0.00     0.000 HD 
HETATM   19  C   UNL     1     -10.779  18.910  67.671  1.00  0.00    -0.394 C  
HETATM   20  O   UNL     1     -10.657  18.072  65.389  1.00  0.00    -0.648 OA 
HETATM   21  O   UNL     1     -10.535  20.069  68.477  1.00  0.00    -0.411 OA 
HETATM   22  H   UNL     1     -11.605  18.125  65.367  1.00  0.00     0.000 HD 
BRANCH  16  23
HETATM   23  C   UNL     1      -7.923  20.289  66.783  1.00  0.00    -0.283 C  
HETATM   24  O   UNL     1      -7.054  20.821  65.789  1.00  0.00    -0.487 OA 
HETATM   25  H   UNL     1      -6.630  21.619  66.081  1.00  0.00     0.000 HD 
ENDBRANCH  16  23
ENDBRANCH   9  11
ENDBRANCH   7   9
ENDBRANCH   2   7
TORSDOF 5
ENDMDL
MODEL       63
REMARK 921   NORMALIZED FREE ENERGY PREDICTED BY IDOCK:   -4.73 KCAL/MOL
REMARK 922        TOTAL FREE ENERGY PREDICTED BY IDOCK:   -6.93 KCAL/MOL
REMARK 923 INTER-LIGAND FREE ENERGY PREDICTED BY IDOCK:   -6.62 KCAL/MOL
REMARK 924 INTRA-LIGAND FREE ENERGY PREDICTED BY IDOCK:   -0.32 KCAL/MOL
REMARK 927      BINDING AFFINITY PREDICTED BY RF-SCORE:    0.00 PKD
ROOT
HETATM    1  C   UNL     1     -11.663  12.571  66.057  1.00  0.00    -0.417 C  
HETATM    2  N   UNL     1     -11.898  12.472  67.488  1.00  0.00    -0.367 N  
ENDROOT
BRANCH   2   3
HETATM    3  N   UNL     1     -12.210  11.250  68.090  1.00  0.00    -0.599 NA 
HETATM    4  H   UNL     1     -12.991  11.142  68.737  1.00  0.00     0.000 HD 
HETATM    5  O   UNL     1     -11.472  10.314  67.779  1.00  0.00    -0.593 OA 
HETATM    6  H   UNL     1     -11.684   9.483  68.189  1.00  0.00     0.000 HD 
ENDBRANCH   2   3
BRANCH   2   7
HETATM    7  C   UNL     1     -11.658  13.594  68.281  1.00  0.00    -0.339 C  
HETATM    8  O   UNL     1     -12.316  13.856  69.289  1.00  0.00    -0.323 OA 
BRANCH   7   9
HETATM    9  N   UNL     1     -10.646  14.418  67.851  1.00  0.00    -0.238 N  
HETATM   10  H   UNL     1      -9.679  14.165  68.058  1.00  0.00     0.000 HD 
BRANCH   9  11
HETATM   11  C   UNL     1     -10.920  15.654  67.100  1.00  0.00    -0.270 C  
HETATM   12  C   UNL     1     -10.585  16.869  67.986  1.00  0.00    -0.367 C  
HETATM   13  O   UNL     1      -9.190  16.927  68.282  1.00  0.00    -0.227 OA 
HETATM   14  O   UNL     1     -11.283  16.723  69.224  1.00  0.00    -0.275 OA 
HETATM   15  H   UNL     1     -11.076  17.472  69.770  1.00  0.00     0.000 HD 
HETATM   16  C   UNL     1      -8.344  17.048  67.126  1.00  0.00    -0.191 C  
HETATM   17  C   UNL     1      -8.603  15.922  66.099  1.00  0.00    -0.241 C  
HETATM   18  H   UNL     1     -10.089  16.891  64.215  1.00  0.00     0.000 HD 
HETATM   19  C   UNL     1     -10.103  15.741  65.799  1.00  0.00    -0.371 C  
HETATM   20  O   UNL     1      -8.059  14.693  66.604  1.00  0.00    -0.358 OA 
HETATM   21  O   UNL     1     -10.594  16.837  65.018  1.00  0.00    -0.695 OA 
HETATM   22  H   UNL     1      -8.218  14.002  65.973  1.00  0.00     0.000 HD 
BRANCH  16  23
HETATM   23  C   UNL     1      -8.400  18.464  66.530  1.00  0.00    -0.272 C  
HETATM   24  O   UNL     1      -7.293  18.720  65.673  1.00  0.00    -0.474 OA 
HETATM   25  H   UNL     1      -7.328  19.595  65.304  1.00  0.00     0.000 HD 
ENDBRANCH  16  23
ENDBRANCH   9  11
ENDBRANCH   7   9
ENDBRANCH   2   7
TORSDOF 5
ENDMDL
MODEL       64
REMARK 921   NORMALIZED FREE ENERGY PREDICTED BY IDOCK:   -4.73 KCAL/MOL
REMARK 922        TOTAL FREE ENERGY PREDICTED BY IDOCK:   -6.93 KCAL/MOL
REMARK 923 INTER-LIGAND FREE ENERGY PREDICTED BY IDOCK:   -5.91 KCAL/MOL
REMARK 924 INTRA-LIGAND FREE ENERGY PREDICTED BY IDOCK:   -1.02 KCAL/MOL
REMARK 927      BINDING AFFINITY PREDICTED BY RF-SCORE:    0.00 PKD
ROOT
HETATM    1  C   UNL     1     -10.251  15.026  65.219  1.00  0.00    -0.377 C  
HETATM    2  N   UNL     1     -10.788  13.759  64.752  1.00  0.00    -0.380 N  
ENDROOT
BRANCH   2   3
HETATM    3  N   UNL     1     -10.315  13.156  63.584  1.00  0.00    -0.597 NA 
HETATM    4  H   UNL     1      -9.438  13.431  63.141  1.00  0.00     0.000 HD 
HETATM    5  O   UNL     1     -11.036  12.266  63.129  1.00  0.00    -0.669 OA 
HETATM    6  H   UNL     1     -10.715  11.856  62.334  1.00  0.00     0.000 HD 
ENDBRANCH   2   3
BRANCH   2   7
HETATM    7  C   UNL     1     -11.683  13.073  65.573  1.00  0.00    -0.368 C  
HETATM    8  O   UNL     1     -12.724  13.577  65.998  1.00  0.00    -0.381 OA 
BRANCH   7   9
HETATM    9  N   UNL     1     -11.317  11.792  65.908  1.00  0.00    -0.304 N  
HETATM   10  H   UNL     1     -11.761  11.008  65.430  1.00  0.00     0.000 HD 
BRANCH   9  11
HETATM   11  C   UNL     1     -10.302  11.522  66.941  1.00  0.00    -0.223 C  
HETATM   12  C   UNL     1     -10.821  10.420  67.884  1.00  0.00    -0.279 C  
HETATM   13  O   UNL     1     -10.977   9.179  67.196  1.00  0.00    -0.127 OA 
HETATM   14  O   UNL     1     -12.108  10.813  68.362  1.00  0.00    -0.805 OA 
HETATM   15  H   UNL     1     -12.428  10.134  68.944  1.00  0.00     0.000 HD 
HETATM   16  C   UNL     1      -9.763   8.660  66.627  1.00  0.00    -0.247 C  
HETATM   17  C   UNL     1      -9.080   9.682  65.691  1.00  0.00    -0.189 C  
HETATM   18  H   UNL     1      -7.140  10.787  66.999  1.00  0.00     0.000 HD 
HETATM   19  C   UNL     1      -8.959  11.075  66.337  1.00  0.00    -0.181 C  
HETATM   20  O   UNL     1      -9.834   9.777  64.473  1.00  0.00    -0.413 OA 
HETATM   21  O   UNL     1      -7.969  11.063  67.372  1.00  0.00    -0.114 OA 
HETATM   22  H   UNL     1      -9.413  10.405  63.897  1.00  0.00     0.000 HD 
BRANCH  16  23
HETATM   23  C   UNL     1      -8.834   8.083  67.708  1.00  0.00    -0.126 C  
HETATM   24  O   UNL     1      -9.440   6.998  68.401  1.00  0.00    -0.134 OA 
HETATM   25  H   UNL     1      -8.866   6.641  69.069  1.00  0.00     0.000 HD 
ENDBRANCH  16  23
ENDBRANCH   9  11
ENDBRANCH   7   9
ENDBRANCH   2   7
TORSDOF 5
ENDMDL
MODEL       65
REMARK 921   NORMALIZED FREE ENERGY PREDICTED BY IDOCK:   -4.72 KCAL/MOL
REMARK 922        TOTAL FREE ENERGY PREDICTED BY IDOCK:   -6.93 KCAL/MOL
REMARK 923 INTER-LIGAND FREE ENERGY PREDICTED BY IDOCK:   -6.08 KCAL/MOL
REMARK 924 INTRA-LIGAND FREE ENERGY PREDICTED BY IDOCK:   -0.85 KCAL/MOL
REMARK 927      BINDING AFFINITY PREDICTED BY RF-SCORE:    0.00 PKD
ROOT
HETATM    1  C   UNL     1      -9.055  11.961  68.447  1.00  0.00    -0.167 C  
HETATM    2  N   UNL     1     -10.408  12.435  68.207  1.00  0.00    -0.222 N  
ENDROOT
BRANCH   2   3
HETATM    3  N   UNL     1     -10.717  13.213  67.088  1.00  0.00    -0.254 NA 
HETATM    4  H   UNL     1     -10.032  13.427  66.363  1.00  0.00     0.000 HD 
HETATM    5  O   UNL     1     -11.879  13.621  67.043  1.00  0.00    -0.365 OA 
HETATM    6  H   UNL     1     -12.089  14.150  66.283  1.00  0.00     0.000 HD 
ENDBRANCH   2   3
BRANCH   2   7
HETATM    7  C   UNL     1     -11.432  11.971  69.033  1.00  0.00    -0.300 C  
HETATM    8  O   UNL     1     -12.150  11.014  68.739  1.00  0.00    -0.518 OA 
BRANCH   7   9
HETATM    9  N   UNL     1     -11.613  12.671  70.201  1.00  0.00    -0.543 N  
HETATM   10  H   UNL     1     -10.886  12.643  70.915  1.00  0.00     0.000 HD 
BRANCH   9  11
HETATM   11  C   UNL     1     -12.831  13.462  70.448  1.00  0.00     0.041 C  
HETATM   12  C   UNL     1     -13.302  13.228  71.895  1.00  0.00    -0.451 C  
HETATM   13  O   UNL     1     -12.351  13.724  72.837  1.00  0.00     0.147 OA 
HETATM   14  O   UNL     1     -13.419  11.819  72.102  1.00  0.00    -0.537 OA 
HETATM   15  H   UNL     1     -13.710  11.674  72.995  1.00  0.00     0.000 HD 
HETATM   16  C   UNL     1     -12.099  15.135  72.738  1.00  0.00    -0.381 C  
HETATM   17  C   UNL     1     -11.670  15.547  71.312  1.00  0.00    -0.401 C  
HETATM   18  H   UNL     1     -13.730  16.566  70.123  1.00  0.00     0.000 HD 
HETATM   19  C   UNL     1     -12.603  14.969  70.231  1.00  0.00    -0.317 C  
HETATM   20  O   UNL     1     -10.325  15.099  71.080  1.00  0.00    -0.414 OA 
HETATM   21  O   UNL     1     -13.871  15.636  70.256  1.00  0.00     0.067 OA 
HETATM   22  H   UNL     1     -10.061  15.353  70.203  1.00  0.00     0.000 HD 
BRANCH  16  23
HETATM   23  C   UNL     1     -13.268  15.959  73.301  1.00  0.00    -0.595 C  
HETATM   24  O   UNL     1     -12.933  16.574  74.540  1.00  0.00    -0.865 OA 
HETATM   25  H   UNL     1     -13.655  17.083  74.889  1.00  0.00     0.000 HD 
ENDBRANCH  16  23
ENDBRANCH   9  11
ENDBRANCH   7   9
ENDBRANCH   2   7
TORSDOF 5
ENDMDL
MODEL       66
REMARK 921   NORMALIZED FREE ENERGY PREDICTED BY IDOCK:   -4.71 KCAL/MOL
REMARK 922        TOTAL FREE ENERGY PREDICTED BY IDOCK:   -6.90 KCAL/MOL
REMARK 923 INTER-LIGAND FREE ENERGY PREDICTED BY IDOCK:   -6.27 KCAL/MOL
REMARK 924 INTRA-LIGAND FREE ENERGY PREDICTED BY IDOCK:   -0.64 KCAL/MOL
REMARK 927      BINDING AFFINITY PREDICTED BY RF-SCORE:    0.00 PKD
ROOT
HETATM    1  C   UNL     1     -10.740  12.138  66.683  1.00  0.00    -0.246 C  
HETATM    2  N   UNL     1     -11.502  13.312  67.076  1.00  0.00    -0.322 N  
ENDROOT
BRANCH   2   3
HETATM    3  N   UNL     1     -11.897  13.511  68.402  1.00  0.00    -0.360 NA 
HETATM    4  H   UNL     1     -11.620  12.883  69.156  1.00  0.00     0.000 HD 
HETATM    5  O   UNL     1     -12.605  14.502  68.591  1.00  0.00    -0.545 OA 
HETATM    6  H   UNL     1     -12.873  14.637  69.492  1.00  0.00     0.000 HD 
ENDBRANCH   2   3
BRANCH   2   7
HETATM    7  C   UNL     1     -11.706  14.319  66.133  1.00  0.00    -0.390 C  
HETATM    8  O   UNL     1     -12.733  14.408  65.458  1.00  0.00    -0.414 OA 
BRANCH   7   9
HETATM    9  N   UNL     1     -10.668  15.205  65.979  1.00  0.00    -0.319 N  
HETATM   10  H   UNL     1     -10.266  15.342  65.051  1.00  0.00     0.000 HD 
BRANCH   9  11
HETATM   11  C   UNL     1     -10.120  15.962  67.118  1.00  0.00    -0.264 C  
HETATM   12  C   UNL     1      -8.601  16.130  66.929  1.00  0.00    -0.221 C  
HETATM   13  O   UNL     1      -8.305  16.932  65.786  1.00  0.00    -0.472 OA 
HETATM   14  O   UNL     1      -8.034  14.838  66.708  1.00  0.00    -0.347 OA 
HETATM   15  H   UNL     1      -7.097  14.941  66.592  1.00  0.00     0.000 HD 
HETATM   16  C   UNL     1      -8.836  18.266  65.844  1.00  0.00     0.222 C  
HETATM   17  C   UNL     1     -10.362  18.271  66.092  1.00  0.00    -0.398 C  
HETATM   18  H   UNL     1     -10.759  18.781  68.598  1.00  0.00     0.000 HD 
HETATM   19  C   UNL     1     -10.766  17.352  67.260  1.00  0.00    -0.219 C  
HETATM   20  O   UNL     1     -11.032  17.853  64.893  1.00  0.00    -0.827 OA 
HETATM   21  O   UNL     1     -10.361  17.923  68.510  1.00  0.00    -0.369 OA 
HETATM   22  H   UNL     1     -11.970  17.857  65.046  1.00  0.00     0.000 HD 
BRANCH  16  23
HETATM   23  C   UNL     1      -8.041  19.149  66.820  1.00  0.00    -0.273 C  
HETATM   24  O   UNL     1      -7.890  20.476  66.328  1.00  0.00    -0.502 OA 
HETATM   25  H   UNL     1      -7.399  21.022  66.931  1.00  0.00     0.000 HD 
ENDBRANCH  16  23
ENDBRANCH   9  11
ENDBRANCH   7   9
ENDBRANCH   2   7
TORSDOF 5
ENDMDL
MODEL       67
REMARK 921   NORMALIZED FREE ENERGY PREDICTED BY IDOCK:   -4.69 KCAL/MOL
REMARK 922        TOTAL FREE ENERGY PREDICTED BY IDOCK:   -6.89 KCAL/MOL
REMARK 923 INTER-LIGAND FREE ENERGY PREDICTED BY IDOCK:   -6.53 KCAL/MOL
REMARK 924 INTRA-LIGAND FREE ENERGY PREDICTED BY IDOCK:   -0.36 KCAL/MOL
REMARK 927      BINDING AFFINITY PREDICTED BY RF-SCORE:    0.00 PKD
ROOT
HETATM    1  C   UNL     1     -11.432   8.751  72.004  1.00  0.00    -0.371 C  
HETATM    2  N   UNL     1     -12.461   9.736  71.716  1.00  0.00    -0.391 N  
ENDROOT
BRANCH   2   3
HETATM    3  N   UNL     1     -13.611   9.836  72.503  1.00  0.00    -0.655 NA 
HETATM    4  H   UNL     1     -14.223  10.653  72.479  1.00  0.00     0.000 HD 
HETATM    5  O   UNL     1     -13.833   8.864  73.227  1.00  0.00    -1.163 OA 
HETATM    6  H   UNL     1     -14.615   8.932  73.762  1.00  0.00     0.000 HD 
ENDBRANCH   2   3
BRANCH   2   7
HETATM    7  C   UNL     1     -12.213  10.688  70.727  1.00  0.00    -0.375 C  
HETATM    8  O   UNL     1     -12.446  11.889  70.879  1.00  0.00    -0.369 OA 
BRANCH   7   9
HETATM    9  N   UNL     1     -11.710  10.199  69.547  1.00  0.00    -0.459 N  
HETATM   10  H   UNL     1     -12.320   9.656  68.934  1.00  0.00     0.000 HD 
BRANCH   9  11
HETATM   11  C   UNL     1     -10.314  10.437  69.142  1.00  0.00    -0.222 C  
HETATM   12  C   UNL     1      -9.876   9.332  68.162  1.00  0.00    -0.162 C  
HETATM   13  O   UNL     1     -10.620   9.392  66.946  1.00  0.00    -0.231 OA 
HETATM   14  O   UNL     1     -10.143   8.067  68.769  1.00  0.00    -0.185 OA 
HETATM   15  H   UNL     1      -9.873   7.386  68.165  1.00  0.00     0.000 HD 
HETATM   16  C   UNL     1     -10.478  10.626  66.223  1.00  0.00    -0.203 C  
HETATM   17  C   UNL     1     -10.827  11.852  67.098  1.00  0.00    -0.255 C  
HETATM   18  H   UNL     1      -8.609  12.910  67.907  1.00  0.00     0.000 HD 
HETATM   19  C   UNL     1     -10.127  11.809  68.469  1.00  0.00    -0.207 C  
HETATM   20  O   UNL     1     -12.250  11.904  67.283  1.00  0.00    -0.495 OA 
HETATM   21  O   UNL     1      -8.724  12.063  68.323  1.00  0.00    -0.174 OA 
HETATM   22  H   UNL     1     -12.465  12.658  67.820  1.00  0.00     0.000 HD 
BRANCH  16  23
HETATM   23  C   UNL     1      -9.109  10.722  65.531  1.00  0.00    -0.199 C  
HETATM   24  O   UNL     1      -9.133  11.631  64.437  1.00  0.00    -0.410 OA 
HETATM   25  H   UNL     1      -8.286  11.690  64.009  1.00  0.00     0.000 HD 
ENDBRANCH  16  23
ENDBRANCH   9  11
ENDBRANCH   7   9
ENDBRANCH   2   7
TORSDOF 5
ENDMDL
MODEL       68
REMARK 921   NORMALIZED FREE ENERGY PREDICTED BY IDOCK:   -4.64 KCAL/MOL
REMARK 922        TOTAL FREE ENERGY PREDICTED BY IDOCK:   -6.81 KCAL/MOL
REMARK 923 INTER-LIGAND FREE ENERGY PREDICTED BY IDOCK:   -6.10 KCAL/MOL
REMARK 924 INTRA-LIGAND FREE ENERGY PREDICTED BY IDOCK:   -0.72 KCAL/MOL
REMARK 927      BINDING AFFINITY PREDICTED BY RF-SCORE:    0.00 PKD
ROOT
HETATM    1  C   UNL     1     -10.732  11.011  64.830  1.00  0.00    -0.234 C  
HETATM    2  N   UNL     1     -11.529  11.904  64.004  1.00  0.00    -0.389 N  
ENDROOT
BRANCH   2   3
HETATM    3  N   UNL     1     -12.166  11.449  62.847  1.00  0.00    -0.825 NA 
HETATM    4  H   UNL     1     -11.650  11.110  62.035  1.00  0.00     0.000 HD 
HETATM    5  O   UNL     1     -13.397  11.488  62.881  1.00  0.00    -0.503 OA 
HETATM    6  H   UNL     1     -13.830  11.178  62.094  1.00  0.00     0.000 HD 
ENDBRANCH   2   3
BRANCH   2   7
HETATM    7  C   UNL     1     -11.774  13.196  64.469  1.00  0.00    -0.371 C  
HETATM    8  O   UNL     1     -12.347  14.054  63.793  1.00  0.00    -0.684 OA 
BRANCH   7   9
HETATM    9  N   UNL     1     -11.311  13.470  65.732  1.00  0.00    -0.303 N  
HETATM   10  H   UNL     1     -11.908  13.270  66.534  1.00  0.00     0.000 HD 
BRANCH   9  11
HETATM   11  C   UNL     1      -9.974  14.045  65.958  1.00  0.00    -0.315 C  
HETATM   12  C   UNL     1     -10.124  15.492  66.464  1.00  0.00    -0.279 C  
HETATM   13  O   UNL     1     -10.757  15.532  67.743  1.00  0.00    -0.281 OA 
HETATM   14  O   UNL     1     -10.962  16.199  65.547  1.00  0.00    -0.275 OA 
HETATM   15  H   UNL     1     -11.055  17.092  65.859  1.00  0.00     0.000 HD 
HETATM   16  C   UNL     1     -10.044  14.834  68.778  1.00  0.00    -0.237 C  
HETATM   17  C   UNL     1      -9.758  13.365  68.394  1.00  0.00    -0.201 C  
HETATM   18  H   UNL     1      -7.299  13.214  67.602  1.00  0.00     0.000 HD 
HETATM   19  C   UNL     1      -9.156  13.238  66.982  1.00  0.00    -0.232 C  
HETATM   20  O   UNL     1     -10.981  12.615  68.468  1.00  0.00    -0.238 OA 
HETATM   21  O   UNL     1      -7.804  13.712  66.969  1.00  0.00    -0.067 OA 
HETATM   22  H   UNL     1     -10.804  11.712  68.232  1.00  0.00     0.000 HD 
BRANCH  16  23
HETATM   23  C   UNL     1      -8.801  15.615  69.233  1.00  0.00    -0.264 C  
HETATM   24  O   UNL     1      -7.821  14.759  69.809  1.00  0.00    -0.400 OA 
HETATM   25  H   UNL     1      -7.052  15.241  70.091  1.00  0.00     0.000 HD 
ENDBRANCH  16  23
ENDBRANCH   9  11
ENDBRANCH   7   9
ENDBRANCH   2   7
TORSDOF 5
ENDMDL
MODEL       69
REMARK 921   NORMALIZED FREE ENERGY PREDICTED BY IDOCK:   -4.63 KCAL/MOL
REMARK 922        TOTAL FREE ENERGY PREDICTED BY IDOCK:   -6.81 KCAL/MOL
REMARK 923 INTER-LIGAND FREE ENERGY PREDICTED BY IDOCK:   -5.43 KCAL/MOL
REMARK 924 INTRA-LIGAND FREE ENERGY PREDICTED BY IDOCK:   -1.38 KCAL/MOL
REMARK 927      BINDING AFFINITY PREDICTED BY RF-SCORE:    0.00 PKD
ROOT
HETATM    1  C   UNL     1      -9.859   7.290  69.508  1.00  0.00    -0.163 C  
HETATM    2  N   UNL     1     -10.425   8.533  70.005  1.00  0.00    -0.219 N  
ENDROOT
BRANCH   2   3
HETATM    3  N   UNL     1     -11.750   8.603  70.445  1.00  0.00    -0.472 NA 
HETATM    4  H   UNL     1     -12.498   8.054  70.021  1.00  0.00     0.000 HD 
HETATM    5  O   UNL     1     -11.946   9.378  71.383  1.00  0.00    -0.318 OA 
HETATM    6  H   UNL     1     -12.847   9.426  71.681  1.00  0.00     0.000 HD 
ENDBRANCH   2   3
BRANCH   2   7
HETATM    7  C   UNL     1      -9.577   9.626  70.181  1.00  0.00    -0.254 C  
HETATM    8  O   UNL     1      -8.571   9.587  70.891  1.00  0.00    -0.259 OA 
BRANCH   7   9
HETATM    9  N   UNL     1      -9.949  10.776  69.528  1.00  0.00    -0.431 N  
HETATM   10  H   UNL     1      -9.946  11.659  70.038  1.00  0.00     0.000 HD 
BRANCH   9  11
HETATM   11  C   UNL     1     -10.352  10.766  68.111  1.00  0.00    -0.171 C  
HETATM   12  C   UNL     1     -11.717  11.464  67.968  1.00  0.00    -0.254 C  
HETATM   13  O   UNL     1     -11.631  12.847  68.310  1.00  0.00    -0.291 OA 
HETATM   14  O   UNL     1     -12.629  10.850  68.880  1.00  0.00    -0.698 OA 
HETATM   15  H   UNL     1     -13.471  11.281  68.792  1.00  0.00     0.000 HD 
HETATM   16  C   UNL     1     -10.723  13.605  67.493  1.00  0.00    -0.259 C  
HETATM   17  C   UNL     1      -9.305  12.991  67.482  1.00  0.00    -0.200 C  
HETATM   18  H   UNL     1      -9.031  11.657  65.281  1.00  0.00     0.000 HD 
HETATM   19  C   UNL     1      -9.327  11.475  67.208  1.00  0.00    -0.166 C  
HETATM   20  O   UNL     1      -8.676  13.244  68.748  1.00  0.00    -0.367 OA 
HETATM   21  O   UNL     1      -9.663  11.219  65.839  1.00  0.00    -0.207 OA 
HETATM   22  H   UNL     1      -7.803  12.867  68.741  1.00  0.00     0.000 HD 
BRANCH  16  23
HETATM   23  C   UNL     1     -11.303  13.862  66.092  1.00  0.00    -0.320 C  
HETATM   24  O   UNL     1     -10.280  14.086  65.130  1.00  0.00    -0.381 OA 
HETATM   25  H   UNL     1     -10.638  14.245  64.264  1.00  0.00     0.000 HD 
ENDBRANCH  16  23
ENDBRANCH   9  11
ENDBRANCH   7   9
ENDBRANCH   2   7
TORSDOF 5
ENDMDL
MODEL       70
REMARK 921   NORMALIZED FREE ENERGY PREDICTED BY IDOCK:   -4.62 KCAL/MOL
REMARK 922        TOTAL FREE ENERGY PREDICTED BY IDOCK:   -6.80 KCAL/MOL
REMARK 923 INTER-LIGAND FREE ENERGY PREDICTED BY IDOCK:   -5.86 KCAL/MOL
REMARK 924 INTRA-LIGAND FREE ENERGY PREDICTED BY IDOCK:   -0.94 KCAL/MOL
REMARK 927      BINDING AFFINITY PREDICTED BY RF-SCORE:    0.00 PKD
ROOT
HETATM    1  C   UNL     1      -7.404  19.390  68.086  1.00  0.00    -0.295 C  
HETATM    2  N   UNL     1      -8.709  19.130  67.500  1.00  0.00    -0.289 N  
ENDROOT
BRANCH   2   3
HETATM    3  N   UNL     1      -8.871  18.989  66.120  1.00  0.00    -0.460 NA 
HETATM    4  H   UNL     1      -8.973  19.789  65.495  1.00  0.00     0.000 HD 
HETATM    5  O   UNL     1      -8.881  17.825  65.714  1.00  0.00    -0.501 OA 
HETATM    6  H   UNL     1      -8.991  17.729  64.775  1.00  0.00     0.000 HD 
ENDBRANCH   2   3
BRANCH   2   7
HETATM    7  C   UNL     1      -9.781  18.872  68.354  1.00  0.00    -0.379 C  
HETATM    8  O   UNL     1     -10.210  19.699  69.161  1.00  0.00    -0.394 OA 
BRANCH   7   9
HETATM    9  N   UNL     1     -10.323  17.614  68.262  1.00  0.00    -0.368 N  
HETATM   10  H   UNL     1     -11.164  17.475  67.700  1.00  0.00     0.000 HD 
BRANCH   9  11
HETATM   11  C   UNL     1      -9.722  16.459  68.952  1.00  0.00    -0.257 C  
HETATM   12  C   UNL     1     -10.810  15.734  69.766  1.00  0.00    -0.314 C  
HETATM   13  O   UNL     1     -11.806  15.168  68.914  1.00  0.00    -0.326 OA 
HETATM   14  O   UNL     1     -11.455  16.695  70.603  1.00  0.00    -0.523 OA 
HETATM   15  H   UNL     1     -12.126  16.248  71.105  1.00  0.00     0.000 HD 
HETATM   16  C   UNL     1     -11.306  14.193  67.984  1.00  0.00    -0.299 C  
HETATM   17  C   UNL     1     -10.152  14.754  67.122  1.00  0.00    -0.240 C  
HETATM   18  H   UNL     1      -7.924  13.889  68.113  1.00  0.00     0.000 HD 
HETATM   19  C   UNL     1      -9.080  15.462  67.971  1.00  0.00    -0.175 C  
HETATM   20  O   UNL     1     -10.692  15.673  66.159  1.00  0.00    -0.311 OA 
HETATM   21  O   UNL     1      -8.320  14.505  68.718  1.00  0.00    -0.160 OA 
HETATM   22  H   UNL     1      -9.982  16.017  65.629  1.00  0.00     0.000 HD 
BRANCH  16  23
HETATM   23  C   UNL     1     -10.975  12.864  68.682  1.00  0.00    -0.261 C  
HETATM   24  O   UNL     1     -11.999  12.476  69.590  1.00  0.00    -0.303 OA 
HETATM   25  H   UNL     1     -11.795  11.654  70.022  1.00  0.00     0.000 HD 
ENDBRANCH  16  23
ENDBRANCH   9  11
ENDBRANCH   7   9
ENDBRANCH   2   7
TORSDOF 5
ENDMDL
MODEL       71
REMARK 921   NORMALIZED FREE ENERGY PREDICTED BY IDOCK:   -4.62 KCAL/MOL
REMARK 922        TOTAL FREE ENERGY PREDICTED BY IDOCK:   -6.80 KCAL/MOL
REMARK 923 INTER-LIGAND FREE ENERGY PREDICTED BY IDOCK:   -5.67 KCAL/MOL
REMARK 924 INTRA-LIGAND FREE ENERGY PREDICTED BY IDOCK:   -1.13 KCAL/MOL
REMARK 927      BINDING AFFINITY PREDICTED BY RF-SCORE:    0.00 PKD
ROOT
HETATM    1  C   UNL     1      -8.421   6.650  67.537  1.00  0.00    -0.121 C  
HETATM    2  N   UNL     1      -9.585   7.432  67.156  1.00  0.00    -0.149 N  
ENDROOT
BRANCH   2   3
HETATM    3  N   UNL     1     -10.824   7.236  67.771  1.00  0.00    -0.461 NA 
HETATM    4  H   UNL     1     -11.027   7.569  68.714  1.00  0.00     0.000 HD 
HETATM    5  O   UNL     1     -11.655   6.633  67.089  1.00  0.00    -0.749 OA 
HETATM    6  H   UNL     1     -12.497   6.500  67.507  1.00  0.00     0.000 HD 
ENDBRANCH   2   3
BRANCH   2   7
HETATM    7  C   UNL     1      -9.412   8.492  66.266  1.00  0.00    -0.231 C  
HETATM    8  O   UNL     1      -8.546   8.497  65.389  1.00  0.00    -0.168 OA 
BRANCH   7   9
HETATM    9  N   UNL     1     -10.257   9.560  66.445  1.00  0.00    -0.256 N  
HETATM   10  H   UNL     1     -11.264   9.416  66.358  1.00  0.00     0.000 HD 
BRANCH   9  11
HETATM   11  C   UNL     1      -9.749  10.906  66.759  1.00  0.00    -0.190 C  
HETATM   12  C   UNL     1     -10.746  11.958  66.237  1.00  0.00    -0.271 C  
HETATM   13  O   UNL     1     -11.995  11.874  66.922  1.00  0.00    -0.614 OA 
HETATM   14  O   UNL     1     -10.993  11.690  64.855  1.00  0.00    -0.303 OA 
HETATM   15  H   UNL     1     -11.608  12.338  64.533  1.00  0.00     0.000 HD 
HETATM   16  C   UNL     1     -11.909  12.094  68.340  1.00  0.00    -0.303 C  
HETATM   17  C   UNL     1     -10.892  11.145  69.012  1.00  0.00    -0.231 C  
HETATM   18  H   UNL     1      -8.705  12.472  69.405  1.00  0.00     0.000 HD 
HETATM   19  C   UNL     1      -9.543  11.115  68.270  1.00  0.00    -0.185 C  
HETATM   20  O   UNL     1     -11.448   9.822  69.060  1.00  0.00    -0.463 OA 
HETATM   21  O   UNL     1      -8.832  12.343  68.473  1.00  0.00    -0.151 OA 
HETATM   22  H   UNL     1     -10.822   9.239  69.474  1.00  0.00     0.000 HD 
BRANCH  16  23
HETATM   23  C   UNL     1     -11.691  13.580  68.668  1.00  0.00    -0.354 C  
HETATM   24  O   UNL     1     -11.068  13.754  69.936  1.00  0.00    -0.466 OA 
HETATM   25  H   UNL     1     -10.932  14.673  70.139  1.00  0.00     0.000 HD 
ENDBRANCH  16  23
ENDBRANCH   9  11
ENDBRANCH   7   9
ENDBRANCH   2   7
TORSDOF 5
ENDMDL
MODEL       72
REMARK 921   NORMALIZED FREE ENERGY PREDICTED BY IDOCK:   -4.61 KCAL/MOL
REMARK 922        TOTAL FREE ENERGY PREDICTED BY IDOCK:   -6.78 KCAL/MOL
REMARK 923 INTER-LIGAND FREE ENERGY PREDICTED BY IDOCK:   -5.53 KCAL/MOL
REMARK 924 INTRA-LIGAND FREE ENERGY PREDICTED BY IDOCK:   -1.25 KCAL/MOL
REMARK 927      BINDING AFFINITY PREDICTED BY RF-SCORE:    0.00 PKD
ROOT
HETATM    1  C   UNL     1      -6.436  18.921  65.323  1.00  0.00    -0.257 C  
HETATM    2  N   UNL     1      -7.575  18.274  65.955  1.00  0.00    -0.186 N  
ENDROOT
BRANCH   2   3
HETATM    3  N   UNL     1      -8.799  18.933  66.093  1.00  0.00    -0.466 NA 
HETATM    4  H   UNL     1      -9.410  19.127  65.299  1.00  0.00     0.000 HD 
HETATM    5  O   UNL     1      -9.086  19.261  67.246  1.00  0.00    -0.289 OA 
HETATM    6  H   UNL     1      -9.919  19.708  67.340  1.00  0.00     0.000 HD 
ENDBRANCH   2   3
BRANCH   2   7
HETATM    7  C   UNL     1      -7.472  16.924  66.288  1.00  0.00    -0.247 C  
HETATM    8  O   UNL     1      -6.403  16.385  66.581  1.00  0.00    -0.291 OA 
BRANCH   7   9
HETATM    9  N   UNL     1      -8.645  16.211  66.242  1.00  0.00    -0.330 N  
HETATM   10  H   UNL     1      -9.227  16.265  65.405  1.00  0.00     0.000 HD 
BRANCH   9  11
HETATM   11  C   UNL     1      -9.086  15.372  67.370  1.00  0.00    -0.197 C  
HETATM   12  C   UNL     1     -10.528  15.753  67.751  1.00  0.00    -0.283 C  
HETATM   13  O   UNL     1     -11.441  15.450  66.696  1.00  0.00    -0.187 OA 
HETATM   14  O   UNL     1     -10.574  17.164  67.968  1.00  0.00    -0.348 OA 
HETATM   15  H   UNL     1     -11.464  17.399  68.203  1.00  0.00     0.000 HD 
HETATM   16  C   UNL     1     -11.491  14.059  66.337  1.00  0.00    -0.352 C  
HETATM   17  C   UNL     1     -10.094  13.502  65.981  1.00  0.00    -0.310 C  
HETATM   18  H   UNL     1      -9.212  12.195  68.033  1.00  0.00     0.000 HD 
HETATM   19  C   UNL     1      -9.034  13.870  67.035  1.00  0.00    -0.240 C  
HETATM   20  O   UNL     1      -9.700  14.014  64.698  1.00  0.00    -0.539 OA 
HETATM   21  O   UNL     1      -9.243  13.122  68.239  1.00  0.00    -0.207 OA 
HETATM   22  H   UNL     1      -8.841  13.671  64.479  1.00  0.00     0.000 HD 
BRANCH  16  23
HETATM   23  C   UNL     1     -12.245  13.230  67.390  1.00  0.00    -0.186 C  
HETATM   24  O   UNL     1     -11.962  11.841  67.271  1.00  0.00    -0.618 OA 
HETATM   25  H   UNL     1     -12.427  11.328  67.922  1.00  0.00     0.000 HD 
ENDBRANCH  16  23
ENDBRANCH   9  11
ENDBRANCH   7   9
ENDBRANCH   2   7
TORSDOF 5
ENDMDL
MODEL       73
REMARK 921   NORMALIZED FREE ENERGY PREDICTED BY IDOCK:   -4.60 KCAL/MOL
REMARK 922        TOTAL FREE ENERGY PREDICTED BY IDOCK:   -6.76 KCAL/MOL
REMARK 923 INTER-LIGAND FREE ENERGY PREDICTED BY IDOCK:   -5.49 KCAL/MOL
REMARK 924 INTRA-LIGAND FREE ENERGY PREDICTED BY IDOCK:   -1.27 KCAL/MOL
REMARK 927      BINDING AFFINITY PREDICTED BY RF-SCORE:    0.00 PKD
ROOT
HETATM    1  C   UNL     1     -11.034  10.432  67.542  1.00  0.00    -0.295 C  
HETATM    2  N   UNL     1     -11.581  11.753  67.805  1.00  0.00    -0.313 N  
ENDROOT
BRANCH   2   3
HETATM    3  N   UNL     1     -11.896  12.163  69.103  1.00  0.00    -0.312 NA 
HETATM    4  H   UNL     1     -12.845  12.410  69.385  1.00  0.00     0.000 HD 
HETATM    5  O   UNL     1     -10.942  12.204  69.882  1.00  0.00    -0.453 OA 
HETATM    6  H   UNL     1     -11.156  12.483  70.764  1.00  0.00     0.000 HD 
ENDBRANCH   2   3
BRANCH   2   7
HETATM    7  C   UNL     1     -11.647  12.667  66.754  1.00  0.00    -0.374 C  
HETATM    8  O   UNL     1     -11.991  12.352  65.613  1.00  0.00    -0.447 OA 
BRANCH   7   9
HETATM    9  N   UNL     1     -11.275  13.952  67.062  1.00  0.00    -0.304 N  
HETATM   10  H   UNL     1     -11.944  14.564  67.529  1.00  0.00     0.000 HD 
BRANCH   9  11
HETATM   11  C   UNL     1      -9.935  14.470  66.734  1.00  0.00    -0.264 C  
HETATM   12  C   UNL     1     -10.049  15.955  66.341  1.00  0.00    -0.292 C  
HETATM   13  O   UNL     1     -10.486  16.752  67.441  1.00  0.00    -0.308 OA 
HETATM   14  O   UNL     1     -11.031  16.068  65.310  1.00  0.00    -0.351 OA 
HETATM   15  H   UNL     1     -11.101  16.984  65.067  1.00  0.00     0.000 HD 
HETATM   16  C   UNL     1      -9.610  16.721  68.580  1.00  0.00    -0.255 C  
HETATM   17  C   UNL     1      -9.344  15.278  69.066  1.00  0.00    -0.231 C  
HETATM   18  H   UNL     1      -7.025  14.552  68.174  1.00  0.00     0.000 HD 
HETATM   19  C   UNL     1      -8.953  14.336  67.912  1.00  0.00    -0.186 C  
HETATM   20  O   UNL     1     -10.521  14.780  69.721  1.00  0.00    -0.401 OA 
HETATM   21  O   UNL     1      -7.632  14.635  67.447  1.00  0.00    -0.182 OA 
HETATM   22  H   UNL     1     -10.357  13.893  70.020  1.00  0.00     0.000 HD 
BRANCH  16  23
HETATM   23  C   UNL     1      -8.334  17.543  68.334  1.00  0.00    -0.278 C  
HETATM   24  O   UNL     1      -7.257  17.104  69.154  1.00  0.00    -0.246 OA 
HETATM   25  H   UNL     1      -6.468  17.613  69.002  1.00  0.00     0.000 HD 
ENDBRANCH  16  23
ENDBRANCH   9  11
ENDBRANCH   7   9
ENDBRANCH   2   7
TORSDOF 5
ENDMDL
MODEL       74
REMARK 921   NORMALIZED FREE ENERGY PREDICTED BY IDOCK:   -4.58 KCAL/MOL
REMARK 922        TOTAL FREE ENERGY PREDICTED BY IDOCK:   -6.74 KCAL/MOL
REMARK 923 INTER-LIGAND FREE ENERGY PREDICTED BY IDOCK:   -5.93 KCAL/MOL
REMARK 924 INTRA-LIGAND FREE ENERGY PREDICTED BY IDOCK:   -0.81 KCAL/MOL
REMARK 927      BINDING AFFINITY PREDICTED BY RF-SCORE:    0.00 PKD
ROOT
HETATM    1  C   UNL     1     -10.207  10.056  66.431  1.00  0.00    -0.221 C  
HETATM    2  N   UNL     1     -10.991  11.253  66.683  1.00  0.00    -0.287 N  
ENDROOT
BRANCH   2   3
HETATM    3  N   UNL     1     -11.322  12.136  65.651  1.00  0.00    -0.340 NA 
HETATM    4  H   UNL     1     -10.637  12.465  64.971  1.00  0.00     0.000 HD 
HETATM    5  O   UNL     1     -12.503  12.485  65.624  1.00  0.00    -0.648 OA 
HETATM    6  H   UNL     1     -12.728  13.085  64.922  1.00  0.00     0.000 HD 
ENDBRANCH   2   3
BRANCH   2   7
HETATM    7  C   UNL     1     -11.543  11.432  67.951  1.00  0.00    -0.266 C  
HETATM    8  O   UNL     1     -11.970  12.518  68.350  1.00  0.00    -0.322 OA 
BRANCH   7   9
HETATM    9  N   UNL     1     -11.557  10.318  68.754  1.00  0.00    -0.512 N  
HETATM   10  H   UNL     1     -12.097   9.503  68.462  1.00  0.00     0.000 HD 
BRANCH   9  11
HETATM   11  C   UNL     1     -10.814  10.269  70.024  1.00  0.00    -0.307 C  
HETATM   12  C   UNL     1     -11.812  10.145  71.191  1.00  0.00    -0.381 C  
HETATM   13  O   UNL     1     -12.521   8.907  71.138  1.00  0.00    -0.291 OA 
HETATM   14  O   UNL     1     -12.771  11.196  71.069  1.00  0.00    -0.368 OA 
HETATM   15  H   UNL     1     -13.387  11.120  71.788  1.00  0.00     0.000 HD 
HETATM   16  C   UNL     1     -11.684   7.741  71.221  1.00  0.00    -0.288 C  
HETATM   17  C   UNL     1     -10.578   7.745  70.141  1.00  0.00    -0.237 C  
HETATM   18  H   UNL     1      -8.376   8.515  71.260  1.00  0.00     0.000 HD 
HETATM   19  C   UNL     1      -9.828   9.088  70.079  1.00  0.00    -0.184 C  
HETATM   20  O   UNL     1     -11.171   7.461  68.864  1.00  0.00    -0.439 OA 
HETATM   21  O   UNL     1      -8.984   9.244  71.226  1.00  0.00    -0.285 OA 
HETATM   22  H   UNL     1     -10.491   7.463  68.201  1.00  0.00     0.000 HD 
BRANCH  16  23
HETATM   23  C   UNL     1     -11.162   7.521  72.650  1.00  0.00    -0.348 C  
HETATM   24  O   UNL     1     -10.610   6.220  72.816  1.00  0.00    -0.208 OA 
HETATM   25  H   UNL     1     -10.287   6.083  73.699  1.00  0.00     0.000 HD 
ENDBRANCH  16  23
ENDBRANCH   9  11
ENDBRANCH   7   9
ENDBRANCH   2   7
TORSDOF 5
ENDMDL
MODEL       75
REMARK 921   NORMALIZED FREE ENERGY PREDICTED BY IDOCK:   -4.57 KCAL/MOL
REMARK 922        TOTAL FREE ENERGY PREDICTED BY IDOCK:   -6.73 KCAL/MOL
REMARK 923 INTER-LIGAND FREE ENERGY PREDICTED BY IDOCK:   -5.89 KCAL/MOL
REMARK 924 INTRA-LIGAND FREE ENERGY PREDICTED BY IDOCK:   -0.84 KCAL/MOL
REMARK 927      BINDING AFFINITY PREDICTED BY RF-SCORE:    0.00 PKD
ROOT
HETATM    1  C   UNL     1     -10.234  19.818  68.799  1.00  0.00    -0.367 C  
HETATM    2  N   UNL     1      -9.170  19.765  67.810  1.00  0.00    -0.330 N  
ENDROOT
BRANCH   2   3
HETATM    3  N   UNL     1      -9.076  20.718  66.793  1.00  0.00    -0.603 NA 
HETATM    4  H   UNL     1      -9.416  21.673  66.903  1.00  0.00     0.000 HD 
HETATM    5  O   UNL     1      -8.550  20.318  65.752  1.00  0.00    -0.533 OA 
HETATM    6  H   UNL     1      -8.486  20.967  65.061  1.00  0.00     0.000 HD 
ENDBRANCH   2   3
BRANCH   2   7
HETATM    7  C   UNL     1      -8.150  18.829  67.980  1.00  0.00    -0.283 C  
HETATM    8  O   UNL     1      -6.971  19.146  68.148  1.00  0.00    -0.240 OA 
BRANCH   7   9
HETATM    9  N   UNL     1      -8.537  17.513  67.922  1.00  0.00    -0.233 N  
HETATM   10  H   UNL     1      -8.621  16.981  68.789  1.00  0.00     0.000 HD 
BRANCH   9  11
HETATM   11  C   UNL     1      -8.835  16.849  66.641  1.00  0.00    -0.246 C  
HETATM   12  C   UNL     1      -8.271  15.416  66.671  1.00  0.00    -0.164 C  
HETATM   13  O   UNL     1      -8.931  14.619  67.653  1.00  0.00    -0.176 OA 
HETATM   14  O   UNL     1      -6.890  15.489  67.030  1.00  0.00    -0.252 OA 
HETATM   15  H   UNL     1      -6.542  14.605  67.049  1.00  0.00     0.000 HD 
HETATM   16  C   UNL     1     -10.345  14.472  67.446  1.00  0.00    -0.252 C  
HETATM   17  C   UNL     1     -11.058  15.838  67.332  1.00  0.00    -0.235 C  
HETATM   18  H   UNL     1     -11.472  16.315  64.822  1.00  0.00     0.000 HD 
HETATM   19  C   UNL     1     -10.345  16.789  66.352  1.00  0.00    -0.306 C  
HETATM   20  O   UNL     1     -11.120  16.443  68.633  1.00  0.00    -0.338 OA 
HETATM   21  O   UNL     1     -10.539  16.352  65.001  1.00  0.00    -0.651 OA 
HETATM   22  H   UNL     1     -11.559  17.283  68.564  1.00  0.00     0.000 HD 
BRANCH  16  23
HETATM   23  C   UNL     1     -10.649  13.510  66.286  1.00  0.00    -0.288 C  
HETATM   24  O   UNL     1     -12.049  13.364  66.073  1.00  0.00    -0.396 OA 
HETATM   25  H   UNL     1     -12.237  12.770  65.356  1.00  0.00     0.000 HD 
ENDBRANCH  16  23
ENDBRANCH   9  11
ENDBRANCH   7   9
ENDBRANCH   2   7
TORSDOF 5
ENDMDL
MODEL       76
REMARK 921   NORMALIZED FREE ENERGY PREDICTED BY IDOCK:   -4.57 KCAL/MOL
REMARK 922        TOTAL FREE ENERGY PREDICTED BY IDOCK:   -6.73 KCAL/MOL
REMARK 923 INTER-LIGAND FREE ENERGY PREDICTED BY IDOCK:   -5.59 KCAL/MOL
REMARK 924 INTRA-LIGAND FREE ENERGY PREDICTED BY IDOCK:   -1.15 KCAL/MOL
REMARK 927      BINDING AFFINITY PREDICTED BY RF-SCORE:    0.00 PKD
ROOT
HETATM    1  C   UNL     1      -8.981   4.945  68.784  1.00  0.00    -0.104 C  
HETATM    2  N   UNL     1     -10.090   5.522  68.041  1.00  0.00    -0.164 N  
ENDROOT
BRANCH   2   3
HETATM    3  N   UNL     1     -10.479   5.008  66.802  1.00  0.00    -0.247 NA 
HETATM    4  H   UNL     1     -10.044   4.181  66.390  1.00  0.00     0.000 HD 
HETATM    5  O   UNL     1     -11.386   5.627  66.243  1.00  0.00    -0.734 OA 
HETATM    6  H   UNL     1     -11.650   5.278  65.400  1.00  0.00     0.000 HD 
ENDBRANCH   2   3
BRANCH   2   7
HETATM    7  C   UNL     1     -10.863   6.506  68.657  1.00  0.00    -0.295 C  
HETATM    8  O   UNL     1     -11.542   6.293  69.664  1.00  0.00    -0.430 OA 
BRANCH   7   9
HETATM    9  N   UNL     1     -10.845   7.739  68.053  1.00  0.00    -0.458 N  
HETATM   10  H   UNL     1     -11.713   8.120  67.676  1.00  0.00     0.000 HD 
BRANCH   9  11
HETATM   11  C   UNL     1      -9.605   8.524  67.933  1.00  0.00    -0.152 C  
HETATM   12  C   UNL     1      -9.376   8.888  66.454  1.00  0.00    -0.204 C  
HETATM   13  O   UNL     1     -10.401   9.753  65.968  1.00  0.00    -0.221 OA 
HETATM   14  O   UNL     1      -9.428   7.684  65.687  1.00  0.00    -0.392 OA 
HETATM   15  H   UNL     1      -9.288   7.908  64.775  1.00  0.00     0.000 HD 
HETATM   16  C   UNL     1     -10.497  11.008  66.662  1.00  0.00    -0.256 C  
HETATM   17  C   UNL     1     -10.670  10.814  68.186  1.00  0.00    -0.214 C  
HETATM   18  H   UNL     1      -8.368  11.196  69.304  1.00  0.00     0.000 HD 
HETATM   19  C   UNL     1      -9.650   9.817  68.767  1.00  0.00    -0.154 C  
HETATM   20  O   UNL     1     -12.004  10.351  68.449  1.00  0.00    -0.759 OA 
HETATM   21  O   UNL     1      -8.340  10.398  68.790  1.00  0.00    -0.117 OA 
HETATM   22  H   UNL     1     -12.110  10.232  69.386  1.00  0.00     0.000 HD 
BRANCH  16  23
HETATM   23  C   UNL     1      -9.347  11.955  66.280  1.00  0.00    -0.227 C  
HETATM   24  O   UNL     1      -9.535  12.517  64.986  1.00  0.00    -0.457 OA 
HETATM   25  H   UNL     1      -8.825  13.102  64.749  1.00  0.00     0.000 HD 
ENDBRANCH  16  23
ENDBRANCH   9  11
ENDBRANCH   7   9
ENDBRANCH   2   7
TORSDOF 5
ENDMDL
MODEL       77
REMARK 921   NORMALIZED FREE ENERGY PREDICTED BY IDOCK:   -4.56 KCAL/MOL
REMARK 922        TOTAL FREE ENERGY PREDICTED BY IDOCK:   -6.71 KCAL/MOL
REMARK 923 INTER-LIGAND FREE ENERGY PREDICTED BY IDOCK:   -6.00 KCAL/MOL
REMARK 924 INTRA-LIGAND FREE ENERGY PREDICTED BY IDOCK:   -0.72 KCAL/MOL
REMARK 927      BINDING AFFINITY PREDICTED BY RF-SCORE:    0.00 PKD
ROOT
HETATM    1  C   UNL     1     -10.324  11.779  63.207  1.00  0.00    -0.402 C  
HETATM    2  N   UNL     1     -11.001  12.636  64.166  1.00  0.00    -0.358 N  
ENDROOT
BRANCH   2   3
HETATM    3  N   UNL     1     -11.481  13.897  63.802  1.00  0.00    -0.562 NA 
HETATM    4  H   UNL     1     -11.023  14.762  64.090  1.00  0.00     0.000 HD 
HETATM    5  O   UNL     1     -12.498  13.885  63.106  1.00  0.00    -1.121 OA 
HETATM    6  H   UNL     1     -12.824  14.743  62.859  1.00  0.00     0.000 HD 
ENDBRANCH   2   3
BRANCH   2   7
HETATM    7  C   UNL     1     -11.300  12.118  65.426  1.00  0.00    -0.338 C  
HETATM    8  O   UNL     1     -12.342  12.381  66.029  1.00  0.00    -0.627 OA 
BRANCH   7   9
HETATM    9  N   UNL     1     -10.339  11.305  65.976  1.00  0.00    -0.245 N  
HETATM   10  H   UNL     1      -9.424  11.246  65.529  1.00  0.00     0.000 HD 
BRANCH   9  11
HETATM   11  C   UNL     1     -10.596  10.518  67.194  1.00  0.00    -0.264 C  
HETATM   12  C   UNL     1      -9.809   9.197  67.118  1.00  0.00    -0.195 C  
HETATM   13  O   UNL     1      -8.401   9.429  67.127  1.00  0.00    -0.122 OA 
HETATM   14  O   UNL     1     -10.132   8.557  65.882  1.00  0.00    -0.445 OA 
HETATM   15  H   UNL     1      -9.646   7.742  65.834  1.00  0.00     0.000 HD 
HETATM   16  C   UNL     1      -7.918  10.098  68.305  1.00  0.00    -0.101 C  
HETATM   17  C   UNL     1      -8.659  11.430  68.559  1.00  0.00    -0.150 C  
HETATM   18  H   UNL     1     -10.431  11.017  70.399  1.00  0.00     0.000 HD 
HETATM   19  C   UNL     1     -10.189  11.272  68.473  1.00  0.00    -0.205 C  
HETATM   20  O   UNL     1      -8.219  12.401  67.597  1.00  0.00    -0.146 OA 
HETATM   21  O   UNL     1     -10.683  10.552  69.609  1.00  0.00    -0.237 OA 
HETATM   22  H   UNL     1      -8.674  13.220  67.753  1.00  0.00     0.000 HD 
BRANCH  16  23
HETATM   23  C   UNL     1      -7.893   9.155  69.519  1.00  0.00    -0.082 C  
HETATM   24  O   UNL     1      -7.948   9.873  70.746  1.00  0.00    -0.395 OA 
HETATM   25  H   UNL     1      -7.933   9.291  71.497  1.00  0.00     0.000 HD 
ENDBRANCH  16  23
ENDBRANCH   9  11
ENDBRANCH   7   9
ENDBRANCH   2   7
TORSDOF 5
ENDMDL
MODEL       78
REMARK 921   NORMALIZED FREE ENERGY PREDICTED BY IDOCK:   -4.56 KCAL/MOL
REMARK 922        TOTAL FREE ENERGY PREDICTED BY IDOCK:   -6.71 KCAL/MOL
REMARK 923 INTER-LIGAND FREE ENERGY PREDICTED BY IDOCK:   -5.56 KCAL/MOL
REMARK 924 INTRA-LIGAND FREE ENERGY PREDICTED BY IDOCK:   -1.16 KCAL/MOL
REMARK 927      BINDING AFFINITY PREDICTED BY RF-SCORE:    0.00 PKD
ROOT
HETATM    1  C   UNL     1      -8.448   8.788  71.075  1.00  0.00    -0.179 C  
HETATM    2  N   UNL     1      -9.165   9.692  70.191  1.00  0.00    -0.241 N  
ENDROOT
BRANCH   2   3
HETATM    3  N   UNL     1     -10.518   9.980  70.388  1.00  0.00    -0.362 NA 
HETATM    4  H   UNL     1     -10.834  10.794  70.916  1.00  0.00     0.000 HD 
HETATM    5  O   UNL     1     -11.301   9.178  69.877  1.00  0.00    -0.406 OA 
HETATM    6  H   UNL     1     -12.221   9.374  70.011  1.00  0.00     0.000 HD 
ENDBRANCH   2   3
BRANCH   2   7
HETATM    7  C   UNL     1      -8.442  10.390  69.225  1.00  0.00    -0.154 C  
HETATM    8  O   UNL     1      -7.260  10.708  69.372  1.00  0.00    -0.099 OA 
BRANCH   7   9
HETATM    9  N   UNL     1      -9.140  10.734  68.093  1.00  0.00    -0.146 N  
HETATM   10  H   UNL     1      -9.612  10.003  67.561  1.00  0.00     0.000 HD 
BRANCH   9  11
HETATM   11  C   UNL     1      -9.226  12.129  67.630  1.00  0.00    -0.181 C  
HETATM   12  C   UNL     1      -9.181  12.154  66.090  1.00  0.00    -0.155 C  
HETATM   13  O   UNL     1     -10.326  11.515  65.527  1.00  0.00    -0.253 OA 
HETATM   14  O   UNL     1      -8.028  11.425  65.667  1.00  0.00    -0.366 OA 
HETATM   15  H   UNL     1      -8.000  11.441  64.717  1.00  0.00     0.000 HD 
HETATM   16  C   UNL     1     -11.580  12.120  65.886  1.00  0.00    -0.364 C  
HETATM   17  C   UNL     1     -11.754  12.224  67.418  1.00  0.00    -0.335 C  
HETATM   18  H   UNL     1     -11.208  14.655  68.117  1.00  0.00     0.000 HD 
HETATM   19  C   UNL     1     -10.514  12.825  68.107  1.00  0.00    -0.236 C  
HETATM   20  O   UNL     1     -12.016  10.916  67.949  1.00  0.00    -0.735 OA 
HETATM   21  O   UNL     1     -10.413  14.226  67.823  1.00  0.00    -0.242 OA 
HETATM   22  H   UNL     1     -12.124  10.981  68.891  1.00  0.00     0.000 HD 
BRANCH  16  23
HETATM   23  C   UNL     1     -11.802  13.445  65.139  1.00  0.00    -0.350 C  
HETATM   24  O   UNL     1     -13.115  13.953  65.345  1.00  0.00    -0.752 OA 
HETATM   25  H   UNL     1     -13.253  14.772  64.884  1.00  0.00     0.000 HD 
ENDBRANCH  16  23
ENDBRANCH   9  11
ENDBRANCH   7   9
ENDBRANCH   2   7
TORSDOF 5
ENDMDL
MODEL       79
REMARK 921   NORMALIZED FREE ENERGY PREDICTED BY IDOCK:   -4.56 KCAL/MOL
REMARK 922        TOTAL FREE ENERGY PREDICTED BY IDOCK:   -6.71 KCAL/MOL
REMARK 923 INTER-LIGAND FREE ENERGY PREDICTED BY IDOCK:   -5.77 KCAL/MOL
REMARK 924 INTRA-LIGAND FREE ENERGY PREDICTED BY IDOCK:   -0.94 KCAL/MOL
REMARK 927      BINDING AFFINITY PREDICTED BY RF-SCORE:    0.00 PKD
ROOT
HETATM    1  C   UNL     1     -10.339   8.818  72.077  1.00  0.00    -0.340 C  
HETATM    2  N   UNL     1     -10.453   9.115  70.659  1.00  0.00    -0.225 N  
ENDROOT
BRANCH   2   3
HETATM    3  N   UNL     1     -11.491   8.588  69.887  1.00  0.00    -0.448 NA 
HETATM    4  H   UNL     1     -12.388   9.062  69.779  1.00  0.00     0.000 HD 
HETATM    5  O   UNL     1     -11.243   7.509  69.347  1.00  0.00    -0.446 OA 
HETATM    6  H   UNL     1     -11.949   7.151  68.822  1.00  0.00     0.000 HD 
ENDBRANCH   2   3
BRANCH   2   7
HETATM    7  C   UNL     1      -9.591  10.062  70.107  1.00  0.00    -0.097 C  
HETATM    8  O   UNL     1      -8.364   9.948  70.133  1.00  0.00    -0.192 OA 
BRANCH   7   9
HETATM    9  N   UNL     1     -10.197  11.160  69.547  1.00  0.00    -0.438 N  
HETATM   10  H   UNL     1     -10.888  11.677  70.091  1.00  0.00     0.000 HD 
BRANCH   9  11
HETATM   11  C   UNL     1      -9.874  11.611  68.182  1.00  0.00    -0.191 C  
HETATM   12  C   UNL     1     -11.075  11.332  67.260  1.00  0.00    -0.305 C  
HETATM   13  O   UNL     1     -12.212  12.108  67.638  1.00  0.00    -0.462 OA 
HETATM   14  O   UNL     1     -11.429   9.955  67.395  1.00  0.00    -0.387 OA 
HETATM   15  H   UNL     1     -12.171   9.782  66.827  1.00  0.00     0.000 HD 
HETATM   16  C   UNL     1     -12.005  13.529  67.582  1.00  0.00    -0.336 C  
HETATM   17  C   UNL     1     -10.783  13.969  68.419  1.00  0.00    -0.251 C  
HETATM   18  H   UNL     1      -8.801  14.345  66.797  1.00  0.00     0.000 HD 
HETATM   19  C   UNL     1      -9.536  13.112  68.127  1.00  0.00    -0.227 C  
HETATM   20  O   UNL     1     -11.115  13.883  69.813  1.00  0.00    -0.436 OA 
HETATM   21  O   UNL     1      -9.009  13.419  66.831  1.00  0.00    -0.229 OA 
HETATM   22  H   UNL     1     -10.363  14.154  70.328  1.00  0.00     0.000 HD 
BRANCH  16  23
HETATM   23  C   UNL     1     -11.987  14.040  66.132  1.00  0.00    -0.420 C  
HETATM   24  O   UNL     1     -11.051  15.097  65.956  1.00  0.00    -0.338 OA 
HETATM   25  H   UNL     1     -11.039  15.414  65.060  1.00  0.00     0.000 HD 
ENDBRANCH  16  23
ENDBRANCH   9  11
ENDBRANCH   7   9
ENDBRANCH   2   7
TORSDOF 5
ENDMDL
MODEL       80
REMARK 921   NORMALIZED FREE ENERGY PREDICTED BY IDOCK:   -4.55 KCAL/MOL
REMARK 922        TOTAL FREE ENERGY PREDICTED BY IDOCK:   -6.71 KCAL/MOL
REMARK 923 INTER-LIGAND FREE ENERGY PREDICTED BY IDOCK:   -6.33 KCAL/MOL
REMARK 924 INTRA-LIGAND FREE ENERGY PREDICTED BY IDOCK:   -0.38 KCAL/MOL
REMARK 927      BINDING AFFINITY PREDICTED BY RF-SCORE:    0.00 PKD
ROOT
HETATM    1  C   UNL     1      -8.295  10.542  66.014  1.00  0.00    -0.158 C  
HETATM    2  N   UNL     1      -9.201  10.337  64.895  1.00  0.00    -0.205 N  
ENDROOT
BRANCH   2   3
HETATM    3  N   UNL     1      -9.384   9.072  64.331  1.00  0.00    -0.321 NA 
HETATM    4  H   UNL     1      -9.995   8.370  64.748  1.00  0.00     0.000 HD 
HETATM    5  O   UNL     1      -8.753   8.869  63.292  1.00  0.00    -0.385 OA 
HETATM    6  H   UNL     1      -8.878   8.009  62.909  1.00  0.00     0.000 HD 
ENDBRANCH   2   3
BRANCH   2   7
HETATM    7  C   UNL     1     -10.005  11.402  64.487  1.00  0.00    -0.271 C  
HETATM    8  O   UNL     1     -10.895  11.284  63.644  1.00  0.00    -0.381 OA 
BRANCH   7   9
HETATM    9  N   UNL     1      -9.724  12.613  65.070  1.00  0.00    -0.486 N  
HETATM   10  H   UNL     1      -8.834  12.738  65.552  1.00  0.00     0.000 HD 
BRANCH   9  11
HETATM   11  C   UNL     1     -10.675  13.737  65.015  1.00  0.00    -0.382 C  
HETATM   12  C   UNL     1     -11.665  13.620  66.188  1.00  0.00    -0.364 C  
HETATM   13  O   UNL     1     -11.002  13.768  67.444  1.00  0.00    -0.276 OA 
HETATM   14  O   UNL     1     -12.241  12.314  66.157  1.00  0.00    -0.647 OA 
HETATM   15  H   UNL     1     -12.851  12.241  66.881  1.00  0.00     0.000 HD 
HETATM   16  C   UNL     1     -10.342  15.033  67.620  1.00  0.00    -0.243 C  
HETATM   17  C   UNL     1      -9.346  15.331  66.477  1.00  0.00    -0.281 C  
HETATM   18  H   UNL     1     -10.486  16.974  64.835  1.00  0.00     0.000 HD 
HETATM   19  C   UNL     1      -9.969  15.103  65.086  1.00  0.00    -0.231 C  
HETATM   20  O   UNL     1      -8.191  14.492  66.633  1.00  0.00    -0.383 OA 
HETATM   21  O   UNL     1     -10.922  16.131  64.791  1.00  0.00    -0.594 OA 
HETATM   22  H   UNL     1      -7.578  14.675  65.930  1.00  0.00     0.000 HD 
BRANCH  16  23
HETATM   23  C   UNL     1     -11.350  16.164  67.882  1.00  0.00    -0.182 C  
HETATM   24  O   UNL     1     -12.358  15.770  68.805  1.00  0.00    -0.537 OA 
HETATM   25  H   UNL     1     -12.981  16.469  68.967  1.00  0.00     0.000 HD 
ENDBRANCH  16  23
ENDBRANCH   9  11
ENDBRANCH   7   9
ENDBRANCH   2   7
TORSDOF 5
ENDMDL
MODEL       81
REMARK 921   NORMALIZED FREE ENERGY PREDICTED BY IDOCK:   -4.55 KCAL/MOL
REMARK 922        TOTAL FREE ENERGY PREDICTED BY IDOCK:   -6.70 KCAL/MOL
REMARK 923 INTER-LIGAND FREE ENERGY PREDICTED BY IDOCK:   -6.06 KCAL/MOL
REMARK 924 INTRA-LIGAND FREE ENERGY PREDICTED BY IDOCK:   -0.63 KCAL/MOL
REMARK 927      BINDING AFFINITY PREDICTED BY RF-SCORE:    0.00 PKD
ROOT
HETATM    1  C   UNL     1     -10.044  19.027  66.263  1.00  0.00    -0.422 C  
HETATM    2  N   UNL     1      -9.195  18.059  66.937  1.00  0.00    -0.262 N  
ENDROOT
BRANCH   2   3
HETATM    3  N   UNL     1      -7.814  18.031  66.723  1.00  0.00    -0.225 NA 
HETATM    4  H   UNL     1      -7.140  18.143  67.480  1.00  0.00     0.000 HD 
HETATM    5  O   UNL     1      -7.473  17.859  65.551  1.00  0.00    -0.524 OA 
HETATM    6  H   UNL     1      -6.535  17.840  65.405  1.00  0.00     0.000 HD 
ENDBRANCH   2   3
BRANCH   2   7
HETATM    7  C   UNL     1      -9.760  17.252  67.925  1.00  0.00    -0.273 C  
HETATM    8  O   UNL     1     -10.473  17.696  68.827  1.00  0.00    -0.351 OA 
BRANCH   7   9
HETATM    9  N   UNL     1      -9.449  15.917  67.848  1.00  0.00    -0.212 N  
HETATM   10  H   UNL     1      -8.732  15.538  68.467  1.00  0.00     0.000 HD 
BRANCH   9  11
HETATM   11  C   UNL     1     -10.124  15.018  66.896  1.00  0.00    -0.249 C  
HETATM   12  C   UNL     1      -9.493  13.616  66.990  1.00  0.00    -0.252 C  
HETATM   13  O   UNL     1      -9.724  13.027  68.269  1.00  0.00    -0.222 OA 
HETATM   14  O   UNL     1      -8.081  13.752  66.826  1.00  0.00    -0.387 OA 
HETATM   15  H   UNL     1      -7.691  12.887  66.884  1.00  0.00     0.000 HD 
HETATM   16  C   UNL     1     -11.111  12.848  68.598  1.00  0.00    -0.269 C  
HETATM   17  C   UNL     1     -11.906  14.169  68.492  1.00  0.00    -0.355 C  
HETATM   18  H   UNL     1     -13.184  14.150  66.242  1.00  0.00     0.000 HD 
HETATM   19  C   UNL     1     -11.635  14.908  67.168  1.00  0.00    -0.315 C  
HETATM   20  O   UNL     1     -11.558  15.015  69.599  1.00  0.00    -0.267 OA 
HETATM   21  O   UNL     1     -12.251  14.218  66.074  1.00  0.00    -0.421 OA 
HETATM   22  H   UNL     1     -12.047  15.827  69.533  1.00  0.00     0.000 HD 
BRANCH  16  23
HETATM   23  C   UNL     1     -11.732  11.680  67.815  1.00  0.00    -0.245 C  
HETATM   24  O   UNL     1     -12.266  10.686  68.682  1.00  0.00    -0.814 OA 
HETATM   25  H   UNL     1     -12.650   9.964  68.198  1.00  0.00     0.000 HD 
ENDBRANCH  16  23
ENDBRANCH   9  11
ENDBRANCH   7   9
ENDBRANCH   2   7
TORSDOF 5
ENDMDL
MODEL       82
REMARK 921   NORMALIZED FREE ENERGY PREDICTED BY IDOCK:   -4.52 KCAL/MOL
REMARK 922        TOTAL FREE ENERGY PREDICTED BY IDOCK:   -6.67 KCAL/MOL
REMARK 923 INTER-LIGAND FREE ENERGY PREDICTED BY IDOCK:   -5.66 KCAL/MOL
REMARK 924 INTRA-LIGAND FREE ENERGY PREDICTED BY IDOCK:   -1.01 KCAL/MOL
REMARK 927      BINDING AFFINITY PREDICTED BY RF-SCORE:    0.00 PKD
ROOT
HETATM    1  C   UNL     1     -11.192   7.694  72.922  1.00  0.00    -0.372 C  
HETATM    2  N   UNL     1     -11.260   8.133  71.538  1.00  0.00    -0.251 N  
ENDROOT
BRANCH   2   3
HETATM    3  N   UNL     1     -12.358   7.823  70.731  1.00  0.00    -0.517 NA 
HETATM    4  H   UNL     1     -13.212   8.382  70.729  1.00  0.00     0.000 HD 
HETATM    5  O   UNL     1     -12.218   6.825  70.022  1.00  0.00    -0.641 OA 
HETATM    6  H   UNL     1     -12.964   6.615  69.474  1.00  0.00     0.000 HD 
ENDBRANCH   2   3
BRANCH   2   7
HETATM    7  C   UNL     1     -10.278   9.004  71.067  1.00  0.00    -0.277 C  
HETATM    8  O   UNL     1      -9.168   9.109  71.592  1.00  0.00    -0.320 OA 
BRANCH   7   9
HETATM    9  N   UNL     1     -10.634   9.770  69.984  1.00  0.00    -0.255 N  
HETATM   10  H   UNL     1     -11.534  10.250  69.991  1.00  0.00     0.000 HD 
BRANCH   9  11
HETATM   11  C   UNL     1      -9.751   9.917  68.815  1.00  0.00    -0.160 C  
HETATM   12  C   UNL     1     -10.546   9.594  67.536  1.00  0.00    -0.277 C  
HETATM   13  O   UNL     1     -11.590  10.543  67.321  1.00  0.00    -0.327 OA 
HETATM   14  O   UNL     1     -11.155   8.313  67.702  1.00  0.00    -0.483 OA 
HETATM   15  H   UNL     1     -11.646   8.114  66.913  1.00  0.00     0.000 HD 
HETATM   16  C   UNL     1     -11.137  11.898  67.163  1.00  0.00    -0.293 C  
HETATM   17  C   UNL     1     -10.263  12.359  68.351  1.00  0.00    -0.225 C  
HETATM   18  H   UNL     1      -7.785  12.209  67.621  1.00  0.00     0.000 HD 
HETATM   19  C   UNL     1      -9.165  11.336  68.699  1.00  0.00    -0.161 C  
HETATM   20  O   UNL     1     -11.104  12.574  69.494  1.00  0.00    -0.447 OA 
HETATM   21  O   UNL     1      -8.146  11.333  67.693  1.00  0.00    -0.113 OA 
HETATM   22  H   UNL     1     -10.567  12.858  70.225  1.00  0.00     0.000 HD 
BRANCH  16  23
HETATM   23  C   UNL     1     -10.488  12.119  65.786  1.00  0.00    -0.253 C  
HETATM   24  O   UNL     1     -10.177  13.489  65.563  1.00  0.00    -0.291 OA 
HETATM   25  H   UNL     1      -9.776  13.626  64.713  1.00  0.00     0.000 HD 
ENDBRANCH  16  23
ENDBRANCH   9  11
ENDBRANCH   7   9
ENDBRANCH   2   7
TORSDOF 5
ENDMDL
MODEL       83
REMARK 921   NORMALIZED FREE ENERGY PREDICTED BY IDOCK:   -4.50 KCAL/MOL
REMARK 922        TOTAL FREE ENERGY PREDICTED BY IDOCK:   -6.64 KCAL/MOL
REMARK 923 INTER-LIGAND FREE ENERGY PREDICTED BY IDOCK:   -6.21 KCAL/MOL
REMARK 924 INTRA-LIGAND FREE ENERGY PREDICTED BY IDOCK:   -0.43 KCAL/MOL
REMARK 927      BINDING AFFINITY PREDICTED BY RF-SCORE:    0.00 PKD
ROOT
HETATM    1  C   UNL     1      -8.076  16.830  68.795  1.00  0.00    -0.252 C  
HETATM    2  N   UNL     1      -9.508  16.804  69.039  1.00  0.00    -0.247 N  
ENDROOT
BRANCH   2   3
HETATM    3  N   UNL     1     -10.320  17.893  68.714  1.00  0.00    -0.359 NA 
HETATM    4  H   UNL     1     -10.528  18.639  69.378  1.00  0.00     0.000 HD 
HETATM    5  O   UNL     1     -10.766  17.886  67.565  1.00  0.00    -0.389 OA 
HETATM    6  H   UNL     1     -11.318  18.627  67.344  1.00  0.00     0.000 HD 
ENDBRANCH   2   3
BRANCH   2   7
HETATM    7  C   UNL     1     -10.089  15.609  69.465  1.00  0.00    -0.277 C  
HETATM    8  O   UNL     1     -10.682  15.499  70.539  1.00  0.00    -0.320 OA 
BRANCH   7   9
HETATM    9  N   UNL     1      -9.935  14.540  68.617  1.00  0.00    -0.233 N  
HETATM   10  H   UNL     1      -9.040  14.404  68.147  1.00  0.00     0.000 HD 
BRANCH   9  11
HETATM   11  C   UNL     1     -11.029  13.585  68.370  1.00  0.00    -0.266 C  
HETATM   12  C   UNL     1     -12.135  14.282  67.557  1.00  0.00    -0.312 C  
HETATM   13  O   UNL     1     -11.673  14.648  66.257  1.00  0.00    -0.370 OA 
HETATM   14  O   UNL     1     -12.498  15.484  68.239  1.00  0.00    -0.291 OA 
HETATM   15  H   UNL     1     -13.181  15.914  67.738  1.00  0.00     0.000 HD 
HETATM   16  C   UNL     1     -11.241  13.541  65.449  1.00  0.00    -0.289 C  
HETATM   17  C   UNL     1     -10.159  12.694  66.157  1.00  0.00    -0.257 C  
HETATM   18  H   UNL     1     -11.309  10.593  67.137  1.00  0.00     0.000 HD 
HETATM   19  C   UNL     1     -10.552  12.337  67.603  1.00  0.00    -0.215 C  
HETATM   20  O   UNL     1      -8.921  13.422  66.158  1.00  0.00    -0.455 OA 
HETATM   21  O   UNL     1     -11.603  11.363  67.611  1.00  0.00    -0.474 OA 
HETATM   22  H   UNL     1      -8.256  12.901  66.593  1.00  0.00     0.000 HD 
BRANCH  16  23
HETATM   23  C   UNL     1     -12.433  12.722  64.927  1.00  0.00    -0.497 C  
HETATM   24  O   UNL     1     -12.720  13.017  63.565  1.00  0.00    -0.708 OA 
HETATM   25  H   UNL     1     -13.457  12.512  63.242  1.00  0.00     0.000 HD 
ENDBRANCH  16  23
ENDBRANCH   9  11
ENDBRANCH   7   9
ENDBRANCH   2   7
TORSDOF 5
ENDMDL
MODEL       84
REMARK 921   NORMALIZED FREE ENERGY PREDICTED BY IDOCK:   -4.49 KCAL/MOL
REMARK 922        TOTAL FREE ENERGY PREDICTED BY IDOCK:   -6.62 KCAL/MOL
REMARK 923 INTER-LIGAND FREE ENERGY PREDICTED BY IDOCK:   -6.10 KCAL/MOL
REMARK 924 INTRA-LIGAND FREE ENERGY PREDICTED BY IDOCK:   -0.52 KCAL/MOL
REMARK 927      BINDING AFFINITY PREDICTED BY RF-SCORE:    0.00 PKD
ROOT
HETATM    1  C   UNL     1     -11.330   9.226  70.989  1.00  0.00    -0.320 C  
HETATM    2  N   UNL     1     -10.664  10.109  70.046  1.00  0.00    -0.288 N  
ENDROOT
BRANCH   2   3
HETATM    3  N   UNL     1      -9.378   9.832  69.576  1.00  0.00    -0.199 NA 
HETATM    4  H   UNL     1      -9.209   9.376  68.679  1.00  0.00     0.000 HD 
HETATM    5  O   UNL     1      -8.463  10.179  70.325  1.00  0.00    -0.335 OA 
HETATM    6  H   UNL     1      -7.589   9.990  70.005  1.00  0.00     0.000 HD 
ENDBRANCH   2   3
BRANCH   2   7
HETATM    7  C   UNL     1     -11.390  11.166  69.497  1.00  0.00    -0.290 C  
HETATM    8  O   UNL     1     -12.530  11.458  69.864  1.00  0.00    -0.221 OA 
BRANCH   7   9
HETATM    9  N   UNL     1     -10.763  11.855  68.488  1.00  0.00    -0.216 N  
HETATM   10  H   UNL     1     -10.347  11.335  67.715  1.00  0.00     0.000 HD 
BRANCH   9  11
HETATM   11  C   UNL     1     -10.675  13.325  68.494  1.00  0.00    -0.262 C  
HETATM   12  C   UNL     1      -9.420  13.760  67.714  1.00  0.00    -0.216 C  
HETATM   13  O   UNL     1      -9.518  13.409  66.334  1.00  0.00    -0.262 OA 
HETATM   14  O   UNL     1      -8.296  13.065  68.257  1.00  0.00    -0.159 OA 
HETATM   15  H   UNL     1      -7.522  13.333  67.776  1.00  0.00     0.000 HD 
HETATM   16  C   UNL     1     -10.627  14.012  65.647  1.00  0.00    -0.307 C  
HETATM   17  C   UNL     1     -11.972  13.716  66.348  1.00  0.00    -0.426 C  
HETATM   18  H   UNL     1     -12.628  15.805  67.727  1.00  0.00     0.000 HD 
HETATM   19  C   UNL     1     -11.913  13.987  67.863  1.00  0.00    -0.351 C  
HETATM   20  O   UNL     1     -12.329  12.344  66.115  1.00  0.00    -0.606 OA 
HETATM   21  O   UNL     1     -11.863  15.396  68.117  1.00  0.00    -0.320 OA 
HETATM   22  H   UNL     1     -13.156  12.162  66.546  1.00  0.00     0.000 HD 
BRANCH  16  23
HETATM   23  C   UNL     1     -10.379  15.504  65.374  1.00  0.00    -0.394 C  
HETATM   24  O   UNL     1     -11.143  15.973  64.268  1.00  0.00    -0.932 OA 
HETATM   25  H   UNL     1     -10.990  16.895  64.099  1.00  0.00     0.000 HD 
ENDBRANCH  16  23
ENDBRANCH   9  11
ENDBRANCH   7   9
ENDBRANCH   2   7
TORSDOF 5
ENDMDL
MODEL       85
REMARK 921   NORMALIZED FREE ENERGY PREDICTED BY IDOCK:   -4.48 KCAL/MOL
REMARK 922        TOTAL FREE ENERGY PREDICTED BY IDOCK:   -6.61 KCAL/MOL
REMARK 923 INTER-LIGAND FREE ENERGY PREDICTED BY IDOCK:   -5.74 KCAL/MOL
REMARK 924 INTRA-LIGAND FREE ENERGY PREDICTED BY IDOCK:   -0.86 KCAL/MOL
REMARK 927      BINDING AFFINITY PREDICTED BY RF-SCORE:    0.00 PKD
ROOT
HETATM    1  C   UNL     1     -13.048  11.830  71.624  1.00  0.00    -0.338 C  
HETATM    2  N   UNL     1     -12.088  11.953  70.539  1.00  0.00    -0.372 N  
ENDROOT
BRANCH   2   3
HETATM    3  N   UNL     1     -11.681  13.204  70.067  1.00  0.00    -0.502 NA 
HETATM    4  H   UNL     1     -11.061  13.814  70.599  1.00  0.00     0.000 HD 
HETATM    5  O   UNL     1     -12.128  13.513  68.961  1.00  0.00    -0.341 OA 
HETATM    6  H   UNL     1     -11.851  14.363  68.641  1.00  0.00     0.000 HD 
ENDBRANCH   2   3
BRANCH   2   7
HETATM    7  C   UNL     1     -11.459  10.798  70.074  1.00  0.00    -0.331 C  
HETATM    8  O   UNL     1     -11.323  10.545  68.875  1.00  0.00    -0.251 OA 
BRANCH   7   9
HETATM    9  N   UNL     1     -11.017   9.932  71.044  1.00  0.00    -0.333 N  
HETATM   10  H   UNL     1     -10.965  10.255  72.011  1.00  0.00     0.000 HD 
BRANCH   9  11
HETATM   11  C   UNL     1     -10.618   8.551  70.725  1.00  0.00    -0.206 C  
HETATM   12  C   UNL     1      -9.422   8.153  71.609  1.00  0.00    -0.177 C  
HETATM   13  O   UNL     1      -9.786   8.115  72.989  1.00  0.00    -0.280 OA 
HETATM   14  O   UNL     1      -8.407   9.146  71.459  1.00  0.00    -0.336 OA 
HETATM   15  H   UNL     1      -7.669   8.901  72.004  1.00  0.00     0.000 HD 
HETATM   16  C   UNL     1     -10.827   7.174  73.302  1.00  0.00    -0.338 C  
HETATM   17  C   UNL     1     -12.092   7.404  72.444  1.00  0.00    -0.149 C  
HETATM   18  H   UNL     1     -12.086   5.660  70.532  1.00  0.00     0.000 HD 
HETATM   19  C   UNL     1     -11.763   7.546  70.946  1.00  0.00    -0.283 C  
HETATM   20  O   UNL     1     -12.762   8.587  72.907  1.00  0.00    -0.645 OA 
HETATM   21  O   UNL     1     -11.379   6.280  70.396  1.00  0.00    -0.345 OA 
HETATM   22  H   UNL     1     -13.540   8.728  72.380  1.00  0.00     0.000 HD 
BRANCH  16  23
HETATM   23  C   UNL     1     -10.307   5.727  73.274  1.00  0.00    -0.214 C  
HETATM   24  O   UNL     1     -11.364   4.790  73.101  1.00  0.00    -0.303 OA 
HETATM   25  H   UNL     1     -11.043   3.895  73.084  1.00  0.00     0.000 HD 
ENDBRANCH  16  23
ENDBRANCH   9  11
ENDBRANCH   7   9
ENDBRANCH   2   7
TORSDOF 5
ENDMDL
MODEL       86
REMARK 921   NORMALIZED FREE ENERGY PREDICTED BY IDOCK:   -4.47 KCAL/MOL
REMARK 922        TOTAL FREE ENERGY PREDICTED BY IDOCK:   -6.59 KCAL/MOL
REMARK 923 INTER-LIGAND FREE ENERGY PREDICTED BY IDOCK:   -5.53 KCAL/MOL
REMARK 924 INTRA-LIGAND FREE ENERGY PREDICTED BY IDOCK:   -1.06 KCAL/MOL
REMARK 927      BINDING AFFINITY PREDICTED BY RF-SCORE:    0.00 PKD
ROOT
HETATM    1  C   UNL     1     -12.272   7.142  71.584  1.00  0.00    -0.350 C  
HETATM    2  N   UNL     1     -12.103   8.584  71.522  1.00  0.00    -0.292 N  
ENDROOT
BRANCH   2   3
HETATM    3  N   UNL     1     -13.194   9.449  71.636  1.00  0.00    -0.375 NA 
HETATM    4  H   UNL     1     -13.391   9.974  72.489  1.00  0.00     0.000 HD 
HETATM    5  O   UNL     1     -13.902   9.530  70.630  1.00  0.00    -0.554 OA 
HETATM    6  H   UNL     1     -14.644  10.118  70.709  1.00  0.00     0.000 HD 
ENDBRANCH   2   3
BRANCH   2   7
HETATM    7  C   UNL     1     -10.808   9.102  71.497  1.00  0.00    -0.366 C  
HETATM    8  O   UNL     1      -9.966   8.841  72.359  1.00  0.00    -0.282 OA 
BRANCH   7   9
HETATM    9  N   UNL     1     -10.529   9.953  70.457  1.00  0.00    -0.326 N  
HETATM   10  H   UNL     1     -10.285  10.922  70.660  1.00  0.00     0.000 HD 
BRANCH   9  11
HETATM   11  C   UNL     1     -10.573   9.503  69.055  1.00  0.00    -0.219 C  
HETATM   12  C   UNL     1     -11.206  10.608  68.188  1.00  0.00    -0.302 C  
HETATM   13  O   UNL     1     -10.393  11.780  68.166  1.00  0.00    -0.187 OA 
HETATM   14  O   UNL     1     -12.461  10.964  68.769  1.00  0.00    -0.767 OA 
HETATM   15  H   UNL     1     -12.852  11.646  68.235  1.00  0.00     0.000 HD 
HETATM   16  C   UNL     1      -9.075  11.577  67.630  1.00  0.00    -0.168 C  
HETATM   17  C   UNL     1      -8.320  10.444  68.362  1.00  0.00    -0.119 C  
HETATM   18  H   UNL     1      -8.458   8.318  66.894  1.00  0.00     0.000 HD 
HETATM   19  C   UNL     1      -9.175   9.171  68.504  1.00  0.00    -0.136 C  
HETATM   20  O   UNL     1      -7.926  10.909  69.662  1.00  0.00    -0.371 OA 
HETATM   21  O   UNL     1      -9.322   8.523  67.234  1.00  0.00    -0.143 OA 
HETATM   22  H   UNL     1      -7.461  10.213  70.112  1.00  0.00     0.000 HD 
BRANCH  16  23
HETATM   23  C   UNL     1      -9.104  11.422  66.101  1.00  0.00    -0.207 C  
HETATM   24  O   UNL     1      -7.813  11.141  65.573  1.00  0.00    -0.368 OA 
HETATM   25  H   UNL     1      -7.831  11.045  64.628  1.00  0.00     0.000 HD 
ENDBRANCH  16  23
ENDBRANCH   9  11
ENDBRANCH   7   9
ENDBRANCH   2   7
TORSDOF 5
ENDMDL
MODEL       87
REMARK 921   NORMALIZED FREE ENERGY PREDICTED BY IDOCK:   -4.46 KCAL/MOL
REMARK 922        TOTAL FREE ENERGY PREDICTED BY IDOCK:   -6.59 KCAL/MOL
REMARK 923 INTER-LIGAND FREE ENERGY PREDICTED BY IDOCK:   -6.60 KCAL/MOL
REMARK 924 INTRA-LIGAND FREE ENERGY PREDICTED BY IDOCK:    0.01 KCAL/MOL
REMARK 927      BINDING AFFINITY PREDICTED BY RF-SCORE:    0.00 PKD
ROOT
HETATM    1  C   UNL     1      -7.580  17.947  66.155  1.00  0.00    -0.260 C  
HETATM    2  N   UNL     1      -8.665  18.903  66.301  1.00  0.00    -0.290 N  
ENDROOT
BRANCH   2   3
HETATM    3  N   UNL     1      -8.483  20.258  66.012  1.00  0.00    -0.575 NA 
HETATM    4  H   UNL     1      -8.465  20.617  65.057  1.00  0.00     0.000 HD 
HETATM    5  O   UNL     1      -8.345  20.986  66.996  1.00  0.00    -0.574 OA 
HETATM    6  H   UNL     1      -8.221  21.907  66.799  1.00  0.00     0.000 HD 
ENDBRANCH   2   3
BRANCH   2   7
HETATM    7  C   UNL     1      -9.941  18.421  66.592  1.00  0.00    -0.368 C  
HETATM    8  O   UNL     1     -10.802  19.101  67.153  1.00  0.00    -0.464 OA 
BRANCH   7   9
HETATM    9  N   UNL     1     -10.177  17.116  66.236  1.00  0.00    -0.329 N  
HETATM   10  H   UNL     1     -10.693  16.922  65.377  1.00  0.00     0.000 HD 
BRANCH   9  11
HETATM   11  C   UNL     1      -9.706  15.991  67.060  1.00  0.00    -0.229 C  
HETATM   12  C   UNL     1     -10.813  15.592  68.053  1.00  0.00    -0.308 C  
HETATM   13  O   UNL     1     -11.962  15.086  67.374  1.00  0.00    -0.265 OA 
HETATM   14  O   UNL     1     -11.215  16.763  68.766  1.00  0.00    -0.273 OA 
HETATM   15  H   UNL     1     -11.898  16.517  69.378  1.00  0.00     0.000 HD 
HETATM   16  C   UNL     1     -11.714  13.913  66.582  1.00  0.00    -0.395 C  
HETATM   17  C   UNL     1     -10.573  14.133  65.563  1.00  0.00    -0.326 C  
HETATM   18  H   UNL     1      -8.427  13.054  66.527  1.00  0.00     0.000 HD 
HETATM   19  C   UNL     1      -9.326  14.764  66.212  1.00  0.00    -0.278 C  
HETATM   20  O   UNL     1     -11.047  14.979  64.504  1.00  0.00    -0.597 OA 
HETATM   21  O   UNL     1      -8.661  13.811  67.050  1.00  0.00    -0.224 OA 
HETATM   22  H   UNL     1     -10.346  15.114  63.878  1.00  0.00     0.000 HD 
BRANCH  16  23
HETATM   23  C   UNL     1     -11.535  12.665  67.461  1.00  0.00    -0.340 C  
HETATM   24  O   UNL     1     -11.810  11.468  66.742  1.00  0.00    -0.511 OA 
HETATM   25  H   UNL     1     -11.699  10.696  67.286  1.00  0.00     0.000 HD 
ENDBRANCH  16  23
ENDBRANCH   9  11
ENDBRANCH   7   9
ENDBRANCH   2   7
TORSDOF 5
ENDMDL
MODEL       88
REMARK 921   NORMALIZED FREE ENERGY PREDICTED BY IDOCK:   -4.45 KCAL/MOL
REMARK 922        TOTAL FREE ENERGY PREDICTED BY IDOCK:   -6.57 KCAL/MOL
REMARK 923 INTER-LIGAND FREE ENERGY PREDICTED BY IDOCK:   -5.62 KCAL/MOL
REMARK 924 INTRA-LIGAND FREE ENERGY PREDICTED BY IDOCK:   -0.96 KCAL/MOL
REMARK 927      BINDING AFFINITY PREDICTED BY RF-SCORE:    0.00 PKD
ROOT
HETATM    1  C   UNL     1      -8.919  10.889  68.438  1.00  0.00    -0.154 C  
HETATM    2  N   UNL     1      -9.684  11.400  67.313  1.00  0.00    -0.184 N  
ENDROOT
BRANCH   2   3
HETATM    3  N   UNL     1      -9.260  11.202  65.996  1.00  0.00    -0.199 NA 
HETATM    4  H   UNL     1      -9.875  10.828  65.273  1.00  0.00     0.000 HD 
HETATM    5  O   UNL     1      -8.089  11.513  65.774  1.00  0.00    -0.369 OA 
HETATM    6  H   UNL     1      -7.801  11.378  64.879  1.00  0.00     0.000 HD 
ENDBRANCH   2   3
BRANCH   2   7
HETATM    7  C   UNL     1     -10.935  11.963  67.561  1.00  0.00    -0.247 C  
HETATM    8  O   UNL     1     -11.956  11.289  67.715  1.00  0.00    -0.637 OA 
BRANCH   7   9
HETATM    9  N   UNL     1     -10.971  13.336  67.598  1.00  0.00    -0.257 N  
HETATM   10  H   UNL     1     -11.858  13.814  67.438  1.00  0.00     0.000 HD 
BRANCH   9  11
HETATM   11  C   UNL     1      -9.762  14.135  67.862  1.00  0.00    -0.224 C  
HETATM   12  C   UNL     1      -9.504  15.072  66.668  1.00  0.00    -0.266 C  
HETATM   13  O   UNL     1     -10.549  16.034  66.527  1.00  0.00    -0.308 OA 
HETATM   14  O   UNL     1      -9.482  14.282  65.478  1.00  0.00    -0.534 OA 
HETATM   15  H   UNL     1      -9.323  14.860  64.742  1.00  0.00     0.000 HD 
HETATM   16  C   UNL     1     -10.718  16.896  67.665  1.00  0.00    -0.290 C  
HETATM   17  C   UNL     1     -10.930  16.097  68.970  1.00  0.00    -0.312 C  
HETATM   18  H   UNL     1      -8.681  16.052  70.250  1.00  0.00     0.000 HD 
HETATM   19  C   UNL     1      -9.887  14.977  69.145  1.00  0.00    -0.223 C  
HETATM   20  O   UNL     1     -12.250  15.531  68.964  1.00  0.00    -0.584 OA 
HETATM   21  O   UNL     1      -8.604  15.532  69.459  1.00  0.00    -0.260 OA 
HETATM   22  H   UNL     1     -12.381  15.040  69.767  1.00  0.00     0.000 HD 
BRANCH  16  23
HETATM   23  C   UNL     1      -9.599  17.946  67.750  1.00  0.00    -0.277 C  
HETATM   24  O   UNL     1      -9.567  18.583  69.022  1.00  0.00    -0.294 OA 
HETATM   25  H   UNL     1      -8.875  19.232  69.075  1.00  0.00     0.000 HD 
ENDBRANCH  16  23
ENDBRANCH   9  11
ENDBRANCH   7   9
ENDBRANCH   2   7
TORSDOF 5
ENDMDL
MODEL       89
REMARK 921   NORMALIZED FREE ENERGY PREDICTED BY IDOCK:   -4.45 KCAL/MOL
REMARK 922        TOTAL FREE ENERGY PREDICTED BY IDOCK:   -6.57 KCAL/MOL
REMARK 923 INTER-LIGAND FREE ENERGY PREDICTED BY IDOCK:   -5.48 KCAL/MOL
REMARK 924 INTRA-LIGAND FREE ENERGY PREDICTED BY IDOCK:   -1.09 KCAL/MOL
REMARK 927      BINDING AFFINITY PREDICTED BY RF-SCORE:    0.00 PKD
ROOT
HETATM    1  C   UNL     1     -13.425  12.089  72.011  1.00  0.00    -0.261 C  
HETATM    2  N   UNL     1     -13.126  10.686  71.781  1.00  0.00    -0.468 N  
ENDROOT
BRANCH   2   3
HETATM    3  N   UNL     1     -14.114   9.705  71.890  1.00  0.00    -0.094 NA 
HETATM    4  H   UNL     1     -14.681   9.407  71.095  1.00  0.00     0.000 HD 
HETATM    5  O   UNL     1     -14.251   9.226  73.017  1.00  0.00    -1.025 OA 
HETATM    6  H   UNL     1     -14.923   8.559  73.091  1.00  0.00     0.000 HD 
ENDBRANCH   2   3
BRANCH   2   7
HETATM    7  C   UNL     1     -11.862  10.346  71.299  1.00  0.00    -0.289 C  
HETATM    8  O   UNL     1     -11.337  10.912  70.338  1.00  0.00    -0.294 OA 
BRANCH   7   9
HETATM    9  N   UNL     1     -11.238   9.310  71.950  1.00  0.00    -0.344 N  
HETATM   10  H   UNL     1     -11.372   9.203  72.955  1.00  0.00     0.000 HD 
BRANCH   9  11
HETATM   11  C   UNL     1     -10.381   8.350  71.233  1.00  0.00    -0.214 C  
HETATM   12  C   UNL     1      -9.381   7.726  72.225  1.00  0.00    -0.158 C  
HETATM   13  O   UNL     1     -10.050   6.946  73.215  1.00  0.00    -0.187 OA 
HETATM   14  O   UNL     1      -8.702   8.788  72.899  1.00  0.00    -0.379 OA 
HETATM   15  H   UNL     1      -8.086   8.403  73.511  1.00  0.00     0.000 HD 
HETATM   16  C   UNL     1     -10.808   5.844  72.689  1.00  0.00    -0.251 C  
HETATM   17  C   UNL     1     -11.828   6.302  71.622  1.00  0.00    -0.256 C  
HETATM   18  H   UNL     1     -10.828   5.786  69.291  1.00  0.00     0.000 HD 
HETATM   19  C   UNL     1     -11.193   7.226  70.566  1.00  0.00    -0.279 C  
HETATM   20  O   UNL     1     -12.912   6.982  72.272  1.00  0.00    -0.524 OA 
HETATM   21  O   UNL     1     -10.326   6.480  69.703  1.00  0.00    -0.178 OA 
HETATM   22  H   UNL     1     -13.540   7.263  71.616  1.00  0.00     0.000 HD 
BRANCH  16  23
HETATM   23  C   UNL     1      -9.893   4.697  72.228  1.00  0.00    -0.167 C  
HETATM   24  O   UNL     1      -9.567   3.819  73.300  1.00  0.00    -0.110 OA 
HETATM   25  H   UNL     1      -9.002   3.110  73.015  1.00  0.00     0.000 HD 
ENDBRANCH  16  23
ENDBRANCH   9  11
ENDBRANCH   7   9
ENDBRANCH   2   7
TORSDOF 5
ENDMDL
MODEL       90
REMARK 921   NORMALIZED FREE ENERGY PREDICTED BY IDOCK:   -4.41 KCAL/MOL
REMARK 922        TOTAL FREE ENERGY PREDICTED BY IDOCK:   -6.53 KCAL/MOL
REMARK 923 INTER-LIGAND FREE ENERGY PREDICTED BY IDOCK:   -5.85 KCAL/MOL
REMARK 924 INTRA-LIGAND FREE ENERGY PREDICTED BY IDOCK:   -0.68 KCAL/MOL
REMARK 927      BINDING AFFINITY PREDICTED BY RF-SCORE:    0.00 PKD
ROOT
HETATM    1  C   UNL     1     -13.227  11.509  72.000  1.00  0.00    -0.337 C  
HETATM    2  N   UNL     1     -12.480  11.810  70.791  1.00  0.00    -0.348 N  
ENDROOT
BRANCH   2   3
HETATM    3  N   UNL     1     -11.795  13.018  70.641  1.00  0.00    -0.513 NA 
HETATM    4  H   UNL     1     -10.879  13.185  71.059  1.00  0.00     0.000 HD 
HETATM    5  O   UNL     1     -12.381  13.869  69.968  1.00  0.00    -0.330 OA 
HETATM    6  H   UNL     1     -11.915  14.690  69.867  1.00  0.00     0.000 HD 
ENDBRANCH   2   3
BRANCH   2   7
HETATM    7  C   UNL     1     -12.328  10.805  69.835  1.00  0.00    -0.271 C  
HETATM    8  O   UNL     1     -12.223  11.037  68.629  1.00  0.00    -0.571 OA 
BRANCH   7   9
HETATM    9  N   UNL     1     -12.330   9.520  70.321  1.00  0.00    -0.456 N  
HETATM   10  H   UNL     1     -13.147   8.930  70.160  1.00  0.00     0.000 HD 
BRANCH   9  11
HETATM   11  C   UNL     1     -11.185   8.972  71.066  1.00  0.00    -0.295 C  
HETATM   12  C   UNL     1     -11.526   7.549  71.545  1.00  0.00    -0.265 C  
HETATM   13  O   UNL     1     -11.700   6.658  70.443  1.00  0.00    -0.379 OA 
HETATM   14  O   UNL     1     -12.765   7.603  72.255  1.00  0.00    -0.488 OA 
HETATM   15  H   UNL     1     -12.976   6.725  72.550  1.00  0.00     0.000 HD 
HETATM   16  C   UNL     1     -10.540   6.515  69.607  1.00  0.00    -0.243 C  
HETATM   17  C   UNL     1     -10.030   7.879  69.088  1.00  0.00    -0.184 C  
HETATM   18  H   UNL     1      -8.004   8.576  70.540  1.00  0.00     0.000 HD 
HETATM   19  C   UNL     1      -9.903   8.922  70.214  1.00  0.00    -0.183 C  
HETATM   20  O   UNL     1     -10.930   8.362  68.079  1.00  0.00    -0.469 OA 
HETATM   21  O   UNL     1      -8.795   8.607  71.066  1.00  0.00    -0.155 OA 
HETATM   22  H   UNL     1     -10.616   9.200  67.760  1.00  0.00     0.000 HD 
BRANCH  16  23
HETATM   23  C   UNL     1      -9.457   5.659  70.284  1.00  0.00    -0.161 C  
HETATM   24  O   UNL     1      -9.885   4.315  70.467  1.00  0.00    -0.200 OA 
HETATM   25  H   UNL     1      -9.216   3.785  70.886  1.00  0.00     0.000 HD 
ENDBRANCH  16  23
ENDBRANCH   9  11
ENDBRANCH   7   9
ENDBRANCH   2   7
TORSDOF 5
ENDMDL
MODEL       91
REMARK 921   NORMALIZED FREE ENERGY PREDICTED BY IDOCK:   -4.41 KCAL/MOL
REMARK 922        TOTAL FREE ENERGY PREDICTED BY IDOCK:   -6.52 KCAL/MOL
REMARK 923 INTER-LIGAND FREE ENERGY PREDICTED BY IDOCK:   -5.76 KCAL/MOL
REMARK 924 INTRA-LIGAND FREE ENERGY PREDICTED BY IDOCK:   -0.77 KCAL/MOL
REMARK 927      BINDING AFFINITY PREDICTED BY RF-SCORE:    0.00 PKD
ROOT
HETATM    1  C   UNL     1     -10.801   8.222  72.157  1.00  0.00    -0.320 C  
HETATM    2  N   UNL     1     -10.929   8.364  70.716  1.00  0.00    -0.242 N  
ENDROOT
BRANCH   2   3
HETATM    3  N   UNL     1     -11.862   7.618  69.992  1.00  0.00    -0.407 NA 
HETATM    4  H   UNL     1     -12.839   7.540  70.276  1.00  0.00     0.000 HD 
HETATM    5  O   UNL     1     -11.418   7.063  68.986  1.00  0.00    -0.506 OA 
HETATM    6  H   UNL     1     -12.053   6.555  68.495  1.00  0.00     0.000 HD 
ENDBRANCH   2   3
BRANCH   2   7
HETATM    7  C   UNL     1     -10.205   9.373  70.081  1.00  0.00    -0.231 C  
HETATM    8  O   UNL     1      -9.156   9.162  69.469  1.00  0.00    -0.144 OA 
BRANCH   7   9
HETATM    9  N   UNL     1     -10.722  10.640  70.202  1.00  0.00    -0.463 N  
HETATM   10  H   UNL     1     -10.413  11.231  70.974  1.00  0.00     0.000 HD 
BRANCH   9  11
HETATM   11  C   UNL     1     -11.712  11.166  69.247  1.00  0.00    -0.331 C  
HETATM   12  C   UNL     1     -12.375  12.421  69.845  1.00  0.00    -0.048 C  
HETATM   13  O   UNL     1     -11.431  13.479  70.009  1.00  0.00    -0.193 OA 
HETATM   14  O   UNL     1     -12.875  12.085  71.140  1.00  0.00    -0.337 OA 
HETATM   15  H   UNL     1     -13.284  12.859  71.510  1.00  0.00     0.000 HD 
HETATM   16  C   UNL     1     -10.813  13.916  68.787  1.00  0.00    -0.263 C  
HETATM   17  C   UNL     1     -10.145  12.747  68.027  1.00  0.00    -0.230 C  
HETATM   18  H   UNL     1     -11.736  12.029  66.116  1.00  0.00     0.000 HD 
HETATM   19  C   UNL     1     -11.080  11.530  67.891  1.00  0.00    -0.256 C  
HETATM   20  O   UNL     1      -8.947  12.363  68.718  1.00  0.00    -0.381 OA 
HETATM   21  O   UNL     1     -12.126  11.804  66.953  1.00  0.00    -0.566 OA 
HETATM   22  H   UNL     1      -8.536  11.645  68.250  1.00  0.00     0.000 HD 
BRANCH  16  23
HETATM   23  C   UNL     1     -11.780  14.748  67.930  1.00  0.00    -0.341 C  
HETATM   24  O   UNL     1     -12.386  15.793  68.682  1.00  0.00    -0.500 OA 
HETATM   25  H   UNL     1     -12.984  16.308  68.152  1.00  0.00     0.000 HD 
ENDBRANCH  16  23
ENDBRANCH   9  11
ENDBRANCH   7   9
ENDBRANCH   2   7
TORSDOF 5
ENDMDL
MODEL       92
REMARK 921   NORMALIZED FREE ENERGY PREDICTED BY IDOCK:   -4.41 KCAL/MOL
REMARK 922        TOTAL FREE ENERGY PREDICTED BY IDOCK:   -6.52 KCAL/MOL
REMARK 923 INTER-LIGAND FREE ENERGY PREDICTED BY IDOCK:   -6.02 KCAL/MOL
REMARK 924 INTRA-LIGAND FREE ENERGY PREDICTED BY IDOCK:   -0.50 KCAL/MOL
REMARK 927      BINDING AFFINITY PREDICTED BY RF-SCORE:    0.00 PKD
ROOT
HETATM    1  C   UNL     1      -9.482  16.499  65.892  1.00  0.00    -0.219 C  
HETATM    2  N   UNL     1     -10.696  15.725  65.700  1.00  0.00    -0.348 N  
ENDROOT
BRANCH   2   3
HETATM    3  N   UNL     1     -11.269  15.574  64.434  1.00  0.00    -0.728 NA 
HETATM    4  H   UNL     1     -11.429  14.659  64.011  1.00  0.00     0.000 HD 
HETATM    5  O   UNL     1     -11.566  16.627  63.868  1.00  0.00    -1.582 OA 
HETATM    6  H   UNL     1     -11.955  16.524  63.008  1.00  0.00     0.000 HD 
ENDBRANCH   2   3
BRANCH   2   7
HETATM    7  C   UNL     1     -11.203  15.003  66.781  1.00  0.00    -0.322 C  
HETATM    8  O   UNL     1     -11.778  15.536  67.732  1.00  0.00    -0.260 OA 
BRANCH   7   9
HETATM    9  N   UNL     1     -10.997  13.646  66.736  1.00  0.00    -0.290 N  
HETATM   10  H   UNL     1     -11.383  13.111  65.958  1.00  0.00     0.000 HD 
BRANCH   9  11
HETATM   11  C   UNL     1     -10.234  12.944  67.782  1.00  0.00    -0.224 C  
HETATM   12  C   UNL     1     -11.118  11.845  68.401  1.00  0.00    -0.244 C  
HETATM   13  O   UNL     1     -11.435  10.834  67.445  1.00  0.00    -0.467 OA 
HETATM   14  O   UNL     1     -12.346  12.443  68.819  1.00  0.00    -0.048 OA 
HETATM   15  H   UNL     1     -12.891  11.765  69.200  1.00  0.00     0.000 HD 
HETATM   16  C   UNL     1     -10.292  10.151  66.903  1.00  0.00    -0.236 C  
HETATM   17  C   UNL     1      -9.268  11.132  66.290  1.00  0.00    -0.195 C  
HETATM   18  H   UNL     1      -7.355  11.458  68.001  1.00  0.00     0.000 HD 
HETATM   19  C   UNL     1      -8.945  12.304  67.236  1.00  0.00    -0.187 C  
HETATM   20  O   UNL     1      -9.790  11.639  65.051  1.00  0.00    -0.247 OA 
HETATM   21  O   UNL     1      -8.151  11.853  68.339  1.00  0.00    -0.147 OA 
HETATM   22  H   UNL     1      -9.160  12.242  64.674  1.00  0.00     0.000 HD 
BRANCH  16  23
HETATM   23  C   UNL     1      -9.687   9.169  67.919  1.00  0.00    -0.154 C  
HETATM   24  O   UNL     1      -8.739   8.298  67.312  1.00  0.00    -0.122 OA 
HETATM   25  H   UNL     1      -8.364   7.692  67.941  1.00  0.00     0.000 HD 
ENDBRANCH  16  23
ENDBRANCH   9  11
ENDBRANCH   7   9
ENDBRANCH   2   7
TORSDOF 5
ENDMDL
MODEL       93
REMARK 921   NORMALIZED FREE ENERGY PREDICTED BY IDOCK:   -4.41 KCAL/MOL
REMARK 922        TOTAL FREE ENERGY PREDICTED BY IDOCK:   -6.52 KCAL/MOL
REMARK 923 INTER-LIGAND FREE ENERGY PREDICTED BY IDOCK:   -5.78 KCAL/MOL
REMARK 924 INTRA-LIGAND FREE ENERGY PREDICTED BY IDOCK:   -0.74 KCAL/MOL
REMARK 927      BINDING AFFINITY PREDICTED BY RF-SCORE:    0.00 PKD
ROOT
HETATM    1  C   UNL     1      -8.949   8.389  69.255  1.00  0.00    -0.150 C  
HETATM    2  N   UNL     1     -10.345   8.699  69.516  1.00  0.00    -0.211 N  
ENDROOT
BRANCH   2   3
HETATM    3  N   UNL     1     -11.356   7.768  69.260  1.00  0.00    -0.335 NA 
HETATM    4  H   UNL     1     -12.228   7.746  69.789  1.00  0.00     0.000 HD 
HETATM    5  O   UNL     1     -11.115   6.977  68.346  1.00  0.00    -0.453 OA 
HETATM    6  H   UNL     1     -11.803   6.345  68.172  1.00  0.00     0.000 HD 
ENDBRANCH   2   3
BRANCH   2   7
HETATM    7  C   UNL     1     -10.651   9.891  70.172  1.00  0.00    -0.297 C  
HETATM    8  O   UNL     1     -11.238   9.928  71.255  1.00  0.00    -0.361 OA 
BRANCH   7   9
HETATM    9  N   UNL     1     -10.278  11.040  69.519  1.00  0.00    -0.440 N  
HETATM   10  H   UNL     1      -9.357  11.438  69.701  1.00  0.00     0.000 HD 
BRANCH   9  11
HETATM   11  C   UNL     1     -11.174  11.711  68.561  1.00  0.00    -0.256 C  
HETATM   12  C   UNL     1     -11.060  13.236  68.746  1.00  0.00    -0.266 C  
HETATM   13  O   UNL     1      -9.755  13.704  68.409  1.00  0.00    -0.224 OA 
HETATM   14  O   UNL     1     -11.283  13.535  70.125  1.00  0.00    -0.483 OA 
HETATM   15  H   UNL     1     -11.212  14.476  70.239  1.00  0.00     0.000 HD 
HETATM   16  C   UNL     1      -9.367  13.450  67.048  1.00  0.00    -0.243 C  
HETATM   17  C   UNL     1      -9.485  11.954  66.683  1.00  0.00    -0.209 C  
HETATM   18  H   UNL     1     -11.683  11.629  65.355  1.00  0.00     0.000 HD 
HETATM   19  C   UNL     1     -10.841  11.356  67.101  1.00  0.00    -0.268 C  
HETATM   20  O   UNL     1      -8.420  11.231  67.320  1.00  0.00    -0.137 OA 
HETATM   21  O   UNL     1     -11.888  11.849  66.257  1.00  0.00    -0.546 OA 
HETATM   22  H   UNL     1      -8.492  10.311  67.094  1.00  0.00     0.000 HD 
BRANCH  16  23
HETATM   23  C   UNL     1     -10.089  14.392  66.071  1.00  0.00    -0.322 C  
HETATM   24  O   UNL     1     -10.053  13.897  64.737  1.00  0.00    -0.583 OA 
HETATM   25  H   UNL     1     -10.499  14.478  64.132  1.00  0.00     0.000 HD 
ENDBRANCH  16  23
ENDBRANCH   9  11
ENDBRANCH   7   9
ENDBRANCH   2   7
TORSDOF 5
ENDMDL
MODEL       94
REMARK 921   NORMALIZED FREE ENERGY PREDICTED BY IDOCK:   -4.40 KCAL/MOL
REMARK 922        TOTAL FREE ENERGY PREDICTED BY IDOCK:   -6.50 KCAL/MOL
REMARK 923 INTER-LIGAND FREE ENERGY PREDICTED BY IDOCK:   -6.02 KCAL/MOL
REMARK 924 INTRA-LIGAND FREE ENERGY PREDICTED BY IDOCK:   -0.48 KCAL/MOL
REMARK 927      BINDING AFFINITY PREDICTED BY RF-SCORE:    0.00 PKD
ROOT
HETATM    1  C   UNL     1     -13.600  13.496  72.019  1.00  0.00    -0.499 C  
HETATM    2  N   UNL     1     -12.614  14.564  72.000  1.00  0.00    -0.327 N  
ENDROOT
BRANCH   2   3
HETATM    3  N   UNL     1     -12.162  15.157  73.182  1.00  0.00    -0.400 NA 
HETATM    4  H   UNL     1     -11.172  15.225  73.417  1.00  0.00     0.000 HD 
HETATM    5  O   UNL     1     -13.050  15.591  73.919  1.00  0.00    -0.644 OA 
HETATM    6  H   UNL     1     -12.742  15.994  74.722  1.00  0.00     0.000 HD 
ENDBRANCH   2   3
BRANCH   2   7
HETATM    7  C   UNL     1     -12.008  14.887  70.787  1.00  0.00    -0.314 C  
HETATM    8  O   UNL     1     -12.011  16.028  70.319  1.00  0.00    -0.328 OA 
BRANCH   7   9
HETATM    9  N   UNL     1     -11.421  13.840  70.119  1.00  0.00    -0.497 N  
HETATM   10  H   UNL     1     -10.874  13.159  70.646  1.00  0.00     0.000 HD 
BRANCH   9  11
HETATM   11  C   UNL     1     -11.561  13.675  68.662  1.00  0.00    -0.329 C  
HETATM   12  C   UNL     1     -10.249  14.098  67.976  1.00  0.00    -0.232 C  
HETATM   13  O   UNL     1      -9.172  13.232  68.337  1.00  0.00    -0.196 OA 
HETATM   14  O   UNL     1      -9.915  15.412  68.426  1.00  0.00    -0.210 OA 
HETATM   15  H   UNL     1      -9.105  15.672  68.004  1.00  0.00     0.000 HD 
HETATM   16  C   UNL     1      -9.371  11.856  67.973  1.00  0.00    -0.193 C  
HETATM   17  C   UNL     1     -10.694  11.293  68.541  1.00  0.00    -0.201 C  
HETATM   18  H   UNL     1     -12.444  11.296  66.636  1.00  0.00     0.000 HD 
HETATM   19  C   UNL     1     -11.890  12.224  68.268  1.00  0.00    -0.310 C  
HETATM   20  O   UNL     1     -10.548  11.095  69.956  1.00  0.00    -0.429 OA 
HETATM   21  O   UNL     1     -12.242  12.192  66.879  1.00  0.00    -0.537 OA 
HETATM   22  H   UNL     1     -11.361  10.748  70.305  1.00  0.00     0.000 HD 
BRANCH  16  23
HETATM   23  C   UNL     1      -9.199  11.640  66.461  1.00  0.00    -0.198 C  
HETATM   24  O   UNL     1      -7.952  12.145  65.994  1.00  0.00    -0.178 OA 
HETATM   25  H   UNL     1      -7.845  12.011  65.060  1.00  0.00     0.000 HD 
ENDBRANCH  16  23
ENDBRANCH   9  11
ENDBRANCH   7   9
ENDBRANCH   2   7
TORSDOF 5
ENDMDL
MODEL       95
REMARK 921   NORMALIZED FREE ENERGY PREDICTED BY IDOCK:   -4.40 KCAL/MOL
REMARK 922        TOTAL FREE ENERGY PREDICTED BY IDOCK:   -6.50 KCAL/MOL
REMARK 923 INTER-LIGAND FREE ENERGY PREDICTED BY IDOCK:   -5.74 KCAL/MOL
REMARK 924 INTRA-LIGAND FREE ENERGY PREDICTED BY IDOCK:   -0.76 KCAL/MOL
REMARK 927      BINDING AFFINITY PREDICTED BY RF-SCORE:    0.00 PKD
ROOT
HETATM    1  C   UNL     1      -9.063   9.243  68.544  1.00  0.00    -0.132 C  
HETATM    2  N   UNL     1      -8.089   9.944  67.724  1.00  0.00    -0.109 N  
ENDROOT
BRANCH   2   3
HETATM    3  N   UNL     1      -6.740   9.994  68.082  1.00  0.00    -0.059 NA 
HETATM    4  H   UNL     1      -6.213   9.164  68.353  1.00  0.00     0.000 HD 
HETATM    5  O   UNL     1      -6.233  11.117  68.045  1.00  0.00    -0.049 OA 
HETATM    6  H   UNL     1      -5.316  11.152  68.288  1.00  0.00     0.000 HD 
ENDBRANCH   2   3
BRANCH   2   7
HETATM    7  C   UNL     1      -8.497  10.440  66.486  1.00  0.00    -0.132 C  
HETATM    8  O   UNL     1      -8.609   9.732  65.483  1.00  0.00    -0.134 OA 
BRANCH   7   9
HETATM    9  N   UNL     1      -8.745  11.790  66.441  1.00  0.00    -0.290 N  
HETATM   10  H   UNL     1      -7.981  12.428  66.215  1.00  0.00     0.000 HD 
BRANCH   9  11
HETATM   11  C   UNL     1     -10.084  12.341  66.711  1.00  0.00    -0.209 C  
HETATM   12  C   UNL     1      -9.972  13.862  66.924  1.00  0.00    -0.264 C  
HETATM   13  O   UNL     1      -9.541  14.523  65.735  1.00  0.00    -0.289 OA 
HETATM   14  O   UNL     1      -8.985  14.099  67.930  1.00  0.00    -0.171 OA 
HETATM   15  H   UNL     1      -8.916  15.037  68.062  1.00  0.00     0.000 HD 
HETATM   16  C   UNL     1     -10.423  14.356  64.612  1.00  0.00    -0.257 C  
HETATM   17  C   UNL     1     -10.688  12.865  64.302  1.00  0.00    -0.406 C  
HETATM   18  H   UNL     1     -13.000  12.247  65.285  1.00  0.00     0.000 HD 
HETATM   19  C   UNL     1     -11.071  12.066  65.562  1.00  0.00    -0.313 C  
HETATM   20  O   UNL     1      -9.512  12.295  63.706  1.00  0.00    -0.561 OA 
HETATM   21  O   UNL     1     -12.391  12.416  65.994  1.00  0.00    -0.627 OA 
HETATM   22  H   UNL     1      -9.675  11.379  63.515  1.00  0.00     0.000 HD 
BRANCH  16  23
HETATM   23  C   UNL     1     -11.699  15.199  64.764  1.00  0.00    -0.331 C  
HETATM   24  O   UNL     1     -11.802  16.189  63.747  1.00  0.00    -1.408 OA 
HETATM   25  H   UNL     1     -12.590  16.711  63.840  1.00  0.00     0.000 HD 
ENDBRANCH  16  23
ENDBRANCH   9  11
ENDBRANCH   7   9
ENDBRANCH   2   7
TORSDOF 5
ENDMDL
MODEL       96
REMARK 921   NORMALIZED FREE ENERGY PREDICTED BY IDOCK:   -4.37 KCAL/MOL
REMARK 922        TOTAL FREE ENERGY PREDICTED BY IDOCK:   -6.47 KCAL/MOL
REMARK 923 INTER-LIGAND FREE ENERGY PREDICTED BY IDOCK:   -5.44 KCAL/MOL
REMARK 924 INTRA-LIGAND FREE ENERGY PREDICTED BY IDOCK:   -1.03 KCAL/MOL
REMARK 927      BINDING AFFINITY PREDICTED BY RF-SCORE:    0.00 PKD
ROOT
HETATM    1  C   UNL     1     -13.074  10.650  71.863  1.00  0.00    -0.458 C  
HETATM    2  N   UNL     1     -12.064  10.330  70.868  1.00  0.00    -0.336 N  
ENDROOT
BRANCH   2   3
HETATM    3  N   UNL     1     -11.814  11.179  69.788  1.00  0.00    -0.317 NA 
HETATM    4  H   UNL     1     -11.095  11.902  69.813  1.00  0.00     0.000 HD 
HETATM    5  O   UNL     1     -12.528  10.989  68.801  1.00  0.00    -0.712 OA 
HETATM    6  H   UNL     1     -12.358  11.567  68.066  1.00  0.00     0.000 HD 
ENDBRANCH   2   3
BRANCH   2   7
HETATM    7  C   UNL     1     -11.236   9.230  71.092  1.00  0.00    -0.343 C  
HETATM    8  O   UNL     1     -10.522   9.121  72.091  1.00  0.00    -0.265 OA 
BRANCH   7   9
HETATM    9  N   UNL     1     -11.241   8.274  70.106  1.00  0.00    -0.411 N  
HETATM   10  H   UNL     1     -12.115   8.065  69.623  1.00  0.00     0.000 HD 
BRANCH   9  11
HETATM   11  C   UNL     1     -10.019   7.544  69.729  1.00  0.00    -0.186 C  
HETATM   12  C   UNL     1     -10.406   6.157  69.183  1.00  0.00    -0.218 C  
HETATM   13  O   UNL     1     -11.151   6.265  67.971  1.00  0.00    -0.333 OA 
HETATM   14  O   UNL     1     -11.244   5.517  70.148  1.00  0.00    -0.168 OA 
HETATM   15  H   UNL     1     -11.483   4.661  69.811  1.00  0.00     0.000 HD 
HETATM   16  C   UNL     1     -10.449   6.919  66.900  1.00  0.00    -0.279 C  
HETATM   17  C   UNL     1      -9.936   8.317  67.313  1.00  0.00    -0.224 C  
HETATM   18  H   UNL     1      -7.417   8.108  67.869  1.00  0.00     0.000 HD 
HETATM   19  C   UNL     1      -9.197   8.291  68.664  1.00  0.00    -0.143 C  
HETATM   20  O   UNL     1     -11.049   9.221  67.387  1.00  0.00    -0.410 OA 
HETATM   21  O   UNL     1      -7.925   7.647  68.527  1.00  0.00    -0.119 OA 
HETATM   22  H   UNL     1     -10.734  10.080  67.641  1.00  0.00     0.000 HD 
BRANCH  16  23
HETATM   23  C   UNL     1      -9.367   6.009  66.296  1.00  0.00    -0.145 C  
HETATM   24  O   UNL     1      -9.875   5.227  65.220  1.00  0.00    -0.368 OA 
HETATM   25  H   UNL     1      -9.206   4.665  64.847  1.00  0.00     0.000 HD 
ENDBRANCH  16  23
ENDBRANCH   9  11
ENDBRANCH   7   9
ENDBRANCH   2   7
TORSDOF 5
ENDMDL
MODEL       97
REMARK 921   NORMALIZED FREE ENERGY PREDICTED BY IDOCK:   -4.37 KCAL/MOL
REMARK 922        TOTAL FREE ENERGY PREDICTED BY IDOCK:   -6.46 KCAL/MOL
REMARK 923 INTER-LIGAND FREE ENERGY PREDICTED BY IDOCK:   -5.80 KCAL/MOL
REMARK 924 INTRA-LIGAND FREE ENERGY PREDICTED BY IDOCK:   -0.66 KCAL/MOL
REMARK 927      BINDING AFFINITY PREDICTED BY RF-SCORE:    0.00 PKD
ROOT
HETATM    1  C   UNL     1     -13.393  12.397  72.070  1.00  0.00    -0.407 C  
HETATM    2  N   UNL     1     -12.686  11.386  71.301  1.00  0.00    -0.415 N  
ENDROOT
BRANCH   2   3
HETATM    3  N   UNL     1     -11.776  11.739  70.302  1.00  0.00    -0.501 NA 
HETATM    4  H   UNL     1     -11.271  11.045  69.750  1.00  0.00     0.000 HD 
HETATM    5  O   UNL     1     -11.629  12.951  70.136  1.00  0.00    -0.513 OA 
HETATM    6  H   UNL     1     -11.009  13.191  69.457  1.00  0.00     0.000 HD 
ENDBRANCH   2   3
BRANCH   2   7
HETATM    7  C   UNL     1     -12.817  10.050  71.679  1.00  0.00    -0.440 C  
HETATM    8  O   UNL     1     -13.782   9.625  72.317  1.00  0.00    -0.417 OA 
BRANCH   7   9
HETATM    9  N   UNL     1     -11.778   9.227  71.318  1.00  0.00    -0.319 N  
HETATM   10  H   UNL     1     -11.165   9.509  70.553  1.00  0.00     0.000 HD 
BRANCH   9  11
HETATM   11  C   UNL     1     -11.527   7.949  72.006  1.00  0.00    -0.300 C  
HETATM   12  C   UNL     1     -11.386   6.830  70.958  1.00  0.00    -0.309 C  
HETATM   13  O   UNL     1     -10.236   7.030  70.137  1.00  0.00    -0.190 OA 
HETATM   14  O   UNL     1     -12.534   6.867  70.109  1.00  0.00    -0.602 OA 
HETATM   15  H   UNL     1     -12.446   6.176  69.463  1.00  0.00     0.000 HD 
HETATM   16  C   UNL     1      -8.990   7.047  70.854  1.00  0.00    -0.152 C  
HETATM   17  C   UNL     1      -8.993   8.090  71.994  1.00  0.00    -0.156 C  
HETATM   18  H   UNL     1      -9.425   6.838  74.218  1.00  0.00     0.000 HD 
HETATM   19  C   UNL     1     -10.255   7.992  72.872  1.00  0.00    -0.314 C  
HETATM   20  O   UNL     1      -8.901   9.405  71.425  1.00  0.00    -0.281 OA 
HETATM   21  O   UNL     1     -10.210   6.812  73.684  1.00  0.00    -0.257 OA 
HETATM   22  H   UNL     1      -8.902  10.047  72.126  1.00  0.00     0.000 HD 
BRANCH  16  23
HETATM   23  C   UNL     1      -8.576   5.635  71.300  1.00  0.00    -0.128 C  
HETATM   24  O   UNL     1      -7.732   5.669  72.445  1.00  0.00    -0.099 OA 
HETATM   25  H   UNL     1      -7.475   4.796  72.721  1.00  0.00     0.000 HD 
ENDBRANCH  16  23
ENDBRANCH   9  11
ENDBRANCH   7   9
ENDBRANCH   2   7
TORSDOF 5
ENDMDL
MODEL       98
REMARK 921   NORMALIZED FREE ENERGY PREDICTED BY IDOCK:   -4.31 KCAL/MOL
REMARK 922        TOTAL FREE ENERGY PREDICTED BY IDOCK:   -6.40 KCAL/MOL
REMARK 923 INTER-LIGAND FREE ENERGY PREDICTED BY IDOCK:   -5.80 KCAL/MOL
REMARK 924 INTRA-LIGAND FREE ENERGY PREDICTED BY IDOCK:   -0.60 KCAL/MOL
REMARK 927      BINDING AFFINITY PREDICTED BY RF-SCORE:    0.00 PKD
ROOT
HETATM    1  C   UNL     1      -7.053  15.646  67.870  1.00  0.00    -0.138 C  
HETATM    2  N   UNL     1      -8.033  16.556  67.299  1.00  0.00    -0.154 N  
ENDROOT
BRANCH   2   3
HETATM    3  N   UNL     1      -8.058  17.908  67.649  1.00  0.00    -0.222 NA 
HETATM    4  H   UNL     1      -7.882  18.652  66.973  1.00  0.00     0.000 HD 
HETATM    5  O   UNL     1      -8.308  18.135  68.834  1.00  0.00    -0.247 OA 
HETATM    6  H   UNL     1      -8.325  19.055  69.071  1.00  0.00     0.000 HD 
ENDBRANCH   2   3
BRANCH   2   7
HETATM    7  C   UNL     1      -8.857  16.089  66.276  1.00  0.00    -0.344 C  
HETATM    8  O   UNL     1      -9.415  16.837  65.470  1.00  0.00    -0.490 OA 
BRANCH   7   9
HETATM    9  N   UNL     1      -9.036  14.728  66.233  1.00  0.00    -0.485 N  
HETATM   10  H   UNL     1      -8.217  14.120  66.227  1.00  0.00     0.000 HD 
BRANCH   9  11
HETATM   11  C   UNL     1     -10.379  14.124  66.195  1.00  0.00    -0.300 C  
HETATM   12  C   UNL     1     -10.349  12.880  65.287  1.00  0.00    -0.300 C  
HETATM   13  O   UNL     1      -9.509  11.861  65.829  1.00  0.00    -0.236 OA 
HETATM   14  O   UNL     1      -9.801  13.264  64.025  1.00  0.00    -0.741 OA 
HETATM   15  H   UNL     1      -9.782  12.497  63.464  1.00  0.00     0.000 HD 
HETATM   16  C   UNL     1      -9.915  11.384  67.122  1.00  0.00    -0.192 C  
HETATM   17  C   UNL     1     -10.052  12.534  68.146  1.00  0.00    -0.225 C  
HETATM   18  H   UNL     1     -12.566  13.107  68.369  1.00  0.00     0.000 HD 
HETATM   19  C   UNL     1     -10.874  13.713  67.593  1.00  0.00    -0.256 C  
HETATM   20  O   UNL     1      -8.741  12.989  68.516  1.00  0.00    -0.303 OA 
HETATM   21  O   UNL     1     -12.260  13.360  67.506  1.00  0.00    -0.311 OA 
HETATM   22  H   UNL     1      -8.825  13.695  69.146  1.00  0.00     0.000 HD 
BRANCH  16  23
HETATM   23  C   UNL     1     -11.155  10.481  67.028  1.00  0.00    -0.110 C  
HETATM   24  O   UNL     1     -11.844  10.398  68.270  1.00  0.00    -0.747 OA 
HETATM   25  H   UNL     1     -12.611   9.839  68.211  1.00  0.00     0.000 HD 
ENDBRANCH  16  23
ENDBRANCH   9  11
ENDBRANCH   7   9
ENDBRANCH   2   7
TORSDOF 5
ENDMDL
MODEL       99
REMARK 921   NORMALIZED FREE ENERGY PREDICTED BY IDOCK:   -4.29 KCAL/MOL
REMARK 922        TOTAL FREE ENERGY PREDICTED BY IDOCK:   -6.37 KCAL/MOL
REMARK 923 INTER-LIGAND FREE ENERGY PREDICTED BY IDOCK:   -5.69 KCAL/MOL
REMARK 924 INTRA-LIGAND FREE ENERGY PREDICTED BY IDOCK:   -0.68 KCAL/MOL
REMARK 927      BINDING AFFINITY PREDICTED BY RF-SCORE:    0.00 PKD
ROOT
HETATM    1  C   UNL     1      -9.231  10.781  63.425  1.00  0.00    -0.268 C  
HETATM    2  N   UNL     1      -9.334   9.643  64.324  1.00  0.00    -0.197 N  
ENDROOT
BRANCH   2   3
HETATM    3  N   UNL     1      -8.741   8.416  64.013  1.00  0.00    -0.395 NA 
HETATM    4  H   UNL     1      -8.944   7.913  63.149  1.00  0.00     0.000 HD 
HETATM    5  O   UNL     1      -7.954   7.989  64.860  1.00  0.00    -0.124 OA 
HETATM    6  H   UNL     1      -7.551   7.155  64.648  1.00  0.00     0.000 HD 
ENDBRANCH   2   3
BRANCH   2   7
HETATM    7  C   UNL     1      -9.908   9.837  65.580  1.00  0.00    -0.308 C  
HETATM    8  O   UNL     1     -10.290   8.907  66.293  1.00  0.00    -0.240 OA 
BRANCH   7   9
HETATM    9  N   UNL     1     -10.049  11.146  65.971  1.00  0.00    -0.236 N  
HETATM   10  H   UNL     1      -9.217  11.687  66.204  1.00  0.00     0.000 HD 
BRANCH   9  11
HETATM   11  C   UNL     1     -11.372  11.788  66.063  1.00  0.00    -0.273 C  
HETATM   12  C   UNL     1     -11.780  11.895  67.545  1.00  0.00    -0.265 C  
HETATM   13  O   UNL     1     -10.905  12.765  68.262  1.00  0.00    -0.229 OA 
HETATM   14  O   UNL     1     -11.673  10.597  68.131  1.00  0.00    -0.671 OA 
HETATM   15  H   UNL     1     -11.925  10.664  69.045  1.00  0.00     0.000 HD 
HETATM   16  C   UNL     1     -10.877  14.116  67.771  1.00  0.00    -0.252 C  
HETATM   17  C   UNL     1     -10.537  14.176  66.264  1.00  0.00    -0.284 C  
HETATM   18  H   UNL     1     -12.748  14.515  64.963  1.00  0.00     0.000 HD 
HETATM   19  C   UNL     1     -11.384  13.193  65.435  1.00  0.00    -0.297 C  
HETATM   20  O   UNL     1      -9.143  13.882  66.087  1.00  0.00    -0.485 OA 
HETATM   21  O   UNL     1     -12.740  13.648  65.350  1.00  0.00    -0.547 OA 
HETATM   22  H   UNL     1      -8.934  13.920  65.161  1.00  0.00     0.000 HD 
BRANCH  16  23
HETATM   23  C   UNL     1     -12.152  14.883  68.155  1.00  0.00    -0.085 C  
HETATM   24  O   UNL     1     -12.451  14.749  69.540  1.00  0.00    -0.536 OA 
HETATM   25  H   UNL     1     -13.240  15.224  69.778  1.00  0.00     0.000 HD 
ENDBRANCH  16  23
ENDBRANCH   9  11
ENDBRANCH   7   9
ENDBRANCH   2   7
TORSDOF 5
ENDMDL
MODEL      100
REMARK 921   NORMALIZED FREE ENERGY PREDICTED BY IDOCK:   -4.29 KCAL/MOL
REMARK 922        TOTAL FREE ENERGY PREDICTED BY IDOCK:   -6.36 KCAL/MOL
REMARK 923 INTER-LIGAND FREE ENERGY PREDICTED BY IDOCK:   -5.75 KCAL/MOL
REMARK 924 INTRA-LIGAND FREE ENERGY PREDICTED BY IDOCK:   -0.61 KCAL/MOL
REMARK 927      BINDING AFFINITY PREDICTED BY RF-SCORE:    0.00 PKD
ROOT
HETATM    1  C   UNL     1      -8.512  16.797  67.414  1.00  0.00    -0.189 C  
HETATM    2  N   UNL     1      -9.924  16.496  67.247  1.00  0.00    -0.258 N  
ENDROOT
BRANCH   2   3
HETATM    3  N   UNL     1     -10.790  16.447  68.343  1.00  0.00    -0.327 NA 
HETATM    4  H   UNL     1     -11.268  15.591  68.626  1.00  0.00     0.000 HD 
HETATM    5  O   UNL     1     -10.934  17.515  68.940  1.00  0.00    -0.253 OA 
HETATM    6  H   UNL     1     -11.523  17.481  69.685  1.00  0.00     0.000 HD 
ENDBRANCH   2   3
BRANCH   2   7
HETATM    7  C   UNL     1     -10.437  16.404  65.953  1.00  0.00    -0.337 C  
HETATM    8  O   UNL     1     -10.955  17.357  65.368  1.00  0.00    -0.388 OA 
BRANCH   7   9
HETATM    9  N   UNL     1     -10.354  15.163  65.370  1.00  0.00    -0.363 N  
HETATM   10  H   UNL     1      -9.610  14.980  64.696  1.00  0.00     0.000 HD 
BRANCH   9  11
HETATM   11  C   UNL     1     -11.312  14.091  65.691  1.00  0.00    -0.313 C  
HETATM   12  C   UNL     1     -11.512  13.203  64.449  1.00  0.00    -0.366 C  
HETATM   13  O   UNL     1     -10.308  12.520  64.100  1.00  0.00    -0.358 OA 
HETATM   14  O   UNL     1     -11.864  14.046  63.351  1.00  0.00    -0.702 OA 
HETATM   15  H   UNL     1     -11.987  13.497  62.585  1.00  0.00     0.000 HD 
HETATM   16  C   UNL     1      -9.804  11.645  65.123  1.00  0.00    -0.249 C  
HETATM   17  C   UNL     1      -9.604  12.381  66.467  1.00  0.00    -0.240 C  
HETATM   18  H   UNL     1     -11.619  11.819  67.991  1.00  0.00     0.000 HD 
HETATM   19  C   UNL     1     -10.836  13.216  66.864  1.00  0.00    -0.265 C  
HETATM   20  O   UNL     1      -8.454  13.235  66.366  1.00  0.00    -0.397 OA 
HETATM   21  O   UNL     1     -11.912  12.360  67.266  1.00  0.00    -0.516 OA 
HETATM   22  H   UNL     1      -8.330  13.687  67.192  1.00  0.00     0.000 HD 
BRANCH  16  23
HETATM   23  C   UNL     1     -10.644  10.361  65.232  1.00  0.00     0.007 C  
HETATM   24  O   UNL     1     -10.312   9.611  66.395  1.00  0.00    -0.237 OA 
HETATM   25  H   UNL     1     -10.831   8.817  66.463  1.00  0.00     0.000 HD 
ENDBRANCH  16  23
ENDBRANCH   9  11
ENDBRANCH   7   9
ENDBRANCH   2   7
TORSDOF 5
ENDMDL
MODEL      101
REMARK 921   NORMALIZED FREE ENERGY PREDICTED BY IDOCK:   -4.22 KCAL/MOL
REMARK 922        TOTAL FREE ENERGY PREDICTED BY IDOCK:   -6.27 KCAL/MOL
REMARK 923 INTER-LIGAND FREE ENERGY PREDICTED BY IDOCK:   -5.52 KCAL/MOL
REMARK 924 INTRA-LIGAND FREE ENERGY PREDICTED BY IDOCK:   -0.75 KCAL/MOL
REMARK 927      BINDING AFFINITY PREDICTED BY RF-SCORE:    0.00 PKD
ROOT
HETATM    1  C   UNL     1      -7.711  11.614  68.526  1.00  0.00    -0.134 C  
HETATM    2  N   UNL     1      -8.145  12.718  67.686  1.00  0.00    -0.162 N  
ENDROOT
BRANCH   2   3
HETATM    3  N   UNL     1      -7.243  13.410  66.873  1.00  0.00    -0.310 NA 
HETATM    4  H   UNL     1      -7.538  14.142  66.226  1.00  0.00     0.000 HD 
HETATM    5  O   UNL     1      -6.065  13.070  66.996  1.00  0.00    -0.475 OA 
HETATM    6  H   UNL     1      -5.452  13.541  66.443  1.00  0.00     0.000 HD 
ENDBRANCH   2   3
BRANCH   2   7
HETATM    7  C   UNL     1      -9.511  12.982  67.588  1.00  0.00    -0.201 C  
HETATM    8  O   UNL     1     -10.338  12.127  67.266  1.00  0.00    -0.210 OA 
BRANCH   7   9
HETATM    9  N   UNL     1      -9.884  14.278  67.847  1.00  0.00    -0.221 N  
HETATM   10  H   UNL     1      -9.579  14.718  68.716  1.00  0.00     0.000 HD 
BRANCH   9  11
HETATM   11  C   UNL     1     -10.713  15.049  66.904  1.00  0.00    -0.308 C  
HETATM   12  C   UNL     1     -11.401  16.200  67.661  1.00  0.00    -0.064 C  
HETATM   13  O   UNL     1     -10.448  17.140  68.156  1.00  0.00    -0.330 OA 
HETATM   14  O   UNL     1     -12.086  15.647  68.786  1.00  0.00    -0.559 OA 
HETATM   15  H   UNL     1     -12.510  16.358  69.252  1.00  0.00     0.000 HD 
HETATM   16  C   UNL     1      -9.652  17.769  67.138  1.00  0.00    -0.276 C  
HETATM   17  C   UNL     1      -8.934  16.734  66.243  1.00  0.00    -0.290 C  
HETATM   18  H   UNL     1     -10.276  16.517  64.041  1.00  0.00     0.000 HD 
HETATM   19  C   UNL     1      -9.888  15.632  65.743  1.00  0.00    -0.351 C  
HETATM   20  O   UNL     1      -7.856  16.141  66.985  1.00  0.00    -0.177 OA 
HETATM   21  O   UNL     1     -10.785  16.157  64.758  1.00  0.00    -0.648 OA 
HETATM   22  H   UNL     1      -7.415  15.505  66.435  1.00  0.00     0.000 HD 
BRANCH  16  23
HETATM   23  C   UNL     1     -10.460  18.818  66.356  1.00  0.00    -0.429 C  
HETATM   24  O   UNL     1     -10.726  19.973  67.142  1.00  0.00    -0.377 OA 
HETATM   25  H   UNL     1     -11.225  20.622  66.659  1.00  0.00     0.000 HD 
ENDBRANCH  16  23
ENDBRANCH   9  11
ENDBRANCH   7   9
ENDBRANCH   2   7
TORSDOF 5
ENDMDL
MODEL      102
REMARK 921   NORMALIZED FREE ENERGY PREDICTED BY IDOCK:   -4.21 KCAL/MOL
REMARK 922        TOTAL FREE ENERGY PREDICTED BY IDOCK:   -6.26 KCAL/MOL
REMARK 923 INTER-LIGAND FREE ENERGY PREDICTED BY IDOCK:   -5.41 KCAL/MOL
REMARK 924 INTRA-LIGAND FREE ENERGY PREDICTED BY IDOCK:   -0.86 KCAL/MOL
REMARK 927      BINDING AFFINITY PREDICTED BY RF-SCORE:    0.00 PKD
ROOT
HETATM    1  C   UNL     1     -11.407   7.492  72.726  1.00  0.00    -0.336 C  
HETATM    2  N   UNL     1     -12.110   7.056  71.531  1.00  0.00    -0.332 N  
ENDROOT
BRANCH   2   3
HETATM    3  N   UNL     1     -13.427   7.449  71.278  1.00  0.00    -0.574 NA 
HETATM    4  H   UNL     1     -14.217   6.812  71.376  1.00  0.00     0.000 HD 
HETATM    5  O   UNL     1     -13.562   8.624  70.929  1.00  0.00    -0.524 OA 
HETATM    6  H   UNL     1     -14.457   8.890  70.757  1.00  0.00     0.000 HD 
ENDBRANCH   2   3
BRANCH   2   7
HETATM    7  C   UNL     1     -11.396   6.359  70.557  1.00  0.00    -0.375 C  
HETATM    8  O   UNL     1     -10.802   5.304  70.787  1.00  0.00    -0.181 OA 
BRANCH   7   9
HETATM    9  N   UNL     1     -11.369   6.940  69.312  1.00  0.00    -0.535 N  
HETATM   10  H   UNL     1     -12.232   7.320  68.923  1.00  0.00     0.000 HD 
BRANCH   9  11
HETATM   11  C   UNL     1     -10.127   7.026  68.525  1.00  0.00    -0.165 C  
HETATM   12  C   UNL     1     -10.483   7.206  67.037  1.00  0.00    -0.322 C  
HETATM   13  O   UNL     1     -11.144   8.450  66.808  1.00  0.00     0.171 OA 
HETATM   14  O   UNL     1     -11.386   6.163  66.666  1.00  0.00    -0.727 OA 
HETATM   15  H   UNL     1     -11.605   6.273  65.749  1.00  0.00     0.000 HD 
HETATM   16  C   UNL     1     -10.369   9.607  67.161  1.00  0.00    -0.254 C  
HETATM   17  C   UNL     1      -9.879   9.550  68.626  1.00  0.00    -0.162 C  
HETATM   18  H   UNL     1      -7.404   8.794  68.608  1.00  0.00     0.000 HD 
HETATM   19  C   UNL     1      -9.232   8.196  68.972  1.00  0.00    -0.148 C  
HETATM   20  O   UNL     1     -10.991   9.794  69.501  1.00  0.00    -0.232 OA 
HETATM   21  O   UNL     1      -7.957   8.072  68.332  1.00  0.00    -0.116 OA 
HETATM   22  H   UNL     1     -10.690   9.759  70.401  1.00  0.00     0.000 HD 
BRANCH  16  23
HETATM   23  C   UNL     1      -9.253   9.874  66.138  1.00  0.00    -0.168 C  
HETATM   24  O   UNL     1      -9.712   9.710  64.801  1.00  0.00    -0.427 OA 
HETATM   25  H   UNL     1      -9.022   9.874  64.168  1.00  0.00     0.000 HD 
ENDBRANCH  16  23
ENDBRANCH   9  11
ENDBRANCH   7   9
ENDBRANCH   2   7
TORSDOF 5
ENDMDL
MODEL      103
REMARK 921   NORMALIZED FREE ENERGY PREDICTED BY IDOCK:   -4.20 KCAL/MOL
REMARK 922        TOTAL FREE ENERGY PREDICTED BY IDOCK:   -6.25 KCAL/MOL
REMARK 923 INTER-LIGAND FREE ENERGY PREDICTED BY IDOCK:   -4.91 KCAL/MOL
REMARK 924 INTRA-LIGAND FREE ENERGY PREDICTED BY IDOCK:   -1.35 KCAL/MOL
REMARK 927      BINDING AFFINITY PREDICTED BY RF-SCORE:    0.00 PKD
ROOT
HETATM    1  C   UNL     1      -9.241   2.293  64.690  1.00  0.00    -0.133 C  
HETATM    2  N   UNL     1      -9.494   3.572  65.333  1.00  0.00    -0.161 N  
ENDROOT
BRANCH   2   3
HETATM    3  N   UNL     1     -10.333   4.525  64.751  1.00  0.00    -0.433 NA 
HETATM    4  H   UNL     1      -9.975   5.309  64.205  1.00  0.00     0.000 HD 
HETATM    5  O   UNL     1     -11.537   4.347  64.945  1.00  0.00    -1.053 OA 
HETATM    6  H   UNL     1     -12.107   4.995  64.548  1.00  0.00     0.000 HD 
ENDBRANCH   2   3
BRANCH   2   7
HETATM    7  C   UNL     1      -9.004   3.776  66.623  1.00  0.00    -0.140 C  
HETATM    8  O   UNL     1      -7.932   3.310  67.015  1.00  0.00    -0.079 OA 
BRANCH   7   9
HETATM    9  N   UNL     1      -9.810   4.514  67.454  1.00  0.00    -0.177 N  
HETATM   10  H   UNL     1     -10.669   4.096  67.813  1.00  0.00     0.000 HD 
BRANCH   9  11
HETATM   11  C   UNL     1      -9.468   5.894  67.840  1.00  0.00    -0.110 C  
HETATM   12  C   UNL     1     -10.754   6.740  67.888  1.00  0.00    -0.256 C  
HETATM   13  O   UNL     1     -11.636   6.285  68.914  1.00  0.00    -0.227 OA 
HETATM   14  O   UNL     1     -11.432   6.591  66.640  1.00  0.00    -0.727 OA 
HETATM   15  H   UNL     1     -12.225   7.112  66.669  1.00  0.00     0.000 HD 
HETATM   16  C   UNL     1     -11.085   6.346  70.240  1.00  0.00    -0.354 C  
HETATM   17  C   UNL     1      -9.743   5.586  70.344  1.00  0.00    -0.183 C  
HETATM   18  H   UNL     1      -7.832   7.328  70.251  1.00  0.00     0.000 HD 
HETATM   19  C   UNL     1      -8.770   5.961  69.210  1.00  0.00    -0.119 C  
HETATM   20  O   UNL     1     -10.002   4.174  70.313  1.00  0.00    -0.201 OA 
HETATM   21  O   UNL     1      -8.262   7.286  69.405  1.00  0.00    -0.127 OA 
HETATM   22  H   UNL     1      -9.177   3.707  70.377  1.00  0.00     0.000 HD 
BRANCH  16  23
HETATM   23  C   UNL     1     -11.027   7.791  70.762  1.00  0.00    -0.252 C  
HETATM   24  O   UNL     1     -10.084   7.934  71.818  1.00  0.00    -0.175 OA 
HETATM   25  H   UNL     1     -10.048   8.827  72.141  1.00  0.00     0.000 HD 
ENDBRANCH  16  23
ENDBRANCH   9  11
ENDBRANCH   7   9
ENDBRANCH   2   7
TORSDOF 5
ENDMDL
MODEL      104
REMARK 921   NORMALIZED FREE ENERGY PREDICTED BY IDOCK:   -4.20 KCAL/MOL
REMARK 922        TOTAL FREE ENERGY PREDICTED BY IDOCK:   -6.24 KCAL/MOL
REMARK 923 INTER-LIGAND FREE ENERGY PREDICTED BY IDOCK:   -6.02 KCAL/MOL
REMARK 924 INTRA-LIGAND FREE ENERGY PREDICTED BY IDOCK:   -0.22 KCAL/MOL
REMARK 927      BINDING AFFINITY PREDICTED BY RF-SCORE:    0.00 PKD
ROOT
HETATM    1  C   UNL     1      -8.287  16.124  66.283  1.00  0.00    -0.287 C  
HETATM    2  N   UNL     1      -9.666  16.098  65.824  1.00  0.00    -0.324 N  
ENDROOT
BRANCH   2   3
HETATM    3  N   UNL     1     -10.449  17.254  65.809  1.00  0.00    -0.540 NA 
HETATM    4  H   UNL     1     -10.613  17.816  66.646  1.00  0.00     0.000 HD 
HETATM    5  O   UNL     1     -10.927  17.546  64.712  1.00  0.00    -0.950 OA 
HETATM    6  H   UNL     1     -11.460  18.333  64.702  1.00  0.00     0.000 HD 
ENDBRANCH   2   3
BRANCH   2   7
HETATM    7  C   UNL     1     -10.153  14.923  65.250  1.00  0.00    -0.345 C  
HETATM    8  O   UNL     1     -11.113  14.903  64.477  1.00  0.00    -0.327 OA 
BRANCH   7   9
HETATM    9  N   UNL     1      -9.509  13.770  65.623  1.00  0.00    -0.505 N  
HETATM   10  H   UNL     1      -8.489  13.755  65.646  1.00  0.00     0.000 HD 
BRANCH   9  11
HETATM   11  C   UNL     1     -10.252  12.553  65.993  1.00  0.00    -0.251 C  
HETATM   12  C   UNL     1      -9.251  11.427  66.314  1.00  0.00    -0.208 C  
HETATM   13  O   UNL     1      -8.471  11.739  67.468  1.00  0.00    -0.141 OA 
HETATM   14  O   UNL     1      -8.355  11.300  65.209  1.00  0.00    -0.379 OA 
HETATM   15  H   UNL     1      -7.737  10.605  65.408  1.00  0.00     0.000 HD 
HETATM   16  C   UNL     1      -9.239  11.927  68.669  1.00  0.00    -0.061 C  
HETATM   17  C   UNL     1     -10.340  12.996  68.490  1.00  0.00    -0.239 C  
HETATM   18  H   UNL     1     -12.587  11.770  68.110  1.00  0.00     0.000 HD 
HETATM   19  C   UNL     1     -11.167  12.774  67.210  1.00  0.00    -0.295 C  
HETATM   20  O   UNL     1      -9.728  14.295  68.452  1.00  0.00    -0.215 OA 
HETATM   21  O   UNL     1     -12.022  11.634  67.359  1.00  0.00    -0.621 OA 
HETATM   22  H   UNL     1     -10.406  14.953  68.343  1.00  0.00     0.000 HD 
BRANCH  16  23
HETATM   23  C   UNL     1      -9.751  10.589  69.228  1.00  0.00    -0.196 C  
HETATM   24  O   UNL     1      -8.844   9.525  68.963  1.00  0.00    -0.134 OA 
HETATM   25  H   UNL     1      -9.160   8.698  69.309  1.00  0.00     0.000 HD 
ENDBRANCH  16  23
ENDBRANCH   9  11
ENDBRANCH   7   9
ENDBRANCH   2   7
TORSDOF 5
ENDMDL
MODEL      105
REMARK 921   NORMALIZED FREE ENERGY PREDICTED BY IDOCK:   -4.19 KCAL/MOL
REMARK 922        TOTAL FREE ENERGY PREDICTED BY IDOCK:   -6.24 KCAL/MOL
REMARK 923 INTER-LIGAND FREE ENERGY PREDICTED BY IDOCK:   -5.45 KCAL/MOL
REMARK 924 INTRA-LIGAND FREE ENERGY PREDICTED BY IDOCK:   -0.79 KCAL/MOL
REMARK 927      BINDING AFFINITY PREDICTED BY RF-SCORE:    0.00 PKD
ROOT
HETATM    1  C   UNL     1     -10.074  17.602  66.103  1.00  0.00    -0.301 C  
HETATM    2  N   UNL     1     -10.561  17.666  67.471  1.00  0.00    -0.364 N  
ENDROOT
BRANCH   2   3
HETATM    3  N   UNL     1     -10.986  18.872  68.035  1.00  0.00    -0.266 NA 
HETATM    4  H   UNL     1     -11.801  19.380  67.692  1.00  0.00     0.000 HD 
HETATM    5  O   UNL     1     -10.302  19.274  68.978  1.00  0.00    -0.543 OA 
HETATM    6  H   UNL     1     -10.591  20.094  69.362  1.00  0.00     0.000 HD 
ENDBRANCH   2   3
BRANCH   2   7
HETATM    7  C   UNL     1     -10.742  16.472  68.169  1.00  0.00    -0.343 C  
HETATM    8  O   UNL     1     -11.034  16.433  69.366  1.00  0.00    -0.312 OA 
BRANCH   7   9
HETATM    9  N   UNL     1     -10.546  15.325  67.440  1.00  0.00    -0.276 N  
HETATM   10  H   UNL     1      -9.961  15.360  66.606  1.00  0.00     0.000 HD 
BRANCH   9  11
HETATM   11  C   UNL     1     -11.160  14.044  67.833  1.00  0.00    -0.255 C  
HETATM   12  C   UNL     1     -11.923  13.459  66.630  1.00  0.00    -0.399 C  
HETATM   13  O   UNL     1     -11.035  13.123  65.565  1.00  0.00    -0.275 OA 
HETATM   14  O   UNL     1     -12.821  14.458  66.144  1.00  0.00    -0.446 OA 
HETATM   15  H   UNL     1     -13.292  14.098  65.402  1.00  0.00     0.000 HD 
HETATM   16  C   UNL     1     -10.044  12.140  65.907  1.00  0.00    -0.245 C  
HETATM   17  C   UNL     1      -9.222  12.556  67.148  1.00  0.00    -0.205 C  
HETATM   18  H   UNL     1     -10.156  11.270  69.190  1.00  0.00     0.000 HD 
HETATM   19  C   UNL     1     -10.116  13.019  68.313  1.00  0.00    -0.239 C  
HETATM   20  O   UNL     1      -8.321  13.612  66.780  1.00  0.00    -0.422 OA 
HETATM   21  O   UNL     1     -10.800  11.903  68.894  1.00  0.00    -0.221 OA 
HETATM   22  H   UNL     1      -7.815  13.867  67.543  1.00  0.00     0.000 HD 
BRANCH  16  23
HETATM   23  C   UNL     1     -10.654  10.732  66.005  1.00  0.00    -0.156 C  
HETATM   24  O   UNL     1      -9.773   9.818  66.648  1.00  0.00    -0.178 OA 
HETATM   25  H   UNL     1     -10.150   8.948  66.708  1.00  0.00     0.000 HD 
ENDBRANCH  16  23
ENDBRANCH   9  11
ENDBRANCH   7   9
ENDBRANCH   2   7
TORSDOF 5
ENDMDL
MODEL      106
REMARK 921   NORMALIZED FREE ENERGY PREDICTED BY IDOCK:   -4.16 KCAL/MOL
REMARK 922        TOTAL FREE ENERGY PREDICTED BY IDOCK:   -6.20 KCAL/MOL
REMARK 923 INTER-LIGAND FREE ENERGY PREDICTED BY IDOCK:   -5.30 KCAL/MOL
REMARK 924 INTRA-LIGAND FREE ENERGY PREDICTED BY IDOCK:   -0.90 KCAL/MOL
REMARK 927      BINDING AFFINITY PREDICTED BY RF-SCORE:    0.00 PKD
ROOT
HETATM    1  C   UNL     1     -11.819  14.273  68.516  1.00  0.00    -0.347 C  
HETATM    2  N   UNL     1     -11.660  14.308  67.071  1.00  0.00    -0.367 N  
ENDROOT
BRANCH   2   3
HETATM    3  N   UNL     1     -12.756  14.168  66.216  1.00  0.00    -0.487 NA 
HETATM    4  H   UNL     1     -13.577  14.771  66.274  1.00  0.00     0.000 HD 
HETATM    5  O   UNL     1     -12.657  13.262  65.387  1.00  0.00    -0.478 OA 
HETATM    6  H   UNL     1     -13.402  13.167  64.806  1.00  0.00     0.000 HD 
ENDBRANCH   2   3
BRANCH   2   7
HETATM    7  C   UNL     1     -10.410  14.637  66.548  1.00  0.00    -0.282 C  
HETATM    8  O   UNL     1     -10.024  14.255  65.442  1.00  0.00    -0.343 OA 
BRANCH   7   9
HETATM    9  N   UNL     1      -9.610  15.402  67.361  1.00  0.00    -0.209 N  
HETATM   10  H   UNL     1      -9.250  14.998  68.226  1.00  0.00     0.000 HD 
BRANCH   9  11
HETATM   11  C   UNL     1      -9.257  16.790  67.016  1.00  0.00    -0.225 C  
HETATM   12  C   UNL     1      -9.182  17.629  68.306  1.00  0.00    -0.283 C  
HETATM   13  O   UNL     1      -8.122  17.186  69.152  1.00  0.00    -0.164 OA 
HETATM   14  O   UNL     1     -10.406  17.455  69.022  1.00  0.00    -0.343 OA 
HETATM   15  H   UNL     1     -10.360  17.972  69.817  1.00  0.00     0.000 HD 
HETATM   16  C   UNL     1      -6.815  17.272  68.560  1.00  0.00    -0.197 C  
HETATM   17  C   UNL     1      -6.741  16.522  67.211  1.00  0.00    -0.181 C  
HETATM   18  H   UNL     1      -6.923  18.275  65.315  1.00  0.00     0.000 HD 
HETATM   19  C   UNL     1      -7.911  16.885  66.276  1.00  0.00    -0.311 C  
HETATM   20  O   UNL     1      -6.741  15.108  67.461  1.00  0.00    -0.168 OA 
HETATM   21  O   UNL     1      -7.754  18.216  65.771  1.00  0.00    -0.523 OA 
HETATM   22  H   UNL     1      -6.695  14.647  66.631  1.00  0.00     0.000 HD 
BRANCH  16  23
HETATM   23  C   UNL     1      -6.319  18.726  68.495  1.00  0.00    -0.228 C  
HETATM   24  O   UNL     1      -5.352  18.909  67.468  1.00  0.00    -0.162 OA 
HETATM   25  H   UNL     1      -5.045  19.807  67.427  1.00  0.00     0.000 HD 
ENDBRANCH  16  23
ENDBRANCH   9  11
ENDBRANCH   7   9
ENDBRANCH   2   7
TORSDOF 5
ENDMDL
MODEL      107
REMARK 921   NORMALIZED FREE ENERGY PREDICTED BY IDOCK:   -4.15 KCAL/MOL
REMARK 922        TOTAL FREE ENERGY PREDICTED BY IDOCK:   -6.19 KCAL/MOL
REMARK 923 INTER-LIGAND FREE ENERGY PREDICTED BY IDOCK:   -5.44 KCAL/MOL
REMARK 924 INTRA-LIGAND FREE ENERGY PREDICTED BY IDOCK:   -0.75 KCAL/MOL
REMARK 927      BINDING AFFINITY PREDICTED BY RF-SCORE:    0.00 PKD
ROOT
HETATM    1  C   UNL     1     -11.515   7.772  72.397  1.00  0.00    -0.363 C  
HETATM    2  N   UNL     1     -11.726   7.948  70.970  1.00  0.00    -0.284 N  
ENDROOT
BRANCH   2   3
HETATM    3  N   UNL     1     -12.322   6.949  70.195  1.00  0.00    -0.578 NA 
HETATM    4  H   UNL     1     -13.308   6.701  70.285  1.00  0.00     0.000 HD 
HETATM    5  O   UNL     1     -11.568   6.391  69.396  1.00  0.00    -0.600 OA 
HETATM    6  H   UNL     1     -11.974   5.712  68.869  1.00  0.00     0.000 HD 
ENDBRANCH   2   3
BRANCH   2   7
HETATM    7  C   UNL     1     -11.462   9.196  70.407  1.00  0.00    -0.194 C  
HETATM    8  O   UNL     1     -11.666  10.256  71.001  1.00  0.00    -0.349 OA 
BRANCH   7   9
HETATM    9  N   UNL     1     -10.977   9.177  69.122  1.00  0.00    -0.424 N  
HETATM   10  H   UNL     1     -10.953   8.292  68.614  1.00  0.00     0.000 HD 
BRANCH   9  11
HETATM   11  C   UNL     1     -10.493  10.399  68.459  1.00  0.00    -0.186 C  
HETATM   12  C   UNL     1      -8.966  10.501  68.637  1.00  0.00    -0.162 C  
HETATM   13  O   UNL     1      -8.293   9.435  67.968  1.00  0.00    -0.118 OA 
HETATM   14  O   UNL     1      -8.673  10.388  70.030  1.00  0.00    -0.365 OA 
HETATM   15  H   UNL     1      -7.731  10.450  70.140  1.00  0.00     0.000 HD 
HETATM   16  C   UNL     1      -8.514   9.393  66.548  1.00  0.00    -0.133 C  
HETATM   17  C   UNL     1     -10.018   9.350  66.197  1.00  0.00    -0.281 C  
HETATM   18  H   UNL     1     -10.745  11.737  65.510  1.00  0.00     0.000 HD 
HETATM   19  C   UNL     1     -10.826  10.419  66.956  1.00  0.00    -0.203 C  
HETATM   20  O   UNL     1     -10.533   8.045  66.505  1.00  0.00    -0.455 OA 
HETATM   21  O   UNL     1     -10.540  11.724  66.438  1.00  0.00    -0.237 OA 
HETATM   22  H   UNL     1     -11.458   8.018  66.289  1.00  0.00     0.000 HD 
BRANCH  16  23
HETATM   23  C   UNL     1      -7.734  10.502  65.823  1.00  0.00    -0.145 C  
HETATM   24  O   UNL     1      -8.365  10.881  64.604  1.00  0.00    -0.365 OA 
HETATM   25  H   UNL     1      -7.883  11.567  64.156  1.00  0.00     0.000 HD 
ENDBRANCH  16  23
ENDBRANCH   9  11
ENDBRANCH   7   9
ENDBRANCH   2   7
TORSDOF 5
ENDMDL
MODEL      108
REMARK 921   NORMALIZED FREE ENERGY PREDICTED BY IDOCK:   -4.15 KCAL/MOL
REMARK 922        TOTAL FREE ENERGY PREDICTED BY IDOCK:   -6.19 KCAL/MOL
REMARK 923 INTER-LIGAND FREE ENERGY PREDICTED BY IDOCK:   -5.95 KCAL/MOL
REMARK 924 INTRA-LIGAND FREE ENERGY PREDICTED BY IDOCK:   -0.24 KCAL/MOL
REMARK 927      BINDING AFFINITY PREDICTED BY RF-SCORE:    0.00 PKD
ROOT
HETATM    1  C   UNL     1      -8.440  15.439  69.287  1.00  0.00    -0.258 C  
HETATM    2  N   UNL     1      -9.819  15.882  69.411  1.00  0.00    -0.268 N  
ENDROOT
BRANCH   2   3
HETATM    3  N   UNL     1     -10.587  15.558  70.532  1.00  0.00    -0.405 NA 
HETATM    4  H   UNL     1     -10.459  14.690  71.053  1.00  0.00     0.000 HD 
HETATM    5  O   UNL     1     -11.432  16.400  70.845  1.00  0.00    -0.543 OA 
HETATM    6  H   UNL     1     -11.954  16.179  71.607  1.00  0.00     0.000 HD 
ENDBRANCH   2   3
BRANCH   2   7
HETATM    7  C   UNL     1     -10.321  16.769  68.459  1.00  0.00    -0.316 C  
HETATM    8  O   UNL     1     -11.369  16.568  67.842  1.00  0.00    -0.218 OA 
BRANCH   7   9
HETATM    9  N   UNL     1      -9.554  17.883  68.224  1.00  0.00    -0.299 N  
HETATM   10  H   UNL     1      -9.386  18.540  68.987  1.00  0.00     0.000 HD 
BRANCH   9  11
HETATM   11  C   UNL     1      -8.967  18.155  66.901  1.00  0.00    -0.271 C  
HETATM   12  C   UNL     1      -9.232  19.624  66.521  1.00  0.00    -0.378 C  
HETATM   13  O   UNL     1      -8.559  20.519  67.406  1.00  0.00    -0.341 OA 
HETATM   14  O   UNL     1     -10.634  19.869  66.645  1.00  0.00    -0.468 OA 
HETATM   15  H   UNL     1     -10.798  20.775  66.411  1.00  0.00     0.000 HD 
HETATM   16  C   UNL     1      -7.129  20.376  67.418  1.00  0.00    -0.304 C  
HETATM   17  C   UNL     1      -6.695  18.925  67.728  1.00  0.00    -0.210 C  
HETATM   18  H   UNL     1      -6.065  17.787  65.491  1.00  0.00     0.000 HD 
HETATM   19  C   UNL     1      -7.450  17.894  66.869  1.00  0.00    -0.200 C  
HETATM   20  O   UNL     1      -6.922  18.656  69.120  1.00  0.00    -0.290 OA 
HETATM   21  O   UNL     1      -7.001  17.948  65.510  1.00  0.00    -0.456 OA 
HETATM   22  H   UNL     1      -6.655  17.765  69.311  1.00  0.00     0.000 HD 
BRANCH  16  23
HETATM   23  C   UNL     1      -6.492  20.961  66.147  1.00  0.00    -0.222 C  
HETATM   24  O   UNL     1      -7.255  20.655  64.985  1.00  0.00    -0.503 OA 
HETATM   25  H   UNL     1      -6.861  21.017  64.199  1.00  0.00     0.000 HD 
ENDBRANCH  16  23
ENDBRANCH   9  11
ENDBRANCH   7   9
ENDBRANCH   2   7
TORSDOF 5
ENDMDL
MODEL      109
REMARK 921   NORMALIZED FREE ENERGY PREDICTED BY IDOCK:   -4.15 KCAL/MOL
REMARK 922        TOTAL FREE ENERGY PREDICTED BY IDOCK:   -6.18 KCAL/MOL
REMARK 923 INTER-LIGAND FREE ENERGY PREDICTED BY IDOCK:   -5.24 KCAL/MOL
REMARK 924 INTRA-LIGAND FREE ENERGY PREDICTED BY IDOCK:   -0.94 KCAL/MOL
REMARK 927      BINDING AFFINITY PREDICTED BY RF-SCORE:    0.00 PKD
ROOT
HETATM    1  C   UNL     1      -7.623   8.465  67.255  1.00  0.00    -0.097 C  
HETATM    2  N   UNL     1      -9.016   8.368  66.852  1.00  0.00    -0.140 N  
ENDROOT
BRANCH   2   3
HETATM    3  N   UNL     1      -9.533   7.191  66.306  1.00  0.00    -0.354 NA 
HETATM    4  H   UNL     1      -8.960   6.534  65.776  1.00  0.00     0.000 HD 
HETATM    5  O   UNL     1     -10.734   7.006  66.511  1.00  0.00    -0.515 OA 
HETATM    6  H   UNL     1     -11.086   6.206  66.139  1.00  0.00     0.000 HD 
ENDBRANCH   2   3
BRANCH   2   7
HETATM    7  C   UNL     1      -9.872   9.425  67.161  1.00  0.00    -0.187 C  
HETATM    8  O   UNL     1      -9.845  10.505  66.568  1.00  0.00    -0.191 OA 
BRANCH   7   9
HETATM    9  N   UNL     1     -10.743   9.198  68.198  1.00  0.00    -0.415 N  
HETATM   10  H   UNL     1     -11.678   8.845  67.994  1.00  0.00     0.000 HD 
BRANCH   9  11
HETATM   11  C   UNL     1     -10.362   9.451  69.599  1.00  0.00    -0.216 C  
HETATM   12  C   UNL     1     -11.506  10.200  70.307  1.00  0.00    -0.306 C  
HETATM   13  O   UNL     1     -12.680   9.393  70.392  1.00  0.00     0.126 OA 
HETATM   14  O   UNL     1     -11.831  11.354  69.530  1.00  0.00    -0.299 OA 
HETATM   15  H   UNL     1     -12.537  11.816  69.967  1.00  0.00     0.000 HD 
HETATM   16  C   UNL     1     -12.507   8.170  71.126  1.00  0.00    -0.182 C  
HETATM   17  C   UNL     1     -11.342   7.321  70.570  1.00  0.00    -0.280 C  
HETATM   18  H   UNL     1      -9.289   7.684  72.103  1.00  0.00     0.000 HD 
HETATM   19  C   UNL     1     -10.061   8.151  70.366  1.00  0.00    -0.194 C  
HETATM   20  O   UNL     1     -11.744   6.736  69.321  1.00  0.00    -0.618 OA 
HETATM   21  O   UNL     1      -9.475   8.487  71.630  1.00  0.00    -0.196 OA 
HETATM   22  H   UNL     1     -11.028   6.214  68.980  1.00  0.00     0.000 HD 
BRANCH  16  23
HETATM   23  C   UNL     1     -12.427   8.426  72.640  1.00  0.00    -0.194 C  
HETATM   24  O   UNL     1     -13.704   8.725  73.193  1.00  0.00    -0.983 OA 
HETATM   25  H   UNL     1     -13.655   8.884  74.129  1.00  0.00     0.000 HD 
ENDBRANCH  16  23
ENDBRANCH   9  11
ENDBRANCH   7   9
ENDBRANCH   2   7
TORSDOF 5
ENDMDL
MODEL      110
REMARK 921   NORMALIZED FREE ENERGY PREDICTED BY IDOCK:   -4.14 KCAL/MOL
REMARK 922        TOTAL FREE ENERGY PREDICTED BY IDOCK:   -6.17 KCAL/MOL
REMARK 923 INTER-LIGAND FREE ENERGY PREDICTED BY IDOCK:   -5.55 KCAL/MOL
REMARK 924 INTRA-LIGAND FREE ENERGY PREDICTED BY IDOCK:   -0.62 KCAL/MOL
REMARK 927      BINDING AFFINITY PREDICTED BY RF-SCORE:    0.00 PKD
ROOT
HETATM    1  C   UNL     1     -11.215   7.496  72.840  1.00  0.00    -0.346 C  
HETATM    2  N   UNL     1     -11.092   8.146  71.546  1.00  0.00    -0.244 N  
ENDROOT
BRANCH   2   3
HETATM    3  N   UNL     1     -12.062   7.980  70.554  1.00  0.00    -0.480 NA 
HETATM    4  H   UNL     1     -12.935   8.507  70.547  1.00  0.00     0.000 HD 
HETATM    5  O   UNL     1     -11.783   7.149  69.688  1.00  0.00    -0.532 OA 
HETATM    6  H   UNL     1     -12.443   7.036  69.013  1.00  0.00     0.000 HD 
ENDBRANCH   2   3
BRANCH   2   7
HETATM    7  C   UNL     1     -10.060   9.066  71.359  1.00  0.00    -0.329 C  
HETATM    8  O   UNL     1      -9.042   9.081  72.053  1.00  0.00    -0.375 OA 
BRANCH   7   9
HETATM    9  N   UNL     1     -10.261   9.987  70.360  1.00  0.00    -0.395 N  
HETATM   10  H   UNL     1     -11.129  10.522  70.345  1.00  0.00     0.000 HD 
BRANCH   9  11
HETATM   11  C   UNL     1      -9.254  10.222  69.311  1.00  0.00    -0.202 C  
HETATM   12  C   UNL     1      -9.009   8.910  68.542  1.00  0.00    -0.134 C  
HETATM   13  O   UNL     1     -10.178   8.496  67.836  1.00  0.00    -0.197 OA 
HETATM   14  O   UNL     1      -8.694   7.890  69.492  1.00  0.00    -0.133 OA 
HETATM   15  H   UNL     1      -8.543   7.081  69.018  1.00  0.00     0.000 HD 
HETATM   16  C   UNL     1     -10.642   9.437  66.854  1.00  0.00    -0.167 C  
HETATM   17  C   UNL     1     -10.881  10.837  67.462  1.00  0.00    -0.288 C  
HETATM   18  H   UNL     1      -8.846  12.321  66.867  1.00  0.00     0.000 HD 
HETATM   19  C   UNL     1      -9.691  11.313  68.317  1.00  0.00    -0.198 C  
HETATM   20  O   UNL     1     -12.070  10.802  68.266  1.00  0.00    -0.805 OA 
HETATM   21  O   UNL     1      -8.576  11.648  67.481  1.00  0.00    -0.140 OA 
HETATM   22  H   UNL     1     -12.217  11.663  68.640  1.00  0.00     0.000 HD 
BRANCH  16  23
HETATM   23  C   UNL     1      -9.743   9.442  65.607  1.00  0.00    -0.266 C  
HETATM   24  O   UNL     1     -10.282  10.255  64.571  1.00  0.00    -0.314 OA 
HETATM   25  H   UNL     1      -9.726  10.258  63.800  1.00  0.00     0.000 HD 
ENDBRANCH  16  23
ENDBRANCH   9  11
ENDBRANCH   7   9
ENDBRANCH   2   7
TORSDOF 5
ENDMDL
MODEL      111
REMARK 921   NORMALIZED FREE ENERGY PREDICTED BY IDOCK:   -4.13 KCAL/MOL
REMARK 922        TOTAL FREE ENERGY PREDICTED BY IDOCK:   -6.16 KCAL/MOL
REMARK 923 INTER-LIGAND FREE ENERGY PREDICTED BY IDOCK:   -5.23 KCAL/MOL
REMARK 924 INTRA-LIGAND FREE ENERGY PREDICTED BY IDOCK:   -0.93 KCAL/MOL
REMARK 927      BINDING AFFINITY PREDICTED BY RF-SCORE:    0.00 PKD
ROOT
HETATM    1  C   UNL     1      -8.200   6.250  67.208  1.00  0.00    -0.109 C  
HETATM    2  N   UNL     1      -9.337   7.145  67.344  1.00  0.00    -0.125 N  
ENDROOT
BRANCH   2   3
HETATM    3  N   UNL     1     -10.477   6.996  66.549  1.00  0.00    -0.506 NA 
HETATM    4  H   UNL     1     -10.442   7.020  65.530  1.00  0.00     0.000 HD 
HETATM    5  O   UNL     1     -11.528   6.832  67.172  1.00  0.00    -0.756 OA 
HETATM    6  H   UNL     1     -12.302   6.731  66.632  1.00  0.00     0.000 HD 
ENDBRANCH   2   3
BRANCH   2   7
HETATM    7  C   UNL     1      -9.336   8.067  68.390  1.00  0.00    -0.138 C  
HETATM    8  O   UNL     1      -9.631   7.767  69.548  1.00  0.00    -0.160 OA 
BRANCH   7   9
HETATM    9  N   UNL     1      -9.009   9.355  68.044  1.00  0.00    -0.128 N  
HETATM   10  H   UNL     1      -8.110   9.536  67.598  1.00  0.00     0.000 HD 
BRANCH   9  11
HETATM   11  C   UNL     1      -9.923  10.482  68.299  1.00  0.00    -0.159 C  
HETATM   12  C   UNL     1      -9.117  11.794  68.315  1.00  0.00    -0.187 C  
HETATM   13  O   UNL     1      -8.551  12.071  67.035  1.00  0.00    -0.174 OA 
HETATM   14  O   UNL     1      -8.039  11.643  69.240  1.00  0.00    -0.359 OA 
HETATM   15  H   UNL     1      -7.542  12.452  69.250  1.00  0.00     0.000 HD 
HETATM   16  C   UNL     1      -9.516  12.224  65.980  1.00  0.00    -0.189 C  
HETATM   17  C   UNL     1     -10.453  11.000  65.872  1.00  0.00    -0.240 C  
HETATM   18  H   UNL     1     -12.690  11.606  67.023  1.00  0.00     0.000 HD 
HETATM   19  C   UNL     1     -11.033  10.586  67.237  1.00  0.00    -0.260 C  
HETATM   20  O   UNL     1      -9.724   9.902  65.302  1.00  0.00    -0.281 OA 
HETATM   21  O   UNL     1     -12.005  11.541  67.678  1.00  0.00    -0.630 OA 
HETATM   22  H   UNL     1     -10.300   9.149  65.235  1.00  0.00     0.000 HD 
BRANCH  16  23
HETATM   23  C   UNL     1     -10.253  13.569  66.080  1.00  0.00    -0.305 C  
HETATM   24  O   UNL     1     -10.003  14.393  64.947  1.00  0.00    -0.523 OA 
HETATM   25  H   UNL     1     -10.459  15.225  65.008  1.00  0.00     0.000 HD 
ENDBRANCH  16  23
ENDBRANCH   9  11
ENDBRANCH   7   9
ENDBRANCH   2   7
TORSDOF 5
ENDMDL
MODEL      112
REMARK 921   NORMALIZED FREE ENERGY PREDICTED BY IDOCK:   -4.12 KCAL/MOL
REMARK 922        TOTAL FREE ENERGY PREDICTED BY IDOCK:   -6.15 KCAL/MOL
REMARK 923 INTER-LIGAND FREE ENERGY PREDICTED BY IDOCK:   -5.15 KCAL/MOL
REMARK 924 INTRA-LIGAND FREE ENERGY PREDICTED BY IDOCK:   -1.00 KCAL/MOL
REMARK 927      BINDING AFFINITY PREDICTED BY RF-SCORE:    0.00 PKD
ROOT
HETATM    1  C   UNL     1      -9.609   7.691  70.677  1.00  0.00    -0.163 C  
HETATM    2  N   UNL     1     -10.711   7.979  69.773  1.00  0.00    -0.245 N  
ENDROOT
BRANCH   2   3
HETATM    3  N   UNL     1     -11.558   6.966  69.315  1.00  0.00    -0.581 NA 
HETATM    4  H   UNL     1     -12.240   6.508  69.920  1.00  0.00     0.000 HD 
HETATM    5  O   UNL     1     -11.420   6.670  68.127  1.00  0.00    -0.551 OA 
HETATM    6  H   UNL     1     -11.996   5.981  67.816  1.00  0.00     0.000 HD 
ENDBRANCH   2   3
BRANCH   2   7
HETATM    7  C   UNL     1     -11.005   9.312  69.486  1.00  0.00    -0.151 C  
HETATM    8  O   UNL     1     -11.282  10.139  70.357  1.00  0.00    -0.284 OA 
BRANCH   7   9
HETATM    9  N   UNL     1     -10.996   9.648  68.155  1.00  0.00    -0.469 N  
HETATM   10  H   UNL     1     -11.860   9.574  67.618  1.00  0.00     0.000 HD 
BRANCH   9  11
HETATM   11  C   UNL     1      -9.771  10.112  67.482  1.00  0.00    -0.162 C  
HETATM   12  C   UNL     1      -9.727   9.535  66.055  1.00  0.00    -0.272 C  
HETATM   13  O   UNL     1     -10.794  10.045  65.256  1.00  0.00     0.338 OA 
HETATM   14  O   UNL     1      -9.893   8.119  66.142  1.00  0.00    -0.435 OA 
HETATM   15  H   UNL     1      -9.866   7.763  65.262  1.00  0.00     0.000 HD 
HETATM   16  C   UNL     1     -10.784  11.473  65.094  1.00  0.00    -0.289 C  
HETATM   17  C   UNL     1     -10.765  12.209  66.454  1.00  0.00    -0.257 C  
HETATM   18  H   UNL     1      -8.335  12.969  66.914  1.00  0.00     0.000 HD 
HETATM   19  C   UNL     1      -9.693  11.648  67.406  1.00  0.00    -0.176 C  
HETATM   20  O   UNL     1     -12.061  12.097  67.064  1.00  0.00    -0.591 OA 
HETATM   21  O   UNL     1      -8.383  12.021  66.961  1.00  0.00    -0.170 OA 
HETATM   22  H   UNL     1     -12.049  12.550  67.899  1.00  0.00     0.000 HD 
BRANCH  16  23
HETATM   23  C   UNL     1      -9.681  11.925  64.124  1.00  0.00    -0.128 C  
HETATM   24  O   UNL     1      -9.862  11.373  62.825  1.00  0.00    -0.565 OA 
HETATM   25  H   UNL     1      -9.180  11.652  62.224  1.00  0.00     0.000 HD 
ENDBRANCH  16  23
ENDBRANCH   9  11
ENDBRANCH   7   9
ENDBRANCH   2   7
TORSDOF 5
ENDMDL
MODEL      113
REMARK 921   NORMALIZED FREE ENERGY PREDICTED BY IDOCK:   -4.12 KCAL/MOL
REMARK 922        TOTAL FREE ENERGY PREDICTED BY IDOCK:   -6.15 KCAL/MOL
REMARK 923 INTER-LIGAND FREE ENERGY PREDICTED BY IDOCK:   -5.31 KCAL/MOL
REMARK 924 INTRA-LIGAND FREE ENERGY PREDICTED BY IDOCK:   -0.84 KCAL/MOL
REMARK 927      BINDING AFFINITY PREDICTED BY RF-SCORE:    0.00 PKD
ROOT
HETATM    1  C   UNL     1      -6.272  13.986  69.876  1.00  0.00    -0.142 C  
HETATM    2  N   UNL     1      -7.263  14.868  69.281  1.00  0.00    -0.160 N  
ENDROOT
BRANCH   2   3
HETATM    3  N   UNL     1      -8.444  14.366  68.729  1.00  0.00    -0.243 NA 
HETATM    4  H   UNL     1      -8.459  13.831  67.861  1.00  0.00     0.000 HD 
HETATM    5  O   UNL     1      -9.466  14.618  69.370  1.00  0.00    -0.401 OA 
HETATM    6  H   UNL     1     -10.269  14.276  68.994  1.00  0.00     0.000 HD 
ENDBRANCH   2   3
BRANCH   2   7
HETATM    7  C   UNL     1      -7.086  16.246  69.405  1.00  0.00    -0.204 C  
HETATM    8  O   UNL     1      -6.125  16.749  69.990  1.00  0.00    -0.225 OA 
BRANCH   7   9
HETATM    9  N   UNL     1      -8.076  17.022  68.854  1.00  0.00    -0.241 N  
HETATM   10  H   UNL     1      -9.040  16.887  69.158  1.00  0.00     0.000 HD 
BRANCH   9  11
HETATM   11  C   UNL     1      -7.781  18.045  67.836  1.00  0.00    -0.230 C  
HETATM   12  C   UNL     1      -8.548  17.709  66.544  1.00  0.00    -0.259 C  
HETATM   13  O   UNL     1      -9.959  17.792  66.741  1.00  0.00    -0.302 OA 
HETATM   14  O   UNL     1      -8.242  16.362  66.182  1.00  0.00    -0.324 OA 
HETATM   15  H   UNL     1      -8.715  16.155  65.385  1.00  0.00     0.000 HD 
HETATM   16  C   UNL     1     -10.427  19.091  67.140  1.00  0.00    -0.441 C  
HETATM   17  C   UNL     1      -9.702  19.604  68.405  1.00  0.00    -0.403 C  
HETATM   18  H   UNL     1      -7.884  21.286  67.655  1.00  0.00     0.000 HD 
HETATM   19  C   UNL     1      -8.172  19.460  68.299  1.00  0.00    -0.337 C  
HETATM   20  O   UNL     1     -10.179  18.873  69.546  1.00  0.00    -0.410 OA 
HETATM   21  O   UNL     1      -7.643  20.413  67.369  1.00  0.00    -0.298 OA 
HETATM   22  H   UNL     1      -9.733  19.188  70.324  1.00  0.00     0.000 HD 
BRANCH  16  23
HETATM   23  C   UNL     1     -10.411  20.083  65.966  1.00  0.00    -0.448 C  
HETATM   24  O   UNL     1     -11.129  19.584  64.843  1.00  0.00    -0.240 OA 
HETATM   25  H   UNL     1     -11.120  20.197  64.117  1.00  0.00     0.000 HD 
ENDBRANCH  16  23
ENDBRANCH   9  11
ENDBRANCH   7   9
ENDBRANCH   2   7
TORSDOF 5
ENDMDL
MODEL      114
REMARK 921   NORMALIZED FREE ENERGY PREDICTED BY IDOCK:   -4.10 KCAL/MOL
REMARK 922        TOTAL FREE ENERGY PREDICTED BY IDOCK:   -6.13 KCAL/MOL
REMARK 923 INTER-LIGAND FREE ENERGY PREDICTED BY IDOCK:   -4.96 KCAL/MOL
REMARK 924 INTRA-LIGAND FREE ENERGY PREDICTED BY IDOCK:   -1.17 KCAL/MOL
REMARK 927      BINDING AFFINITY PREDICTED BY RF-SCORE:    0.00 PKD
ROOT
HETATM    1  C   UNL     1     -12.346  13.808  69.944  1.00  0.00    -0.275 C  
HETATM    2  N   UNL     1     -11.818  14.361  68.707  1.00  0.00    -0.324 N  
ENDROOT
BRANCH   2   3
HETATM    3  N   UNL     1     -11.719  13.585  67.549  1.00  0.00    -0.345 NA 
HETATM    4  H   UNL     1     -11.026  12.845  67.443  1.00  0.00     0.000 HD 
HETATM    5  O   UNL     1     -12.533  13.863  66.666  1.00  0.00    -0.439 OA 
HETATM    6  H   UNL     1     -12.465  13.336  65.878  1.00  0.00     0.000 HD 
ENDBRANCH   2   3
BRANCH   2   7
HETATM    7  C   UNL     1     -11.551  15.728  68.651  1.00  0.00    -0.386 C  
HETATM    8  O   UNL     1     -12.119  16.553  69.369  1.00  0.00     0.163 OA 
BRANCH   7   9
HETATM    9  N   UNL     1     -10.622  16.113  67.715  1.00  0.00    -0.302 N  
HETATM   10  H   UNL     1     -10.937  16.369  66.779  1.00  0.00     0.000 HD 
BRANCH   9  11
HETATM   11  C   UNL     1      -9.183  16.164  68.027  1.00  0.00    -0.195 C  
HETATM   12  C   UNL     1      -8.381  15.717  66.792  1.00  0.00    -0.278 C  
HETATM   13  O   UNL     1      -8.548  16.628  65.706  1.00  0.00    -0.464 OA 
HETATM   14  O   UNL     1      -8.883  14.448  66.370  1.00  0.00    -0.458 OA 
HETATM   15  H   UNL     1      -8.388  14.172  65.608  1.00  0.00     0.000 HD 
HETATM   16  C   UNL     1      -8.111  17.969  65.985  1.00  0.00    -0.089 C  
HETATM   17  C   UNL     1      -8.788  18.547  67.248  1.00  0.00    -0.270 C  
HETATM   18  H   UNL     1      -7.107  18.365  69.207  1.00  0.00     0.000 HD 
HETATM   19  C   UNL     1      -8.726  17.575  68.441  1.00  0.00    -0.276 C  
HETATM   20  O   UNL     1     -10.158  18.854  66.945  1.00  0.00    -0.322 OA 
HETATM   21  O   UNL     1      -7.390  17.495  68.952  1.00  0.00    -0.257 OA 
HETATM   22  H   UNL     1     -10.574  19.210  67.722  1.00  0.00     0.000 HD 
BRANCH  16  23
HETATM   23  C   UNL     1      -6.577  18.073  65.994  1.00  0.00    -0.275 C  
HETATM   24  O   UNL     1      -6.128  19.188  66.755  1.00  0.00    -0.170 OA 
HETATM   25  H   UNL     1      -5.180  19.253  66.762  1.00  0.00     0.000 HD 
ENDBRANCH  16  23
ENDBRANCH   9  11
ENDBRANCH   7   9
ENDBRANCH   2   7
TORSDOF 5
ENDMDL
MODEL      115
REMARK 921   NORMALIZED FREE ENERGY PREDICTED BY IDOCK:   -4.10 KCAL/MOL
REMARK 922        TOTAL FREE ENERGY PREDICTED BY IDOCK:   -6.12 KCAL/MOL
REMARK 923 INTER-LIGAND FREE ENERGY PREDICTED BY IDOCK:   -4.81 KCAL/MOL
REMARK 924 INTRA-LIGAND FREE ENERGY PREDICTED BY IDOCK:   -1.32 KCAL/MOL
REMARK 927      BINDING AFFINITY PREDICTED BY RF-SCORE:    0.00 PKD
ROOT
HETATM    1  C   UNL     1     -12.674  12.082  63.323  1.00  0.00    -0.303 C  
HETATM    2  N   UNL     1     -11.395  11.568  63.784  1.00  0.00    -0.386 N  
ENDROOT
BRANCH   2   3
HETATM    3  N   UNL     1     -10.358  11.292  62.890  1.00  0.00    -0.700 NA 
HETATM    4  H   UNL     1     -10.452  10.614  62.134  1.00  0.00     0.000 HD 
HETATM    5  O   UNL     1      -9.321  11.930  63.083  1.00  0.00    -0.625 OA 
HETATM    6  H   UNL     1      -8.616  11.742  62.475  1.00  0.00     0.000 HD 
ENDBRANCH   2   3
BRANCH   2   7
HETATM    7  C   UNL     1     -11.164  11.497  65.158  1.00  0.00    -0.146 C  
HETATM    8  O   UNL     1     -11.913  12.011  65.991  1.00  0.00    -0.559 OA 
BRANCH   7   9
HETATM    9  N   UNL     1     -10.022  10.833  65.533  1.00  0.00    -0.248 N  
HETATM   10  H   UNL     1      -9.147  11.352  65.604  1.00  0.00     0.000 HD 
BRANCH   9  11
HETATM   11  C   UNL     1     -10.029   9.391  65.836  1.00  0.00    -0.256 C  
HETATM   12  C   UNL     1      -8.766   8.743  65.238  1.00  0.00    -0.182 C  
HETATM   13  O   UNL     1      -7.582   9.239  65.864  1.00  0.00    -0.096 OA 
HETATM   14  O   UNL     1      -8.699   9.090  63.854  1.00  0.00    -0.350 OA 
HETATM   15  H   UNL     1      -7.920   8.691  63.486  1.00  0.00     0.000 HD 
HETATM   16  C   UNL     1      -7.511   8.991  67.278  1.00  0.00    -0.084 C  
HETATM   17  C   UNL     1      -8.751   9.534  68.024  1.00  0.00    -0.120 C  
HETATM   18  H   UNL     1     -10.337   7.542  68.487  1.00  0.00     0.000 HD 
HETATM   19  C   UNL     1     -10.070   9.112  67.349  1.00  0.00    -0.230 C  
HETATM   20  O   UNL     1      -8.673  10.967  68.080  1.00  0.00    -0.125 OA 
HETATM   21  O   UNL     1     -10.312   7.715  67.553  1.00  0.00    -0.212 OA 
HETATM   22  H   UNL     1      -9.435  11.300  68.539  1.00  0.00     0.000 HD 
BRANCH  16  23
HETATM   23  C   UNL     1      -7.198   7.516  67.578  1.00  0.00    -0.090 C  
HETATM   24  O   UNL     1      -7.586   7.151  68.897  1.00  0.00    -0.096 OA 
HETATM   25  H   UNL     1      -7.392   6.239  69.083  1.00  0.00     0.000 HD 
ENDBRANCH  16  23
ENDBRANCH   9  11
ENDBRANCH   7   9
ENDBRANCH   2   7
TORSDOF 5
ENDMDL
MODEL      116
REMARK 921   NORMALIZED FREE ENERGY PREDICTED BY IDOCK:   -4.09 KCAL/MOL
REMARK 922        TOTAL FREE ENERGY PREDICTED BY IDOCK:   -6.11 KCAL/MOL
REMARK 923 INTER-LIGAND FREE ENERGY PREDICTED BY IDOCK:   -5.68 KCAL/MOL
REMARK 924 INTRA-LIGAND FREE ENERGY PREDICTED BY IDOCK:   -0.44 KCAL/MOL
REMARK 927      BINDING AFFINITY PREDICTED BY RF-SCORE:    0.00 PKD
ROOT
HETATM    1  C   UNL     1      -6.204  12.314  69.342  1.00  0.00    -0.110 C  
HETATM    2  N   UNL     1      -6.288  13.353  68.328  1.00  0.00    -0.090 N  
ENDROOT
BRANCH   2   3
HETATM    3  N   UNL     1      -5.642  13.219  67.097  1.00  0.00    -0.349 NA 
HETATM    4  H   UNL     1      -5.107  13.978  66.673  1.00  0.00     0.000 HD 
HETATM    5  O   UNL     1      -5.766  12.117  66.560  1.00  0.00    -0.493 OA 
HETATM    6  H   UNL     1      -5.327  12.026  65.723  1.00  0.00     0.000 HD 
ENDBRANCH   2   3
BRANCH   2   7
HETATM    7  C   UNL     1      -7.153  14.425  68.545  1.00  0.00    -0.109 C  
HETATM    8  O   UNL     1      -7.425  14.851  69.669  1.00  0.00    -0.180 OA 
BRANCH   7   9
HETATM    9  N   UNL     1      -7.713  14.972  67.416  1.00  0.00    -0.186 N  
HETATM   10  H   UNL     1      -7.202  14.925  66.535  1.00  0.00     0.000 HD 
BRANCH   9  11
HETATM   11  C   UNL     1      -9.034  15.624  67.446  1.00  0.00    -0.194 C  
HETATM   12  C   UNL     1      -9.178  16.532  66.210  1.00  0.00    -0.310 C  
HETATM   13  O   UNL     1      -9.178  15.770  65.003  1.00  0.00     0.222 OA 
HETATM   14  O   UNL     1      -8.050  17.407  66.167  1.00  0.00    -0.406 OA 
HETATM   15  H   UNL     1      -8.138  17.967  65.405  1.00  0.00     0.000 HD 
HETATM   16  C   UNL     1     -10.246  14.813  64.906  1.00  0.00    -0.275 C  
HETATM   17  C   UNL     1     -10.277  13.854  66.118  1.00  0.00    -0.301 C  
HETATM   18  H   UNL     1     -12.125  14.672  67.734  1.00  0.00     0.000 HD 
HETATM   19  C   UNL     1     -10.188  14.606  67.459  1.00  0.00    -0.225 C  
HETATM   20  O   UNL     1      -9.185  12.928  66.009  1.00  0.00    -0.451 OA 
HETATM   21  O   UNL     1     -11.412  15.300  67.726  1.00  0.00    -0.335 OA 
HETATM   22  H   UNL     1      -9.204  12.338  66.753  1.00  0.00     0.000 HD 
BRANCH  16  23
HETATM   23  C   UNL     1     -11.592  15.498  64.616  1.00  0.00    -0.281 C  
HETATM   24  O   UNL     1     -11.427  16.680  63.842  1.00  0.00    -1.604 OA 
HETATM   25  H   UNL     1     -12.259  17.103  63.663  1.00  0.00     0.000 HD 
ENDBRANCH  16  23
ENDBRANCH   9  11
ENDBRANCH   7   9
ENDBRANCH   2   7
TORSDOF 5
ENDMDL
MODEL      117
REMARK 921   NORMALIZED FREE ENERGY PREDICTED BY IDOCK:   -4.09 KCAL/MOL
REMARK 922        TOTAL FREE ENERGY PREDICTED BY IDOCK:   -6.10 KCAL/MOL
REMARK 923 INTER-LIGAND FREE ENERGY PREDICTED BY IDOCK:   -5.36 KCAL/MOL
REMARK 924 INTRA-LIGAND FREE ENERGY PREDICTED BY IDOCK:   -0.74 KCAL/MOL
REMARK 927      BINDING AFFINITY PREDICTED BY RF-SCORE:    0.00 PKD
ROOT
HETATM    1  C   UNL     1      -8.795   7.945  65.584  1.00  0.00    -0.082 C  
HETATM    2  N   UNL     1      -9.886   7.793  66.531  1.00  0.00    -0.212 N  
ENDROOT
BRANCH   2   3
HETATM    3  N   UNL     1     -10.759   6.704  66.465  1.00  0.00    -0.521 NA 
HETATM    4  H   UNL     1     -11.731   6.760  66.771  1.00  0.00     0.000 HD 
HETATM    5  O   UNL     1     -10.268   5.670  66.008  1.00  0.00    -0.390 OA 
HETATM    6  H   UNL     1     -10.861   4.930  65.964  1.00  0.00     0.000 HD 
ENDBRANCH   2   3
BRANCH   2   7
HETATM    7  C   UNL     1      -9.960   8.675  67.609  1.00  0.00    -0.194 C  
HETATM    8  O   UNL     1     -10.163   8.304  68.767  1.00  0.00    -0.202 OA 
BRANCH   7   9
HETATM    9  N   UNL     1      -9.816  10.005  67.297  1.00  0.00    -0.174 N  
HETATM   10  H   UNL     1      -8.905  10.348  66.995  1.00  0.00     0.000 HD 
BRANCH   9  11
HETATM   11  C   UNL     1     -10.945  10.947  67.387  1.00  0.00    -0.293 C  
HETATM   12  C   UNL     1     -10.727  11.883  68.590  1.00  0.00    -0.235 C  
HETATM   13  O   UNL     1      -9.579  12.711  68.404  1.00  0.00    -0.217 OA 
HETATM   14  O   UNL     1     -10.494  11.076  69.746  1.00  0.00    -0.444 OA 
HETATM   15  H   UNL     1     -10.360  11.654  70.488  1.00  0.00     0.000 HD 
HETATM   16  C   UNL     1      -9.648  13.571  67.254  1.00  0.00    -0.235 C  
HETATM   17  C   UNL     1      -9.926  12.779  65.956  1.00  0.00    -0.271 C  
HETATM   18  H   UNL     1     -12.439  13.030  65.393  1.00  0.00     0.000 HD 
HETATM   19  C   UNL     1     -11.101  11.796  66.112  1.00  0.00    -0.307 C  
HETATM   20  O   UNL     1      -8.739  12.061  65.583  1.00  0.00    -0.396 OA 
HETATM   21  O   UNL     1     -12.343  12.506  66.180  1.00  0.00    -0.596 OA 
HETATM   22  H   UNL     1      -8.910  11.575  64.785  1.00  0.00     0.000 HD 
BRANCH  16  23
HETATM   23  C   UNL     1     -10.609  14.748  67.487  1.00  0.00    -0.259 C  
HETATM   24  O   UNL     1     -11.207  15.189  66.273  1.00  0.00    -0.337 OA 
HETATM   25  H   UNL     1     -11.801  15.917  66.416  1.00  0.00     0.000 HD 
ENDBRANCH  16  23
ENDBRANCH   9  11
ENDBRANCH   7   9
ENDBRANCH   2   7
TORSDOF 5
ENDMDL
MODEL      118
REMARK 921   NORMALIZED FREE ENERGY PREDICTED BY IDOCK:   -4.08 KCAL/MOL
REMARK 922        TOTAL FREE ENERGY PREDICTED BY IDOCK:   -6.09 KCAL/MOL
REMARK 923 INTER-LIGAND FREE ENERGY PREDICTED BY IDOCK:   -5.13 KCAL/MOL
REMARK 924 INTRA-LIGAND FREE ENERGY PREDICTED BY IDOCK:   -0.97 KCAL/MOL
REMARK 927      BINDING AFFINITY PREDICTED BY RF-SCORE:    0.00 PKD
ROOT
HETATM    1  C   UNL     1      -8.635   6.584  67.102  1.00  0.00    -0.111 C  
HETATM    2  N   UNL     1      -8.803   7.932  66.585  1.00  0.00    -0.139 N  
ENDROOT
BRANCH   2   3
HETATM    3  N   UNL     1      -8.110   8.367  65.452  1.00  0.00    -0.125 NA 
HETATM    4  H   UNL     1      -7.193   8.810  65.508  1.00  0.00     0.000 HD 
HETATM    5  O   UNL     1      -8.690   8.175  64.382  1.00  0.00    -0.396 OA 
HETATM    6  H   UNL     1      -8.218   8.471  63.612  1.00  0.00     0.000 HD 
ENDBRANCH   2   3
BRANCH   2   7
HETATM    7  C   UNL     1      -9.788   8.743  67.149  1.00  0.00    -0.207 C  
HETATM    8  O   UNL     1     -10.143   8.646  68.325  1.00  0.00    -0.178 OA 
BRANCH   7   9
HETATM    9  N   UNL     1     -10.366   9.652  66.298  1.00  0.00    -0.208 N  
HETATM   10  H   UNL     1     -11.212   9.389  65.791  1.00  0.00     0.000 HD 
BRANCH   9  11
HETATM   11  C   UNL     1      -9.799  10.997  66.098  1.00  0.00    -0.225 C  
HETATM   12  C   UNL     1     -10.538  11.691  64.940  1.00  0.00    -0.296 C  
HETATM   13  O   UNL     1     -11.909  11.922  65.262  1.00  0.00    -0.267 OA 
HETATM   14  O   UNL     1     -10.502  10.824  63.805  1.00  0.00    -0.488 OA 
HETATM   15  H   UNL     1     -10.958  11.252  63.090  1.00  0.00     0.000 HD 
HETATM   16  C   UNL     1     -12.114  12.763  66.410  1.00  0.00    -0.300 C  
HETATM   17  C   UNL     1     -11.377  12.228  67.658  1.00  0.00    -0.311 C  
HETATM   18  H   UNL     1      -9.202  13.599  67.947  1.00  0.00     0.000 HD 
HETATM   19  C   UNL     1      -9.909  11.871  67.361  1.00  0.00    -0.183 C  
HETATM   20  O   UNL     1     -12.068  11.068  68.148  1.00  0.00    -0.743 OA 
HETATM   21  O   UNL     1      -9.133  13.060  67.167  1.00  0.00    -0.209 OA 
HETATM   22  H   UNL     1     -11.615  10.740  68.916  1.00  0.00     0.000 HD 
BRANCH  16  23
HETATM   23  C   UNL     1     -11.816  14.237  66.091  1.00  0.00    -0.402 C  
HETATM   24  O   UNL     1     -11.346  14.940  67.235  1.00  0.00    -0.336 OA 
HETATM   25  H   UNL     1     -11.161  15.851  67.038  1.00  0.00     0.000 HD 
ENDBRANCH  16  23
ENDBRANCH   9  11
ENDBRANCH   7   9
ENDBRANCH   2   7
TORSDOF 5
ENDMDL
MODEL      119
REMARK 921   NORMALIZED FREE ENERGY PREDICTED BY IDOCK:   -4.07 KCAL/MOL
REMARK 922        TOTAL FREE ENERGY PREDICTED BY IDOCK:   -6.08 KCAL/MOL
REMARK 923 INTER-LIGAND FREE ENERGY PREDICTED BY IDOCK:   -5.07 KCAL/MOL
REMARK 924 INTRA-LIGAND FREE ENERGY PREDICTED BY IDOCK:   -1.00 KCAL/MOL
REMARK 927      BINDING AFFINITY PREDICTED BY RF-SCORE:    0.00 PKD
ROOT
HETATM    1  C   UNL     1     -10.853  19.614  67.036  1.00  0.00    -0.399 C  
HETATM    2  N   UNL     1      -9.889  19.065  66.097  1.00  0.00    -0.361 N  
ENDROOT
BRANCH   2   3
HETATM    3  N   UNL     1      -8.691  19.728  65.816  1.00  0.00    -0.434 NA 
HETATM    4  H   UNL     1      -8.603  20.743  65.859  1.00  0.00     0.000 HD 
HETATM    5  O   UNL     1      -7.749  18.993  65.512  1.00  0.00    -0.436 OA 
HETATM    6  H   UNL     1      -6.935  19.444  65.321  1.00  0.00     0.000 HD 
ENDBRANCH   2   3
BRANCH   2   7
HETATM    7  C   UNL     1     -10.108  17.784  65.592  1.00  0.00     0.082 C  
HETATM    8  O   UNL     1     -11.015  17.522  64.800  1.00  0.00    -0.950 OA 
BRANCH   7   9
HETATM    9  N   UNL     1      -9.258  16.810  66.056  1.00  0.00    -0.244 N  
HETATM   10  H   UNL     1      -8.355  16.680  65.599  1.00  0.00     0.000 HD 
BRANCH   9  11
HETATM   11  C   UNL     1      -9.616  15.950  67.197  1.00  0.00    -0.218 C  
HETATM   12  C   UNL     1      -8.875  14.606  67.069  1.00  0.00    -0.241 C  
HETATM   13  O   UNL     1      -7.463  14.779  67.175  1.00  0.00    -0.179 OA 
HETATM   14  O   UNL     1      -9.148  14.070  65.773  1.00  0.00    -0.445 OA 
HETATM   15  H   UNL     1      -8.691  13.240  65.694  1.00  0.00     0.000 HD 
HETATM   16  C   UNL     1      -7.027  15.341  68.424  1.00  0.00    -0.111 C  
HETATM   17  C   UNL     1      -7.731  16.682  68.732  1.00  0.00    -0.233 C  
HETATM   18  H   UNL     1      -9.624  16.213  70.434  1.00  0.00     0.000 HD 
HETATM   19  C   UNL     1      -9.258  16.594  68.549  1.00  0.00    -0.234 C  
HETATM   20  O   UNL     1      -7.198  17.699  67.870  1.00  0.00    -0.195 OA 
HETATM   21  O   UNL     1      -9.844  15.816  69.599  1.00  0.00    -0.276 OA 
HETATM   22  H   UNL     1      -7.631  18.523  68.060  1.00  0.00     0.000 HD 
BRANCH  16  23
HETATM   23  C   UNL     1      -7.109  14.315  69.565  1.00  0.00    -0.045 C  
HETATM   24  O   UNL     1      -6.006  14.428  70.457  1.00  0.00    -0.155 OA 
HETATM   25  H   UNL     1      -6.056  13.793  71.163  1.00  0.00     0.000 HD 
ENDBRANCH  16  23
ENDBRANCH   9  11
ENDBRANCH   7   9
ENDBRANCH   2   7
TORSDOF 5
ENDMDL
MODEL      120
REMARK 921   NORMALIZED FREE ENERGY PREDICTED BY IDOCK:   -4.06 KCAL/MOL
REMARK 922        TOTAL FREE ENERGY PREDICTED BY IDOCK:   -6.07 KCAL/MOL
REMARK 923 INTER-LIGAND FREE ENERGY PREDICTED BY IDOCK:   -5.52 KCAL/MOL
REMARK 924 INTRA-LIGAND FREE ENERGY PREDICTED BY IDOCK:   -0.55 KCAL/MOL
REMARK 927      BINDING AFFINITY PREDICTED BY RF-SCORE:    0.00 PKD
ROOT
HETATM    1  C   UNL     1      -9.975   8.761  67.810  1.00  0.00    -0.194 C  
HETATM    2  N   UNL     1     -10.536  10.092  67.981  1.00  0.00    -0.203 N  
ENDROOT
BRANCH   2   3
HETATM    3  N   UNL     1     -11.858  10.275  68.392  1.00  0.00    -0.717 NA 
HETATM    4  H   UNL     1     -12.602  10.535  67.745  1.00  0.00     0.000 HD 
HETATM    5  O   UNL     1     -12.057  10.100  69.596  1.00  0.00    -0.487 OA 
HETATM    6  H   UNL     1     -12.956  10.225  69.876  1.00  0.00     0.000 HD 
ENDBRANCH   2   3
BRANCH   2   7
HETATM    7  C   UNL     1      -9.684  11.191  67.873  1.00  0.00    -0.174 C  
HETATM    8  O   UNL     1      -8.663  11.183  67.182  1.00  0.00    -0.136 OA 
BRANCH   7   9
HETATM    9  N   UNL     1     -10.039  12.291  68.614  1.00  0.00    -0.360 N  
HETATM   10  H   UNL     1      -9.589  12.447  69.517  1.00  0.00     0.000 HD 
BRANCH   9  11
HETATM   11  C   UNL     1     -11.051  13.251  68.141  1.00  0.00    -0.259 C  
HETATM   12  C   UNL     1     -11.326  14.283  69.249  1.00  0.00    -0.283 C  
HETATM   13  O   UNL     1     -10.172  15.078  69.517  1.00  0.00    -0.225 OA 
HETATM   14  O   UNL     1     -11.650  13.575  70.447  1.00  0.00    -0.510 OA 
HETATM   15  H   UNL     1     -11.820  14.213  71.131  1.00  0.00     0.000 HD 
HETATM   16  C   UNL     1      -9.700  15.838  68.392  1.00  0.00    -0.203 C  
HETATM   17  C   UNL     1      -9.431  14.942  67.162  1.00  0.00    -0.225 C  
HETATM   18  H   UNL     1     -11.445  15.172  65.553  1.00  0.00     0.000 HD 
HETATM   19  C   UNL     1     -10.604  13.988  66.866  1.00  0.00    -0.280 C  
HETATM   20  O   UNL     1      -8.235  14.181  67.390  1.00  0.00    -0.173 OA 
HETATM   21  O   UNL     1     -11.720  14.716  66.340  1.00  0.00    -0.369 OA 
HETATM   22  H   UNL     1      -8.069  13.630  66.633  1.00  0.00     0.000 HD 
BRANCH  16  23
HETATM   23  C   UNL     1     -10.611  17.042  68.101  1.00  0.00    -0.369 C  
HETATM   24  O   UNL     1      -9.998  18.270  68.477  1.00  0.00    -0.357 OA 
HETATM   25  H   UNL     1     -10.561  19.014  68.298  1.00  0.00     0.000 HD 
ENDBRANCH  16  23
ENDBRANCH   9  11
ENDBRANCH   7   9
ENDBRANCH   2   7
TORSDOF 5
ENDMDL
MODEL      121
REMARK 921   NORMALIZED FREE ENERGY PREDICTED BY IDOCK:   -4.04 KCAL/MOL
REMARK 922        TOTAL FREE ENERGY PREDICTED BY IDOCK:   -6.05 KCAL/MOL
REMARK 923 INTER-LIGAND FREE ENERGY PREDICTED BY IDOCK:   -4.96 KCAL/MOL
REMARK 924 INTRA-LIGAND FREE ENERGY PREDICTED BY IDOCK:   -1.09 KCAL/MOL
REMARK 927      BINDING AFFINITY PREDICTED BY RF-SCORE:    0.00 PKD
ROOT
HETATM    1  C   UNL     1      -8.732   6.693  65.735  1.00  0.00    -0.116 C  
HETATM    2  N   UNL     1      -8.776   7.982  66.404  1.00  0.00    -0.143 N  
ENDROOT
BRANCH   2   3
HETATM    3  N   UNL     1      -8.414   8.117  67.747  1.00  0.00    -0.131 NA 
HETATM    4  H   UNL     1      -7.828   8.881  68.083  1.00  0.00     0.000 HD 
HETATM    5  O   UNL     1      -8.857   7.243  68.495  1.00  0.00    -0.130 OA 
HETATM    6  H   UNL     1      -8.610   7.335  69.408  1.00  0.00     0.000 HD 
ENDBRANCH   2   3
BRANCH   2   7
HETATM    7  C   UNL     1      -9.041   9.119  65.641  1.00  0.00    -0.219 C  
HETATM    8  O   UNL     1      -8.962   9.134  64.411  1.00  0.00    -0.173 OA 
BRANCH   7   9
HETATM    9  N   UNL     1      -9.375  10.246  66.351  1.00  0.00    -0.161 N  
HETATM   10  H   UNL     1      -8.642  10.758  66.842  1.00  0.00     0.000 HD 
BRANCH   9  11
HETATM   11  C   UNL     1     -10.763  10.734  66.422  1.00  0.00    -0.163 C  
HETATM   12  C   UNL     1     -11.226  10.730  67.891  1.00  0.00    -0.318 C  
HETATM   13  O   UNL     1     -10.476  11.658  68.674  1.00  0.00    -0.203 OA 
HETATM   14  O   UNL     1     -10.994   9.427  68.427  1.00  0.00    -0.431 OA 
HETATM   15  H   UNL     1     -11.280   9.424  69.333  1.00  0.00     0.000 HD 
HETATM   16  C   UNL     1     -10.583  13.024  68.240  1.00  0.00    -0.247 C  
HETATM   17  C   UNL     1     -10.205  13.188  66.751  1.00  0.00    -0.252 C  
HETATM   18  H   UNL     1     -12.399  13.341  65.385  1.00  0.00     0.000 HD 
HETATM   19  C   UNL     1     -10.912  12.156  65.852  1.00  0.00    -0.292 C  
HETATM   20  O   UNL     1      -8.782  13.058  66.612  1.00  0.00    -0.392 OA 
HETATM   21  O   UNL     1     -12.306  12.463  65.737  1.00  0.00    -0.644 OA 
HETATM   22  H   UNL     1      -8.550  13.159  65.696  1.00  0.00     0.000 HD 
BRANCH  16  23
HETATM   23  C   UNL     1     -11.947  13.629  68.610  1.00  0.00    -0.360 C  
HETATM   24  O   UNL     1     -12.260  14.759  67.803  1.00  0.00    -0.582 OA 
HETATM   25  H   UNL     1     -13.103  15.133  68.032  1.00  0.00     0.000 HD 
ENDBRANCH  16  23
ENDBRANCH   9  11
ENDBRANCH   7   9
ENDBRANCH   2   7
TORSDOF 5
ENDMDL
MODEL      122
REMARK 921   NORMALIZED FREE ENERGY PREDICTED BY IDOCK:   -4.04 KCAL/MOL
REMARK 922        TOTAL FREE ENERGY PREDICTED BY IDOCK:   -6.05 KCAL/MOL
REMARK 923 INTER-LIGAND FREE ENERGY PREDICTED BY IDOCK:   -5.17 KCAL/MOL
REMARK 924 INTRA-LIGAND FREE ENERGY PREDICTED BY IDOCK:   -0.87 KCAL/MOL
REMARK 927      BINDING AFFINITY PREDICTED BY RF-SCORE:    0.00 PKD
ROOT
HETATM    1  C   UNL     1      -5.693  16.657  69.629  1.00  0.00    -0.190 C  
HETATM    2  N   UNL     1      -6.494  16.294  68.471  1.00  0.00    -0.126 N  
ENDROOT
BRANCH   2   3
HETATM    3  N   UNL     1      -5.910  15.740  67.329  1.00  0.00    -0.332 NA 
HETATM    4  H   UNL     1      -5.577  16.312  66.552  1.00  0.00     0.000 HD 
HETATM    5  O   UNL     1      -5.827  14.511  67.330  1.00  0.00    -0.342 OA 
HETATM    6  H   UNL     1      -5.431  14.135  66.554  1.00  0.00     0.000 HD 
ENDBRANCH   2   3
BRANCH   2   7
HETATM    7  C   UNL     1      -7.883  16.366  68.575  1.00  0.00    -0.197 C  
HETATM    8  O   UNL     1      -8.496  17.433  68.643  1.00  0.00    -0.268 OA 
BRANCH   7   9
HETATM    9  N   UNL     1      -8.537  15.159  68.624  1.00  0.00    -0.163 N  
HETATM   10  H   UNL     1      -8.362  14.532  69.409  1.00  0.00     0.000 HD 
BRANCH   9  11
HETATM   11  C   UNL     1      -9.484  14.748  67.574  1.00  0.00    -0.197 C  
HETATM   12  C   UNL     1      -9.313  13.242  67.300  1.00  0.00    -0.226 C  
HETATM   13  O   UNL     1      -9.676  12.463  68.439  1.00  0.00    -0.217 OA 
HETATM   14  O   UNL     1      -7.933  12.993  67.029  1.00  0.00    -0.356 OA 
HETATM   15  H   UNL     1      -7.828  12.064  66.860  1.00  0.00     0.000 HD 
HETATM   16  C   UNL     1     -11.041  12.626  68.859  1.00  0.00    -0.259 C  
HETATM   17  C   UNL     1     -11.393  14.108  69.119  1.00  0.00    -0.279 C  
HETATM   18  H   UNL     1     -12.680  14.995  67.056  1.00  0.00     0.000 HD 
HETATM   19  C   UNL     1     -10.946  15.025  67.965  1.00  0.00    -0.284 C  
HETATM   20  O   UNL     1     -10.768  14.530  70.341  1.00  0.00    -0.467 OA 
HETATM   21  O   UNL     1     -11.777  14.824  66.815  1.00  0.00    -0.366 OA 
HETATM   22  H   UNL     1     -10.985  15.441  70.501  1.00  0.00     0.000 HD 
BRANCH  16  23
HETATM   23  C   UNL     1     -12.014  11.910  67.908  1.00  0.00    -0.118 C  
HETATM   24  O   UNL     1     -12.016  10.503  68.117  1.00  0.00    -0.788 OA 
HETATM   25  H   UNL     1     -12.618  10.059  67.529  1.00  0.00     0.000 HD 
ENDBRANCH  16  23
ENDBRANCH   9  11
ENDBRANCH   7   9
ENDBRANCH   2   7
TORSDOF 5
ENDMDL
MODEL      123
REMARK 921   NORMALIZED FREE ENERGY PREDICTED BY IDOCK:   -4.04 KCAL/MOL
REMARK 922        TOTAL FREE ENERGY PREDICTED BY IDOCK:   -6.04 KCAL/MOL
REMARK 923 INTER-LIGAND FREE ENERGY PREDICTED BY IDOCK:   -5.38 KCAL/MOL
REMARK 924 INTRA-LIGAND FREE ENERGY PREDICTED BY IDOCK:   -0.66 KCAL/MOL
REMARK 927      BINDING AFFINITY PREDICTED BY RF-SCORE:    0.00 PKD
ROOT
HETATM    1  C   UNL     1      -9.392  10.286  69.449  1.00  0.00    -0.199 C  
HETATM    2  N   UNL     1     -10.451  10.641  68.518  1.00  0.00    -0.180 N  
ENDROOT
BRANCH   2   3
HETATM    3  N   UNL     1     -10.540  10.046  67.258  1.00  0.00    -0.258 NA 
HETATM    4  H   UNL     1     -10.149  10.477  66.419  1.00  0.00     0.000 HD 
HETATM    5  O   UNL     1     -11.125   8.961  67.234  1.00  0.00    -0.373 OA 
HETATM    6  H   UNL     1     -11.186   8.557  66.377  1.00  0.00     0.000 HD 
ENDBRANCH   2   3
BRANCH   2   7
HETATM    7  C   UNL     1     -11.473  11.480  68.963  1.00  0.00    -0.291 C  
HETATM    8  O   UNL     1     -12.616  11.080  69.192  1.00  0.00    -0.378 OA 
BRANCH   7   9
HETATM    9  N   UNL     1     -11.134  12.803  69.107  1.00  0.00    -0.385 N  
HETATM   10  H   UNL     1     -11.358  13.281  69.980  1.00  0.00     0.000 HD 
BRANCH   9  11
HETATM   11  C   UNL     1     -10.454  13.549  68.034  1.00  0.00    -0.242 C  
HETATM   12  C   UNL     1     -11.476  14.457  67.324  1.00  0.00    -0.359 C  
HETATM   13  O   UNL     1     -11.977  15.463  68.203  1.00  0.00    -0.253 OA 
HETATM   14  O   UNL     1     -12.583  13.649  66.918  1.00  0.00    -0.336 OA 
HETATM   15  H   UNL     1     -13.213  14.209  66.480  1.00  0.00     0.000 HD 
HETATM   16  C   UNL     1     -10.971  16.348  68.724  1.00  0.00    -0.344 C  
HETATM   17  C   UNL     1      -9.829  15.578  69.424  1.00  0.00    -0.283 C  
HETATM   18  H   UNL     1      -7.833  15.449  67.782  1.00  0.00     0.000 HD 
HETATM   19  C   UNL     1      -9.298  14.415  68.566  1.00  0.00    -0.204 C  
HETATM   20  O   UNL     1     -10.306  15.074  70.681  1.00  0.00    -0.508 OA 
HETATM   21  O   UNL     1      -8.547  14.915  67.454  1.00  0.00    -0.169 OA 
HETATM   22  H   UNL     1      -9.603  14.601  71.112  1.00  0.00     0.000 HD 
BRANCH  16  23
HETATM   23  C   UNL     1     -10.491  17.347  67.659  1.00  0.00    -0.368 C  
HETATM   24  O   UNL     1      -9.250  17.944  68.016  1.00  0.00    -0.255 OA 
HETATM   25  H   UNL     1      -8.953  18.562  67.358  1.00  0.00     0.000 HD 
ENDBRANCH  16  23
ENDBRANCH   9  11
ENDBRANCH   7   9
ENDBRANCH   2   7
TORSDOF 5
ENDMDL
MODEL      124
REMARK 921   NORMALIZED FREE ENERGY PREDICTED BY IDOCK:   -4.01 KCAL/MOL
REMARK 922        TOTAL FREE ENERGY PREDICTED BY IDOCK:   -6.01 KCAL/MOL
REMARK 923 INTER-LIGAND FREE ENERGY PREDICTED BY IDOCK:   -4.99 KCAL/MOL
REMARK 924 INTRA-LIGAND FREE ENERGY PREDICTED BY IDOCK:   -1.01 KCAL/MOL
REMARK 927      BINDING AFFINITY PREDICTED BY RF-SCORE:    0.00 PKD
ROOT
HETATM    1  C   UNL     1      -9.177   8.270  71.355  1.00  0.00    -0.169 C  
HETATM    2  N   UNL     1      -9.728   9.341  70.541  1.00  0.00    -0.240 N  
ENDROOT
BRANCH   2   3
HETATM    3  N   UNL     1     -11.085   9.670  70.596  1.00  0.00    -0.292 NA 
HETATM    4  H   UNL     1     -11.823   8.970  70.520  1.00  0.00     0.000 HD 
HETATM    5  O   UNL     1     -11.323  10.870  70.743  1.00  0.00    -0.395 OA 
HETATM    6  H   UNL     1     -12.246  11.094  70.780  1.00  0.00     0.000 HD 
ENDBRANCH   2   3
BRANCH   2   7
HETATM    7  C   UNL     1      -8.849  10.141  69.811  1.00  0.00    -0.127 C  
HETATM    8  O   UNL     1      -7.689  10.358  70.165  1.00  0.00    -0.122 OA 
BRANCH   7   9
HETATM    9  N   UNL     1      -9.368  10.704  68.671  1.00  0.00    -0.169 N  
HETATM   10  H   UNL     1      -9.410  11.720  68.594  1.00  0.00     0.000 HD 
BRANCH   9  11
HETATM   11  C   UNL     1      -9.864   9.878  67.556  1.00  0.00    -0.169 C  
HETATM   12  C   UNL     1     -11.146  10.514  66.987  1.00  0.00    -0.110 C  
HETATM   13  O   UNL     1     -10.878  11.788  66.402  1.00  0.00    -0.259 OA 
HETATM   14  O   UNL     1     -12.059  10.719  68.067  1.00  0.00    -0.778 OA 
HETATM   15  H   UNL     1     -12.849  11.111  67.716  1.00  0.00     0.000 HD 
HETATM   16  C   UNL     1      -9.946  11.754  65.308  1.00  0.00    -0.253 C  
HETATM   17  C   UNL     1      -8.612  11.082  65.705  1.00  0.00    -0.150 C  
HETATM   18  H   UNL     1      -8.644   8.656  64.806  1.00  0.00     0.000 HD 
HETATM   19  C   UNL     1      -8.828   9.738  66.426  1.00  0.00    -0.146 C  
HETATM   20  O   UNL     1      -7.874  11.974  66.554  1.00  0.00    -0.377 OA 
HETATM   21  O   UNL     1      -9.284   8.742  65.503  1.00  0.00    -0.203 OA 
HETATM   22  H   UNL     1      -7.054  11.561  66.798  1.00  0.00     0.000 HD 
BRANCH  16  23
HETATM   23  C   UNL     1     -10.587  11.170  64.038  1.00  0.00    -0.368 C  
HETATM   24  O   UNL     1     -10.948  12.189  63.113  1.00  0.00    -0.663 OA 
HETATM   25  H   UNL     1     -11.344  11.829  62.328  1.00  0.00     0.000 HD 
ENDBRANCH  16  23
ENDBRANCH   9  11
ENDBRANCH   7   9
ENDBRANCH   2   7
TORSDOF 5
ENDMDL
MODEL      125
REMARK 921   NORMALIZED FREE ENERGY PREDICTED BY IDOCK:   -3.98 KCAL/MOL
REMARK 922        TOTAL FREE ENERGY PREDICTED BY IDOCK:   -5.96 KCAL/MOL
REMARK 923 INTER-LIGAND FREE ENERGY PREDICTED BY IDOCK:   -4.79 KCAL/MOL
REMARK 924 INTRA-LIGAND FREE ENERGY PREDICTED BY IDOCK:   -1.18 KCAL/MOL
REMARK 927      BINDING AFFINITY PREDICTED BY RF-SCORE:    0.00 PKD
ROOT
HETATM    1  C   UNL     1     -13.932   6.372  71.961  1.00  0.00     0.361 C  
HETATM    2  N   UNL     1     -12.900   7.380  71.784  1.00  0.00    -0.339 N  
ENDROOT
BRANCH   2   3
HETATM    3  N   UNL     1     -12.907   8.564  72.526  1.00  0.00    -0.579 NA 
HETATM    4  H   UNL     1     -12.324   8.695  73.354  1.00  0.00     0.000 HD 
HETATM    5  O   UNL     1     -13.668   9.437  72.107  1.00  0.00    -0.427 OA 
HETATM    6  H   UNL     1     -13.673  10.242  72.612  1.00  0.00     0.000 HD 
ENDBRANCH   2   3
BRANCH   2   7
HETATM    7  C   UNL     1     -11.811   7.081  70.966  1.00  0.00    -0.351 C  
HETATM    8  O   UNL     1     -11.017   6.171  71.214  1.00  0.00    -0.260 OA 
BRANCH   7   9
HETATM    9  N   UNL     1     -11.656   7.888  69.866  1.00  0.00    -0.445 N  
HETATM   10  H   UNL     1     -12.483   8.187  69.350  1.00  0.00     0.000 HD 
BRANCH   9  11
HETATM   11  C   UNL     1     -10.327   8.333  69.414  1.00  0.00    -0.222 C  
HETATM   12  C   UNL     1     -10.406   8.735  67.929  1.00  0.00    -0.224 C  
HETATM   13  O   UNL     1     -11.251   9.871  67.743  1.00  0.00    -0.225 OA 
HETATM   14  O   UNL     1     -10.981   7.647  67.204  1.00  0.00    -0.516 OA 
HETATM   15  H   UNL     1     -11.030   7.895  66.288  1.00  0.00     0.000 HD 
HETATM   16  C   UNL     1     -10.818  11.051  68.440  1.00  0.00    -0.220 C  
HETATM   17  C   UNL     1     -10.631  10.795  69.952  1.00  0.00    -0.076 C  
HETATM   18  H   UNL     1      -8.101  10.483  70.399  1.00  0.00     0.000 HD 
HETATM   19  C   UNL     1      -9.801   9.527  70.230  1.00  0.00    -0.261 C  
HETATM   20  O   UNL     1     -11.921  10.673  70.570  1.00  0.00    -0.291 OA 
HETATM   21  O   UNL     1      -8.425   9.745  69.895  1.00  0.00    -0.172 OA 
HETATM   22  H   UNL     1     -11.806  10.516  71.500  1.00  0.00     0.000 HD 
BRANCH  16  23
HETATM   23  C   UNL     1      -9.599  11.694  67.759  1.00  0.00    -0.178 C  
HETATM   24  O   UNL     1      -8.857  12.506  68.661  1.00  0.00    -0.360 OA 
HETATM   25  H   UNL     1      -8.103  12.904  68.241  1.00  0.00     0.000 HD 
ENDBRANCH  16  23
ENDBRANCH   9  11
ENDBRANCH   7   9
ENDBRANCH   2   7
TORSDOF 5
ENDMDL
MODEL      126
REMARK 921   NORMALIZED FREE ENERGY PREDICTED BY IDOCK:   -3.97 KCAL/MOL
REMARK 922        TOTAL FREE ENERGY PREDICTED BY IDOCK:   -5.95 KCAL/MOL
REMARK 923 INTER-LIGAND FREE ENERGY PREDICTED BY IDOCK:   -5.06 KCAL/MOL
REMARK 924 INTRA-LIGAND FREE ENERGY PREDICTED BY IDOCK:   -0.90 KCAL/MOL
REMARK 927      BINDING AFFINITY PREDICTED BY RF-SCORE:    0.00 PKD
ROOT
HETATM    1  C   UNL     1      -8.824  15.827  69.084  1.00  0.00    -0.250 C  
HETATM    2  N   UNL     1     -10.013  15.524  68.305  1.00  0.00    -0.212 N  
ENDROOT
BRANCH   2   3
HETATM    3  N   UNL     1     -10.345  16.264  67.168  1.00  0.00    -0.282 NA 
HETATM    4  H   UNL     1     -10.177  17.268  67.099  1.00  0.00     0.000 HD 
HETATM    5  O   UNL     1     -10.855  15.614  66.254  1.00  0.00    -0.315 OA 
HETATM    6  H   UNL     1     -11.081  16.118  65.480  1.00  0.00     0.000 HD 
ENDBRANCH   2   3
BRANCH   2   7
HETATM    7  C   UNL     1     -10.743  14.379  68.624  1.00  0.00    -0.253 C  
HETATM    8  O   UNL     1     -11.968  14.381  68.759  1.00  0.00    -0.319 OA 
BRANCH   7   9
HETATM    9  N   UNL     1     -10.003  13.237  68.809  1.00  0.00    -0.423 N  
HETATM   10  H   UNL     1      -9.939  12.833  69.744  1.00  0.00     0.000 HD 
BRANCH   9  11
HETATM   11  C   UNL     1      -9.300  12.580  67.694  1.00  0.00    -0.189 C  
HETATM   12  C   UNL     1      -8.484  11.393  68.239  1.00  0.00    -0.154 C  
HETATM   13  O   UNL     1      -9.336  10.381  68.776  1.00  0.00    -0.158 OA 
HETATM   14  O   UNL     1      -7.659  11.871  69.303  1.00  0.00    -0.331 OA 
HETATM   15  H   UNL     1      -7.156  11.139  69.639  1.00  0.00     0.000 HD 
HETATM   16  C   UNL     1     -10.254   9.814  67.827  1.00  0.00    -0.208 C  
HETATM   17  C   UNL     1     -11.116  10.897  67.139  1.00  0.00    -0.240 C  
HETATM   18  H   UNL     1     -10.107  11.350  64.799  1.00  0.00     0.000 HD 
HETATM   19  C   UNL     1     -10.269  12.070  66.612  1.00  0.00    -0.204 C  
HETATM   20  O   UNL     1     -12.090  11.384  68.075  1.00  0.00    -0.629 OA 
HETATM   21  O   UNL     1      -9.509  11.665  65.467  1.00  0.00    -0.229 OA 
HETATM   22  H   UNL     1     -12.620  12.050  67.652  1.00  0.00     0.000 HD 
BRANCH  16  23
HETATM   23  C   UNL     1      -9.542   8.866  66.848  1.00  0.00    -0.190 C  
HETATM   24  O   UNL     1     -10.364   7.760  66.492  1.00  0.00    -0.470 OA 
HETATM   25  H   UNL     1      -9.924   7.174  65.887  1.00  0.00     0.000 HD 
ENDBRANCH  16  23
ENDBRANCH   9  11
ENDBRANCH   7   9
ENDBRANCH   2   7
TORSDOF 5
ENDMDL
MODEL      127
REMARK 921   NORMALIZED FREE ENERGY PREDICTED BY IDOCK:   -3.97 KCAL/MOL
REMARK 922        TOTAL FREE ENERGY PREDICTED BY IDOCK:   -5.95 KCAL/MOL
REMARK 923 INTER-LIGAND FREE ENERGY PREDICTED BY IDOCK:   -5.11 KCAL/MOL
REMARK 924 INTRA-LIGAND FREE ENERGY PREDICTED BY IDOCK:   -0.84 KCAL/MOL
REMARK 927      BINDING AFFINITY PREDICTED BY RF-SCORE:    0.00 PKD
ROOT
HETATM    1  C   UNL     1     -11.604  10.801  69.922  1.00  0.00    -0.331 C  
HETATM    2  N   UNL     1     -11.379  10.933  68.492  1.00  0.00    -0.276 N  
ENDROOT
BRANCH   2   3
HETATM    3  N   UNL     1     -11.839  12.046  67.784  1.00  0.00    -0.545 NA 
HETATM    4  H   UNL     1     -12.135  12.906  68.247  1.00  0.00     0.000 HD 
HETATM    5  O   UNL     1     -11.861  11.912  66.559  1.00  0.00    -0.579 OA 
HETATM    6  H   UNL     1     -12.174  12.668  66.078  1.00  0.00     0.000 HD 
ENDBRANCH   2   3
BRANCH   2   7
HETATM    7  C   UNL     1     -10.559  10.000  67.859  1.00  0.00    -0.250 C  
HETATM    8  O   UNL     1      -9.604  10.319  67.148  1.00  0.00    -0.162 OA 
BRANCH   7   9
HETATM    9  N   UNL     1     -10.898   8.683  68.054  1.00  0.00    -0.477 N  
HETATM   10  H   UNL     1     -11.744   8.319  67.616  1.00  0.00     0.000 HD 
BRANCH   9  11
HETATM   11  C   UNL     1     -10.073   7.785  68.880  1.00  0.00    -0.195 C  
HETATM   12  C   UNL     1     -10.827   6.459  69.094  1.00  0.00    -0.322 C  
HETATM   13  O   UNL     1     -11.005   5.758  67.864  1.00  0.00    -0.232 OA 
HETATM   14  O   UNL     1     -12.124   6.764  69.609  1.00  0.00    -0.635 OA 
HETATM   15  H   UNL     1     -12.590   5.946  69.741  1.00  0.00     0.000 HD 
HETATM   16  C   UNL     1      -9.780   5.402  67.202  1.00  0.00    -0.146 C  
HETATM   17  C   UNL     1      -8.872   6.630  66.965  1.00  0.00    -0.114 C  
HETATM   18  H   UNL     1      -7.039   6.629  68.791  1.00  0.00     0.000 HD 
HETATM   19  C   UNL     1      -8.708   7.488  68.234  1.00  0.00    -0.123 C  
HETATM   20  O   UNL     1      -9.431   7.428  65.910  1.00  0.00    -0.401 OA 
HETATM   21  O   UNL     1      -7.882   6.813  69.190  1.00  0.00    -0.107 OA 
HETATM   22  H   UNL     1      -8.873   8.183  65.764  1.00  0.00     0.000 HD 
BRANCH  16  23
HETATM   23  C   UNL     1      -9.077   4.231  67.907  1.00  0.00    -0.131 C  
HETATM   24  O   UNL     1      -7.675   4.230  67.659  1.00  0.00    -0.082 OA 
HETATM   25  H   UNL     1      -7.240   3.506  68.095  1.00  0.00     0.000 HD 
ENDBRANCH  16  23
ENDBRANCH   9  11
ENDBRANCH   7   9
ENDBRANCH   2   7
TORSDOF 5
ENDMDL
MODEL      128
REMARK 921   NORMALIZED FREE ENERGY PREDICTED BY IDOCK:   -3.95 KCAL/MOL
REMARK 922        TOTAL FREE ENERGY PREDICTED BY IDOCK:   -5.93 KCAL/MOL
REMARK 923 INTER-LIGAND FREE ENERGY PREDICTED BY IDOCK:   -5.46 KCAL/MOL
REMARK 924 INTRA-LIGAND FREE ENERGY PREDICTED BY IDOCK:   -0.47 KCAL/MOL
REMARK 927      BINDING AFFINITY PREDICTED BY RF-SCORE:    0.00 PKD
ROOT
HETATM    1  C   UNL     1     -12.271  12.437  69.896  1.00  0.00    -0.157 C  
HETATM    2  N   UNL     1     -11.624  13.692  69.552  1.00  0.00    -0.294 N  
ENDROOT
BRANCH   2   3
HETATM    3  N   UNL     1     -10.989  14.472  70.521  1.00  0.00    -0.483 NA 
HETATM    4  H   UNL     1     -11.229  14.418  71.511  1.00  0.00     0.000 HD 
HETATM    5  O   UNL     1     -10.118  15.230  70.091  1.00  0.00    -0.470 OA 
HETATM    6  H   UNL     1      -9.687  15.760  70.750  1.00  0.00     0.000 HD 
ENDBRANCH   2   3
BRANCH   2   7
HETATM    7  C   UNL     1     -11.514  14.035  68.204  1.00  0.00    -0.309 C  
HETATM    8  O   UNL     1     -12.138  14.968  67.696  1.00  0.00    -0.202 OA 
BRANCH   7   9
HETATM    9  N   UNL     1     -10.676  13.242  67.458  1.00  0.00    -0.248 N  
HETATM   10  H   UNL     1      -9.731  13.570  67.256  1.00  0.00     0.000 HD 
BRANCH   9  11
HETATM   11  C   UNL     1     -11.107  11.932  66.940  1.00  0.00    -0.305 C  
HETATM   12  C   UNL     1     -11.466  12.070  65.449  1.00  0.00    -0.305 C  
HETATM   13  O   UNL     1     -10.320  12.408  64.668  1.00  0.00    -0.288 OA 
HETATM   14  O   UNL     1     -12.408  13.135  65.315  1.00  0.00    -0.430 OA 
HETATM   15  H   UNL     1     -12.630  13.220  64.395  1.00  0.00     0.000 HD 
HETATM   16  C   UNL     1      -9.259  11.440  64.722  1.00  0.00    -0.031 C  
HETATM   17  C   UNL     1      -8.820  11.142  66.173  1.00  0.00    -0.190 C  
HETATM   18  H   UNL     1      -9.916   8.911  66.895  1.00  0.00     0.000 HD 
HETATM   19  C   UNL     1     -10.018  10.855  67.098  1.00  0.00    -0.189 C  
HETATM   20  O   UNL     1      -8.077  12.263  66.677  1.00  0.00    -0.372 OA 
HETATM   21  O   UNL     1     -10.588   9.576  66.798  1.00  0.00    -0.212 OA 
HETATM   22  H   UNL     1      -7.807  12.079  67.569  1.00  0.00     0.000 HD 
BRANCH  16  23
HETATM   23  C   UNL     1      -9.598  10.185  63.901  1.00  0.00    -0.239 C  
HETATM   24  O   UNL     1     -10.183  10.516  62.647  1.00  0.00    -0.736 OA 
HETATM   25  H   UNL     1     -10.393   9.740  62.139  1.00  0.00     0.000 HD 
ENDBRANCH  16  23
ENDBRANCH   9  11
ENDBRANCH   7   9
ENDBRANCH   2   7
TORSDOF 5
ENDMDL
MODEL      129
REMARK 921   NORMALIZED FREE ENERGY PREDICTED BY IDOCK:   -3.95 KCAL/MOL
REMARK 922        TOTAL FREE ENERGY PREDICTED BY IDOCK:   -5.93 KCAL/MOL
REMARK 923 INTER-LIGAND FREE ENERGY PREDICTED BY IDOCK:   -5.29 KCAL/MOL
REMARK 924 INTRA-LIGAND FREE ENERGY PREDICTED BY IDOCK:   -0.64 KCAL/MOL
REMARK 927      BINDING AFFINITY PREDICTED BY RF-SCORE:    0.00 PKD
ROOT
HETATM    1  C   UNL     1     -14.266   7.363  71.465  1.00  0.00    -0.427 C  
HETATM    2  N   UNL     1     -13.495   8.468  72.009  1.00  0.00    -0.368 N  
ENDROOT
BRANCH   2   3
HETATM    3  N   UNL     1     -14.109   9.503  72.719  1.00  0.00    -0.799 NA 
HETATM    4  H   UNL     1     -14.854   9.336  73.396  1.00  0.00     0.000 HD 
HETATM    5  O   UNL     1     -13.684  10.631  72.466  1.00  0.00    -0.477 OA 
HETATM    6  H   UNL     1     -14.102  11.335  72.949  1.00  0.00     0.000 HD 
ENDBRANCH   2   3
BRANCH   2   7
HETATM    7  C   UNL     1     -12.103   8.404  71.943  1.00  0.00    -0.342 C  
HETATM    8  O   UNL     1     -11.426   7.718  72.711  1.00  0.00    -0.374 OA 
BRANCH   7   9
HETATM    9  N   UNL     1     -11.520   9.183  70.974  1.00  0.00    -0.286 N  
HETATM   10  H   UNL     1     -11.521  10.198  71.085  1.00  0.00     0.000 HD 
BRANCH   9  11
HETATM   11  C   UNL     1     -10.891   8.593  69.780  1.00  0.00    -0.183 C  
HETATM   12  C   UNL     1     -10.448   9.722  68.831  1.00  0.00    -0.214 C  
HETATM   13  O   UNL     1      -9.425  10.524  69.419  1.00  0.00    -0.203 OA 
HETATM   14  O   UNL     1     -11.574  10.568  68.590  1.00  0.00    -0.436 OA 
HETATM   15  H   UNL     1     -11.301  11.265  68.005  1.00  0.00     0.000 HD 
HETATM   16  C   UNL     1      -8.224   9.805  69.749  1.00  0.00    -0.173 C  
HETATM   17  C   UNL     1      -8.510   8.590  70.660  1.00  0.00    -0.146 C  
HETATM   18  H   UNL     1      -8.510   6.468  69.179  1.00  0.00     0.000 HD 
HETATM   19  C   UNL     1      -9.670   7.724  70.132  1.00  0.00    -0.183 C  
HETATM   20  O   UNL     1      -8.819   9.058  71.982  1.00  0.00    -0.373 OA 
HETATM   21  O   UNL     1      -9.264   7.004  68.962  1.00  0.00    -0.139 OA 
HETATM   22  H   UNL     1      -8.994   8.310  72.542  1.00  0.00     0.000 HD 
BRANCH  16  23
HETATM   23  C   UNL     1      -7.405   9.467  68.493  1.00  0.00    -0.079 C  
HETATM   24  O   UNL     1      -7.228  10.604  67.656  1.00  0.00    -0.086 OA 
HETATM   25  H   UNL     1      -6.721  10.395  66.880  1.00  0.00     0.000 HD 
ENDBRANCH  16  23
ENDBRANCH   9  11
ENDBRANCH   7   9
ENDBRANCH   2   7
TORSDOF 5
ENDMDL
MODEL      130
REMARK 921   NORMALIZED FREE ENERGY PREDICTED BY IDOCK:   -3.95 KCAL/MOL
REMARK 922        TOTAL FREE ENERGY PREDICTED BY IDOCK:   -5.93 KCAL/MOL
REMARK 923 INTER-LIGAND FREE ENERGY PREDICTED BY IDOCK:   -5.09 KCAL/MOL
REMARK 924 INTRA-LIGAND FREE ENERGY PREDICTED BY IDOCK:   -0.84 KCAL/MOL
REMARK 927      BINDING AFFINITY PREDICTED BY RF-SCORE:    0.00 PKD
ROOT
HETATM    1  C   UNL     1      -8.515   5.433  65.635  1.00  0.00    -0.138 C  
HETATM    2  N   UNL     1      -9.746   5.111  66.338  1.00  0.00    -0.159 N  
ENDROOT
BRANCH   2   3
HETATM    3  N   UNL     1     -10.994   5.301  65.740  1.00  0.00    -0.743 NA 
HETATM    4  H   UNL     1     -11.495   6.189  65.788  1.00  0.00     0.000 HD 
HETATM    5  O   UNL     1     -11.444   4.317  65.151  1.00  0.00    -0.974 OA 
HETATM    6  H   UNL     1     -12.293   4.447  64.745  1.00  0.00     0.000 HD 
ENDBRANCH   2   3
BRANCH   2   7
HETATM    7  C   UNL     1      -9.658   4.463  67.570  1.00  0.00    -0.172 C  
HETATM    8  O   UNL     1      -9.654   3.235  67.682  1.00  0.00    -0.206 OA 
BRANCH   7   9
HETATM    9  N   UNL     1      -9.603   5.284  68.669  1.00  0.00    -0.128 N  
HETATM   10  H   UNL     1      -8.819   5.928  68.769  1.00  0.00     0.000 HD 
BRANCH   9  11
HETATM   11  C   UNL     1     -10.648   5.258  69.708  1.00  0.00    -0.213 C  
HETATM   12  C   UNL     1     -10.067   4.642  70.994  1.00  0.00    -0.175 C  
HETATM   13  O   UNL     1      -9.033   5.461  71.541  1.00  0.00    -0.134 OA 
HETATM   14  O   UNL     1      -9.487   3.380  70.661  1.00  0.00    -0.150 OA 
HETATM   15  H   UNL     1      -9.128   3.000  71.454  1.00  0.00     0.000 HD 
HETATM   16  C   UNL     1      -9.456   6.785  71.904  1.00  0.00    -0.145 C  
HETATM   17  C   UNL     1     -10.124   7.524  70.722  1.00  0.00    -0.192 C  
HETATM   18  H   UNL     1     -12.687   7.399  71.050  1.00  0.00     0.000 HD 
HETATM   19  C   UNL     1     -11.192   6.662  70.024  1.00  0.00    -0.369 C  
HETATM   20  O   UNL     1      -9.112   7.902  69.776  1.00  0.00    -0.146 OA 
HETATM   21  O   UNL     1     -12.352   6.531  70.855  1.00  0.00    -0.290 OA 
HETATM   22  H   UNL     1      -9.522   8.357  69.049  1.00  0.00     0.000 HD 
BRANCH  16  23
HETATM   23  C   UNL     1     -10.297   6.777  73.191  1.00  0.00    -0.247 C  
HETATM   24  O   UNL     1     -11.258   7.826  73.201  1.00  0.00    -0.505 OA 
HETATM   25  H   UNL     1     -11.778   7.821  73.997  1.00  0.00     0.000 HD 
ENDBRANCH  16  23
ENDBRANCH   9  11
ENDBRANCH   7   9
ENDBRANCH   2   7
TORSDOF 5
ENDMDL
MODEL      131
REMARK 921   NORMALIZED FREE ENERGY PREDICTED BY IDOCK:   -3.94 KCAL/MOL
REMARK 922        TOTAL FREE ENERGY PREDICTED BY IDOCK:   -5.92 KCAL/MOL
REMARK 923 INTER-LIGAND FREE ENERGY PREDICTED BY IDOCK:   -5.43 KCAL/MOL
REMARK 924 INTRA-LIGAND FREE ENERGY PREDICTED BY IDOCK:   -0.49 KCAL/MOL
REMARK 927      BINDING AFFINITY PREDICTED BY RF-SCORE:    0.00 PKD
ROOT
HETATM    1  C   UNL     1     -10.277  11.655  63.550  1.00  0.00    -0.436 C  
HETATM    2  N   UNL     1     -11.139  12.611  64.224  1.00  0.00    -0.337 N  
ENDROOT
BRANCH   2   3
HETATM    3  N   UNL     1     -12.484  12.751  63.871  1.00  0.00    -0.657 NA 
HETATM    4  H   UNL     1     -12.783  12.929  62.912  1.00  0.00     0.000 HD 
HETATM    5  O   UNL     1     -13.281  12.644  64.804  1.00  0.00    -0.846 OA 
HETATM    6  H   UNL     1     -14.195  12.739  64.564  1.00  0.00     0.000 HD 
ENDBRANCH   2   3
BRANCH   2   7
HETATM    7  C   UNL     1     -10.642  13.286  65.339  1.00  0.00    -0.296 C  
HETATM    8  O   UNL     1     -11.156  14.312  65.786  1.00  0.00    -0.300 OA 
BRANCH   7   9
HETATM    9  N   UNL     1      -9.511  12.746  65.902  1.00  0.00    -0.447 N  
HETATM   10  H   UNL     1      -8.973  12.059  65.374  1.00  0.00     0.000 HD 
BRANCH   9  11
HETATM   11  C   UNL     1      -9.056  13.134  67.248  1.00  0.00    -0.217 C  
HETATM   12  C   UNL     1      -9.609  12.131  68.278  1.00  0.00    -0.210 C  
HETATM   13  O   UNL     1      -9.068  10.826  68.075  1.00  0.00    -0.143 OA 
HETATM   14  O   UNL     1     -11.024  12.044  68.098  1.00  0.00    -0.207 OA 
HETATM   15  H   UNL     1     -11.365  11.426  68.733  1.00  0.00     0.000 HD 
HETATM   16  C   UNL     1      -7.638  10.752  68.195  1.00  0.00    -0.093 C  
HETATM   17  C   UNL     1      -6.926  11.754  67.258  1.00  0.00    -0.138 C  
HETATM   18  H   UNL     1      -6.214  13.801  68.672  1.00  0.00     0.000 HD 
HETATM   19  C   UNL     1      -7.521  13.171  67.357  1.00  0.00    -0.124 C  
HETATM   20  O   UNL     1      -7.026  11.281  65.905  1.00  0.00    -0.369 OA 
HETATM   21  O   UNL     1      -7.162  13.778  68.604  1.00  0.00    -0.100 OA 
HETATM   22  H   UNL     1      -6.588  11.896  65.329  1.00  0.00     0.000 HD 
BRANCH  16  23
HETATM   23  C   UNL     1      -7.189  10.842  69.663  1.00  0.00    -0.095 C  
HETATM   24  O   UNL     1      -8.057  10.117  70.526  1.00  0.00    -0.416 OA 
HETATM   25  H   UNL     1      -7.780  10.172  71.433  1.00  0.00     0.000 HD 
ENDBRANCH  16  23
ENDBRANCH   9  11
ENDBRANCH   7   9
ENDBRANCH   2   7
TORSDOF 5
ENDMDL
MODEL      132
REMARK 921   NORMALIZED FREE ENERGY PREDICTED BY IDOCK:   -3.94 KCAL/MOL
REMARK 922        TOTAL FREE ENERGY PREDICTED BY IDOCK:   -5.92 KCAL/MOL
REMARK 923 INTER-LIGAND FREE ENERGY PREDICTED BY IDOCK:   -5.13 KCAL/MOL
REMARK 924 INTRA-LIGAND FREE ENERGY PREDICTED BY IDOCK:   -0.79 KCAL/MOL
REMARK 927      BINDING AFFINITY PREDICTED BY RF-SCORE:    0.00 PKD
ROOT
HETATM    1  C   UNL     1     -10.867   9.035  69.952  1.00  0.00    -0.218 C  
HETATM    2  N   UNL     1     -10.428  10.408  69.771  1.00  0.00    -0.254 N  
ENDROOT
BRANCH   2   3
HETATM    3  N   UNL     1      -9.074  10.727  69.636  1.00  0.00    -0.369 NA 
HETATM    4  H   UNL     1      -8.699  11.642  69.885  1.00  0.00     0.000 HD 
HETATM    5  O   UNL     1      -8.367   9.819  69.194  1.00  0.00    -0.119 OA 
HETATM    6  H   UNL     1      -7.447  10.036  69.102  1.00  0.00     0.000 HD 
ENDBRANCH   2   3
BRANCH   2   7
HETATM    7  C   UNL     1     -11.395  11.395  69.581  1.00  0.00    -0.275 C  
HETATM    8  O   UNL     1     -12.602  11.187  69.718  1.00  0.00    -0.210 OA 
BRANCH   7   9
HETATM    9  N   UNL     1     -10.918  12.626  69.200  1.00  0.00    -0.414 N  
HETATM   10  H   UNL     1     -10.376  13.176  69.866  1.00  0.00     0.000 HD 
BRANCH   9  11
HETATM   11  C   UNL     1     -11.171  13.171  67.855  1.00  0.00    -0.270 C  
HETATM   12  C   UNL     1     -11.571  14.653  67.977  1.00  0.00    -0.340 C  
HETATM   13  O   UNL     1     -10.498  15.441  68.491  1.00  0.00    -0.226 OA 
HETATM   14  O   UNL     1     -12.656  14.747  68.902  1.00  0.00    -0.546 OA 
HETATM   15  H   UNL     1     -12.903  15.661  68.977  1.00  0.00     0.000 HD 
HETATM   16  C   UNL     1      -9.311  15.427  67.679  1.00  0.00    -0.203 C  
HETATM   17  C   UNL     1      -8.810  13.990  67.411  1.00  0.00    -0.206 C  
HETATM   18  H   UNL     1      -9.571  13.313  65.032  1.00  0.00     0.000 HD 
HETATM   19  C   UNL     1      -9.940  13.057  66.938  1.00  0.00    -0.243 C  
HETATM   20  O   UNL     1      -8.222  13.468  68.613  1.00  0.00    -0.261 OA 
HETATM   21  O   UNL     1     -10.331  13.383  65.599  1.00  0.00    -0.279 OA 
HETATM   22  H   UNL     1      -7.913  12.585  68.448  1.00  0.00     0.000 HD 
BRANCH  16  23
HETATM   23  C   UNL     1      -9.486  16.276  66.409  1.00  0.00    -0.294 C  
HETATM   24  O   UNL     1      -8.233  16.650  65.848  1.00  0.00    -0.405 OA 
HETATM   25  H   UNL     1      -8.341  17.175  65.062  1.00  0.00     0.000 HD 
ENDBRANCH  16  23
ENDBRANCH   9  11
ENDBRANCH   7   9
ENDBRANCH   2   7
TORSDOF 5
ENDMDL
MODEL      133
REMARK 921   NORMALIZED FREE ENERGY PREDICTED BY IDOCK:   -3.92 KCAL/MOL
REMARK 922        TOTAL FREE ENERGY PREDICTED BY IDOCK:   -5.88 KCAL/MOL
REMARK 923 INTER-LIGAND FREE ENERGY PREDICTED BY IDOCK:   -5.21 KCAL/MOL
REMARK 924 INTRA-LIGAND FREE ENERGY PREDICTED BY IDOCK:   -0.67 KCAL/MOL
REMARK 927      BINDING AFFINITY PREDICTED BY RF-SCORE:    0.00 PKD
ROOT
HETATM    1  C   UNL     1     -13.645  12.451  72.092  1.00  0.00    -0.306 C  
HETATM    2  N   UNL     1     -12.838  11.728  71.123  1.00  0.00    -0.323 N  
ENDROOT
BRANCH   2   3
HETATM    3  N   UNL     1     -12.002  12.400  70.228  1.00  0.00    -0.488 NA 
HETATM    4  H   UNL     1     -11.742  12.009  69.322  1.00  0.00     0.000 HD 
HETATM    5  O   UNL     1     -11.604  13.500  70.614  1.00  0.00    -0.519 OA 
HETATM    6  H   UNL     1     -11.035  13.957  70.005  1.00  0.00     0.000 HD 
ENDBRANCH   2   3
BRANCH   2   7
HETATM    7  C   UNL     1     -12.794  10.336  71.201  1.00  0.00    -0.408 C  
HETATM    8  O   UNL     1     -13.355   9.696  72.093  1.00  0.00    -0.427 OA 
BRANCH   7   9
HETATM    9  N   UNL     1     -12.055   9.711  70.227  1.00  0.00    -0.470 N  
HETATM   10  H   UNL     1     -12.420   9.671  69.276  1.00  0.00     0.000 HD 
BRANCH   9  11
HETATM   11  C   UNL     1     -10.748   9.097  70.521  1.00  0.00    -0.238 C  
HETATM   12  C   UNL     1     -10.685   7.704  69.866  1.00  0.00    -0.249 C  
HETATM   13  O   UNL     1     -10.728   7.798  68.442  1.00  0.00    -0.150 OA 
HETATM   14  O   UNL     1     -11.832   6.963  70.284  1.00  0.00    -0.520 OA 
HETATM   15  H   UNL     1     -11.793   6.104  69.879  1.00  0.00     0.000 HD 
HETATM   16  C   UNL     1      -9.645   8.547  67.864  1.00  0.00    -0.152 C  
HETATM   17  C   UNL     1      -9.535   9.965  68.468  1.00  0.00    -0.146 C  
HETATM   18  H   UNL     1      -7.627   9.940  70.216  1.00  0.00     0.000 HD 
HETATM   19  C   UNL     1      -9.574   9.948  70.008  1.00  0.00    -0.214 C  
HETATM   20  O   UNL     1     -10.612  10.772  67.966  1.00  0.00    -0.181 OA 
HETATM   21  O   UNL     1      -8.353   9.414  70.533  1.00  0.00    -0.178 OA 
HETATM   22  H   UNL     1     -10.543  11.644  68.337  1.00  0.00     0.000 HD 
BRANCH  16  23
HETATM   23  C   UNL     1      -8.330   7.751  67.893  1.00  0.00    -0.123 C  
HETATM   24  O   UNL     1      -8.528   6.391  67.523  1.00  0.00    -0.116 OA 
HETATM   25  H   UNL     1      -7.715   5.899  67.540  1.00  0.00     0.000 HD 
ENDBRANCH  16  23
ENDBRANCH   9  11
ENDBRANCH   7   9
ENDBRANCH   2   7
TORSDOF 5
ENDMDL
MODEL      134
REMARK 921   NORMALIZED FREE ENERGY PREDICTED BY IDOCK:   -3.90 KCAL/MOL
REMARK 922        TOTAL FREE ENERGY PREDICTED BY IDOCK:   -5.87 KCAL/MOL
REMARK 923 INTER-LIGAND FREE ENERGY PREDICTED BY IDOCK:   -5.57 KCAL/MOL
REMARK 924 INTRA-LIGAND FREE ENERGY PREDICTED BY IDOCK:   -0.29 KCAL/MOL
REMARK 927      BINDING AFFINITY PREDICTED BY RF-SCORE:    0.00 PKD
ROOT
HETATM    1  C   UNL     1     -11.747  15.865  64.272  1.00  0.00    -0.132 C  
HETATM    2  N   UNL     1     -11.019  15.018  65.203  1.00  0.00    -0.380 N  
ENDROOT
BRANCH   2   3
HETATM    3  N   UNL     1     -10.081  14.085  64.755  1.00  0.00    -0.589 NA 
HETATM    4  H   UNL     1      -9.935  13.887  63.765  1.00  0.00     0.000 HD 
HETATM    5  O   UNL     1      -9.444  13.519  65.645  1.00  0.00    -0.488 OA 
HETATM    6  H   UNL     1      -8.806  12.884  65.340  1.00  0.00     0.000 HD 
ENDBRANCH   2   3
BRANCH   2   7
HETATM    7  C   UNL     1     -11.160  15.258  66.570  1.00  0.00    -0.271 C  
HETATM    8  O   UNL     1     -11.782  14.504  67.322  1.00  0.00    -0.380 OA 
BRANCH   7   9
HETATM    9  N   UNL     1     -10.582  16.414  67.032  1.00  0.00    -0.292 N  
HETATM   10  H   UNL     1     -11.010  16.905  67.817  1.00  0.00     0.000 HD 
BRANCH   9  11
HETATM   11  C   UNL     1      -9.358  16.964  66.424  1.00  0.00    -0.276 C  
HETATM   12  C   UNL     1      -9.412  18.502  66.482  1.00  0.00    -0.320 C  
HETATM   13  O   UNL     1      -9.389  18.972  67.829  1.00  0.00    -0.293 OA 
HETATM   14  O   UNL     1     -10.644  18.927  65.898  1.00  0.00    -0.476 OA 
HETATM   15  H   UNL     1     -10.678  19.876  65.934  1.00  0.00     0.000 HD 
HETATM   16  C   UNL     1      -8.213  18.599  68.567  1.00  0.00    -0.341 C  
HETATM   17  C   UNL     1      -7.982  17.072  68.553  1.00  0.00    -0.249 C  
HETATM   18  H   UNL     1      -6.157  16.558  66.791  1.00  0.00     0.000 HD 
HETATM   19  C   UNL     1      -8.083  16.479  67.135  1.00  0.00    -0.183 C  
HETATM   20  O   UNL     1      -8.948  16.445  69.410  1.00  0.00    -0.178 OA 
HETATM   21  O   UNL     1      -6.945  16.858  66.352  1.00  0.00    -0.241 OA 
HETATM   22  H   UNL     1      -8.806  15.505  69.402  1.00  0.00     0.000 HD 
BRANCH  16  23
HETATM   23  C   UNL     1      -6.988  19.421  68.132  1.00  0.00    -0.271 C  
HETATM   24  O   UNL     1      -7.125  19.907  66.801  1.00  0.00    -0.212 OA 
HETATM   25  H   UNL     1      -6.368  20.415  66.532  1.00  0.00     0.000 HD 
ENDBRANCH  16  23
ENDBRANCH   9  11
ENDBRANCH   7   9
ENDBRANCH   2   7
TORSDOF 5
ENDMDL
MODEL      135
REMARK 921   NORMALIZED FREE ENERGY PREDICTED BY IDOCK:   -3.89 KCAL/MOL
REMARK 922        TOTAL FREE ENERGY PREDICTED BY IDOCK:   -5.85 KCAL/MOL
REMARK 923 INTER-LIGAND FREE ENERGY PREDICTED BY IDOCK:   -5.72 KCAL/MOL
REMARK 924 INTRA-LIGAND FREE ENERGY PREDICTED BY IDOCK:   -0.13 KCAL/MOL
REMARK 927      BINDING AFFINITY PREDICTED BY RF-SCORE:    0.00 PKD
ROOT
HETATM    1  C   UNL     1      -6.601  10.638  66.783  1.00  0.00    -0.091 C  
HETATM    2  N   UNL     1      -7.836  11.281  66.366  1.00  0.00    -0.142 N  
ENDROOT
BRANCH   2   3
HETATM    3  N   UNL     1      -8.207  11.338  65.020  1.00  0.00    -0.277 NA 
HETATM    4  H   UNL     1      -8.980  11.916  64.689  1.00  0.00     0.000 HD 
HETATM    5  O   UNL     1      -7.530  10.640  64.263  1.00  0.00    -0.347 OA 
HETATM    6  H   UNL     1      -7.782  10.679  63.348  1.00  0.00     0.000 HD 
ENDBRANCH   2   3
BRANCH   2   7
HETATM    7  C   UNL     1      -8.727  11.710  67.349  1.00  0.00    -0.155 C  
HETATM    8  O   UNL     1      -8.444  11.727  68.549  1.00  0.00    -0.158 OA 
BRANCH   7   9
HETATM    9  N   UNL     1      -9.966  12.094  66.900  1.00  0.00    -0.202 N  
HETATM   10  H   UNL     1     -10.521  11.437  66.351  1.00  0.00     0.000 HD 
BRANCH   9  11
HETATM   11  C   UNL     1     -10.516  13.430  67.190  1.00  0.00    -0.249 C  
HETATM   12  C   UNL     1      -9.915  14.449  66.203  1.00  0.00    -0.311 C  
HETATM   13  O   UNL     1     -10.320  14.174  64.862  1.00  0.00    -0.411 OA 
HETATM   14  O   UNL     1      -8.492  14.334  66.256  1.00  0.00    -0.333 OA 
HETATM   15  H   UNL     1      -8.122  14.962  65.648  1.00  0.00     0.000 HD 
HETATM   16  C   UNL     1     -11.741  14.223  64.650  1.00  0.00    -0.430 C  
HETATM   17  C   UNL     1     -12.503  13.289  65.617  1.00  0.00    -0.451 C  
HETATM   18  H   UNL     1     -13.468  14.738  67.531  1.00  0.00     0.000 HD 
HETATM   19  C   UNL     1     -12.050  13.467  67.078  1.00  0.00    -0.339 C  
HETATM   20  O   UNL     1     -12.298  11.927  65.209  1.00  0.00    -0.344 OA 
HETATM   21  O   UNL     1     -12.521  14.715  67.600  1.00  0.00    -0.042 OA 
HETATM   22  H   UNL     1     -12.767  11.352  65.803  1.00  0.00     0.000 HD 
BRANCH  16  23
HETATM   23  C   UNL     1     -12.261  15.670  64.640  1.00  0.00     0.114 C  
HETATM   24  O   UNL     1     -11.404  16.533  63.901  1.00  0.00    -1.557 OA 
HETATM   25  H   UNL     1     -11.726  17.428  63.894  1.00  0.00     0.000 HD 
ENDBRANCH  16  23
ENDBRANCH   9  11
ENDBRANCH   7   9
ENDBRANCH   2   7
TORSDOF 5
ENDMDL
MODEL      136
REMARK 921   NORMALIZED FREE ENERGY PREDICTED BY IDOCK:   -3.87 KCAL/MOL
REMARK 922        TOTAL FREE ENERGY PREDICTED BY IDOCK:   -5.83 KCAL/MOL
REMARK 923 INTER-LIGAND FREE ENERGY PREDICTED BY IDOCK:   -4.86 KCAL/MOL
REMARK 924 INTRA-LIGAND FREE ENERGY PREDICTED BY IDOCK:   -0.97 KCAL/MOL
REMARK 927      BINDING AFFINITY PREDICTED BY RF-SCORE:    0.00 PKD
ROOT
HETATM    1  C   UNL     1      -9.250   3.328  67.078  1.00  0.00    -0.180 C  
HETATM    2  N   UNL     1      -9.395   4.681  66.568  1.00  0.00    -0.138 N  
ENDROOT
BRANCH   2   3
HETATM    3  N   UNL     1     -10.439   5.024  65.705  1.00  0.00    -0.479 NA 
HETATM    4  H   UNL     1     -10.508   4.656  64.755  1.00  0.00     0.000 HD 
HETATM    5  O   UNL     1     -11.269   5.803  66.176  1.00  0.00    -0.735 OA 
HETATM    6  H   UNL     1     -11.979   6.036  65.588  1.00  0.00     0.000 HD 
ENDBRANCH   2   3
BRANCH   2   7
HETATM    7  C   UNL     1      -8.560   5.676  67.075  1.00  0.00    -0.109 C  
HETATM    8  O   UNL     1      -7.401   5.839  66.691  1.00  0.00    -0.079 OA 
BRANCH   7   9
HETATM    9  N   UNL     1      -9.104   6.459  68.064  1.00  0.00    -0.114 N  
HETATM   10  H   UNL     1      -9.664   7.271  67.802  1.00  0.00     0.000 HD 
BRANCH   9  11
HETATM   11  C   UNL     1      -8.902   6.157  69.491  1.00  0.00    -0.130 C  
HETATM   12  C   UNL     1      -8.637   7.469  70.253  1.00  0.00    -0.144 C  
HETATM   13  O   UNL     1      -9.778   8.326  70.224  1.00  0.00    -0.173 OA 
HETATM   14  O   UNL     1      -7.566   8.154  69.602  1.00  0.00    -0.093 OA 
HETATM   15  H   UNL     1      -7.403   8.963  70.072  1.00  0.00     0.000 HD 
HETATM   16  C   UNL     1     -10.957   7.764  70.822  1.00  0.00    -0.252 C  
HETATM   17  C   UNL     1     -11.327   6.398  70.200  1.00  0.00    -0.420 C  
HETATM   18  H   UNL     1     -10.506   4.543  71.808  1.00  0.00     0.000 HD 
HETATM   19  C   UNL     1     -10.116   5.448  70.116  1.00  0.00    -0.252 C  
HETATM   20  O   UNL     1     -11.865   6.612  68.887  1.00  0.00    -0.454 OA 
HETATM   21  O   UNL     1      -9.756   4.980  71.422  1.00  0.00    -0.156 OA 
HETATM   22  H   UNL     1     -12.093   5.772  68.504  1.00  0.00     0.000 HD 
BRANCH  16  23
HETATM   23  C   UNL     1     -10.860   7.746  72.356  1.00  0.00    -0.303 C  
HETATM   24  O   UNL     1     -12.116   8.011  72.969  1.00  0.00    -0.646 OA 
HETATM   25  H   UNL     1     -12.056   8.001  73.917  1.00  0.00     0.000 HD 
ENDBRANCH  16  23
ENDBRANCH   9  11
ENDBRANCH   7   9
ENDBRANCH   2   7
TORSDOF 5
ENDMDL
MODEL      137
REMARK 921   NORMALIZED FREE ENERGY PREDICTED BY IDOCK:   -3.85 KCAL/MOL
REMARK 922        TOTAL FREE ENERGY PREDICTED BY IDOCK:   -5.80 KCAL/MOL
REMARK 923 INTER-LIGAND FREE ENERGY PREDICTED BY IDOCK:   -4.86 KCAL/MOL
REMARK 924 INTRA-LIGAND FREE ENERGY PREDICTED BY IDOCK:   -0.94 KCAL/MOL
REMARK 927      BINDING AFFINITY PREDICTED BY RF-SCORE:    0.00 PKD
ROOT
HETATM    1  C   UNL     1      -9.170  15.806  68.391  1.00  0.00    -0.192 C  
HETATM    2  N   UNL     1      -9.880  14.753  67.684  1.00  0.00    -0.217 N  
ENDROOT
BRANCH   2   3
HETATM    3  N   UNL     1      -9.475  14.330  66.415  1.00  0.00    -0.349 NA 
HETATM    4  H   UNL     1      -9.502  14.942  65.599  1.00  0.00     0.000 HD 
HETATM    5  O   UNL     1      -9.084  13.163  66.355  1.00  0.00    -0.416 OA 
HETATM    6  H   UNL     1      -8.810  12.876  65.492  1.00  0.00     0.000 HD 
ENDBRANCH   2   3
BRANCH   2   7
HETATM    7  C   UNL     1     -10.885  14.060  68.358  1.00  0.00    -0.249 C  
HETATM    8  O   UNL     1     -12.034  14.491  68.474  1.00  0.00    -0.327 OA 
BRANCH   7   9
HETATM    9  N   UNL     1     -10.509  12.864  68.916  1.00  0.00    -0.419 N  
HETATM   10  H   UNL     1      -9.587  12.785  69.347  1.00  0.00     0.000 HD 
BRANCH   9  11
HETATM   11  C   UNL     1     -11.401  11.692  68.911  1.00  0.00    -0.267 C  
HETATM   12  C   UNL     1     -11.463  11.110  67.486  1.00  0.00    -0.216 C  
HETATM   13  O   UNL     1     -10.194  10.600  67.077  1.00  0.00    -0.202 OA 
HETATM   14  O   UNL     1     -11.813  12.165  66.590  1.00  0.00    -0.566 OA 
HETATM   15  H   UNL     1     -11.851  11.807  65.711  1.00  0.00     0.000 HD 
HETATM   16  C   UNL     1      -9.686   9.540  67.905  1.00  0.00    -0.147 C  
HETATM   17  C   UNL     1      -9.618   9.951  69.393  1.00  0.00    -0.215 C  
HETATM   18  H   UNL     1     -11.669   8.928  70.595  1.00  0.00     0.000 HD 
HETATM   19  C   UNL     1     -10.929  10.594  69.882  1.00  0.00    -0.274 C  
HETATM   20  O   UNL     1      -8.530  10.870  69.576  1.00  0.00    -0.380 OA 
HETATM   21  O   UNL     1     -11.960   9.606  69.996  1.00  0.00    -0.061 OA 
HETATM   22  H   UNL     1      -8.488  11.122  70.491  1.00  0.00     0.000 HD 
BRANCH  16  23
HETATM   23  C   UNL     1     -10.433   8.220  67.653  1.00  0.00    -0.235 C  
HETATM   24  O   UNL     1      -9.560   7.098  67.725  1.00  0.00    -0.128 OA 
HETATM   25  H   UNL     1     -10.022   6.282  67.570  1.00  0.00     0.000 HD 
ENDBRANCH  16  23
ENDBRANCH   9  11
ENDBRANCH   7   9
ENDBRANCH   2   7
TORSDOF 5
ENDMDL
MODEL      138
REMARK 921   NORMALIZED FREE ENERGY PREDICTED BY IDOCK:   -3.85 KCAL/MOL
REMARK 922        TOTAL FREE ENERGY PREDICTED BY IDOCK:   -5.80 KCAL/MOL
REMARK 923 INTER-LIGAND FREE ENERGY PREDICTED BY IDOCK:   -4.64 KCAL/MOL
REMARK 924 INTRA-LIGAND FREE ENERGY PREDICTED BY IDOCK:   -1.15 KCAL/MOL
REMARK 927      BINDING AFFINITY PREDICTED BY RF-SCORE:    0.00 PKD
ROOT
HETATM    1  C   UNL     1      -9.340  14.493  67.235  1.00  0.00    -0.210 C  
HETATM    2  N   UNL     1     -10.060  13.592  66.351  1.00  0.00    -0.287 N  
ENDROOT
BRANCH   2   3
HETATM    3  N   UNL     1      -9.992  13.728  64.962  1.00  0.00    -0.600 NA 
HETATM    4  H   UNL     1     -10.039  14.636  64.497  1.00  0.00     0.000 HD 
HETATM    5  O   UNL     1      -9.872  12.671  64.340  1.00  0.00    -0.545 OA 
HETATM    6  H   UNL     1      -9.826  12.764  63.396  1.00  0.00     0.000 HD 
ENDBRANCH   2   3
BRANCH   2   7
HETATM    7  C   UNL     1     -10.704  12.488  66.908  1.00  0.00    -0.243 C  
HETATM    8  O   UNL     1     -11.870  12.187  66.643  1.00  0.00    -0.566 OA 
BRANCH   7   9
HETATM    9  N   UNL     1      -9.962  11.759  67.805  1.00  0.00    -0.186 N  
HETATM   10  H   UNL     1     -10.133  11.879  68.804  1.00  0.00     0.000 HD 
BRANCH   9  11
HETATM   11  C   UNL     1      -8.927  10.809  67.363  1.00  0.00    -0.139 C  
HETATM   12  C   UNL     1      -8.105  10.353  68.583  1.00  0.00    -0.118 C  
HETATM   13  O   UNL     1      -8.907   9.611  69.501  1.00  0.00    -0.160 OA 
HETATM   14  O   UNL     1      -7.634  11.517  69.263  1.00  0.00    -0.308 OA 
HETATM   15  H   UNL     1      -7.127  11.236  70.016  1.00  0.00     0.000 HD 
HETATM   16  C   UNL     1      -9.482   8.413  68.954  1.00  0.00    -0.147 C  
HETATM   17  C   UNL     1     -10.300   8.697  67.673  1.00  0.00    -0.254 C  
HETATM   18  H   UNL     1      -8.836   8.060  65.636  1.00  0.00     0.000 HD 
HETATM   19  C   UNL     1      -9.527   9.573  66.669  1.00  0.00    -0.170 C  
HETATM   20  O   UNL     1     -11.528   9.347  68.037  1.00  0.00    -0.344 OA 
HETATM   21  O   UNL     1      -8.466   8.824  66.064  1.00  0.00    -0.121 OA 
HETATM   22  H   UNL     1     -12.031   9.521  67.249  1.00  0.00     0.000 HD 
BRANCH  16  23
HETATM   23  C   UNL     1      -8.430   7.305  68.791  1.00  0.00    -0.129 C  
HETATM   24  O   UNL     1      -8.817   6.348  67.811  1.00  0.00    -0.115 OA 
HETATM   25  H   UNL     1      -8.167   5.663  67.710  1.00  0.00     0.000 HD 
ENDBRANCH  16  23
ENDBRANCH   9  11
ENDBRANCH   7   9
ENDBRANCH   2   7
TORSDOF 5
ENDMDL
MODEL      139
REMARK 921   NORMALIZED FREE ENERGY PREDICTED BY IDOCK:   -3.84 KCAL/MOL
REMARK 922        TOTAL FREE ENERGY PREDICTED BY IDOCK:   -5.78 KCAL/MOL
REMARK 923 INTER-LIGAND FREE ENERGY PREDICTED BY IDOCK:   -5.22 KCAL/MOL
REMARK 924 INTRA-LIGAND FREE ENERGY PREDICTED BY IDOCK:   -0.56 KCAL/MOL
REMARK 927      BINDING AFFINITY PREDICTED BY RF-SCORE:    0.00 PKD
ROOT
HETATM    1  C   UNL     1     -11.853  11.749  68.935  1.00  0.00    -0.320 C  
HETATM    2  N   UNL     1     -11.520  11.016  67.724  1.00  0.00    -0.293 N  
ENDROOT
BRANCH   2   3
HETATM    3  N   UNL     1     -11.567  11.627  66.469  1.00  0.00    -0.477 NA 
HETATM    4  H   UNL     1     -12.438  11.958  66.053  1.00  0.00     0.000 HD 
HETATM    5  O   UNL     1     -10.478  11.738  65.902  1.00  0.00    -0.238 OA 
HETATM    6  H   UNL     1     -10.511  12.153  65.049  1.00  0.00     0.000 HD 
ENDBRANCH   2   3
BRANCH   2   7
HETATM    7  C   UNL     1     -11.004   9.726  67.848  1.00  0.00    -0.188 C  
HETATM    8  O   UNL     1     -10.365   9.171  66.952  1.00  0.00    -0.254 OA 
BRANCH   7   9
HETATM    9  N   UNL     1     -11.275   9.091  69.035  1.00  0.00    -0.421 N  
HETATM   10  H   UNL     1     -12.244   8.886  69.278  1.00  0.00     0.000 HD 
BRANCH   9  11
HETATM   11  C   UNL     1     -10.202   8.698  69.966  1.00  0.00    -0.194 C  
HETATM   12  C   UNL     1     -10.782   8.589  71.388  1.00  0.00    -0.250 C  
HETATM   13  O   UNL     1     -11.743   7.538  71.479  1.00  0.00    -0.263 OA 
HETATM   14  O   UNL     1     -11.452   9.813  71.691  1.00  0.00    -0.364 OA 
HETATM   15  H   UNL     1     -11.810   9.746  72.568  1.00  0.00     0.000 HD 
HETATM   16  C   UNL     1     -11.224   6.232  71.173  1.00  0.00    -0.305 C  
HETATM   17  C   UNL     1     -10.548   6.190  69.784  1.00  0.00    -0.280 C  
HETATM   18  H   UNL     1      -7.988   6.329  70.141  1.00  0.00     0.000 HD 
HETATM   19  C   UNL     1      -9.559   7.353  69.581  1.00  0.00    -0.156 C  
HETATM   20  O   UNL     1     -11.562   6.232  68.768  1.00  0.00    -0.468 OA 
HETATM   21  O   UNL     1      -8.385   7.159  70.379  1.00  0.00    -0.125 OA 
HETATM   22  H   UNL     1     -11.145   6.206  67.914  1.00  0.00     0.000 HD 
BRANCH  16  23
HETATM   23  C   UNL     1     -10.346   5.692  72.313  1.00  0.00    -0.206 C  
HETATM   24  O   UNL     1     -11.055   5.641  73.546  1.00  0.00    -0.417 OA 
HETATM   25  H   UNL     1     -10.512   5.306  74.252  1.00  0.00     0.000 HD 
ENDBRANCH  16  23
ENDBRANCH   9  11
ENDBRANCH   7   9
ENDBRANCH   2   7
TORSDOF 5
ENDMDL
MODEL      140
REMARK 921   NORMALIZED FREE ENERGY PREDICTED BY IDOCK:   -3.83 KCAL/MOL
REMARK 922        TOTAL FREE ENERGY PREDICTED BY IDOCK:   -5.77 KCAL/MOL
REMARK 923 INTER-LIGAND FREE ENERGY PREDICTED BY IDOCK:   -6.14 KCAL/MOL
REMARK 924 INTRA-LIGAND FREE ENERGY PREDICTED BY IDOCK:    0.37 KCAL/MOL
REMARK 927      BINDING AFFINITY PREDICTED BY RF-SCORE:    0.00 PKD
ROOT
HETATM    1  C   UNL     1      -8.499  18.663  67.609  1.00  0.00    -0.267 C  
HETATM    2  N   UNL     1      -9.569  19.120  66.738  1.00  0.00    -0.316 N  
ENDROOT
BRANCH   2   3
HETATM    3  N   UNL     1      -9.719  20.472  66.420  1.00  0.00    -0.642 NA 
HETATM    4  H   UNL     1      -9.690  20.815  65.460  1.00  0.00     0.000 HD 
HETATM    5  O   UNL     1      -9.891  21.218  67.386  1.00  0.00    -0.463 OA 
HETATM    6  H   UNL     1      -9.993  22.137  67.169  1.00  0.00     0.000 HD 
ENDBRANCH   2   3
BRANCH   2   7
HETATM    7  C   UNL     1     -10.358  18.165  66.097  1.00  0.00    -0.385 C  
HETATM    8  O   UNL     1     -10.897  18.363  65.007  1.00  0.00    -0.641 OA 
BRANCH   7   9
HETATM    9  N   UNL     1     -10.524  16.982  66.775  1.00  0.00    -0.291 N  
HETATM   10  H   UNL     1     -10.770  17.007  67.765  1.00  0.00     0.000 HD 
BRANCH   9  11
HETATM   11  C   UNL     1     -10.358  15.678  66.110  1.00  0.00    -0.316 C  
HETATM   12  C   UNL     1      -9.036  15.038  66.573  1.00  0.00    -0.286 C  
HETATM   13  O   UNL     1      -9.068  14.732  67.967  1.00  0.00    -0.172 OA 
HETATM   14  O   UNL     1      -7.987  15.985  66.364  1.00  0.00    -0.265 OA 
HETATM   15  H   UNL     1      -7.171  15.590  66.650  1.00  0.00     0.000 HD 
HETATM   16  C   UNL     1     -10.099  13.805  68.347  1.00  0.00    -0.241 C  
HETATM   17  C   UNL     1     -11.498  14.279  67.894  1.00  0.00    -0.315 C  
HETATM   18  H   UNL     1     -12.124  12.977  65.747  1.00  0.00     0.000 HD 
HETATM   19  C   UNL     1     -11.518  14.714  66.416  1.00  0.00    -0.347 C  
HETATM   20  O   UNL     1     -11.914  15.373  68.726  1.00  0.00    -0.499 OA 
HETATM   21  O   UNL     1     -11.408  13.573  65.557  1.00  0.00    -0.295 OA 
HETATM   22  H   UNL     1     -12.774  15.664  68.448  1.00  0.00     0.000 HD 
BRANCH  16  23
HETATM   23  C   UNL     1      -9.755  12.370  67.915  1.00  0.00    -0.204 C  
HETATM   24  O   UNL     1      -8.712  12.345  66.947  1.00  0.00    -0.198 OA 
HETATM   25  H   UNL     1      -8.499  11.458  66.680  1.00  0.00     0.000 HD 
ENDBRANCH  16  23
ENDBRANCH   9  11
ENDBRANCH   7   9
ENDBRANCH   2   7
TORSDOF 5
ENDMDL
MODEL      141
REMARK 921   NORMALIZED FREE ENERGY PREDICTED BY IDOCK:   -3.82 KCAL/MOL
REMARK 922        TOTAL FREE ENERGY PREDICTED BY IDOCK:   -5.76 KCAL/MOL
REMARK 923 INTER-LIGAND FREE ENERGY PREDICTED BY IDOCK:   -4.61 KCAL/MOL
REMARK 924 INTRA-LIGAND FREE ENERGY PREDICTED BY IDOCK:   -1.15 KCAL/MOL
REMARK 927      BINDING AFFINITY PREDICTED BY RF-SCORE:    0.00 PKD
ROOT
HETATM    1  C   UNL     1      -9.276   3.577  66.860  1.00  0.00    -0.187 C  
HETATM    2  N   UNL     1      -9.539   5.006  66.811  1.00  0.00    -0.142 N  
ENDROOT
BRANCH   2   3
HETATM    3  N   UNL     1     -10.585   5.526  66.043  1.00  0.00    -0.502 NA 
HETATM    4  H   UNL     1     -10.670   5.350  65.042  1.00  0.00     0.000 HD 
HETATM    5  O   UNL     1     -11.396   6.213  66.667  1.00  0.00    -0.727 OA 
HETATM    6  H   UNL     1     -12.107   6.566  66.145  1.00  0.00     0.000 HD 
ENDBRANCH   2   3
BRANCH   2   7
HETATM    7  C   UNL     1      -8.823   5.844  67.665  1.00  0.00    -0.106 C  
HETATM    8  O   UNL     1      -7.873   6.532  67.288  1.00  0.00    -0.102 OA 
BRANCH   7   9
HETATM    9  N   UNL     1      -9.227   5.837  68.978  1.00  0.00    -0.118 N  
HETATM   10  H   UNL     1      -9.361   4.943  69.451  1.00  0.00     0.000 HD 
BRANCH   9  11
HETATM   11  C   UNL     1      -9.472   7.086  69.719  1.00  0.00    -0.145 C  
HETATM   12  C   UNL     1     -10.816   6.978  70.462  1.00  0.00    -0.251 C  
HETATM   13  O   UNL     1     -10.775   5.964  71.466  1.00  0.00    -0.239 OA 
HETATM   14  O   UNL     1     -11.820   6.607  69.516  1.00  0.00    -0.658 OA 
HETATM   15  H   UNL     1     -12.649   6.540  69.975  1.00  0.00     0.000 HD 
HETATM   16  C   UNL     1      -9.786   6.180  72.487  1.00  0.00    -0.167 C  
HETATM   17  C   UNL     1      -8.373   6.371  71.892  1.00  0.00    -0.116 C  
HETATM   18  H   UNL     1      -7.854   8.906  71.868  1.00  0.00     0.000 HD 
HETATM   19  C   UNL     1      -8.358   7.390  70.737  1.00  0.00    -0.119 C  
HETATM   20  O   UNL     1      -7.887   5.102  71.425  1.00  0.00    -0.101 OA 
HETATM   21  O   UNL     1      -8.541   8.719  71.239  1.00  0.00    -0.172 OA 
HETATM   22  H   UNL     1      -7.017   5.220  71.060  1.00  0.00     0.000 HD 
BRANCH  16  23
HETATM   23  C   UNL     1     -10.211   7.294  73.458  1.00  0.00    -0.358 C  
HETATM   24  O   UNL     1      -9.096   7.845  74.149  1.00  0.00    -0.404 OA 
HETATM   25  H   UNL     1      -9.358   8.534  74.749  1.00  0.00     0.000 HD 
ENDBRANCH  16  23
ENDBRANCH   9  11
ENDBRANCH   7   9
ENDBRANCH   2   7
TORSDOF 5
ENDMDL
MODEL      142
REMARK 921   NORMALIZED FREE ENERGY PREDICTED BY IDOCK:   -3.81 KCAL/MOL
REMARK 922        TOTAL FREE ENERGY PREDICTED BY IDOCK:   -5.75 KCAL/MOL
REMARK 923 INTER-LIGAND FREE ENERGY PREDICTED BY IDOCK:   -4.37 KCAL/MOL
REMARK 924 INTRA-LIGAND FREE ENERGY PREDICTED BY IDOCK:   -1.38 KCAL/MOL
REMARK 927      BINDING AFFINITY PREDICTED BY RF-SCORE:    0.00 PKD
ROOT
HETATM    1  C   UNL     1      -7.513   8.583  66.150  1.00  0.00    -0.089 C  
HETATM    2  N   UNL     1      -8.887   8.149  66.348  1.00  0.00    -0.146 N  
ENDROOT
BRANCH   2   3
HETATM    3  N   UNL     1      -9.361   6.961  65.787  1.00  0.00    -0.383 NA 
HETATM    4  H   UNL     1      -8.840   6.443  65.079  1.00  0.00     0.000 HD 
HETATM    5  O   UNL     1     -10.455   6.585  66.212  1.00  0.00    -0.454 OA 
HETATM    6  H   UNL     1     -10.778   5.777  65.830  1.00  0.00     0.000 HD 
ENDBRANCH   2   3
BRANCH   2   7
HETATM    7  C   UNL     1      -9.688   8.865  67.237  1.00  0.00    -0.181 C  
HETATM    8  O   UNL     1     -10.460   9.755  66.876  1.00  0.00    -0.238 OA 
BRANCH   7   9
HETATM    9  N   UNL     1      -9.546   8.534  68.562  1.00  0.00    -0.150 N  
HETATM   10  H   UNL     1      -8.670   8.754  69.037  1.00  0.00     0.000 HD 
BRANCH   9  11
HETATM   11  C   UNL     1     -10.624   7.869  69.314  1.00  0.00    -0.188 C  
HETATM   12  C   UNL     1     -10.127   6.496  69.803  1.00  0.00    -0.178 C  
HETATM   13  O   UNL     1      -9.062   6.634  70.743  1.00  0.00    -0.150 OA 
HETATM   14  O   UNL     1      -9.618   5.780  68.677  1.00  0.00    -0.120 OA 
HETATM   15  H   UNL     1      -9.311   4.933  68.979  1.00  0.00     0.000 HD 
HETATM   16  C   UNL     1      -9.410   7.363  71.931  1.00  0.00    -0.136 C  
HETATM   17  C   UNL     1      -9.989   8.758  71.605  1.00  0.00    -0.311 C  
HETATM   18  H   UNL     1     -12.565   8.619  71.807  1.00  0.00     0.000 HD 
HETATM   19  C   UNL     1     -11.087   8.697  70.526  1.00  0.00    -0.242 C  
HETATM   20  O   UNL     1      -8.924   9.615  71.163  1.00  0.00    -0.340 OA 
HETATM   21  O   UNL     1     -12.279   8.108  71.059  1.00  0.00    -0.277 OA 
HETATM   22  H   UNL     1      -9.279  10.473  70.963  1.00  0.00     0.000 HD 
BRANCH  16  23
HETATM   23  C   UNL     1     -10.292   6.525  72.871  1.00  0.00    -0.210 C  
HETATM   24  O   UNL     1     -11.148   7.342  73.661  1.00  0.00    -0.576 OA 
HETATM   25  H   UNL     1     -11.693   6.824  74.242  1.00  0.00     0.000 HD 
ENDBRANCH  16  23
ENDBRANCH   9  11
ENDBRANCH   7   9
ENDBRANCH   2   7
TORSDOF 5
ENDMDL
MODEL      143
REMARK 921   NORMALIZED FREE ENERGY PREDICTED BY IDOCK:   -3.81 KCAL/MOL
REMARK 922        TOTAL FREE ENERGY PREDICTED BY IDOCK:   -5.75 KCAL/MOL
REMARK 923 INTER-LIGAND FREE ENERGY PREDICTED BY IDOCK:   -4.87 KCAL/MOL
REMARK 924 INTRA-LIGAND FREE ENERGY PREDICTED BY IDOCK:   -0.88 KCAL/MOL
REMARK 927      BINDING AFFINITY PREDICTED BY RF-SCORE:    0.00 PKD
ROOT
HETATM    1  C   UNL     1     -12.005  14.366  67.413  1.00  0.00    -0.373 C  
HETATM    2  N   UNL     1     -12.116  13.023  66.868  1.00  0.00    -0.345 N  
ENDROOT
BRANCH   2   3
HETATM    3  N   UNL     1     -12.476  12.807  65.535  1.00  0.00    -0.623 NA 
HETATM    4  H   UNL     1     -12.187  11.977  65.017  1.00  0.00     0.000 HD 
HETATM    5  O   UNL     1     -13.169  13.694  65.033  1.00  0.00    -0.729 OA 
HETATM    6  H   UNL     1     -13.413  13.547  64.127  1.00  0.00     0.000 HD 
ENDBRANCH   2   3
BRANCH   2   7
HETATM    7  C   UNL     1     -11.707  11.949  67.658  1.00  0.00    -0.275 C  
HETATM    8  O   UNL     1     -12.278  11.629  68.703  1.00  0.00    -0.455 OA 
BRANCH   7   9
HETATM    9  N   UNL     1     -10.597  11.274  67.213  1.00  0.00    -0.221 N  
HETATM   10  H   UNL     1      -9.676  11.696  67.337  1.00  0.00     0.000 HD 
BRANCH   9  11
HETATM   11  C   UNL     1     -10.701   9.957  66.562  1.00  0.00    -0.012 C  
HETATM   12  C   UNL     1      -9.904   9.979  65.245  1.00  0.00    -0.318 C  
HETATM   13  O   UNL     1      -8.508  10.155  65.485  1.00  0.00    -0.140 OA 
HETATM   14  O   UNL     1     -10.352  11.095  64.472  1.00  0.00    -0.293 OA 
HETATM   15  H   UNL     1      -9.860  11.109  63.660  1.00  0.00     0.000 HD 
HETATM   16  C   UNL     1      -7.908   9.119  66.280  1.00  0.00    -0.103 C  
HETATM   17  C   UNL     1      -8.640   8.928  67.628  1.00  0.00    -0.124 C  
HETATM   18  H   UNL     1     -10.186   6.864  67.409  1.00  0.00     0.000 HD 
HETATM   19  C   UNL     1     -10.167   8.821  67.453  1.00  0.00    -0.252 C  
HETATM   20  O   UNL     1      -8.327  10.032  68.491  1.00  0.00    -0.108 OA 
HETATM   21  O   UNL     1     -10.516   7.565  66.859  1.00  0.00    -0.309 OA 
HETATM   22  H   UNL     1      -8.777   9.914  69.320  1.00  0.00     0.000 HD 
BRANCH  16  23
HETATM   23  C   UNL     1      -7.730   7.821  65.476  1.00  0.00    -0.100 C  
HETATM   24  O   UNL     1      -7.590   6.688  66.326  1.00  0.00    -0.086 OA 
HETATM   25  H   UNL     1      -7.479   5.885  65.829  1.00  0.00     0.000 HD 
ENDBRANCH  16  23
ENDBRANCH   9  11
ENDBRANCH   7   9
ENDBRANCH   2   7
TORSDOF 5
ENDMDL
MODEL      144
REMARK 921   NORMALIZED FREE ENERGY PREDICTED BY IDOCK:   -3.81 KCAL/MOL
REMARK 922        TOTAL FREE ENERGY PREDICTED BY IDOCK:   -5.75 KCAL/MOL
REMARK 923 INTER-LIGAND FREE ENERGY PREDICTED BY IDOCK:   -5.37 KCAL/MOL
REMARK 924 INTRA-LIGAND FREE ENERGY PREDICTED BY IDOCK:   -0.39 KCAL/MOL
REMARK 927      BINDING AFFINITY PREDICTED BY RF-SCORE:    0.00 PKD
ROOT
HETATM    1  C   UNL     1     -12.151  11.567  70.491  1.00  0.00    -0.378 C  
HETATM    2  N   UNL     1     -11.495  10.395  69.937  1.00  0.00    -0.277 N  
ENDROOT
BRANCH   2   3
HETATM    3  N   UNL     1     -11.919   9.104  70.262  1.00  0.00    -0.461 NA 
HETATM    4  H   UNL     1     -11.344   8.279  70.092  1.00  0.00     0.000 HD 
HETATM    5  O   UNL     1     -13.040   9.036  70.771  1.00  0.00    -0.508 OA 
HETATM    6  H   UNL     1     -13.327   8.158  70.992  1.00  0.00     0.000 HD 
ENDBRANCH   2   3
BRANCH   2   7
HETATM    7  C   UNL     1     -10.527  10.578  68.950  1.00  0.00    -0.206 C  
HETATM    8  O   UNL     1      -9.537   9.853  68.839  1.00  0.00    -0.159 OA 
BRANCH   7   9
HETATM    9  N   UNL     1     -10.729  11.648  68.113  1.00  0.00    -0.203 N  
HETATM   10  H   UNL     1     -11.653  12.079  68.073  1.00  0.00     0.000 HD 
BRANCH   9  11
HETATM   11  C   UNL     1      -9.647  12.189  67.273  1.00  0.00    -0.185 C  
HETATM   12  C   UNL     1     -10.257  12.828  66.011  1.00  0.00    -0.278 C  
HETATM   13  O   UNL     1     -11.061  13.960  66.339  1.00  0.00    -0.304 OA 
HETATM   14  O   UNL     1     -11.106  11.861  65.390  1.00  0.00    -0.306 OA 
HETATM   15  H   UNL     1     -11.483  12.255  64.612  1.00  0.00     0.000 HD 
HETATM   16  C   UNL     1     -10.351  15.019  67.002  1.00  0.00    -0.269 C  
HETATM   17  C   UNL     1      -9.624  14.522  68.272  1.00  0.00    -0.212 C  
HETATM   18  H   UNL     1      -7.126  14.195  67.683  1.00  0.00     0.000 HD 
HETATM   19  C   UNL     1      -8.805  13.244  68.013  1.00  0.00    -0.190 C  
HETATM   20  O   UNL     1     -10.596  14.274  69.300  1.00  0.00    -0.338 OA 
HETATM   21  O   UNL     1      -7.646  13.543  67.226  1.00  0.00    -0.149 OA 
HETATM   22  H   UNL     1     -10.149  13.969  70.081  1.00  0.00     0.000 HD 
BRANCH  16  23
HETATM   23  C   UNL     1      -9.448  15.791  66.027  1.00  0.00    -0.357 C  
HETATM   24  O   UNL     1     -10.153  16.838  65.370  1.00  0.00    -0.587 OA 
HETATM   25  H   UNL     1      -9.595  17.316  64.767  1.00  0.00     0.000 HD 
ENDBRANCH  16  23
ENDBRANCH   9  11
ENDBRANCH   7   9
ENDBRANCH   2   7
TORSDOF 5
ENDMDL
MODEL      145
REMARK 921   NORMALIZED FREE ENERGY PREDICTED BY IDOCK:   -3.81 KCAL/MOL
REMARK 922        TOTAL FREE ENERGY PREDICTED BY IDOCK:   -5.75 KCAL/MOL
REMARK 923 INTER-LIGAND FREE ENERGY PREDICTED BY IDOCK:   -4.87 KCAL/MOL
REMARK 924 INTRA-LIGAND FREE ENERGY PREDICTED BY IDOCK:   -0.87 KCAL/MOL
REMARK 927      BINDING AFFINITY PREDICTED BY RF-SCORE:    0.00 PKD
ROOT
HETATM    1  C   UNL     1     -12.772  12.150  63.390  1.00  0.00    -0.381 C  
HETATM    2  N   UNL     1     -11.469  11.685  63.836  1.00  0.00    -0.378 N  
ENDROOT
BRANCH   2   3
HETATM    3  N   UNL     1     -10.502  11.251  62.926  1.00  0.00    -0.743 NA 
HETATM    4  H   UNL     1     -10.670  10.489  62.269  1.00  0.00     0.000 HD 
HETATM    5  O   UNL     1      -9.431  11.859  62.975  1.00  0.00    -0.583 OA 
HETATM    6  H   UNL     1      -8.773  11.563  62.356  1.00  0.00     0.000 HD 
ENDBRANCH   2   3
BRANCH   2   7
HETATM    7  C   UNL     1     -11.140  11.821  65.184  1.00  0.00    -0.282 C  
HETATM    8  O   UNL     1     -11.541  12.755  65.881  1.00  0.00    -0.340 OA 
BRANCH   7   9
HETATM    9  N   UNL     1     -10.308  10.853  65.692  1.00  0.00    -0.254 N  
HETATM   10  H   UNL     1     -10.006  10.091  65.086  1.00  0.00     0.000 HD 
BRANCH   9  11
HETATM   11  C   UNL     1      -9.842  10.888  67.089  1.00  0.00    -0.184 C  
HETATM   12  C   UNL     1      -9.700   9.446  67.611  1.00  0.00    -0.155 C  
HETATM   13  O   UNL     1      -8.680   8.737  66.907  1.00  0.00    -0.123 OA 
HETATM   14  O   UNL     1     -10.934   8.765  67.381  1.00  0.00    -0.454 OA 
HETATM   15  H   UNL     1     -10.846   7.876  67.703  1.00  0.00     0.000 HD 
HETATM   16  C   UNL     1      -7.370   9.319  67.017  1.00  0.00    -0.091 C  
HETATM   17  C   UNL     1      -7.357  10.802  66.583  1.00  0.00    -0.134 C  
HETATM   18  H   UNL     1      -7.392  12.259  68.722  1.00  0.00     0.000 HD 
HETATM   19  C   UNL     1      -8.492  11.612  67.237  1.00  0.00    -0.156 C  
HETATM   20  O   UNL     1      -7.474  10.872  65.153  1.00  0.00    -0.358 OA 
HETATM   21  O   UNL     1      -8.226  11.812  68.630  1.00  0.00    -0.147 OA 
HETATM   22  H   UNL     1      -7.465  11.784  64.886  1.00  0.00     0.000 HD 
BRANCH  16  23
HETATM   23  C   UNL     1      -6.756   9.068  68.404  1.00  0.00    -0.060 C  
HETATM   24  O   UNL     1      -6.684   7.680  68.706  1.00  0.00    -0.051 OA 
HETATM   25  H   UNL     1      -6.304   7.524  69.564  1.00  0.00     0.000 HD 
ENDBRANCH  16  23
ENDBRANCH   9  11
ENDBRANCH   7   9
ENDBRANCH   2   7
TORSDOF 5
ENDMDL
MODEL      146
REMARK 921   NORMALIZED FREE ENERGY PREDICTED BY IDOCK:   -3.81 KCAL/MOL
REMARK 922        TOTAL FREE ENERGY PREDICTED BY IDOCK:   -5.74 KCAL/MOL
REMARK 923 INTER-LIGAND FREE ENERGY PREDICTED BY IDOCK:   -5.09 KCAL/MOL
REMARK 924 INTRA-LIGAND FREE ENERGY PREDICTED BY IDOCK:   -0.66 KCAL/MOL
REMARK 927      BINDING AFFINITY PREDICTED BY RF-SCORE:    0.00 PKD
ROOT
HETATM    1  C   UNL     1     -10.495  11.221  63.927  1.00  0.00    -0.391 C  
HETATM    2  N   UNL     1     -10.964  12.492  64.453  1.00  0.00    -0.317 N  
ENDROOT
BRANCH   2   3
HETATM    3  N   UNL     1     -11.488  13.477  63.611  1.00  0.00    -0.610 NA 
HETATM    4  H   UNL     1     -11.545  13.359  62.599  1.00  0.00     0.000 HD 
HETATM    5  O   UNL     1     -11.877  14.497  64.183  1.00  0.00    -0.631 OA 
HETATM    6  H   UNL     1     -12.234  15.166  63.611  1.00  0.00     0.000 HD 
ENDBRANCH   2   3
BRANCH   2   7
HETATM    7  C   UNL     1     -11.025  12.658  65.836  1.00  0.00    -0.278 C  
HETATM    8  O   UNL     1     -11.943  12.211  66.526  1.00  0.00    -0.618 OA 
BRANCH   7   9
HETATM    9  N   UNL     1      -9.999  13.384  66.391  1.00  0.00    -0.287 N  
HETATM   10  H   UNL     1      -9.221  13.677  65.800  1.00  0.00     0.000 HD 
BRANCH   9  11
HETATM   11  C   UNL     1      -9.994  13.750  67.818  1.00  0.00    -0.242 C  
HETATM   12  C   UNL     1      -8.841  13.013  68.525  1.00  0.00    -0.038 C  
HETATM   13  O   UNL     1      -7.571  13.444  68.036  1.00  0.00    -0.114 OA 
HETATM   14  O   UNL     1      -8.963  11.619  68.239  1.00  0.00    -0.174 OA 
HETATM   15  H   UNL     1      -8.252  11.164  68.675  1.00  0.00     0.000 HD 
HETATM   16  C   UNL     1      -7.307  14.844  68.226  1.00  0.00    -0.109 C  
HETATM   17  C   UNL     1      -8.418  15.730  67.617  1.00  0.00    -0.160 C  
HETATM   18  H   UNL     1      -9.965  16.502  69.543  1.00  0.00     0.000 HD 
HETATM   19  C   UNL     1      -9.827  15.265  68.031  1.00  0.00    -0.216 C  
HETATM   20  O   UNL     1      -8.302  15.708  66.186  1.00  0.00    -0.357 OA 
HETATM   21  O   UNL     1     -10.068  15.566  69.411  1.00  0.00    -0.230 OA 
HETATM   22  H   UNL     1      -8.985  16.253  65.812  1.00  0.00     0.000 HD 
BRANCH  16  23
HETATM   23  C   UNL     1      -6.986  15.165  69.695  1.00  0.00    -0.192 C  
HETATM   24  O   UNL     1      -5.734  15.827  69.829  1.00  0.00    -0.122 OA 
HETATM   25  H   UNL     1      -5.535  16.025  70.737  1.00  0.00     0.000 HD 
ENDBRANCH  16  23
ENDBRANCH   9  11
ENDBRANCH   7   9
ENDBRANCH   2   7
TORSDOF 5
ENDMDL
MODEL      147
REMARK 921   NORMALIZED FREE ENERGY PREDICTED BY IDOCK:   -3.79 KCAL/MOL
REMARK 922        TOTAL FREE ENERGY PREDICTED BY IDOCK:   -5.72 KCAL/MOL
REMARK 923 INTER-LIGAND FREE ENERGY PREDICTED BY IDOCK:   -5.02 KCAL/MOL
REMARK 924 INTRA-LIGAND FREE ENERGY PREDICTED BY IDOCK:   -0.69 KCAL/MOL
REMARK 927      BINDING AFFINITY PREDICTED BY RF-SCORE:    0.00 PKD
ROOT
HETATM    1  C   UNL     1      -6.981  10.028  65.040  1.00  0.00    -0.135 C  
HETATM    2  N   UNL     1      -8.360   9.892  65.480  1.00  0.00    -0.134 N  
ENDROOT
BRANCH   2   3
HETATM    3  N   UNL     1      -9.200   8.914  64.945  1.00  0.00    -0.436 NA 
HETATM    4  H   UNL     1      -9.513   8.931  63.974  1.00  0.00     0.000 HD 
HETATM    5  O   UNL     1      -9.536   8.027  65.733  1.00  0.00    -0.419 OA 
HETATM    6  H   UNL     1     -10.108   7.362  65.369  1.00  0.00     0.000 HD 
ENDBRANCH   2   3
BRANCH   2   7
HETATM    7  C   UNL     1      -8.791  10.661  66.561  1.00  0.00    -0.151 C  
HETATM    8  O   UNL     1      -8.884  10.215  67.707  1.00  0.00    -0.125 OA 
BRANCH   7   9
HETATM    9  N   UNL     1      -9.138  11.957  66.267  1.00  0.00    -0.271 N  
HETATM   10  H   UNL     1      -8.642  12.446  65.521  1.00  0.00     0.000 HD 
BRANCH   9  11
HETATM   11  C   UNL     1     -10.206  12.658  66.998  1.00  0.00    -0.226 C  
HETATM   12  C   UNL     1      -9.583  13.771  67.861  1.00  0.00    -0.222 C  
HETATM   13  O   UNL     1      -8.978  14.779  67.050  1.00  0.00    -0.212 OA 
HETATM   14  O   UNL     1      -8.555  13.189  68.664  1.00  0.00    -0.339 OA 
HETATM   15  H   UNL     1      -8.170  13.876  69.195  1.00  0.00     0.000 HD 
HETATM   16  C   UNL     1      -9.887  15.445  66.157  1.00  0.00    -0.311 C  
HETATM   17  C   UNL     1     -10.646  14.448  65.254  1.00  0.00    -0.382 C  
HETATM   18  H   UNL     1     -13.011  14.113  66.248  1.00  0.00     0.000 HD 
HETATM   19  C   UNL     1     -11.251  13.279  66.054  1.00  0.00    -0.297 C  
HETATM   20  O   UNL     1      -9.744  13.938  64.259  1.00  0.00    -0.553 OA 
HETATM   21  O   UNL     1     -12.366  13.729  66.831  1.00  0.00    -0.392 OA 
HETATM   22  H   UNL     1     -10.211  13.325  63.703  1.00  0.00     0.000 HD 
BRANCH  16  23
HETATM   23  C   UNL     1     -10.800  16.427  66.910  1.00  0.00    -0.118 C  
HETATM   24  O   UNL     1     -10.052  17.435  67.581  1.00  0.00    -0.301 OA 
HETATM   25  H   UNL     1     -10.616  18.043  68.046  1.00  0.00     0.000 HD 
ENDBRANCH  16  23
ENDBRANCH   9  11
ENDBRANCH   7   9
ENDBRANCH   2   7
TORSDOF 5
ENDMDL
MODEL      148
REMARK 921   NORMALIZED FREE ENERGY PREDICTED BY IDOCK:   -3.79 KCAL/MOL
REMARK 922        TOTAL FREE ENERGY PREDICTED BY IDOCK:   -5.72 KCAL/MOL
REMARK 923 INTER-LIGAND FREE ENERGY PREDICTED BY IDOCK:   -4.63 KCAL/MOL
REMARK 924 INTRA-LIGAND FREE ENERGY PREDICTED BY IDOCK:   -1.09 KCAL/MOL
REMARK 927      BINDING AFFINITY PREDICTED BY RF-SCORE:    0.00 PKD
ROOT
HETATM    1  C   UNL     1     -12.344  14.085  66.257  1.00  0.00    -0.448 C  
HETATM    2  N   UNL     1     -10.949  13.679  66.210  1.00  0.00    -0.298 N  
ENDROOT
BRANCH   2   3
HETATM    3  N   UNL     1     -10.049  14.274  65.322  1.00  0.00    -0.493 NA 
HETATM    4  H   UNL     1      -9.518  15.112  65.559  1.00  0.00     0.000 HD 
HETATM    5  O   UNL     1      -9.944  13.710  64.231  1.00  0.00    -0.749 OA 
HETATM    6  H   UNL     1      -9.333  14.115  63.628  1.00  0.00     0.000 HD 
ENDBRANCH   2   3
BRANCH   2   7
HETATM    7  C   UNL     1     -10.483  12.787  67.175  1.00  0.00    -0.233 C  
HETATM    8  O   UNL     1     -10.222  13.126  68.331  1.00  0.00    -0.243 OA 
BRANCH   7   9
HETATM    9  N   UNL     1     -10.305  11.493  66.749  1.00  0.00    -0.219 N  
HETATM   10  H   UNL     1     -10.994  11.077  66.123  1.00  0.00     0.000 HD 
BRANCH   9  11
HETATM   11  C   UNL     1      -9.144  10.692  67.174  1.00  0.00    -0.143 C  
HETATM   12  C   UNL     1      -9.529   9.201  67.167  1.00  0.00    -0.154 C  
HETATM   13  O   UNL     1      -9.819   8.746  65.845  1.00  0.00    -0.225 OA 
HETATM   14  O   UNL     1     -10.715   9.044  67.947  1.00  0.00    -0.385 OA 
HETATM   15  H   UNL     1     -10.953   8.124  67.942  1.00  0.00     0.000 HD 
HETATM   16  C   UNL     1      -8.723   8.865  64.923  1.00  0.00    -0.149 C  
HETATM   17  C   UNL     1      -8.176  10.309  64.859  1.00  0.00    -0.157 C  
HETATM   18  H   UNL     1      -6.029  10.412  66.300  1.00  0.00     0.000 HD 
HETATM   19  C   UNL     1      -7.924  10.901  66.259  1.00  0.00    -0.161 C  
HETATM   20  O   UNL     1      -9.112  11.133  64.147  1.00  0.00    -0.342 OA 
HETATM   21  O   UNL     1      -6.782  10.283  66.865  1.00  0.00    -0.076 OA 
HETATM   22  H   UNL     1      -8.775  12.021  64.107  1.00  0.00     0.000 HD 
BRANCH  16  23
HETATM   23  C   UNL     1      -7.646   7.800  65.184  1.00  0.00    -0.094 C  
HETATM   24  O   UNL     1      -6.375   8.200  64.686  1.00  0.00    -0.055 OA 
HETATM   25  H   UNL     1      -5.709   7.542  64.847  1.00  0.00     0.000 HD 
ENDBRANCH  16  23
ENDBRANCH   9  11
ENDBRANCH   7   9
ENDBRANCH   2   7
TORSDOF 5
ENDMDL
MODEL      149
REMARK 921   NORMALIZED FREE ENERGY PREDICTED BY IDOCK:   -3.78 KCAL/MOL
REMARK 922        TOTAL FREE ENERGY PREDICTED BY IDOCK:   -5.71 KCAL/MOL
REMARK 923 INTER-LIGAND FREE ENERGY PREDICTED BY IDOCK:   -6.02 KCAL/MOL
REMARK 924 INTRA-LIGAND FREE ENERGY PREDICTED BY IDOCK:    0.32 KCAL/MOL
REMARK 927      BINDING AFFINITY PREDICTED BY RF-SCORE:    0.00 PKD
ROOT
HETATM    1  C   UNL     1     -11.861  12.167  63.333  1.00  0.00    -0.461 C  
HETATM    2  N   UNL     1     -10.545  12.611  63.763  1.00  0.00    -0.422 N  
ENDROOT
BRANCH   2   3
HETATM    3  N   UNL     1      -9.381  12.010  63.277  1.00  0.00    -0.668 NA 
HETATM    4  H   UNL     1      -8.874  12.373  62.469  1.00  0.00     0.000 HD 
HETATM    5  O   UNL     1      -9.013  11.010  63.896  1.00  0.00    -0.323 OA 
HETATM    6  H   UNL     1      -8.222  10.602  63.565  1.00  0.00     0.000 HD 
ENDBRANCH   2   3
BRANCH   2   7
HETATM    7  C   UNL     1     -10.456  13.752  64.559  1.00  0.00    -0.356 C  
HETATM    8  O   UNL     1     -10.955  14.833  64.240  1.00  0.00    -0.146 OA 
BRANCH   7   9
HETATM    9  N   UNL     1      -9.744  13.608  65.725  1.00  0.00    -0.477 N  
HETATM   10  H   UNL     1      -8.970  14.244  65.916  1.00  0.00     0.000 HD 
BRANCH   9  11
HETATM   11  C   UNL     1     -10.071  12.559  66.707  1.00  0.00    -0.223 C  
HETATM   12  C   UNL     1      -9.430  12.917  68.061  1.00  0.00    -0.213 C  
HETATM   13  O   UNL     1      -9.995  14.109  68.604  1.00  0.00    -0.232 OA 
HETATM   14  O   UNL     1      -8.039  13.159  67.845  1.00  0.00    -0.132 OA 
HETATM   15  H   UNL     1      -7.643  13.379  68.680  1.00  0.00     0.000 HD 
HETATM   16  C   UNL     1     -11.409  14.035  68.854  1.00  0.00    -0.280 C  
HETATM   17  C   UNL     1     -12.199  13.623  67.592  1.00  0.00    -0.188 C  
HETATM   18  H   UNL     1     -12.764  11.105  67.792  1.00  0.00     0.000 HD 
HETATM   19  C   UNL     1     -11.589  12.390  66.898  1.00  0.00    -0.370 C  
HETATM   20  O   UNL     1     -12.227  14.729  66.676  1.00  0.00    -0.311 OA 
HETATM   21  O   UNL     1     -11.827  11.210  67.674  1.00  0.00    -0.612 OA 
HETATM   22  H   UNL     1     -12.713  14.475  65.900  1.00  0.00     0.000 HD 
BRANCH  16  23
HETATM   23  C   UNL     1     -11.719  13.179  70.093  1.00  0.00    -0.178 C  
HETATM   24  O   UNL     1     -11.001  11.951  70.080  1.00  0.00    -0.433 OA 
HETATM   25  H   UNL     1     -11.192  11.421  70.845  1.00  0.00     0.000 HD 
ENDBRANCH  16  23
ENDBRANCH   9  11
ENDBRANCH   7   9
ENDBRANCH   2   7
TORSDOF 5
ENDMDL
MODEL      150
REMARK 921   NORMALIZED FREE ENERGY PREDICTED BY IDOCK:   -3.76 KCAL/MOL
REMARK 922        TOTAL FREE ENERGY PREDICTED BY IDOCK:   -5.68 KCAL/MOL
REMARK 923 INTER-LIGAND FREE ENERGY PREDICTED BY IDOCK:   -4.71 KCAL/MOL
REMARK 924 INTRA-LIGAND FREE ENERGY PREDICTED BY IDOCK:   -0.97 KCAL/MOL
REMARK 927      BINDING AFFINITY PREDICTED BY RF-SCORE:    0.00 PKD
ROOT
HETATM    1  C   UNL     1      -5.736  13.432  70.727  1.00  0.00    -0.184 C  
HETATM    2  N   UNL     1      -6.596  13.780  69.608  1.00  0.00    -0.097 N  
ENDROOT
BRANCH   2   3
HETATM    3  N   UNL     1      -6.964  12.831  68.652  1.00  0.00    -0.097 NA 
HETATM    4  H   UNL     1      -6.324  12.507  67.926  1.00  0.00     0.000 HD 
HETATM    5  O   UNL     1      -8.120  12.413  68.750  1.00  0.00    -0.309 OA 
HETATM    6  H   UNL     1      -8.369  11.768  68.099  1.00  0.00     0.000 HD 
ENDBRANCH   2   3
BRANCH   2   7
HETATM    7  C   UNL     1      -7.177  15.048  69.586  1.00  0.00    -0.192 C  
HETATM    8  O   UNL     1      -6.521  16.087  69.681  1.00  0.00    -0.184 OA 
BRANCH   7   9
HETATM    9  N   UNL     1      -8.546  15.071  69.478  1.00  0.00    -0.426 N  
HETATM   10  H   UNL     1      -9.102  14.471  70.086  1.00  0.00     0.000 HD 
BRANCH   9  11
HETATM   11  C   UNL     1      -9.231  15.941  68.506  1.00  0.00    -0.200 C  
HETATM   12  C   UNL     1      -8.847  15.507  67.079  1.00  0.00    -0.230 C  
HETATM   13  O   UNL     1      -9.325  14.194  66.790  1.00  0.00    -0.261 OA 
HETATM   14  O   UNL     1      -7.421  15.475  66.993  1.00  0.00    -0.215 OA 
HETATM   15  H   UNL     1      -7.184  15.207  66.113  1.00  0.00     0.000 HD 
HETATM   16  C   UNL     1     -10.754  14.053  66.864  1.00  0.00    -0.285 C  
HETATM   17  C   UNL     1     -11.310  14.511  68.231  1.00  0.00    -0.297 C  
HETATM   18  H   UNL     1     -12.285  16.890  67.938  1.00  0.00     0.000 HD 
HETATM   19  C   UNL     1     -10.763  15.887  68.653  1.00  0.00    -0.274 C  
HETATM   20  O   UNL     1     -10.972  13.531  69.225  1.00  0.00    -0.372 OA 
HETATM   21  O   UNL     1     -11.339  16.923  67.848  1.00  0.00    -0.152 OA 
HETATM   22  H   UNL     1     -11.315  13.812  70.066  1.00  0.00     0.000 HD 
BRANCH  16  23
HETATM   23  C   UNL     1     -11.449  14.704  65.657  1.00  0.00    -0.340 C  
HETATM   24  O   UNL     1     -10.841  14.321  64.428  1.00  0.00    -0.595 OA 
HETATM   25  H   UNL     1     -11.270  14.723  63.682  1.00  0.00     0.000 HD 
ENDBRANCH  16  23
ENDBRANCH   9  11
ENDBRANCH   7   9
ENDBRANCH   2   7
TORSDOF 5
ENDMDL
MODEL      151
REMARK 921   NORMALIZED FREE ENERGY PREDICTED BY IDOCK:   -3.74 KCAL/MOL
REMARK 922        TOTAL FREE ENERGY PREDICTED BY IDOCK:   -5.65 KCAL/MOL
REMARK 923 INTER-LIGAND FREE ENERGY PREDICTED BY IDOCK:   -4.91 KCAL/MOL
REMARK 924 INTRA-LIGAND FREE ENERGY PREDICTED BY IDOCK:   -0.74 KCAL/MOL
REMARK 927      BINDING AFFINITY PREDICTED BY RF-SCORE:    0.00 PKD
ROOT
HETATM    1  C   UNL     1      -6.749  19.358  68.620  1.00  0.00    -0.294 C  
HETATM    2  N   UNL     1      -8.029  19.656  67.998  1.00  0.00    -0.299 N  
ENDROOT
BRANCH   2   3
HETATM    3  N   UNL     1      -8.127  20.562  66.939  1.00  0.00    -0.514 NA 
HETATM    4  H   UNL     1      -7.503  21.362  66.842  1.00  0.00     0.000 HD 
HETATM    5  O   UNL     1      -9.025  20.320  66.129  1.00  0.00    -0.567 OA 
HETATM    6  H   UNL     1      -9.092  20.936  65.409  1.00  0.00     0.000 HD 
ENDBRANCH   2   3
BRANCH   2   7
HETATM    7  C   UNL     1      -9.143  18.907  68.376  1.00  0.00    -0.343 C  
HETATM    8  O   UNL     1     -10.074  19.375  69.034  1.00  0.00    -0.430 OA 
BRANCH   7   9
HETATM    9  N   UNL     1      -9.130  17.589  67.989  1.00  0.00    -0.262 N  
HETATM   10  H   UNL     1      -9.220  17.362  66.999  1.00  0.00     0.000 HD 
BRANCH   9  11
HETATM   11  C   UNL     1      -8.989  16.497  68.967  1.00  0.00    -0.225 C  
HETATM   12  C   UNL     1     -10.100  15.457  68.727  1.00  0.00    -0.213 C  
HETATM   13  O   UNL     1      -9.954  14.825  67.456  1.00  0.00    -0.219 OA 
HETATM   14  O   UNL     1     -11.355  16.138  68.729  1.00  0.00    -0.346 OA 
HETATM   15  H   UNL     1     -12.040  15.497  68.580  1.00  0.00     0.000 HD 
HETATM   16  C   UNL     1      -8.716  14.114  67.286  1.00  0.00    -0.218 C  
HETATM   17  C   UNL     1      -7.490  15.015  67.554  1.00  0.00    -0.201 C  
HETATM   18  H   UNL     1      -6.625  14.493  69.937  1.00  0.00     0.000 HD 
HETATM   19  C   UNL     1      -7.620  15.801  68.873  1.00  0.00    -0.181 C  
HETATM   20  O   UNL     1      -7.333  15.930  66.459  1.00  0.00    -0.146 OA 
HETATM   21  O   UNL     1      -7.470  14.923  69.995  1.00  0.00    -0.100 OA 
HETATM   22  H   UNL     1      -6.579  16.484  66.623  1.00  0.00     0.000 HD 
BRANCH  16  23
HETATM   23  C   UNL     1      -8.709  12.796  68.077  1.00  0.00    -0.194 C  
HETATM   24  O   UNL     1      -9.092  11.691  67.266  1.00  0.00    -0.162 OA 
HETATM   25  H   UNL     1      -9.087  10.876  67.755  1.00  0.00     0.000 HD 
ENDBRANCH  16  23
ENDBRANCH   9  11
ENDBRANCH   7   9
ENDBRANCH   2   7
TORSDOF 5
ENDMDL
MODEL      152
REMARK 921   NORMALIZED FREE ENERGY PREDICTED BY IDOCK:   -3.74 KCAL/MOL
REMARK 922        TOTAL FREE ENERGY PREDICTED BY IDOCK:   -5.65 KCAL/MOL
REMARK 923 INTER-LIGAND FREE ENERGY PREDICTED BY IDOCK:   -5.05 KCAL/MOL
REMARK 924 INTRA-LIGAND FREE ENERGY PREDICTED BY IDOCK:   -0.60 KCAL/MOL
REMARK 927      BINDING AFFINITY PREDICTED BY RF-SCORE:    0.00 PKD
ROOT
HETATM    1  C   UNL     1     -11.395  11.791  63.231  1.00  0.00    -0.253 C  
HETATM    2  N   UNL     1     -11.780  12.404  64.491  1.00  0.00    -0.345 N  
ENDROOT
BRANCH   2   3
HETATM    3  N   UNL     1     -13.108  12.750  64.754  1.00  0.00    -0.836 NA 
HETATM    4  H   UNL     1     -13.881  12.098  64.622  1.00  0.00     0.000 HD 
HETATM    5  O   UNL     1     -13.275  13.903  65.158  1.00  0.00    -0.768 OA 
HETATM    6  H   UNL     1     -14.178  14.138  65.337  1.00  0.00     0.000 HD 
ENDBRANCH   2   3
BRANCH   2   7
HETATM    7  C   UNL     1     -10.824  12.504  65.502  1.00  0.00    -0.278 C  
HETATM    8  O   UNL     1     -10.326  13.576  65.850  1.00  0.00    -0.286 OA 
BRANCH   7   9
HETATM    9  N   UNL     1     -10.444  11.316  66.078  1.00  0.00    -0.251 N  
HETATM   10  H   UNL     1     -10.994  10.477  65.894  1.00  0.00     0.000 HD 
BRANCH   9  11
HETATM   11  C   UNL     1      -9.263  11.223  66.953  1.00  0.00    -0.175 C  
HETATM   12  C   UNL     1      -9.726  11.104  68.417  1.00  0.00    -0.191 C  
HETATM   13  O   UNL     1     -10.438   9.886  68.639  1.00  0.00    -0.190 OA 
HETATM   14  O   UNL     1     -10.622  12.182  68.690  1.00  0.00    -0.223 OA 
HETATM   15  H   UNL     1     -10.907  12.109  69.593  1.00  0.00     0.000 HD 
HETATM   16  C   UNL     1      -9.674   8.697  68.378  1.00  0.00    -0.162 C  
HETATM   17  C   UNL     1      -9.082   8.691  66.950  1.00  0.00    -0.144 C  
HETATM   18  H   UNL     1      -6.593   9.381  67.117  1.00  0.00     0.000 HD 
HETATM   19  C   UNL     1      -8.373  10.015  66.607  1.00  0.00    -0.125 C  
HETATM   20  O   UNL     1     -10.137   8.448  66.007  1.00  0.00    -0.470 OA 
HETATM   21  O   UNL     1      -7.142  10.127  67.331  1.00  0.00    -0.082 OA 
HETATM   22  H   UNL     1      -9.773   8.444  65.130  1.00  0.00     0.000 HD 
BRANCH  16  23
HETATM   23  C   UNL     1      -8.639   8.436  69.485  1.00  0.00    -0.129 C  
HETATM   24  O   UNL     1      -8.539   7.051  69.797  1.00  0.00    -0.139 OA 
HETATM   25  H   UNL     1      -7.899   6.889  70.481  1.00  0.00     0.000 HD 
ENDBRANCH  16  23
ENDBRANCH   9  11
ENDBRANCH   7   9
ENDBRANCH   2   7
TORSDOF 5
ENDMDL
MODEL      153
REMARK 921   NORMALIZED FREE ENERGY PREDICTED BY IDOCK:   -3.74 KCAL/MOL
REMARK 922        TOTAL FREE ENERGY PREDICTED BY IDOCK:   -5.65 KCAL/MOL
REMARK 923 INTER-LIGAND FREE ENERGY PREDICTED BY IDOCK:   -5.29 KCAL/MOL
REMARK 924 INTRA-LIGAND FREE ENERGY PREDICTED BY IDOCK:   -0.36 KCAL/MOL
REMARK 927      BINDING AFFINITY PREDICTED BY RF-SCORE:    0.00 PKD
ROOT
HETATM    1  C   UNL     1     -10.492  15.444  69.728  1.00  0.00    -0.293 C  
HETATM    2  N   UNL     1     -11.654  14.641  69.386  1.00  0.00    -0.287 N  
ENDROOT
BRANCH   2   3
HETATM    3  N   UNL     1     -12.800  14.645  70.185  1.00  0.00    -0.567 NA 
HETATM    4  H   UNL     1     -13.115  13.819  70.695  1.00  0.00     0.000 HD 
HETATM    5  O   UNL     1     -13.402  15.719  70.227  1.00  0.00    -0.726 OA 
HETATM    6  H   UNL     1     -14.181  15.721  70.771  1.00  0.00     0.000 HD 
ENDBRANCH   2   3
BRANCH   2   7
HETATM    7  C   UNL     1     -11.667  13.979  68.158  1.00  0.00    -0.352 C  
HETATM    8  O   UNL     1     -12.209  14.441  67.153  1.00  0.00    -0.390 OA 
BRANCH   7   9
HETATM    9  N   UNL     1     -11.054  12.750  68.141  1.00  0.00    -0.242 N  
HETATM   10  H   UNL     1     -11.359  12.034  68.801  1.00  0.00     0.000 HD 
BRANCH   9  11
HETATM   11  C   UNL     1      -9.969  12.439  67.196  1.00  0.00    -0.207 C  
HETATM   12  C   UNL     1      -8.704  12.054  67.986  1.00  0.00    -0.175 C  
HETATM   13  O   UNL     1      -8.899  10.848  68.723  1.00  0.00    -0.158 OA 
HETATM   14  O   UNL     1      -8.433  13.095  68.927  1.00  0.00    -0.357 OA 
HETATM   15  H   UNL     1      -7.653  12.858  69.414  1.00  0.00     0.000 HD 
HETATM   16  C   UNL     1      -9.210   9.702  67.913  1.00  0.00    -0.124 C  
HETATM   17  C   UNL     1     -10.436   9.951  67.005  1.00  0.00    -0.230 C  
HETATM   18  H   UNL     1      -9.569  10.492  64.627  1.00  0.00     0.000 HD 
HETATM   19  C   UNL     1     -10.336  11.287  66.243  1.00  0.00    -0.247 C  
HETATM   20  O   UNL     1     -11.624   9.941  67.810  1.00  0.00    -0.542 OA 
HETATM   21  O   UNL     1      -9.342  11.204  65.215  1.00  0.00    -0.216 OA 
HETATM   22  H   UNL     1     -12.378  10.094  67.252  1.00  0.00     0.000 HD 
BRANCH  16  23
HETATM   23  C   UNL     1      -7.971   9.187  67.163  1.00  0.00    -0.106 C  
HETATM   24  O   UNL     1      -6.884   8.938  68.047  1.00  0.00    -0.068 OA 
HETATM   25  H   UNL     1      -6.118   8.619  67.583  1.00  0.00     0.000 HD 
ENDBRANCH  16  23
ENDBRANCH   9  11
ENDBRANCH   7   9
ENDBRANCH   2   7
TORSDOF 5
ENDMDL
MODEL      154
REMARK 921   NORMALIZED FREE ENERGY PREDICTED BY IDOCK:   -3.73 KCAL/MOL
REMARK 922        TOTAL FREE ENERGY PREDICTED BY IDOCK:   -5.64 KCAL/MOL
REMARK 923 INTER-LIGAND FREE ENERGY PREDICTED BY IDOCK:   -4.44 KCAL/MOL
REMARK 924 INTRA-LIGAND FREE ENERGY PREDICTED BY IDOCK:   -1.20 KCAL/MOL
REMARK 927      BINDING AFFINITY PREDICTED BY RF-SCORE:    0.00 PKD
ROOT
HETATM    1  C   UNL     1     -11.997  14.042  66.206  1.00  0.00    -0.432 C  
HETATM    2  N   UNL     1     -10.696  14.079  65.559  1.00  0.00    -0.300 N  
ENDROOT
BRANCH   2   3
HETATM    3  N   UNL     1     -10.574  14.015  64.169  1.00  0.00    -0.517 NA 
HETATM    4  H   UNL     1     -10.998  14.705  63.549  1.00  0.00     0.000 HD 
HETATM    5  O   UNL     1      -9.914  13.063  63.748  1.00  0.00    -0.744 OA 
HETATM    6  H   UNL     1      -9.831  13.020  62.803  1.00  0.00     0.000 HD 
ENDBRANCH   2   3
BRANCH   2   7
HETATM    7  C   UNL     1      -9.571  14.334  66.343  1.00  0.00    -0.298 C  
HETATM    8  O   UNL     1      -9.356  15.427  66.872  1.00  0.00    -0.216 OA 
BRANCH   7   9
HETATM    9  N   UNL     1      -8.689  13.290  66.472  1.00  0.00    -0.438 N  
HETATM   10  H   UNL     1      -7.713  13.429  66.209  1.00  0.00     0.000 HD 
BRANCH   9  11
HETATM   11  C   UNL     1      -9.115  11.974  66.979  1.00  0.00    -0.191 C  
HETATM   12  C   UNL     1      -8.314  10.871  66.263  1.00  0.00    -0.164 C  
HETATM   13  O   UNL     1      -6.924  10.949  66.580  1.00  0.00    -0.118 OA 
HETATM   14  O   UNL     1      -8.446  11.070  64.854  1.00  0.00    -0.366 OA 
HETATM   15  H   UNL     1      -7.952  10.390  64.412  1.00  0.00     0.000 HD 
HETATM   16  C   UNL     1      -6.626  10.796  67.978  1.00  0.00    -0.063 C  
HETATM   17  C   UNL     1      -7.408  11.803  68.850  1.00  0.00    -0.093 C  
HETATM   18  H   UNL     1      -9.428  10.560  69.886  1.00  0.00     0.000 HD 
HETATM   19  C   UNL     1      -8.907  11.839  68.499  1.00  0.00    -0.122 C  
HETATM   20  O   UNL     1      -6.839  13.111  68.679  1.00  0.00    -0.087 OA 
HETATM   21  O   UNL     1      -9.556  10.644  68.948  1.00  0.00    -0.181 OA 
HETATM   22  H   UNL     1      -7.320  13.730  69.216  1.00  0.00     0.000 HD 
BRANCH  16  23
HETATM   23  C   UNL     1      -6.772   9.333  68.429  1.00  0.00    -0.059 C  
HETATM   24  O   UNL     1      -7.080   9.236  69.815  1.00  0.00    -0.055 OA 
HETATM   25  H   UNL     1      -7.170   8.332  70.094  1.00  0.00     0.000 HD 
ENDBRANCH  16  23
ENDBRANCH   9  11
ENDBRANCH   7   9
ENDBRANCH   2   7
TORSDOF 5
ENDMDL
MODEL      155
REMARK 921   NORMALIZED FREE ENERGY PREDICTED BY IDOCK:   -3.73 KCAL/MOL
REMARK 922        TOTAL FREE ENERGY PREDICTED BY IDOCK:   -5.64 KCAL/MOL
REMARK 923 INTER-LIGAND FREE ENERGY PREDICTED BY IDOCK:   -5.15 KCAL/MOL
REMARK 924 INTRA-LIGAND FREE ENERGY PREDICTED BY IDOCK:   -0.49 KCAL/MOL
REMARK 927      BINDING AFFINITY PREDICTED BY RF-SCORE:    0.00 PKD
ROOT
HETATM    1  C   UNL     1     -12.291  13.557  64.436  1.00  0.00    -0.337 C  
HETATM    2  N   UNL     1     -11.396  12.441  64.176  1.00  0.00    -0.349 N  
ENDROOT
BRANCH   2   3
HETATM    3  N   UNL     1     -11.145  12.000  62.874  1.00  0.00    -0.529 NA 
HETATM    4  H   UNL     1     -11.878  11.931  62.168  1.00  0.00     0.000 HD 
HETATM    5  O   UNL     1      -9.972  11.702  62.642  1.00  0.00    -0.552 OA 
HETATM    6  H   UNL     1      -9.802  11.402  61.757  1.00  0.00     0.000 HD 
ENDBRANCH   2   3
BRANCH   2   7
HETATM    7  C   UNL     1     -10.667  11.911  65.240  1.00  0.00    -0.283 C  
HETATM    8  O   UNL     1     -10.385  10.714  65.328  1.00  0.00    -0.290 OA 
BRANCH   7   9
HETATM    9  N   UNL     1     -10.300  12.807  66.213  1.00  0.00    -0.254 N  
HETATM   10  H   UNL     1      -9.568  13.488  66.010  1.00  0.00     0.000 HD 
BRANCH   9  11
HETATM   11  C   UNL     1     -10.936  12.812  67.542  1.00  0.00    -0.249 C  
HETATM   12  C   UNL     1      -9.844  12.873  68.625  1.00  0.00    -0.067 C  
HETATM   13  O   UNL     1      -9.121  14.102  68.566  1.00  0.00    -0.192 OA 
HETATM   14  O   UNL     1      -8.915  11.815  68.381  1.00  0.00    -0.178 OA 
HETATM   15  H   UNL     1      -8.241  11.852  69.049  1.00  0.00     0.000 HD 
HETATM   16  C   UNL     1      -9.928  15.274  68.766  1.00  0.00    -0.215 C  
HETATM   17  C   UNL     1     -11.119  15.332  67.783  1.00  0.00    -0.318 C  
HETATM   18  H   UNL     1     -13.235  14.543  69.047  1.00  0.00     0.000 HD 
HETATM   19  C   UNL     1     -11.895  14.002  67.726  1.00  0.00    -0.384 C  
HETATM   20  O   UNL     1     -10.629  15.662  66.474  1.00  0.00    -0.301 OA 
HETATM   21  O   UNL     1     -12.644  13.808  68.932  1.00  0.00     0.008 OA 
HETATM   22  H   UNL     1     -11.361  15.698  65.869  1.00  0.00     0.000 HD 
BRANCH  16  23
HETATM   23  C   UNL     1     -10.328  15.440  70.242  1.00  0.00    -0.183 C  
HETATM   24  O   UNL     1     -11.200  16.548  70.431  1.00  0.00    -0.477 OA 
HETATM   25  H   UNL     1     -11.447  16.651  71.343  1.00  0.00     0.000 HD 
ENDBRANCH  16  23
ENDBRANCH   9  11
ENDBRANCH   7   9
ENDBRANCH   2   7
TORSDOF 5
ENDMDL
MODEL      156
REMARK 921   NORMALIZED FREE ENERGY PREDICTED BY IDOCK:   -3.72 KCAL/MOL
REMARK 922        TOTAL FREE ENERGY PREDICTED BY IDOCK:   -5.63 KCAL/MOL
REMARK 923 INTER-LIGAND FREE ENERGY PREDICTED BY IDOCK:   -5.12 KCAL/MOL
REMARK 924 INTRA-LIGAND FREE ENERGY PREDICTED BY IDOCK:   -0.51 KCAL/MOL
REMARK 927      BINDING AFFINITY PREDICTED BY RF-SCORE:    0.00 PKD
ROOT
HETATM    1  C   UNL     1      -7.534  14.408  69.123  1.00  0.00    -0.094 C  
HETATM    2  N   UNL     1      -7.575  12.970  68.912  1.00  0.00    -0.019 N  
ENDROOT
BRANCH   2   3
HETATM    3  N   UNL     1      -6.487  12.157  69.241  1.00  0.00    -0.104 NA 
HETATM    4  H   UNL     1      -5.701  12.011  68.607  1.00  0.00     0.000 HD 
HETATM    5  O   UNL     1      -6.549  11.630  70.353  1.00  0.00    -0.504 OA 
HETATM    6  H   UNL     1      -5.810  11.077  70.577  1.00  0.00     0.000 HD 
ENDBRANCH   2   3
BRANCH   2   7
HETATM    7  C   UNL     1      -8.779  12.390  68.514  1.00  0.00    -0.060 C  
HETATM    8  O   UNL     1      -9.040  11.199  68.691  1.00  0.00    -0.170 OA 
BRANCH   7   9
HETATM    9  N   UNL     1      -9.660  13.231  67.878  1.00  0.00    -0.210 N  
HETATM   10  H   UNL     1     -10.472  13.577  68.390  1.00  0.00     0.000 HD 
BRANCH   9  11
HETATM   11  C   UNL     1      -9.464  13.644  66.479  1.00  0.00    -0.259 C  
HETATM   12  C   UNL     1     -10.083  12.586  65.546  1.00  0.00    -0.265 C  
HETATM   13  O   UNL     1     -11.499  12.517  65.708  1.00  0.00    -0.328 OA 
HETATM   14  O   UNL     1      -9.546  11.311  65.902  1.00  0.00    -0.205 OA 
HETATM   15  H   UNL     1      -9.928  10.658  65.327  1.00  0.00     0.000 HD 
HETATM   16  C   UNL     1     -12.190  13.743  65.412  1.00  0.00    -0.440 C  
HETATM   17  C   UNL     1     -11.638  14.930  66.233  1.00  0.00    -0.233 C  
HETATM   18  H   UNL     1     -10.062  16.294  64.699  1.00  0.00     0.000 HD 
HETATM   19  C   UNL     1     -10.101  15.013  66.179  1.00  0.00    -0.294 C  
HETATM   20  O   UNL     1     -12.068  14.796  67.597  1.00  0.00    -0.545 OA 
HETATM   21  O   UNL     1      -9.668  15.449  64.885  1.00  0.00    -0.157 OA 
HETATM   22  H   UNL     1     -11.729  15.526  68.101  1.00  0.00     0.000 HD 
BRANCH  16  23
HETATM   23  C   UNL     1     -12.253  14.005  63.899  1.00  0.00    -0.293 C  
HETATM   24  O   UNL     1     -12.254  15.397  63.603  1.00  0.00    -0.943 OA 
HETATM   25  H   UNL     1     -12.293  15.559  62.668  1.00  0.00     0.000 HD 
ENDBRANCH  16  23
ENDBRANCH   9  11
ENDBRANCH   7   9
ENDBRANCH   2   7
TORSDOF 5
ENDMDL
MODEL      157
REMARK 921   NORMALIZED FREE ENERGY PREDICTED BY IDOCK:   -3.72 KCAL/MOL
REMARK 922        TOTAL FREE ENERGY PREDICTED BY IDOCK:   -5.63 KCAL/MOL
REMARK 923 INTER-LIGAND FREE ENERGY PREDICTED BY IDOCK:   -4.66 KCAL/MOL
REMARK 924 INTRA-LIGAND FREE ENERGY PREDICTED BY IDOCK:   -0.97 KCAL/MOL
REMARK 927      BINDING AFFINITY PREDICTED BY RF-SCORE:    0.00 PKD
ROOT
HETATM    1  C   UNL     1      -9.536  15.605  69.523  1.00  0.00    -0.279 C  
HETATM    2  N   UNL     1     -10.834  14.964  69.654  1.00  0.00    -0.260 N  
ENDROOT
BRANCH   2   3
HETATM    3  N   UNL     1     -11.678  15.246  70.731  1.00  0.00    -0.307 NA 
HETATM    4  H   UNL     1     -11.462  14.960  71.686  1.00  0.00     0.000 HD 
HETATM    5  O   UNL     1     -12.703  15.867  70.441  1.00  0.00    -0.505 OA 
HETATM    6  H   UNL     1     -13.276  16.058  71.174  1.00  0.00     0.000 HD 
ENDBRANCH   2   3
BRANCH   2   7
HETATM    7  C   UNL     1     -11.294  14.171  68.602  1.00  0.00    -0.277 C  
HETATM    8  O   UNL     1     -12.285  14.460  67.929  1.00  0.00    -0.299 OA 
BRANCH   7   9
HETATM    9  N   UNL     1     -10.583  13.019  68.374  1.00  0.00    -0.246 N  
HETATM   10  H   UNL     1      -9.590  13.085  68.148  1.00  0.00     0.000 HD 
BRANCH   9  11
HETATM   11  C   UNL     1     -11.216  11.691  68.447  1.00  0.00    -0.249 C  
HETATM   12  C   UNL     1     -11.213  11.051  67.046  1.00  0.00    -0.181 C  
HETATM   13  O   UNL     1      -9.884  10.794  66.595  1.00  0.00    -0.188 OA 
HETATM   14  O   UNL     1     -11.807  11.976  66.134  1.00  0.00    -0.546 OA 
HETATM   15  H   UNL     1     -11.805  11.582  65.270  1.00  0.00     0.000 HD 
HETATM   16  C   UNL     1      -9.138   9.893  67.432  1.00  0.00    -0.134 C  
HETATM   17  C   UNL     1      -9.097  10.369  68.901  1.00  0.00    -0.173 C  
HETATM   18  H   UNL     1     -10.848   9.001  70.230  1.00  0.00     0.000 HD 
HETATM   19  C   UNL     1     -10.492  10.752  69.430  1.00  0.00    -0.200 C  
HETATM   20  O   UNL     1      -8.214  11.496  69.004  1.00  0.00    -0.339 OA 
HETATM   21  O   UNL     1     -11.294   9.581  69.623  1.00  0.00    -0.165 OA 
HETATM   22  H   UNL     1      -8.189  11.788  69.908  1.00  0.00     0.000 HD 
BRANCH  16  23
HETATM   23  C   UNL     1      -9.608   8.440  67.257  1.00  0.00    -0.165 C  
HETATM   24  O   UNL     1      -9.312   7.648  68.402  1.00  0.00    -0.146 OA 
HETATM   25  H   UNL     1      -9.602   6.750  68.294  1.00  0.00     0.000 HD 
ENDBRANCH  16  23
ENDBRANCH   9  11
ENDBRANCH   7   9
ENDBRANCH   2   7
TORSDOF 5
ENDMDL
MODEL      158
REMARK 921   NORMALIZED FREE ENERGY PREDICTED BY IDOCK:   -3.71 KCAL/MOL
REMARK 922        TOTAL FREE ENERGY PREDICTED BY IDOCK:   -5.61 KCAL/MOL
REMARK 923 INTER-LIGAND FREE ENERGY PREDICTED BY IDOCK:   -4.87 KCAL/MOL
REMARK 924 INTRA-LIGAND FREE ENERGY PREDICTED BY IDOCK:   -0.75 KCAL/MOL
REMARK 927      BINDING AFFINITY PREDICTED BY RF-SCORE:    0.00 PKD
ROOT
HETATM    1  C   UNL     1      -7.699   4.308  64.872  1.00  0.00    -0.078 C  
HETATM    2  N   UNL     1      -8.968   4.741  65.431  1.00  0.00    -0.145 N  
ENDROOT
BRANCH   2   3
HETATM    3  N   UNL     1     -10.163   4.591  64.723  1.00  0.00    -0.412 NA 
HETATM    4  H   UNL     1     -10.193   4.536  63.705  1.00  0.00     0.000 HD 
HETATM    5  O   UNL     1     -11.177   4.529  65.421  1.00  0.00    -0.902 OA 
HETATM    6  H   UNL     1     -11.990   4.427  64.939  1.00  0.00     0.000 HD 
ENDBRANCH   2   3
BRANCH   2   7
HETATM    7  C   UNL     1      -8.998   5.174  66.757  1.00  0.00    -0.113 C  
HETATM    8  O   UNL     1      -9.217   4.418  67.705  1.00  0.00    -0.126 OA 
BRANCH   7   9
HETATM    9  N   UNL     1      -8.792   6.519  66.946  1.00  0.00    -0.117 N  
HETATM   10  H   UNL     1      -8.054   6.823  67.582  1.00  0.00     0.000 HD 
BRANCH   9  11
HETATM   11  C   UNL     1      -9.607   7.532  66.255  1.00  0.00    -0.065 C  
HETATM   12  C   UNL     1     -10.901   7.772  67.055  1.00  0.00    -0.106 C  
HETATM   13  O   UNL     1     -10.623   8.343  68.334  1.00  0.00    -0.190 OA 
HETATM   14  O   UNL     1     -11.530   6.508  67.275  1.00  0.00    -0.754 OA 
HETATM   15  H   UNL     1     -12.328   6.656  67.769  1.00  0.00     0.000 HD 
HETATM   16  C   UNL     1      -9.959   9.617  68.283  1.00  0.00    -0.155 C  
HETATM   17  C   UNL     1      -8.656   9.557  67.453  1.00  0.00    -0.125 C  
HETATM   18  H   UNL     1      -9.158  10.538  65.112  1.00  0.00     0.000 HD 
HETATM   19  C   UNL     1      -8.862   8.869  66.091  1.00  0.00    -0.161 C  
HETATM   20  O   UNL     1      -7.655   8.853  68.205  1.00  0.00    -0.091 OA 
HETATM   21  O   UNL     1      -9.617   9.713  65.213  1.00  0.00    -0.274 OA 
HETATM   22  H   UNL     1      -6.854   8.817  67.695  1.00  0.00     0.000 HD 
BRANCH  16  23
HETATM   23  C   UNL     1     -10.920  10.738  67.857  1.00  0.00    -0.289 C  
HETATM   24  O   UNL     1     -12.116  10.730  68.629  1.00  0.00    -0.763 OA 
HETATM   25  H   UNL     1     -12.711  11.423  68.366  1.00  0.00     0.000 HD 
ENDBRANCH  16  23
ENDBRANCH   9  11
ENDBRANCH   7   9
ENDBRANCH   2   7
TORSDOF 5
ENDMDL
MODEL      159
REMARK 921   NORMALIZED FREE ENERGY PREDICTED BY IDOCK:   -3.70 KCAL/MOL
REMARK 922        TOTAL FREE ENERGY PREDICTED BY IDOCK:   -5.60 KCAL/MOL
REMARK 923 INTER-LIGAND FREE ENERGY PREDICTED BY IDOCK:   -4.98 KCAL/MOL
REMARK 924 INTRA-LIGAND FREE ENERGY PREDICTED BY IDOCK:   -0.62 KCAL/MOL
REMARK 927      BINDING AFFINITY PREDICTED BY RF-SCORE:    0.00 PKD
ROOT
HETATM    1  C   UNL     1     -10.946  10.962  70.065  1.00  0.00    -0.151 C  
HETATM    2  N   UNL     1     -10.756  10.662  68.655  1.00  0.00    -0.192 N  
ENDROOT
BRANCH   2   3
HETATM    3  N   UNL     1     -11.445   9.616  68.036  1.00  0.00    -0.399 NA 
HETATM    4  H   UNL     1     -12.451   9.644  67.870  1.00  0.00     0.000 HD 
HETATM    5  O   UNL     1     -10.746   8.656  67.706  1.00  0.00    -0.418 OA 
HETATM    6  H   UNL     1     -11.214   7.945  67.285  1.00  0.00     0.000 HD 
ENDBRANCH   2   3
BRANCH   2   7
HETATM    7  C   UNL     1      -9.987  11.536  67.887  1.00  0.00    -0.183 C  
HETATM    8  O   UNL     1      -8.997  11.172  67.248  1.00  0.00    -0.145 OA 
BRANCH   7   9
HETATM    9  N   UNL     1     -10.385  12.850  67.906  1.00  0.00    -0.225 N  
HETATM   10  H   UNL     1     -11.381  13.067  67.877  1.00  0.00     0.000 HD 
BRANCH   9  11
HETATM   11  C   UNL     1      -9.411  13.953  67.967  1.00  0.00    -0.204 C  
HETATM   12  C   UNL     1      -9.500  14.780  66.671  1.00  0.00    -0.273 C  
HETATM   13  O   UNL     1     -10.769  15.423  66.552  1.00  0.00    -0.303 OA 
HETATM   14  O   UNL     1      -9.364  13.887  65.564  1.00  0.00    -0.497 OA 
HETATM   15  H   UNL     1      -9.420  14.397  64.764  1.00  0.00     0.000 HD 
HETATM   16  C   UNL     1     -11.070  16.341  67.616  1.00  0.00    -0.184 C  
HETATM   17  C   UNL     1     -10.963  15.672  69.005  1.00  0.00    -0.263 C  
HETATM   18  H   UNL     1      -8.690  16.346  70.041  1.00  0.00     0.000 HD 
HETATM   19  C   UNL     1      -9.653  14.880  69.172  1.00  0.00    -0.172 C  
HETATM   20  O   UNL     1     -12.086  14.795  69.189  1.00  0.00    -0.447 OA 
HETATM   21  O   UNL     1      -8.540  15.774  69.297  1.00  0.00    -0.240 OA 
HETATM   22  H   UNL     1     -12.020  14.384  70.043  1.00  0.00     0.000 HD 
BRANCH  16  23
HETATM   23  C   UNL     1     -10.262  17.643  67.485  1.00  0.00    -0.348 C  
HETATM   24  O   UNL     1      -9.664  18.019  68.720  1.00  0.00    -0.336 OA 
HETATM   25  H   UNL     1      -9.164  18.823  68.640  1.00  0.00     0.000 HD 
ENDBRANCH  16  23
ENDBRANCH   9  11
ENDBRANCH   7   9
ENDBRANCH   2   7
TORSDOF 5
ENDMDL
MODEL      160
REMARK 921   NORMALIZED FREE ENERGY PREDICTED BY IDOCK:   -3.67 KCAL/MOL
REMARK 922        TOTAL FREE ENERGY PREDICTED BY IDOCK:   -5.57 KCAL/MOL
REMARK 923 INTER-LIGAND FREE ENERGY PREDICTED BY IDOCK:   -4.78 KCAL/MOL
REMARK 924 INTRA-LIGAND FREE ENERGY PREDICTED BY IDOCK:   -0.79 KCAL/MOL
REMARK 927      BINDING AFFINITY PREDICTED BY RF-SCORE:    0.00 PKD
ROOT
HETATM    1  C   UNL     1     -13.047  11.315  71.776  1.00  0.00    -0.422 C  
HETATM    2  N   UNL     1     -12.355  12.253  70.907  1.00  0.00    -0.347 N  
ENDROOT
BRANCH   2   3
HETATM    3  N   UNL     1     -12.130  13.575  71.299  1.00  0.00    -0.370 NA 
HETATM    4  H   UNL     1     -12.595  13.994  72.104  1.00  0.00     0.000 HD 
HETATM    5  O   UNL     1     -11.329  14.196  70.598  1.00  0.00    -0.513 OA 
HETATM    6  H   UNL     1     -11.176  15.095  70.864  1.00  0.00     0.000 HD 
ENDBRANCH   2   3
BRANCH   2   7
HETATM    7  C   UNL     1     -11.782  11.770  69.731  1.00  0.00    -0.335 C  
HETATM    8  O   UNL     1     -12.126  12.153  68.611  1.00  0.00    -0.282 OA 
BRANCH   7   9
HETATM    9  N   UNL     1     -10.814  10.810  69.894  1.00  0.00    -0.424 N  
HETATM   10  H   UNL     1      -9.918  11.072  70.307  1.00  0.00     0.000 HD 
BRANCH   9  11
HETATM   11  C   UNL     1     -11.035   9.411  69.489  1.00  0.00    -0.173 C  
HETATM   12  C   UNL     1     -10.404   9.180  68.104  1.00  0.00    -0.216 C  
HETATM   13  O   UNL     1      -8.984   9.323  68.149  1.00  0.00    -0.129 OA 
HETATM   14  O   UNL     1     -10.909  10.175  67.212  1.00  0.00    -0.271 OA 
HETATM   15  H   UNL     1     -10.519  10.032  66.358  1.00  0.00     0.000 HD 
HETATM   16  C   UNL     1      -8.324   8.401  69.033  1.00  0.00    -0.119 C  
HETATM   17  C   UNL     1      -8.892   8.468  70.468  1.00  0.00    -0.154 C  
HETATM   18  H   UNL     1     -10.514   6.476  70.777  1.00  0.00     0.000 HD 
HETATM   19  C   UNL     1     -10.431   8.410  70.490  1.00  0.00    -0.207 C  
HETATM   20  O   UNL     1      -8.444   9.682  71.092  1.00  0.00    -0.335 OA 
HETATM   21  O   UNL     1     -10.887   7.093  70.159  1.00  0.00    -0.243 OA 
HETATM   22  H   UNL     1      -8.793   9.723  71.975  1.00  0.00     0.000 HD 
BRANCH  16  23
HETATM   23  C   UNL     1      -8.283   6.983  68.442  1.00  0.00    -0.124 C  
HETATM   24  O   UNL     1      -8.166   5.991  69.456  1.00  0.00    -0.111 OA 
HETATM   25  H   UNL     1      -8.141   5.114  69.091  1.00  0.00     0.000 HD 
ENDBRANCH  16  23
ENDBRANCH   9  11
ENDBRANCH   7   9
ENDBRANCH   2   7
TORSDOF 5
ENDMDL
MODEL      161
REMARK 921   NORMALIZED FREE ENERGY PREDICTED BY IDOCK:   -3.65 KCAL/MOL
REMARK 922        TOTAL FREE ENERGY PREDICTED BY IDOCK:   -5.55 KCAL/MOL
REMARK 923 INTER-LIGAND FREE ENERGY PREDICTED BY IDOCK:   -6.53 KCAL/MOL
REMARK 924 INTRA-LIGAND FREE ENERGY PREDICTED BY IDOCK:    0.98 KCAL/MOL
REMARK 927      BINDING AFFINITY PREDICTED BY RF-SCORE:    0.00 PKD
ROOT
HETATM    1  C   UNL     1     -10.590  11.665  63.034  1.00  0.00    -0.157 C  
HETATM    2  N   UNL     1     -10.660  12.669  64.084  1.00  0.00    -0.382 N  
ENDROOT
BRANCH   2   3
HETATM    3  N   UNL     1     -11.253  13.914  63.859  1.00  0.00    -0.527 NA 
HETATM    4  H   UNL     1     -10.768  14.792  64.044  1.00  0.00     0.000 HD 
HETATM    5  O   UNL     1     -12.404  13.871  63.422  1.00  0.00    -1.063 OA 
HETATM    6  H   UNL     1     -12.807  14.718  63.269  1.00  0.00     0.000 HD 
ENDBRANCH   2   3
BRANCH   2   7
HETATM    7  C   UNL     1     -10.260  12.313  65.372  1.00  0.00    -0.270 C  
HETATM    8  O   UNL     1     -10.312  11.156  65.795  1.00  0.00    -0.247 OA 
BRANCH   7   9
HETATM    9  N   UNL     1      -9.824  13.347  66.164  1.00  0.00    -0.304 N  
HETATM   10  H   UNL     1      -8.874  13.319  66.537  1.00  0.00     0.000 HD 
BRANCH   9  11
HETATM   11  C   UNL     1     -10.689  14.493  66.487  1.00  0.00    -0.312 C  
HETATM   12  C   UNL     1     -12.010  13.976  67.087  1.00  0.00    -0.430 C  
HETATM   13  O   UNL     1     -11.792  13.323  68.338  1.00  0.00    -0.336 OA 
HETATM   14  O   UNL     1     -12.561  13.013  66.188  1.00  0.00    -0.421 OA 
HETATM   15  H   UNL     1     -13.375  12.693  66.558  1.00  0.00     0.000 HD 
HETATM   16  C   UNL     1     -11.210  14.161  69.350  1.00  0.00    -0.255 C  
HETATM   17  C   UNL     1      -9.892  14.812  68.875  1.00  0.00    -0.222 C  
HETATM   18  H   UNL     1     -10.412  17.250  68.181  1.00  0.00     0.000 HD 
HETATM   19  C   UNL     1     -10.028  15.461  67.485  1.00  0.00    -0.226 C  
HETATM   20  O   UNL     1      -8.861  13.812  68.843  1.00  0.00    -0.374 OA 
HETATM   21  O   UNL     1     -10.820  16.653  67.565  1.00  0.00    -0.305 OA 
HETATM   22  H   UNL     1      -8.050  14.212  68.552  1.00  0.00     0.000 HD 
BRANCH  16  23
HETATM   23  C   UNL     1     -12.234  15.161  69.913  1.00  0.00    -0.314 C  
HETATM   24  O   UNL     1     -11.643  16.044  70.860  1.00  0.00    -0.382 OA 
HETATM   25  H   UNL     1     -12.276  16.663  71.208  1.00  0.00     0.000 HD 
ENDBRANCH  16  23
ENDBRANCH   9  11
ENDBRANCH   7   9
ENDBRANCH   2   7
TORSDOF 5
ENDMDL
MODEL      162
REMARK 921   NORMALIZED FREE ENERGY PREDICTED BY IDOCK:   -3.65 KCAL/MOL
REMARK 922        TOTAL FREE ENERGY PREDICTED BY IDOCK:   -5.54 KCAL/MOL
REMARK 923 INTER-LIGAND FREE ENERGY PREDICTED BY IDOCK:   -4.74 KCAL/MOL
REMARK 924 INTRA-LIGAND FREE ENERGY PREDICTED BY IDOCK:   -0.81 KCAL/MOL
REMARK 927      BINDING AFFINITY PREDICTED BY RF-SCORE:    0.00 PKD
ROOT
HETATM    1  C   UNL     1     -11.579   8.616  71.085  1.00  0.00    -0.281 C  
HETATM    2  N   UNL     1     -10.207   8.796  70.643  1.00  0.00    -0.193 N  
ENDROOT
BRANCH   2   3
HETATM    3  N   UNL     1      -9.225   9.295  71.503  1.00  0.00    -0.295 NA 
HETATM    4  H   UNL     1      -9.343   9.313  72.516  1.00  0.00     0.000 HD 
HETATM    5  O   UNL     1      -8.207   9.709  70.947  1.00  0.00    -0.335 OA 
HETATM    6  H   UNL     1      -7.540  10.048  71.532  1.00  0.00     0.000 HD 
ENDBRANCH   2   3
BRANCH   2   7
HETATM    7  C   UNL     1      -9.846   8.318  69.383  1.00  0.00    -0.185 C  
HETATM    8  O   UNL     1      -9.222   7.269  69.217  1.00  0.00    -0.145 OA 
BRANCH   7   9
HETATM    9  N   UNL     1     -10.209   9.112  68.322  1.00  0.00    -0.198 N  
HETATM   10  H   UNL     1     -11.090   8.927  67.843  1.00  0.00     0.000 HD 
BRANCH   9  11
HETATM   11  C   UNL     1      -9.359  10.222  67.859  1.00  0.00    -0.138 C  
HETATM   12  C   UNL     1      -9.261  10.178  66.323  1.00  0.00    -0.157 C  
HETATM   13  O   UNL     1     -10.529  10.415  65.714  1.00  0.00    -0.210 OA 
HETATM   14  O   UNL     1      -8.838   8.867  65.942  1.00  0.00    -0.156 OA 
HETATM   15  H   UNL     1      -8.777   8.840  64.995  1.00  0.00     0.000 HD 
HETATM   16  C   UNL     1     -11.107  11.693  66.026  1.00  0.00    -0.270 C  
HETATM   17  C   UNL     1     -11.220  11.920  67.550  1.00  0.00    -0.296 C  
HETATM   18  H   UNL     1      -9.256  13.441  68.277  1.00  0.00     0.000 HD 
HETATM   19  C   UNL     1      -9.908  11.595  68.288  1.00  0.00    -0.199 C  
HETATM   20  O   UNL     1     -12.282  11.103  68.068  1.00  0.00    -0.676 OA 
HETATM   21  O   UNL     1      -8.918  12.594  68.012  1.00  0.00    -0.186 OA 
HETATM   22  H   UNL     1     -12.351  11.243  69.005  1.00  0.00     0.000 HD 
BRANCH  16  23
HETATM   23  C   UNL     1     -10.398  12.832  65.275  1.00  0.00    -0.296 C  
HETATM   24  O   UNL     1     -10.158  12.497  63.913  1.00  0.00    -0.524 OA 
HETATM   25  H   UNL     1      -9.719  13.201  63.448  1.00  0.00     0.000 HD 
ENDBRANCH  16  23
ENDBRANCH   9  11
ENDBRANCH   7   9
ENDBRANCH   2   7
TORSDOF 5
ENDMDL
MODEL      163
REMARK 921   NORMALIZED FREE ENERGY PREDICTED BY IDOCK:   -3.63 KCAL/MOL
REMARK 922        TOTAL FREE ENERGY PREDICTED BY IDOCK:   -5.51 KCAL/MOL
REMARK 923 INTER-LIGAND FREE ENERGY PREDICTED BY IDOCK:   -4.50 KCAL/MOL
REMARK 924 INTRA-LIGAND FREE ENERGY PREDICTED BY IDOCK:   -1.01 KCAL/MOL
REMARK 927      BINDING AFFINITY PREDICTED BY RF-SCORE:    0.00 PKD
ROOT
HETATM    1  C   UNL     1      -9.603   9.502  65.520  1.00  0.00    -0.279 C  
HETATM    2  N   UNL     1      -9.723  10.704  66.329  1.00  0.00    -0.192 N  
ENDROOT
BRANCH   2   3
HETATM    3  N   UNL     1      -9.228  11.932  65.884  1.00  0.00    -0.370 NA 
HETATM    4  H   UNL     1      -8.876  12.070  64.937  1.00  0.00     0.000 HD 
HETATM    5  O   UNL     1      -9.248  12.836  66.722  1.00  0.00    -0.219 OA 
HETATM    6  H   UNL     1      -8.911  13.671  66.419  1.00  0.00     0.000 HD 
ENDBRANCH   2   3
BRANCH   2   7
HETATM    7  C   UNL     1     -10.480  10.644  67.499  1.00  0.00    -0.230 C  
HETATM    8  O   UNL     1     -11.679  10.928  67.537  1.00  0.00    -0.543 OA 
BRANCH   7   9
HETATM    9  N   UNL     1      -9.795  10.271  68.630  1.00  0.00    -0.166 N  
HETATM   10  H   UNL     1      -9.325  10.987  69.184  1.00  0.00     0.000 HD 
BRANCH   9  11
HETATM   11  C   UNL     1      -9.722   8.865  69.063  1.00  0.00    -0.171 C  
HETATM   12  C   UNL     1      -8.729   8.747  70.233  1.00  0.00    -0.161 C  
HETATM   13  O   UNL     1      -9.193   9.456  71.382  1.00  0.00    -0.277 OA 
HETATM   14  O   UNL     1      -7.494   9.341  69.830  1.00  0.00    -0.068 OA 
HETATM   15  H   UNL     1      -6.881   9.268  70.553  1.00  0.00     0.000 HD 
HETATM   16  C   UNL     1     -10.452   8.991  71.897  1.00  0.00    -0.303 C  
HETATM   17  C   UNL     1     -11.555   8.991  70.814  1.00  0.00    -0.265 C  
HETATM   18  H   UNL     1     -11.832   6.564  69.959  1.00  0.00     0.000 HD 
HETATM   19  C   UNL     1     -11.091   8.319  69.508  1.00  0.00     0.051 C  
HETATM   20  O   UNL     1     -11.949  10.346  70.548  1.00  0.00    -0.282 OA 
HETATM   21  O   UNL     1     -10.987   6.901  69.684  1.00  0.00    -0.245 OA 
HETATM   22  H   UNL     1     -12.627  10.346  69.883  1.00  0.00     0.000 HD 
BRANCH  16  23
HETATM   23  C   UNL     1     -10.301   7.651  72.635  1.00  0.00    -0.275 C  
HETATM   24  O   UNL     1     -11.562   7.044  72.891  1.00  0.00    -0.505 OA 
HETATM   25  H   UNL     1     -11.469   6.215  73.348  1.00  0.00     0.000 HD 
ENDBRANCH  16  23
ENDBRANCH   9  11
ENDBRANCH   7   9
ENDBRANCH   2   7
TORSDOF 5
ENDMDL
MODEL      164
REMARK 921   NORMALIZED FREE ENERGY PREDICTED BY IDOCK:   -3.63 KCAL/MOL
REMARK 922        TOTAL FREE ENERGY PREDICTED BY IDOCK:   -5.51 KCAL/MOL
REMARK 923 INTER-LIGAND FREE ENERGY PREDICTED BY IDOCK:   -4.74 KCAL/MOL
REMARK 924 INTRA-LIGAND FREE ENERGY PREDICTED BY IDOCK:   -0.77 KCAL/MOL
REMARK 927      BINDING AFFINITY PREDICTED BY RF-SCORE:    0.00 PKD
ROOT
HETATM    1  C   UNL     1     -11.740  13.085  68.802  1.00  0.00    -0.324 C  
HETATM    2  N   UNL     1     -10.305  12.945  68.616  1.00  0.00    -0.223 N  
ENDROOT
BRANCH   2   3
HETATM    3  N   UNL     1      -9.427  13.986  68.928  1.00  0.00    -0.397 NA 
HETATM    4  H   UNL     1      -9.747  14.939  69.099  1.00  0.00     0.000 HD 
HETATM    5  O   UNL     1      -8.238  13.666  68.981  1.00  0.00    -0.341 OA 
HETATM    6  H   UNL     1      -7.641  14.374  69.193  1.00  0.00     0.000 HD 
ENDBRANCH   2   3
BRANCH   2   7
HETATM    7  C   UNL     1      -9.799  11.694  68.262  1.00  0.00    -0.199 C  
HETATM    8  O   UNL     1      -9.460  11.409  67.111  1.00  0.00    -0.173 OA 
BRANCH   7   9
HETATM    9  N   UNL     1      -9.726  10.774  69.279  1.00  0.00    -0.379 N  
HETATM   10  H   UNL     1      -8.830  10.615  69.740  1.00  0.00     0.000 HD 
BRANCH   9  11
HETATM   11  C   UNL     1     -10.906  10.012  69.721  1.00  0.00    -0.273 C  
HETATM   12  C   UNL     1     -10.906   8.635  69.033  1.00  0.00    -0.019 C  
HETATM   13  O   UNL     1      -9.790   7.847  69.448  1.00  0.00    -0.175 OA 
HETATM   14  O   UNL     1     -10.788   8.841  67.624  1.00  0.00    -0.472 OA 
HETATM   15  H   UNL     1     -10.787   7.991  67.199  1.00  0.00     0.000 HD 
HETATM   16  C   UNL     1      -9.750   7.573  70.858  1.00  0.00    -0.173 C  
HETATM   17  C   UNL     1      -9.805   8.867  71.700  1.00  0.00    -0.317 C  
HETATM   18  H   UNL     1     -12.228   9.156  72.561  1.00  0.00     0.000 HD 
HETATM   19  C   UNL     1     -10.934   9.812  71.247  1.00  0.00    -0.261 C  
HETATM   20  O   UNL     1      -8.541   9.542  71.603  1.00  0.00    -0.190 OA 
HETATM   21  O   UNL     1     -12.211   9.280  71.619  1.00  0.00    -0.323 OA 
HETATM   22  H   UNL     1      -8.574  10.338  72.122  1.00  0.00     0.000 HD 
BRANCH  16  23
HETATM   23  C   UNL     1     -10.797   6.521  71.260  1.00  0.00    -0.249 C  
HETATM   24  O   UNL     1     -11.162   6.636  72.630  1.00  0.00    -0.256 OA 
HETATM   25  H   UNL     1     -11.810   5.986  72.879  1.00  0.00     0.000 HD 
ENDBRANCH  16  23
ENDBRANCH   9  11
ENDBRANCH   7   9
ENDBRANCH   2   7
TORSDOF 5
ENDMDL
MODEL      165
REMARK 921   NORMALIZED FREE ENERGY PREDICTED BY IDOCK:   -3.62 KCAL/MOL
REMARK 922        TOTAL FREE ENERGY PREDICTED BY IDOCK:   -5.51 KCAL/MOL
REMARK 923 INTER-LIGAND FREE ENERGY PREDICTED BY IDOCK:   -4.78 KCAL/MOL
REMARK 924 INTRA-LIGAND FREE ENERGY PREDICTED BY IDOCK:   -0.73 KCAL/MOL
REMARK 927      BINDING AFFINITY PREDICTED BY RF-SCORE:    0.00 PKD
ROOT
HETATM    1  C   UNL     1     -11.016   7.829  72.818  1.00  0.00    -0.388 C  
HETATM    2  N   UNL     1     -11.520   7.160  71.630  1.00  0.00    -0.257 N  
ENDROOT
BRANCH   2   3
HETATM    3  N   UNL     1     -12.496   7.750  70.823  1.00  0.00    -0.523 NA 
HETATM    4  H   UNL     1     -12.301   8.554  70.227  1.00  0.00     0.000 HD 
HETATM    5  O   UNL     1     -13.609   7.225  70.885  1.00  0.00    -0.597 OA 
HETATM    6  H   UNL     1     -14.273   7.626  70.337  1.00  0.00     0.000 HD 
ENDBRANCH   2   3
BRANCH   2   7
HETATM    7  C   UNL     1     -10.902   5.978  71.220  1.00  0.00    -0.272 C  
HETATM    8  O   UNL     1     -10.414   5.168  72.010  1.00  0.00    -0.211 OA 
BRANCH   7   9
HETATM    9  N   UNL     1     -10.843   5.781  69.862  1.00  0.00    -0.347 N  
HETATM   10  H   UNL     1     -11.707   5.613  69.347  1.00  0.00     0.000 HD 
BRANCH   9  11
HETATM   11  C   UNL     1      -9.565   5.806  69.131  1.00  0.00    -0.135 C  
HETATM   12  C   UNL     1      -9.307   4.419  68.514  1.00  0.00    -0.145 C  
HETATM   13  O   UNL     1     -10.284   4.101  67.524  1.00  0.00     0.014 OA 
HETATM   14  O   UNL     1      -9.413   3.444  69.553  1.00  0.00    -0.165 OA 
HETATM   15  H   UNL     1      -9.254   2.588  69.173  1.00  0.00     0.000 HD 
HETATM   16  C   UNL     1     -10.323   5.014  66.415  1.00  0.00    -0.294 C  
HETATM   17  C   UNL     1     -10.518   6.476  66.876  1.00  0.00    -0.277 C  
HETATM   18  H   UNL     1      -8.209   7.643  66.821  1.00  0.00     0.000 HD 
HETATM   19  C   UNL     1      -9.553   6.863  68.012  1.00  0.00    -0.123 C  
HETATM   20  O   UNL     1     -11.875   6.652  67.313  1.00  0.00    -0.450 OA 
HETATM   21  O   UNL     1      -8.217   6.990  67.512  1.00  0.00    -0.115 OA 
HETATM   22  H   UNL     1     -11.995   7.551  67.596  1.00  0.00     0.000 HD 
BRANCH  16  23
HETATM   23  C   UNL     1      -9.126   4.810  65.472  1.00  0.00    -0.152 C  
HETATM   24  O   UNL     1      -9.527   4.781  64.107  1.00  0.00    -0.343 OA 
HETATM   25  H   UNL     1      -8.787   4.655  63.525  1.00  0.00     0.000 HD 
ENDBRANCH  16  23
ENDBRANCH   9  11
ENDBRANCH   7   9
ENDBRANCH   2   7
TORSDOF 5
ENDMDL
MODEL      166
REMARK 921   NORMALIZED FREE ENERGY PREDICTED BY IDOCK:   -3.61 KCAL/MOL
REMARK 922        TOTAL FREE ENERGY PREDICTED BY IDOCK:   -5.49 KCAL/MOL
REMARK 923 INTER-LIGAND FREE ENERGY PREDICTED BY IDOCK:   -4.50 KCAL/MOL
REMARK 924 INTRA-LIGAND FREE ENERGY PREDICTED BY IDOCK:   -1.00 KCAL/MOL
REMARK 927      BINDING AFFINITY PREDICTED BY RF-SCORE:    0.00 PKD
ROOT
HETATM    1  C   UNL     1      -6.307   6.703  69.907  1.00  0.00    -0.039 C  
HETATM    2  N   UNL     1      -7.482   5.903  69.602  1.00  0.00    -0.074 N  
ENDROOT
BRANCH   2   3
HETATM    3  N   UNL     1      -7.778   5.519  68.292  1.00  0.00    -0.084 NA 
HETATM    4  H   UNL     1      -7.372   4.689  67.859  1.00  0.00     0.000 HD 
HETATM    5  O   UNL     1      -8.567   6.257  67.698  1.00  0.00    -0.115 OA 
HETATM    6  H   UNL     1      -8.768   5.995  66.808  1.00  0.00     0.000 HD 
ENDBRANCH   2   3
BRANCH   2   7
HETATM    7  C   UNL     1      -8.233   5.393  70.661  1.00  0.00    -0.114 C  
HETATM    8  O   UNL     1      -7.753   4.667  71.534  1.00  0.00    -0.079 OA 
BRANCH   7   9
HETATM    9  N   UNL     1      -9.564   5.730  70.660  1.00  0.00    -0.170 N  
HETATM   10  H   UNL     1     -10.264   4.988  70.691  1.00  0.00     0.000 HD 
BRANCH   9  11
HETATM   11  C   UNL     1     -10.008   7.134  70.615  1.00  0.00    -0.190 C  
HETATM   12  C   UNL     1     -11.359   7.214  69.881  1.00  0.00    -0.163 C  
HETATM   13  O   UNL     1     -12.385   6.533  70.604  1.00  0.00    -0.277 OA 
HETATM   14  O   UNL     1     -11.219   6.563  68.617  1.00  0.00    -0.489 OA 
HETATM   15  H   UNL     1     -12.052   6.613  68.164  1.00  0.00     0.000 HD 
HETATM   16  C   UNL     1     -12.629   7.056  71.920  1.00  0.00    -0.295 C  
HETATM   17  C   UNL     1     -11.342   7.099  72.774  1.00  0.00    -0.245 C  
HETATM   18  H   UNL     1     -10.457   9.531  72.760  1.00  0.00     0.000 HD 
HETATM   19  C   UNL     1     -10.162   7.742  72.021  1.00  0.00    -0.201 C  
HETATM   20  O   UNL     1     -10.995   5.761  73.165  1.00  0.00    -0.258 OA 
HETATM   21  O   UNL     1     -10.361   9.155  71.892  1.00  0.00    -0.335 OA 
HETATM   22  H   UNL     1     -10.204   5.788  73.691  1.00  0.00     0.000 HD 
BRANCH  16  23
HETATM   23  C   UNL     1     -13.387   8.392  71.865  1.00  0.00    -0.357 C  
HETATM   24  O   UNL     1     -13.722   8.864  73.166  1.00  0.00    -1.009 OA 
HETATM   25  H   UNL     1     -14.190   9.690  73.132  1.00  0.00     0.000 HD 
ENDBRANCH  16  23
ENDBRANCH   9  11
ENDBRANCH   7   9
ENDBRANCH   2   7
TORSDOF 5
ENDMDL
MODEL      167
REMARK 921   NORMALIZED FREE ENERGY PREDICTED BY IDOCK:   -3.60 KCAL/MOL
REMARK 922        TOTAL FREE ENERGY PREDICTED BY IDOCK:   -5.48 KCAL/MOL
REMARK 923 INTER-LIGAND FREE ENERGY PREDICTED BY IDOCK:   -4.52 KCAL/MOL
REMARK 924 INTRA-LIGAND FREE ENERGY PREDICTED BY IDOCK:   -0.96 KCAL/MOL
REMARK 927      BINDING AFFINITY PREDICTED BY RF-SCORE:    0.00 PKD
ROOT
HETATM    1  C   UNL     1     -11.123   5.499  72.342  1.00  0.00    -0.256 C  
HETATM    2  N   UNL     1     -11.788   6.742  71.988  1.00  0.00    -0.305 N  
ENDROOT
BRANCH   2   3
HETATM    3  N   UNL     1     -13.172   6.887  72.113  1.00  0.00    -0.548 NA 
HETATM    4  H   UNL     1     -13.708   6.421  72.846  1.00  0.00     0.000 HD 
HETATM    5  O   UNL     1     -13.697   7.620  71.272  1.00  0.00    -0.546 OA 
HETATM    6  H   UNL     1     -14.638   7.718  71.358  1.00  0.00     0.000 HD 
ENDBRANCH   2   3
BRANCH   2   7
HETATM    7  C   UNL     1     -11.002   7.847  71.662  1.00  0.00    -0.238 C  
HETATM    8  O   UNL     1     -11.049   8.910  72.284  1.00  0.00    -0.339 OA 
BRANCH   7   9
HETATM    9  N   UNL     1     -10.178   7.689  70.575  1.00  0.00    -0.200 N  
HETATM   10  H   UNL     1      -9.245   7.298  70.711  1.00  0.00     0.000 HD 
BRANCH   9  11
HETATM   11  C   UNL     1     -10.606   8.068  69.218  1.00  0.00    -0.184 C  
HETATM   12  C   UNL     1      -9.852   9.340  68.786  1.00  0.00    -0.165 C  
HETATM   13  O   UNL     1      -8.450   9.098  68.669  1.00  0.00    -0.124 OA 
HETATM   14  O   UNL     1     -10.035  10.331  69.799  1.00  0.00    -0.292 OA 
HETATM   15  H   UNL     1      -9.569  11.115  69.533  1.00  0.00     0.000 HD 
HETATM   16  C   UNL     1      -8.100   8.095  67.700  1.00  0.00    -0.127 C  
HETATM   17  C   UNL     1      -8.831   6.759  67.962  1.00  0.00    -0.119 C  
HETATM   18  H   UNL     1     -10.830   6.611  66.324  1.00  0.00     0.000 HD 
HETATM   19  C   UNL     1     -10.342   6.954  68.189  1.00  0.00    -0.190 C  
HETATM   20  O   UNL     1      -8.247   6.123  69.110  1.00  0.00    -0.110 OA 
HETATM   21  O   UNL     1     -10.993   7.298  66.960  1.00  0.00    -0.358 OA 
HETATM   22  H   UNL     1      -8.696   5.301  69.270  1.00  0.00     0.000 HD 
BRANCH  16  23
HETATM   23  C   UNL     1      -8.253   8.620  66.264  1.00  0.00    -0.116 C  
HETATM   24  O   UNL     1      -8.680   7.599  65.370  1.00  0.00    -0.304 OA 
HETATM   25  H   UNL     1      -8.774   7.923  64.482  1.00  0.00     0.000 HD 
ENDBRANCH  16  23
ENDBRANCH   9  11
ENDBRANCH   7   9
ENDBRANCH   2   7
TORSDOF 5
ENDMDL
MODEL      168
REMARK 921   NORMALIZED FREE ENERGY PREDICTED BY IDOCK:   -3.60 KCAL/MOL
REMARK 922        TOTAL FREE ENERGY PREDICTED BY IDOCK:   -5.48 KCAL/MOL
REMARK 923 INTER-LIGAND FREE ENERGY PREDICTED BY IDOCK:   -4.48 KCAL/MOL
REMARK 924 INTRA-LIGAND FREE ENERGY PREDICTED BY IDOCK:   -0.99 KCAL/MOL
REMARK 927      BINDING AFFINITY PREDICTED BY RF-SCORE:    0.00 PKD
ROOT
HETATM    1  C   UNL     1      -8.976  19.530  66.495  1.00  0.00    -0.361 C  
HETATM    2  N   UNL     1      -9.285  18.908  67.772  1.00  0.00    -0.290 N  
ENDROOT
BRANCH   2   3
HETATM    3  N   UNL     1     -10.519  19.105  68.396  1.00  0.00    -0.428 NA 
HETATM    4  H   UNL     1     -10.663  18.936  69.392  1.00  0.00     0.000 HD 
HETATM    5  O   UNL     1     -11.421  19.498  67.653  1.00  0.00     0.007 OA 
HETATM    6  H   UNL     1     -12.260  19.632  68.078  1.00  0.00     0.000 HD 
ENDBRANCH   2   3
BRANCH   2   7
HETATM    7  C   UNL     1      -8.382  17.983  68.297  1.00  0.00    -0.290 C  
HETATM    8  O   UNL     1      -7.192  18.241  68.485  1.00  0.00    -0.263 OA 
BRANCH   7   9
HETATM    9  N   UNL     1      -8.899  16.741  68.571  1.00  0.00    -0.240 N  
HETATM   10  H   UNL     1      -9.364  16.583  69.465  1.00  0.00     0.000 HD 
BRANCH   9  11
HETATM   11  C   UNL     1      -8.798  15.631  67.609  1.00  0.00    -0.175 C  
HETATM   12  C   UNL     1      -8.845  14.293  68.371  1.00  0.00    -0.187 C  
HETATM   13  O   UNL     1     -10.108  14.105  69.010  1.00  0.00    -0.193 OA 
HETATM   14  O   UNL     1      -7.846  14.328  69.392  1.00  0.00    -0.343 OA 
HETATM   15  H   UNL     1      -7.876  13.503  69.863  1.00  0.00     0.000 HD 
HETATM   16  C   UNL     1     -11.229  14.076  68.111  1.00  0.00    -0.275 C  
HETATM   17  C   UNL     1     -11.289  15.337  67.221  1.00  0.00    -0.269 C  
HETATM   18  H   UNL     1     -10.334  14.718  64.897  1.00  0.00     0.000 HD 
HETATM   19  C   UNL     1      -9.931  15.656  66.567  1.00  0.00    -0.273 C  
HETATM   20  O   UNL     1     -11.716  16.453  68.018  1.00  0.00    -0.074 OA 
HETATM   21  O   UNL     1      -9.634  14.703  65.540  1.00  0.00    -0.273 OA 
HETATM   22  H   UNL     1     -11.753  17.229  67.470  1.00  0.00     0.000 HD 
BRANCH  16  23
HETATM   23  C   UNL     1     -11.291  12.754  67.328  1.00  0.00    -0.314 C  
HETATM   24  O   UNL     1     -11.324  11.627  68.196  1.00  0.00    -0.244 OA 
HETATM   25  H   UNL     1     -11.362  10.810  67.713  1.00  0.00     0.000 HD 
ENDBRANCH  16  23
ENDBRANCH   9  11
ENDBRANCH   7   9
ENDBRANCH   2   7
TORSDOF 5
ENDMDL
MODEL      169
REMARK 921   NORMALIZED FREE ENERGY PREDICTED BY IDOCK:   -3.59 KCAL/MOL
REMARK 922        TOTAL FREE ENERGY PREDICTED BY IDOCK:   -5.46 KCAL/MOL
REMARK 923 INTER-LIGAND FREE ENERGY PREDICTED BY IDOCK:   -4.68 KCAL/MOL
REMARK 924 INTRA-LIGAND FREE ENERGY PREDICTED BY IDOCK:   -0.78 KCAL/MOL
REMARK 927      BINDING AFFINITY PREDICTED BY RF-SCORE:    0.00 PKD
ROOT
HETATM    1  C   UNL     1      -7.505  13.941  67.904  1.00  0.00    -0.152 C  
HETATM    2  N   UNL     1      -7.729  12.590  67.415  1.00  0.00    -0.161 N  
ENDROOT
BRANCH   2   3
HETATM    3  N   UNL     1      -6.891  12.017  66.456  1.00  0.00    -0.348 NA 
HETATM    4  H   UNL     1      -7.242  11.407  65.716  1.00  0.00     0.000 HD 
HETATM    5  O   UNL     1      -5.698  12.302  66.570  1.00  0.00    -0.485 OA 
HETATM    6  H   UNL     1      -5.128  11.911  65.917  1.00  0.00     0.000 HD 
ENDBRANCH   2   3
BRANCH   2   7
HETATM    7  C   UNL     1      -8.710  11.814  68.033  1.00  0.00    -0.167 C  
HETATM    8  O   UNL     1      -8.829  10.603  67.836  1.00  0.00    -0.129 OA 
BRANCH   7   9
HETATM    9  N   UNL     1      -9.566  12.493  68.865  1.00  0.00    -0.397 N  
HETATM   10  H   UNL     1      -9.221  12.830  69.764  1.00  0.00     0.000 HD 
BRANCH   9  11
HETATM   11  C   UNL     1     -10.969  12.746  68.494  1.00  0.00    -0.258 C  
HETATM   12  C   UNL     1     -11.894  12.072  69.524  1.00  0.00    -0.326 C  
HETATM   13  O   UNL     1     -11.750  12.662  70.816  1.00  0.00     0.034 OA 
HETATM   14  O   UNL     1     -11.515  10.699  69.632  1.00  0.00    -0.248 OA 
HETATM   15  H   UNL     1     -12.086  10.284  70.268  1.00  0.00     0.000 HD 
HETATM   16  C   UNL     1     -12.070  14.062  70.867  1.00  0.00    -0.329 C  
HETATM   17  C   UNL     1     -11.259  14.880  69.837  1.00  0.00    -0.275 C  
HETATM   18  H   UNL     1     -12.790  15.344  67.803  1.00  0.00     0.000 HD 
HETATM   19  C   UNL     1     -11.295  14.249  68.432  1.00  0.00    -0.283 C  
HETATM   20  O   UNL     1      -9.899  14.981  70.287  1.00  0.00    -0.479 OA 
HETATM   21  O   UNL     1     -12.589  14.416  67.841  1.00  0.00     0.076 OA 
HETATM   22  H   UNL     1      -9.400  15.484  69.654  1.00  0.00     0.000 HD 
BRANCH  16  23
HETATM   23  C   UNL     1     -13.588  14.298  70.796  1.00  0.00     0.067 C  
HETATM   24  O   UNL     1     -13.899  15.652  70.490  1.00  0.00    -0.818 OA 
HETATM   25  H   UNL     1     -14.837  15.798  70.445  1.00  0.00     0.000 HD 
ENDBRANCH  16  23
ENDBRANCH   9  11
ENDBRANCH   7   9
ENDBRANCH   2   7
TORSDOF 5
ENDMDL
MODEL      170
REMARK 921   NORMALIZED FREE ENERGY PREDICTED BY IDOCK:   -3.58 KCAL/MOL
REMARK 922        TOTAL FREE ENERGY PREDICTED BY IDOCK:   -5.45 KCAL/MOL
REMARK 923 INTER-LIGAND FREE ENERGY PREDICTED BY IDOCK:   -4.98 KCAL/MOL
REMARK 924 INTRA-LIGAND FREE ENERGY PREDICTED BY IDOCK:   -0.47 KCAL/MOL
REMARK 927      BINDING AFFINITY PREDICTED BY RF-SCORE:    0.00 PKD
ROOT
HETATM    1  C   UNL     1     -13.111  13.866  65.190  1.00  0.00    -0.088 C  
HETATM    2  N   UNL     1     -11.972  13.331  64.461  1.00  0.00    -0.381 N  
ENDROOT
BRANCH   2   3
HETATM    3  N   UNL     1     -12.134  12.687  63.232  1.00  0.00    -0.690 NA 
HETATM    4  H   UNL     1     -12.542  13.150  62.420  1.00  0.00     0.000 HD 
HETATM    5  O   UNL     1     -11.746  11.518  63.203  1.00  0.00    -0.854 OA 
HETATM    6  H   UNL     1     -11.856  11.080  62.367  1.00  0.00     0.000 HD 
ENDBRANCH   2   3
BRANCH   2   7
HETATM    7  C   UNL     1     -10.690  13.605  64.937  1.00  0.00    -0.391 C  
HETATM    8  O   UNL     1      -9.842  14.203  64.272  1.00  0.00     0.208 OA 
BRANCH   7   9
HETATM    9  N   UNL     1     -10.414  13.140  66.199  1.00  0.00    -0.276 N  
HETATM   10  H   UNL     1      -9.816  13.694  66.813  1.00  0.00     0.000 HD 
BRANCH   9  11
HETATM   11  C   UNL     1     -10.959  11.863  66.691  1.00  0.00    -0.291 C  
HETATM   12  C   UNL     1      -9.880  10.771  66.567  1.00  0.00    -0.203 C  
HETATM   13  O   UNL     1      -8.768  11.041  67.420  1.00  0.00    -0.131 OA 
HETATM   14  O   UNL     1      -9.401  10.769  65.221  1.00  0.00    -0.190 OA 
HETATM   15  H   UNL     1      -8.735  10.096  65.145  1.00  0.00     0.000 HD 
HETATM   16  C   UNL     1      -9.095  11.104  68.818  1.00  0.00    -0.139 C  
HETATM   17  C   UNL     1     -10.219  12.124  69.104  1.00  0.00     0.180 C  
HETATM   18  H   UNL     1     -12.432  10.812  69.388  1.00  0.00     0.000 HD 
HETATM   19  C   UNL     1     -11.421  11.950  68.156  1.00  0.00    -0.320 C  
HETATM   20  O   UNL     1      -9.690  13.453  68.975  1.00  0.00    -0.409 OA 
HETATM   21  O   UNL     1     -12.147  10.759  68.483  1.00  0.00    -0.493 OA 
HETATM   22  H   UNL     1     -10.381  14.080  69.151  1.00  0.00     0.000 HD 
BRANCH  16  23
HETATM   23  C   UNL     1      -9.356   9.706  69.400  1.00  0.00    -0.193 C  
HETATM   24  O   UNL     1      -9.832   9.772  70.740  1.00  0.00    -0.321 OA 
HETATM   25  H   UNL     1      -9.994   8.907  71.100  1.00  0.00     0.000 HD 
ENDBRANCH  16  23
ENDBRANCH   9  11
ENDBRANCH   7   9
ENDBRANCH   2   7
TORSDOF 5
ENDMDL
MODEL      171
REMARK 921   NORMALIZED FREE ENERGY PREDICTED BY IDOCK:   -3.53 KCAL/MOL
REMARK 922        TOTAL FREE ENERGY PREDICTED BY IDOCK:   -5.38 KCAL/MOL
REMARK 923 INTER-LIGAND FREE ENERGY PREDICTED BY IDOCK:   -5.48 KCAL/MOL
REMARK 924 INTRA-LIGAND FREE ENERGY PREDICTED BY IDOCK:    0.10 KCAL/MOL
REMARK 927      BINDING AFFINITY PREDICTED BY RF-SCORE:    0.00 PKD
ROOT
HETATM    1  C   UNL     1      -9.788  18.362  66.703  1.00  0.00    -0.353 C  
HETATM    2  N   UNL     1     -10.260  17.041  66.321  1.00  0.00    -0.323 N  
ENDROOT
BRANCH   2   3
HETATM    3  N   UNL     1     -10.373  16.670  64.979  1.00  0.00    -0.565 NA 
HETATM    4  H   UNL     1      -9.641  16.155  64.489  1.00  0.00     0.000 HD 
HETATM    5  O   UNL     1     -11.423  17.012  64.431  1.00  0.00    -1.048 OA 
HETATM    6  H   UNL     1     -11.500  16.760  63.519  1.00  0.00     0.000 HD 
ENDBRANCH   2   3
BRANCH   2   7
HETATM    7  C   UNL     1     -10.456  16.090  67.322  1.00  0.00    -0.308 C  
HETATM    8  O   UNL     1     -11.382  16.151  68.133  1.00  0.00    -0.340 OA 
BRANCH   7   9
HETATM    9  N   UNL     1      -9.527  15.079  67.369  1.00  0.00    -0.199 N  
HETATM   10  H   UNL     1      -8.984  14.944  68.222  1.00  0.00     0.000 HD 
BRANCH   9  11
HETATM   11  C   UNL     1      -9.295  14.186  66.221  1.00  0.00    -0.189 C  
HETATM   12  C   UNL     1      -8.324  13.066  66.639  1.00  0.00     0.176 C  
HETATM   13  O   UNL     1      -8.900  12.227  67.640  1.00  0.00    -0.159 OA 
HETATM   14  O   UNL     1      -7.161  13.673  67.203  1.00  0.00    -0.355 OA 
HETATM   15  H   UNL     1      -6.562  12.982  67.461  1.00  0.00     0.000 HD 
HETATM   16  C   UNL     1     -10.106  11.559  67.233  1.00  0.00    -0.199 C  
HETATM   17  C   UNL     1     -11.173  12.553  66.722  1.00  0.00    -0.296 C  
HETATM   18  H   UNL     1     -11.132  12.507  64.135  1.00  0.00     0.000 HD 
HETATM   19  C   UNL     1     -10.598  13.553  65.701  1.00  0.00    -0.284 C  
HETATM   20  O   UNL     1     -11.721  13.266  67.842  1.00  0.00    -0.317 OA 
HETATM   21  O   UNL     1     -10.328  12.897  64.456  1.00  0.00    -0.351 OA 
HETATM   22  H   UNL     1     -12.378  13.877  67.528  1.00  0.00     0.000 HD 
BRANCH  16  23
HETATM   23  C   UNL     1      -9.812  10.404  66.261  1.00  0.00    -0.218 C  
HETATM   24  O   UNL     1      -9.455   9.212  66.951  1.00  0.00    -0.153 OA 
HETATM   25  H   UNL     1      -9.274   8.498  66.351  1.00  0.00     0.000 HD 
ENDBRANCH  16  23
ENDBRANCH   9  11
ENDBRANCH   7   9
ENDBRANCH   2   7
TORSDOF 5
ENDMDL
MODEL      172
REMARK 921   NORMALIZED FREE ENERGY PREDICTED BY IDOCK:   -3.53 KCAL/MOL
REMARK 922        TOTAL FREE ENERGY PREDICTED BY IDOCK:   -5.38 KCAL/MOL
REMARK 923 INTER-LIGAND FREE ENERGY PREDICTED BY IDOCK:   -4.44 KCAL/MOL
REMARK 924 INTRA-LIGAND FREE ENERGY PREDICTED BY IDOCK:   -0.94 KCAL/MOL
REMARK 927      BINDING AFFINITY PREDICTED BY RF-SCORE:    0.00 PKD
ROOT
HETATM    1  C   UNL     1     -12.909  11.061  71.023  1.00  0.00    -0.346 C  
HETATM    2  N   UNL     1     -11.688  11.333  70.284  1.00  0.00    -0.331 N  
ENDROOT
BRANCH   2   3
HETATM    3  N   UNL     1     -11.328  12.635  69.929  1.00  0.00    -0.505 NA 
HETATM    4  H   UNL     1     -10.828  13.258  70.564  1.00  0.00     0.000 HD 
HETATM    5  O   UNL     1     -11.658  12.975  68.791  1.00  0.00    -0.266 OA 
HETATM    6  H   UNL     1     -11.413  13.861  68.550  1.00  0.00     0.000 HD 
ENDBRANCH   2   3
BRANCH   2   7
HETATM    7  C   UNL     1     -10.796  10.283  70.064  1.00  0.00    -0.307 C  
HETATM    8  O   UNL     1     -10.212   9.696  70.977  1.00  0.00    -0.288 OA 
BRANCH   7   9
HETATM    9  N   UNL     1     -10.582   9.953  68.748  1.00  0.00    -0.214 N  
HETATM   10  H   UNL     1     -11.382   9.875  68.119  1.00  0.00     0.000 HD 
BRANCH   9  11
HETATM   11  C   UNL     1      -9.229   9.709  68.221  1.00  0.00    -0.129 C  
HETATM   12  C   UNL     1      -9.279   8.540  67.218  1.00  0.00    -0.141 C  
HETATM   13  O   UNL     1     -10.060   8.874  66.071  1.00  0.00    -0.260 OA 
HETATM   14  O   UNL     1      -9.909   7.430  67.860  1.00  0.00    -0.140 OA 
HETATM   15  H   UNL     1      -9.940   6.710  67.242  1.00  0.00     0.000 HD 
HETATM   16  C   UNL     1      -9.567  10.000  65.326  1.00  0.00    -0.291 C  
HETATM   17  C   UNL     1      -9.400  11.254  66.214  1.00  0.00    -0.207 C  
HETATM   18  H   UNL     1      -6.894  11.476  66.817  1.00  0.00     0.000 HD 
HETATM   19  C   UNL     1      -8.643  10.947  67.520  1.00  0.00    -0.127 C  
HETATM   20  O   UNL     1     -10.699  11.785  66.522  1.00  0.00    -0.244 OA 
HETATM   21  O   UNL     1      -7.256  10.711  67.250  1.00  0.00    -0.086 OA 
HETATM   22  H   UNL     1     -10.597  12.556  67.068  1.00  0.00     0.000 HD 
BRANCH  16  23
HETATM   23  C   UNL     1      -8.311   9.637  64.517  1.00  0.00    -0.169 C  
HETATM   24  O   UNL     1      -8.592   8.666  63.515  1.00  0.00    -0.388 OA 
HETATM   25  H   UNL     1      -7.816   8.441  63.014  1.00  0.00     0.000 HD 
ENDBRANCH  16  23
ENDBRANCH   9  11
ENDBRANCH   7   9
ENDBRANCH   2   7
TORSDOF 5
ENDMDL
MODEL      173
REMARK 921   NORMALIZED FREE ENERGY PREDICTED BY IDOCK:   -3.51 KCAL/MOL
REMARK 922        TOTAL FREE ENERGY PREDICTED BY IDOCK:   -5.36 KCAL/MOL
REMARK 923 INTER-LIGAND FREE ENERGY PREDICTED BY IDOCK:   -4.71 KCAL/MOL
REMARK 924 INTRA-LIGAND FREE ENERGY PREDICTED BY IDOCK:   -0.65 KCAL/MOL
REMARK 927      BINDING AFFINITY PREDICTED BY RF-SCORE:    0.00 PKD
ROOT
HETATM    1  C   UNL     1      -8.029   9.579  67.878  1.00  0.00    -0.098 C  
HETATM    2  N   UNL     1      -8.737  10.848  67.926  1.00  0.00    -0.128 N  
ENDROOT
BRANCH   2   3
HETATM    3  N   UNL     1      -9.111  11.425  69.142  1.00  0.00    -0.393 NA 
HETATM    4  H   UNL     1      -8.495  12.049  69.665  1.00  0.00     0.000 HD 
HETATM    5  O   UNL     1     -10.240  11.125  69.536  1.00  0.00    -0.429 OA 
HETATM    6  H   UNL     1     -10.493  11.517  70.363  1.00  0.00     0.000 HD 
ENDBRANCH   2   3
BRANCH   2   7
HETATM    7  C   UNL     1      -8.906  11.561  66.739  1.00  0.00    -0.183 C  
HETATM    8  O   UNL     1      -9.329  11.046  65.702  1.00  0.00    -0.199 OA 
BRANCH   7   9
HETATM    9  N   UNL     1      -8.544  12.884  66.786  1.00  0.00    -0.401 N  
HETATM   10  H   UNL     1      -7.608  13.131  67.109  1.00  0.00     0.000 HD 
BRANCH   9  11
HETATM   11  C   UNL     1      -9.470  13.956  66.382  1.00  0.00    -0.250 C  
HETATM   12  C   UNL     1     -10.720  13.909  67.280  1.00  0.00    -0.284 C  
HETATM   13  O   UNL     1     -10.396  14.204  68.638  1.00  0.00    -0.236 OA 
HETATM   14  O   UNL     1     -11.246  12.581  67.241  1.00  0.00    -0.264 OA 
HETATM   15  H   UNL     1     -12.018  12.552  67.794  1.00  0.00     0.000 HD 
HETATM   16  C   UNL     1      -9.825  15.507  68.841  1.00  0.00    -0.219 C  
HETATM   17  C   UNL     1      -8.579  15.737  67.956  1.00  0.00    -0.163 C  
HETATM   18  H   UNL     1      -9.301  17.166  65.923  1.00  0.00     0.000 HD 
HETATM   19  C   UNL     1      -8.829  15.352  66.486  1.00  0.00    -0.312 C  
HETATM   20  O   UNL     1      -7.485  14.968  68.478  1.00  0.00    -0.110 OA 
HETATM   21  O   UNL     1      -9.696  16.305  65.859  1.00  0.00    -0.318 OA 
HETATM   22  H   UNL     1      -6.719  15.110  67.934  1.00  0.00     0.000 HD 
BRANCH  16  23
HETATM   23  C   UNL     1     -10.886  16.613  68.728  1.00  0.00    -0.331 C  
HETATM   24  O   UNL     1     -10.350  17.894  69.041  1.00  0.00    -0.389 OA 
HETATM   25  H   UNL     1     -11.005  18.578  68.970  1.00  0.00     0.000 HD 
ENDBRANCH  16  23
ENDBRANCH   9  11
ENDBRANCH   7   9
ENDBRANCH   2   7
TORSDOF 5
ENDMDL
MODEL      174
REMARK 921   NORMALIZED FREE ENERGY PREDICTED BY IDOCK:   -3.51 KCAL/MOL
REMARK 922        TOTAL FREE ENERGY PREDICTED BY IDOCK:   -5.35 KCAL/MOL
REMARK 923 INTER-LIGAND FREE ENERGY PREDICTED BY IDOCK:   -4.13 KCAL/MOL
REMARK 924 INTRA-LIGAND FREE ENERGY PREDICTED BY IDOCK:   -1.23 KCAL/MOL
REMARK 927      BINDING AFFINITY PREDICTED BY RF-SCORE:    0.00 PKD
ROOT
HETATM    1  C   UNL     1     -12.591  11.367  70.520  1.00  0.00    -0.224 C  
HETATM    2  N   UNL     1     -11.947  12.236  69.550  1.00  0.00    -0.295 N  
ENDROOT
BRANCH   2   3
HETATM    3  N   UNL     1     -11.994  11.957  68.181  1.00  0.00    -0.528 NA 
HETATM    4  H   UNL     1     -11.357  11.297  67.735  1.00  0.00     0.000 HD 
HETATM    5  O   UNL     1     -12.862  12.569  67.555  1.00  0.00     0.888 OA 
HETATM    6  H   UNL     1     -12.893  12.379  66.625  1.00  0.00     0.000 HD 
ENDBRANCH   2   3
BRANCH   2   7
HETATM    7  C   UNL     1     -11.407  13.443  69.993  1.00  0.00     0.061 C  
HETATM    8  O   UNL     1     -11.814  14.031  70.998  1.00  0.00    -0.283 OA 
BRANCH   7   9
HETATM    9  N   UNL     1     -10.398  13.962  69.219  1.00  0.00    -0.435 N  
HETATM   10  H   UNL     1      -9.880  13.340  68.598  1.00  0.00     0.000 HD 
BRANCH   9  11
HETATM   11  C   UNL     1     -10.046  15.391  69.261  1.00  0.00    -0.253 C  
HETATM   12  C   UNL     1      -8.566  15.559  68.871  1.00  0.00    -0.209 C  
HETATM   13  O   UNL     1      -8.338  15.171  67.516  1.00  0.00    -0.150 OA 
HETATM   14  O   UNL     1      -7.786  14.699  69.703  1.00  0.00    -0.381 OA 
HETATM   15  H   UNL     1      -6.873  14.803  69.462  1.00  0.00     0.000 HD 
HETATM   16  C   UNL     1      -9.081  15.931  66.549  1.00  0.00    -0.286 C  
HETATM   17  C   UNL     1     -10.599  15.912  66.839  1.00  0.00    -0.309 C  
HETATM   18  H   UNL     1     -11.216  18.143  67.995  1.00  0.00     0.000 HD 
HETATM   19  C   UNL     1     -10.916  16.235  68.311  1.00  0.00    -0.348 C  
HETATM   20  O   UNL     1     -11.123  14.617  66.504  1.00  0.00    -0.317 OA 
HETATM   21  O   UNL     1     -10.680  17.622  68.581  1.00  0.00    -0.289 OA 
HETATM   22  H   UNL     1     -12.056  14.606  66.682  1.00  0.00     0.000 HD 
BRANCH  16  23
HETATM   23  C   UNL     1      -8.496  17.341  66.369  1.00  0.00    -0.269 C  
HETATM   24  O   UNL     1      -9.504  18.294  66.051  1.00  0.00    -0.501 OA 
HETATM   25  H   UNL     1      -9.143  19.166  65.940  1.00  0.00     0.000 HD 
ENDBRANCH  16  23
ENDBRANCH   9  11
ENDBRANCH   7   9
ENDBRANCH   2   7
TORSDOF 5
ENDMDL
MODEL      175
REMARK 921   NORMALIZED FREE ENERGY PREDICTED BY IDOCK:   -3.50 KCAL/MOL
REMARK 922        TOTAL FREE ENERGY PREDICTED BY IDOCK:   -5.35 KCAL/MOL
REMARK 923 INTER-LIGAND FREE ENERGY PREDICTED BY IDOCK:   -4.53 KCAL/MOL
REMARK 924 INTRA-LIGAND FREE ENERGY PREDICTED BY IDOCK:   -0.82 KCAL/MOL
REMARK 927      BINDING AFFINITY PREDICTED BY RF-SCORE:    0.00 PKD
ROOT
HETATM    1  C   UNL     1     -11.792  14.572  66.890  1.00  0.00    -0.377 C  
HETATM    2  N   UNL     1     -10.421  15.053  66.922  1.00  0.00    -0.274 N  
ENDROOT
BRANCH   2   3
HETATM    3  N   UNL     1     -10.042  16.213  66.241  1.00  0.00    -0.302 NA 
HETATM    4  H   UNL     1     -10.660  17.019  66.145  1.00  0.00     0.000 HD 
HETATM    5  O   UNL     1      -8.906  16.189  65.765  1.00  0.00    -0.362 OA 
HETATM    6  H   UNL     1      -8.648  16.977  65.302  1.00  0.00     0.000 HD 
ENDBRANCH   2   3
BRANCH   2   7
HETATM    7  C   UNL     1      -9.515  14.422  67.773  1.00  0.00    -0.211 C  
HETATM    8  O   UNL     1      -8.522  14.988  68.235  1.00  0.00    -0.139 OA 
BRANCH   7   9
HETATM    9  N   UNL     1      -9.781  13.103  68.050  1.00  0.00    -0.218 N  
HETATM   10  H   UNL     1     -10.511  12.875  68.724  1.00  0.00     0.000 HD 
BRANCH   9  11
HETATM   11  C   UNL     1      -9.039  12.010  67.397  1.00  0.00    -0.178 C  
HETATM   12  C   UNL     1      -8.351  11.152  68.475  1.00  0.00    -0.154 C  
HETATM   13  O   UNL     1      -9.309  10.494  69.305  1.00  0.00    -0.199 OA 
HETATM   14  O   UNL     1      -7.581  12.018  69.310  1.00  0.00    -0.332 OA 
HETATM   15  H   UNL     1      -7.157  11.488  69.975  1.00  0.00     0.000 HD 
HETATM   16  C   UNL     1     -10.188   9.600  68.602  1.00  0.00    -0.189 C  
HETATM   17  C   UNL     1     -10.917  10.303  67.435  1.00  0.00    -0.252 C  
HETATM   18  H   UNL     1      -9.700   9.675  65.240  1.00  0.00     0.000 HD 
HETATM   19  C   UNL     1      -9.953  11.111  66.546  1.00  0.00    -0.214 C  
HETATM   20  O   UNL     1     -11.925  11.174  67.972  1.00  0.00    -0.625 OA 
HETATM   21  O   UNL     1      -9.136  10.230  65.765  1.00  0.00    -0.158 OA 
HETATM   22  H   UNL     1     -12.374  11.606  67.254  1.00  0.00     0.000 HD 
BRANCH  16  23
HETATM   23  C   UNL     1      -9.468   8.303  68.198  1.00  0.00    -0.137 C  
HETATM   24  O   UNL     1     -10.321   7.432  67.464  1.00  0.00    -0.205 OA 
HETATM   25  H   UNL     1      -9.876   6.630  67.214  1.00  0.00     0.000 HD 
ENDBRANCH  16  23
ENDBRANCH   9  11
ENDBRANCH   7   9
ENDBRANCH   2   7
TORSDOF 5
ENDMDL
MODEL      176
REMARK 921   NORMALIZED FREE ENERGY PREDICTED BY IDOCK:   -3.50 KCAL/MOL
REMARK 922        TOTAL FREE ENERGY PREDICTED BY IDOCK:   -5.35 KCAL/MOL
REMARK 923 INTER-LIGAND FREE ENERGY PREDICTED BY IDOCK:   -4.81 KCAL/MOL
REMARK 924 INTRA-LIGAND FREE ENERGY PREDICTED BY IDOCK:   -0.54 KCAL/MOL
REMARK 927      BINDING AFFINITY PREDICTED BY RF-SCORE:    0.00 PKD
ROOT
HETATM    1  C   UNL     1     -10.989   7.213  67.250  1.00  0.00    -0.263 C  
HETATM    2  N   UNL     1     -10.006   7.597  68.251  1.00  0.00    -0.170 N  
ENDROOT
BRANCH   2   3
HETATM    3  N   UNL     1      -8.654   7.280  68.100  1.00  0.00    -0.123 NA 
HETATM    4  H   UNL     1      -8.332   6.333  67.898  1.00  0.00     0.000 HD 
HETATM    5  O   UNL     1      -7.879   8.230  68.229  1.00  0.00    -0.114 OA 
HETATM    6  H   UNL     1      -6.960   8.014  68.126  1.00  0.00     0.000 HD 
ENDBRANCH   2   3
BRANCH   2   7
HETATM    7  C   UNL     1     -10.412   8.425  69.297  1.00  0.00    -0.215 C  
HETATM    8  O   UNL     1     -10.822   7.990  70.376  1.00  0.00    -0.240 OA 
BRANCH   7   9
HETATM    9  N   UNL     1     -10.353   9.773  69.044  1.00  0.00    -0.199 N  
HETATM   10  H   UNL     1      -9.569  10.313  69.410  1.00  0.00     0.000 HD 
BRANCH   9  11
HETATM   11  C   UNL     1     -11.393  10.459  68.258  1.00  0.00    -0.224 C  
HETATM   12  C   UNL     1     -12.366  11.170  69.218  1.00  0.00    -0.101 C  
HETATM   13  O   UNL     1     -11.713  12.212  69.942  1.00  0.00    -0.314 OA 
HETATM   14  O   UNL     1     -12.833  10.212  70.169  1.00  0.00    -0.571 OA 
HETATM   15  H   UNL     1     -13.433  10.650  70.761  1.00  0.00     0.000 HD 
HETATM   16  C   UNL     1     -11.159  13.250  69.116  1.00  0.00    -0.209 C  
HETATM   17  C   UNL     1     -10.195  12.687  68.048  1.00  0.00    -0.230 C  
HETATM   18  H   UNL     1     -11.473  12.580  65.800  1.00  0.00     0.000 HD 
HETATM   19  C   UNL     1     -10.802  11.494  67.284  1.00  0.00    -0.256 C  
HETATM   20  O   UNL     1      -8.974  12.282  68.686  1.00  0.00    -0.355 OA 
HETATM   21  O   UNL     1     -11.838  11.940  66.401  1.00  0.00    -0.561 OA 
HETATM   22  H   UNL     1      -8.381  11.936  68.029  1.00  0.00     0.000 HD 
BRANCH  16  23
HETATM   23  C   UNL     1     -12.255  14.166  68.548  1.00  0.00    -0.169 C  
HETATM   24  O   UNL     1     -11.938  15.542  68.726  1.00  0.00    -0.500 OA 
HETATM   25  H   UNL     1     -12.616  16.109  68.375  1.00  0.00     0.000 HD 
ENDBRANCH  16  23
ENDBRANCH   9  11
ENDBRANCH   7   9
ENDBRANCH   2   7
TORSDOF 5
ENDMDL
MODEL      177
REMARK 921   NORMALIZED FREE ENERGY PREDICTED BY IDOCK:   -3.50 KCAL/MOL
REMARK 922        TOTAL FREE ENERGY PREDICTED BY IDOCK:   -5.34 KCAL/MOL
REMARK 923 INTER-LIGAND FREE ENERGY PREDICTED BY IDOCK:   -4.56 KCAL/MOL
REMARK 924 INTRA-LIGAND FREE ENERGY PREDICTED BY IDOCK:   -0.78 KCAL/MOL
REMARK 927      BINDING AFFINITY PREDICTED BY RF-SCORE:    0.00 PKD
ROOT
HETATM    1  C   UNL     1      -8.989  13.301  68.090  1.00  0.00    -0.195 C  
HETATM    2  N   UNL     1      -9.985  12.978  67.083  1.00  0.00    -0.231 N  
ENDROOT
BRANCH   2   3
HETATM    3  N   UNL     1     -10.213  13.819  65.990  1.00  0.00    -0.301 NA 
HETATM    4  H   UNL     1     -10.522  14.785  66.098  1.00  0.00     0.000 HD 
HETATM    5  O   UNL     1     -10.013  13.305  64.888  1.00  0.00    -0.529 OA 
HETATM    6  H   UNL     1     -10.168  13.877  64.145  1.00  0.00     0.000 HD 
ENDBRANCH   2   3
BRANCH   2   7
HETATM    7  C   UNL     1     -10.610  11.732  67.141  1.00  0.00    -0.231 C  
HETATM    8  O   UNL     1     -11.651  11.475  66.534  1.00  0.00    -0.444 OA 
BRANCH   7   9
HETATM    9  N   UNL     1     -10.002  10.802  67.948  1.00  0.00    -0.171 N  
HETATM   10  H   UNL     1      -8.988  10.823  68.054  1.00  0.00     0.000 HD 
BRANCH   9  11
HETATM   11  C   UNL     1     -10.777   9.775  68.665  1.00  0.00    -0.216 C  
HETATM   12  C   UNL     1     -10.400   8.384  68.121  1.00  0.00    -0.204 C  
HETATM   13  O   UNL     1      -9.036   8.070  68.402  1.00  0.00    -0.137 OA 
HETATM   14  O   UNL     1     -10.554   8.405  66.702  1.00  0.00    -0.301 OA 
HETATM   15  H   UNL     1     -10.321   7.547  66.366  1.00  0.00     0.000 HD 
HETATM   16  C   UNL     1      -8.711   8.037  69.801  1.00  0.00    -0.136 C  
HETATM   17  C   UNL     1      -9.089   9.356  70.514  1.00  0.00    -0.256 C  
HETATM   18  H   UNL     1     -11.322   8.972  71.765  1.00  0.00     0.000 HD 
HETATM   19  C   UNL     1     -10.524   9.806  70.184  1.00  0.00    -0.286 C  
HETATM   20  O   UNL     1      -8.159  10.380  70.128  1.00  0.00    -0.359 OA 
HETATM   21  O   UNL     1     -11.478   8.953  70.828  1.00  0.00    -0.274 OA 
HETATM   22  H   UNL     1      -8.392  11.190  70.566  1.00  0.00     0.000 HD 
BRANCH  16  23
HETATM   23  C   UNL     1      -9.268   6.777  70.482  1.00  0.00    -0.156 C  
HETATM   24  O   UNL     1      -8.954   6.743  71.870  1.00  0.00    -0.136 OA 
HETATM   25  H   UNL     1      -9.298   5.964  72.291  1.00  0.00     0.000 HD 
ENDBRANCH  16  23
ENDBRANCH   9  11
ENDBRANCH   7   9
ENDBRANCH   2   7
TORSDOF 5
ENDMDL
MODEL      178
REMARK 921   NORMALIZED FREE ENERGY PREDICTED BY IDOCK:   -3.50 KCAL/MOL
REMARK 922        TOTAL FREE ENERGY PREDICTED BY IDOCK:   -5.34 KCAL/MOL
REMARK 923 INTER-LIGAND FREE ENERGY PREDICTED BY IDOCK:   -5.04 KCAL/MOL
REMARK 924 INTRA-LIGAND FREE ENERGY PREDICTED BY IDOCK:   -0.30 KCAL/MOL
REMARK 927      BINDING AFFINITY PREDICTED BY RF-SCORE:    0.00 PKD
ROOT
HETATM    1  C   UNL     1      -8.228   7.844  66.946  1.00  0.00    -0.116 C  
HETATM    2  N   UNL     1      -9.665   7.778  66.737  1.00  0.00    -0.210 N  
ENDROOT
BRANCH   2   3
HETATM    3  N   UNL     1     -10.246   6.738  66.007  1.00  0.00    -0.185 NA 
HETATM    4  H   UNL     1      -9.881   6.430  65.106  1.00  0.00     0.000 HD 
HETATM    5  O   UNL     1     -11.232   6.220  66.535  1.00  0.00    -0.726 OA 
HETATM    6  H   UNL     1     -11.627   5.512  66.039  1.00  0.00     0.000 HD 
ENDBRANCH   2   3
BRANCH   2   7
HETATM    7  C   UNL     1     -10.477   8.693  67.407  1.00  0.00    -0.281 C  
HETATM    8  O   UNL     1     -10.876   9.739  66.892  1.00  0.00    -0.170 OA 
BRANCH   7   9
HETATM    9  N   UNL     1     -10.790   8.368  68.704  1.00  0.00    -0.430 N  
HETATM   10  H   UNL     1     -11.652   8.731  69.113  1.00  0.00     0.000 HD 
BRANCH   9  11
HETATM   11  C   UNL     1      -9.914   7.511  69.521  1.00  0.00    -0.180 C  
HETATM   12  C   UNL     1      -9.292   8.353  70.650  1.00  0.00    -0.160 C  
HETATM   13  O   UNL     1     -10.288   8.821  71.559  1.00  0.00    -0.247 OA 
HETATM   14  O   UNL     1      -8.672   9.498  70.062  1.00  0.00    -0.184 OA 
HETATM   15  H   UNL     1      -8.289  10.017  70.759  1.00  0.00     0.000 HD 
HETATM   16  C   UNL     1     -11.027   7.778  72.217  1.00  0.00    -0.290 C  
HETATM   17  C   UNL     1     -11.671   6.801  71.209  1.00  0.00    -0.336 C  
HETATM   18  H   UNL     1     -10.188   4.683  71.094  1.00  0.00     0.000 HD 
HETATM   19  C   UNL     1     -10.672   6.322  70.139  1.00  0.00    -0.286 C  
HETATM   20  O   UNL     1     -12.785   7.449  70.575  1.00  0.00    -0.564 OA 
HETATM   21  O   UNL     1      -9.721   5.417  70.712  1.00  0.00    -0.164 OA 
HETATM   22  H   UNL     1     -13.182   6.847  69.955  1.00  0.00     0.000 HD 
BRANCH  16  23
HETATM   23  C   UNL     1     -10.185   7.090  73.305  1.00  0.00    -0.275 C  
HETATM   24  O   UNL     1     -10.877   7.029  74.547  1.00  0.00    -0.240 OA 
HETATM   25  H   UNL     1     -10.357   6.603  75.219  1.00  0.00     0.000 HD 
ENDBRANCH  16  23
ENDBRANCH   9  11
ENDBRANCH   7   9
ENDBRANCH   2   7
TORSDOF 5
ENDMDL
MODEL      179
REMARK 921   NORMALIZED FREE ENERGY PREDICTED BY IDOCK:   -3.49 KCAL/MOL
REMARK 922        TOTAL FREE ENERGY PREDICTED BY IDOCK:   -5.33 KCAL/MOL
REMARK 923 INTER-LIGAND FREE ENERGY PREDICTED BY IDOCK:   -4.61 KCAL/MOL
REMARK 924 INTRA-LIGAND FREE ENERGY PREDICTED BY IDOCK:   -0.72 KCAL/MOL
REMARK 927      BINDING AFFINITY PREDICTED BY RF-SCORE:    0.00 PKD
ROOT
HETATM    1  C   UNL     1      -8.140   5.724  67.499  1.00  0.00    -0.102 C  
HETATM    2  N   UNL     1      -7.977   6.653  68.604  1.00  0.00    -0.117 N  
ENDROOT
BRANCH   2   3
HETATM    3  N   UNL     1      -6.966   6.484  69.553  1.00  0.00    -0.065 NA 
HETATM    4  H   UNL     1      -6.672   5.564  69.883  1.00  0.00     0.000 HD 
HETATM    5  O   UNL     1      -6.454   7.528  69.960  1.00  0.00    -0.034 OA 
HETATM    6  H   UNL     1      -5.766   7.413  70.605  1.00  0.00     0.000 HD 
ENDBRANCH   2   3
BRANCH   2   7
HETATM    7  C   UNL     1      -8.756   7.810  68.621  1.00  0.00    -0.128 C  
HETATM    8  O   UNL     1      -8.446   8.836  68.012  1.00  0.00    -0.124 OA 
BRANCH   7   9
HETATM    9  N   UNL     1      -9.894   7.748  69.388  1.00  0.00    -0.173 N  
HETATM   10  H   UNL     1     -10.749   7.372  68.979  1.00  0.00     0.000 HD 
BRANCH   9  11
HETATM   11  C   UNL     1      -9.910   8.210  70.787  1.00  0.00    -0.180 C  
HETATM   12  C   UNL     1     -10.620   9.574  70.861  1.00  0.00    -0.325 C  
HETATM   13  O   UNL     1     -11.996   9.464  70.500  1.00  0.00    -0.216 OA 
HETATM   14  O   UNL     1      -9.997  10.452  69.921  1.00  0.00    -0.388 OA 
HETATM   15  H   UNL     1     -10.435  11.293  69.966  1.00  0.00     0.000 HD 
HETATM   16  C   UNL     1     -12.761   8.585  71.343  1.00  0.00    -0.271 C  
HETATM   17  C   UNL     1     -12.138   7.174  71.423  1.00  0.00    -0.344 C  
HETATM   18  H   UNL     1     -10.839   7.003  73.655  1.00  0.00     0.000 HD 
HETATM   19  C   UNL     1     -10.627   7.219  71.721  1.00  0.00    -0.205 C  
HETATM   20  O   UNL     1     -12.366   6.490  70.181  1.00  0.00    -0.453 OA 
HETATM   21  O   UNL     1     -10.396   7.614  73.078  1.00  0.00    -0.273 OA 
HETATM   22  H   UNL     1     -11.983   5.622  70.231  1.00  0.00     0.000 HD 
BRANCH  16  23
HETATM   23  C   UNL     1     -13.046   9.222  72.713  1.00  0.00    -0.071 C  
HETATM   24  O   UNL     1     -14.397   9.029  73.114  1.00  0.00    -1.136 OA 
HETATM   25  H   UNL     1     -14.574   9.423  73.961  1.00  0.00     0.000 HD 
ENDBRANCH  16  23
ENDBRANCH   9  11
ENDBRANCH   7   9
ENDBRANCH   2   7
TORSDOF 5
ENDMDL
MODEL      180
REMARK 921   NORMALIZED FREE ENERGY PREDICTED BY IDOCK:   -3.48 KCAL/MOL
REMARK 922        TOTAL FREE ENERGY PREDICTED BY IDOCK:   -5.32 KCAL/MOL
REMARK 923 INTER-LIGAND FREE ENERGY PREDICTED BY IDOCK:   -4.57 KCAL/MOL
REMARK 924 INTRA-LIGAND FREE ENERGY PREDICTED BY IDOCK:   -0.75 KCAL/MOL
REMARK 927      BINDING AFFINITY PREDICTED BY RF-SCORE:    0.00 PKD
ROOT
HETATM    1  C   UNL     1      -8.858   6.513  72.164  1.00  0.00    -0.135 C  
HETATM    2  N   UNL     1     -10.284   6.636  71.912  1.00  0.00    -0.186 N  
ENDROOT
BRANCH   2   3
HETATM    3  N   UNL     1     -11.211   6.606  72.956  1.00  0.00    -0.453 NA 
HETATM    4  H   UNL     1     -11.192   5.894  73.687  1.00  0.00     0.000 HD 
HETATM    5  O   UNL     1     -12.054   7.505  72.930  1.00  0.00    -0.562 OA 
HETATM    6  H   UNL     1     -12.685   7.485  73.640  1.00  0.00     0.000 HD 
ENDBRANCH   2   3
BRANCH   2   7
HETATM    7  C   UNL     1     -10.707   6.937  70.618  1.00  0.00    -0.236 C  
HETATM    8  O   UNL     1     -11.731   6.465  70.120  1.00  0.00    -0.422 OA 
BRANCH   7   9
HETATM    9  N   UNL     1      -9.889   7.782  69.908  1.00  0.00    -0.176 N  
HETATM   10  H   UNL     1      -9.146   7.386  69.332  1.00  0.00     0.000 HD 
BRANCH   9  11
HETATM   11  C   UNL     1     -10.057   9.245  69.958  1.00  0.00    -0.212 C  
HETATM   12  C   UNL     1      -8.725   9.920  69.581  1.00  0.00    -0.204 C  
HETATM   13  O   UNL     1      -8.368   9.643  68.227  1.00  0.00    -0.115 OA 
HETATM   14  O   UNL     1      -7.700   9.380  70.417  1.00  0.00    -0.120 OA 
HETATM   15  H   UNL     1      -6.878   9.796  70.184  1.00  0.00     0.000 HD 
HETATM   16  C   UNL     1      -9.322  10.103  67.256  1.00  0.00    -0.152 C  
HETATM   17  C   UNL     1     -10.740   9.555  67.534  1.00  0.00    -0.245 C  
HETATM   18  H   UNL     1     -12.103  11.425  68.692  1.00  0.00     0.000 HD 
HETATM   19  C   UNL     1     -11.159   9.739  69.005  1.00  0.00    -0.107 C  
HETATM   20  O   UNL     1     -10.779   8.161  67.190  1.00  0.00    -0.420 OA 
HETATM   21  O   UNL     1     -11.423  11.120  69.281  1.00  0.00    -0.239 OA 
HETATM   22  H   UNL     1     -11.651   7.825  67.360  1.00  0.00     0.000 HD 
BRANCH  16  23
HETATM   23  C   UNL     1      -9.264  11.630  67.086  1.00  0.00    -0.176 C  
HETATM   24  O   UNL     1      -9.114  12.004  65.721  1.00  0.00    -0.411 OA 
HETATM   25  H   UNL     1      -9.078  12.948  65.616  1.00  0.00     0.000 HD 
ENDBRANCH  16  23
ENDBRANCH   9  11
ENDBRANCH   7   9
ENDBRANCH   2   7
TORSDOF 5
ENDMDL
MODEL      181
REMARK 921   NORMALIZED FREE ENERGY PREDICTED BY IDOCK:   -3.48 KCAL/MOL
REMARK 922        TOTAL FREE ENERGY PREDICTED BY IDOCK:   -5.32 KCAL/MOL
REMARK 923 INTER-LIGAND FREE ENERGY PREDICTED BY IDOCK:   -4.53 KCAL/MOL
REMARK 924 INTRA-LIGAND FREE ENERGY PREDICTED BY IDOCK:   -0.79 KCAL/MOL
REMARK 927      BINDING AFFINITY PREDICTED BY RF-SCORE:    0.00 PKD
ROOT
HETATM    1  C   UNL     1     -13.632  10.075  71.918  1.00  0.00    -0.262 C  
HETATM    2  N   UNL     1     -12.441  10.198  71.093  1.00  0.00    -0.354 N  
ENDROOT
BRANCH   2   3
HETATM    3  N   UNL     1     -12.382  11.106  70.033  1.00  0.00    -0.298 NA 
HETATM    4  H   UNL     1     -12.306  12.113  70.178  1.00  0.00     0.000 HD 
HETATM    5  O   UNL     1     -12.429  10.600  68.911  1.00  0.00    -0.791 OA 
HETATM    6  H   UNL     1     -12.389  11.218  68.190  1.00  0.00     0.000 HD 
ENDBRANCH   2   3
BRANCH   2   7
HETATM    7  C   UNL     1     -11.295   9.498  71.471  1.00  0.00    -0.385 C  
HETATM    8  O   UNL     1     -11.264   8.737  72.440  1.00  0.00    -0.329 OA 
BRANCH   7   9
HETATM    9  N   UNL     1     -10.179   9.732  70.706  1.00  0.00    -0.340 N  
HETATM   10  H   UNL     1      -9.936  10.692  70.464  1.00  0.00     0.000 HD 
BRANCH   9  11
HETATM   11  C   UNL     1      -9.324   8.632  70.228  1.00  0.00    -0.167 C  
HETATM   12  C   UNL     1      -9.798   8.195  68.829  1.00  0.00    -0.176 C  
HETATM   13  O   UNL     1      -9.617   9.237  67.870  1.00  0.00    -0.139 OA 
HETATM   14  O   UNL     1     -11.196   7.913  68.900  1.00  0.00    -0.404 OA 
HETATM   15  H   UNL     1     -11.489   7.644  68.037  1.00  0.00     0.000 HD 
HETATM   16  C   UNL     1      -8.252   9.657  67.702  1.00  0.00    -0.114 C  
HETATM   17  C   UNL     1      -7.606  10.076  69.042  1.00  0.00    -0.090 C  
HETATM   18  H   UNL     1      -6.139   8.110  69.867  1.00  0.00     0.000 HD 
HETATM   19  C   UNL     1      -7.841   9.035  70.153  1.00  0.00    -0.100 C  
HETATM   20  O   UNL     1      -8.145  11.344  69.445  1.00  0.00    -0.363 OA 
HETATM   21  O   UNL     1      -7.055   7.861  69.913  1.00  0.00    -0.058 OA 
HETATM   22  H   UNL     1      -7.748  11.601  70.269  1.00  0.00     0.000 HD 
BRANCH  16  23
HETATM   23  C   UNL     1      -7.436   8.622  66.911  1.00  0.00    -0.083 C  
HETATM   24  O   UNL     1      -6.843   9.193  65.750  1.00  0.00    -0.075 OA 
HETATM   25  H   UNL     1      -6.338   8.553  65.261  1.00  0.00     0.000 HD 
ENDBRANCH  16  23
ENDBRANCH   9  11
ENDBRANCH   7   9
ENDBRANCH   2   7
TORSDOF 5
ENDMDL
MODEL      182
REMARK 921   NORMALIZED FREE ENERGY PREDICTED BY IDOCK:   -3.47 KCAL/MOL
REMARK 922        TOTAL FREE ENERGY PREDICTED BY IDOCK:   -5.31 KCAL/MOL
REMARK 923 INTER-LIGAND FREE ENERGY PREDICTED BY IDOCK:   -4.32 KCAL/MOL
REMARK 924 INTRA-LIGAND FREE ENERGY PREDICTED BY IDOCK:   -0.99 KCAL/MOL
REMARK 927      BINDING AFFINITY PREDICTED BY RF-SCORE:    0.00 PKD
ROOT
HETATM    1  C   UNL     1     -13.238   6.976  71.362  1.00  0.00    -0.283 C  
HETATM    2  N   UNL     1     -12.004   7.604  70.919  1.00  0.00    -0.268 N  
ENDROOT
BRANCH   2   3
HETATM    3  N   UNL     1     -11.841   8.991  70.952  1.00  0.00    -0.350 NA 
HETATM    4  H   UNL     1     -11.602   9.494  71.807  1.00  0.00     0.000 HD 
HETATM    5  O   UNL     1     -12.009   9.561  69.872  1.00  0.00    -0.455 OA 
HETATM    6  H   UNL     1     -11.898  10.504  69.895  1.00  0.00     0.000 HD 
ENDBRANCH   2   3
BRANCH   2   7
HETATM    7  C   UNL     1     -10.920   6.786  70.599  1.00  0.00    -0.267 C  
HETATM    8  O   UNL     1     -10.560   5.843  71.307  1.00  0.00    -0.232 OA 
BRANCH   7   9
HETATM    9  N   UNL     1     -10.250   7.114  69.446  1.00  0.00    -0.184 N  
HETATM   10  H   UNL     1      -9.438   7.729  69.502  1.00  0.00     0.000 HD 
BRANCH   9  11
HETATM   11  C   UNL     1     -10.673   6.601  68.132  1.00  0.00    -0.258 C  
HETATM   12  C   UNL     1     -10.293   7.622  67.044  1.00  0.00    -0.330 C  
HETATM   13  O   UNL     1      -8.877   7.765  66.937  1.00  0.00    -0.123 OA 
HETATM   14  O   UNL     1     -10.827   8.892  67.420  1.00  0.00    -0.435 OA 
HETATM   15  H   UNL     1     -10.592   9.523  66.748  1.00  0.00     0.000 HD 
HETATM   16  C   UNL     1      -8.184   6.554  66.590  1.00  0.00    -0.112 C  
HETATM   17  C   UNL     1      -8.511   5.400  67.564  1.00  0.00    -0.106 C  
HETATM   18  H   UNL     1     -10.259   3.869  66.425  1.00  0.00     0.000 HD 
HETATM   19  C   UNL     1     -10.025   5.245  67.798  1.00  0.00    -0.162 C  
HETATM   20  O   UNL     1      -7.850   5.643  68.815  1.00  0.00    -0.093 OA 
HETATM   21  O   UNL     1     -10.659   4.706  66.632  1.00  0.00    -0.184 OA 
HETATM   22  H   UNL     1      -8.050   4.933  69.414  1.00  0.00     0.000 HD 
BRANCH  16  23
HETATM   23  C   UNL     1      -8.380   6.197  65.107  1.00  0.00    -0.129 C  
HETATM   24  O   UNL     1      -8.298   7.345  64.272  1.00  0.00    -0.349 OA 
HETATM   25  H   UNL     1      -8.419   7.124  63.355  1.00  0.00     0.000 HD 
ENDBRANCH  16  23
ENDBRANCH   9  11
ENDBRANCH   7   9
ENDBRANCH   2   7
TORSDOF 5
ENDMDL
MODEL      183
REMARK 921   NORMALIZED FREE ENERGY PREDICTED BY IDOCK:   -3.45 KCAL/MOL
REMARK 922        TOTAL FREE ENERGY PREDICTED BY IDOCK:   -5.28 KCAL/MOL
REMARK 923 INTER-LIGAND FREE ENERGY PREDICTED BY IDOCK:   -4.50 KCAL/MOL
REMARK 924 INTRA-LIGAND FREE ENERGY PREDICTED BY IDOCK:   -0.78 KCAL/MOL
REMARK 927      BINDING AFFINITY PREDICTED BY RF-SCORE:    0.00 PKD
ROOT
HETATM    1  C   UNL     1      -9.550  13.908  67.778  1.00  0.00    -0.222 C  
HETATM    2  N   UNL     1     -10.078  12.789  67.015  1.00  0.00    -0.237 N  
ENDROOT
BRANCH   2   3
HETATM    3  N   UNL     1      -9.701  12.573  65.688  1.00  0.00    -0.401 NA 
HETATM    4  H   UNL     1      -9.079  13.206  65.184  1.00  0.00     0.000 HD 
HETATM    5  O   UNL     1     -10.176  11.560  65.170  1.00  0.00    -0.248 OA 
HETATM    6  H   UNL     1      -9.920  11.413  64.267  1.00  0.00     0.000 HD 
ENDBRANCH   2   3
BRANCH   2   7
HETATM    7  C   UNL     1     -10.856  11.840  67.679  1.00  0.00    -0.217 C  
HETATM    8  O   UNL     1     -12.023  11.594  67.369  1.00  0.00    -0.621 OA 
BRANCH   7   9
HETATM    9  N   UNL     1     -10.245  11.205  68.732  1.00  0.00    -0.201 N  
HETATM   10  H   UNL     1     -10.359  11.581  69.673  1.00  0.00     0.000 HD 
BRANCH   9  11
HETATM   11  C   UNL     1      -9.429   9.994  68.538  1.00  0.00    -0.148 C  
HETATM   12  C   UNL     1      -8.413   9.878  69.690  1.00  0.00    -0.187 C  
HETATM   13  O   UNL     1      -9.068   9.675  70.941  1.00  0.00    -0.182 OA 
HETATM   14  O   UNL     1      -7.693  11.109  69.774  1.00  0.00    -0.353 OA 
HETATM   15  H   UNL     1      -7.067  11.037  70.485  1.00  0.00     0.000 HD 
HETATM   16  C   UNL     1      -9.864   8.480  71.007  1.00  0.00    -0.195 C  
HETATM   17  C   UNL     1     -10.906   8.415  69.867  1.00  0.00    -0.207 C  
HETATM   18  H   UNL     1      -9.985   6.834  68.037  1.00  0.00     0.000 HD 
HETATM   19  C   UNL     1     -10.284   8.715  68.490  1.00  0.00    -0.195 C  
HETATM   20  O   UNL     1     -11.956   9.356  70.139  1.00  0.00    -0.467 OA 
HETATM   21  O   UNL     1      -9.458   7.624  68.066  1.00  0.00    -0.142 OA 
HETATM   22  H   UNL     1     -12.597   9.316  69.438  1.00  0.00     0.000 HD 
BRANCH  16  23
HETATM   23  C   UNL     1      -8.987   7.223  71.126  1.00  0.00    -0.147 C  
HETATM   24  O   UNL     1      -8.661   6.932  72.480  1.00  0.00    -0.125 OA 
HETATM   25  H   UNL     1      -8.119   6.155  72.553  1.00  0.00     0.000 HD 
ENDBRANCH  16  23
ENDBRANCH   9  11
ENDBRANCH   7   9
ENDBRANCH   2   7
TORSDOF 5
ENDMDL
MODEL      184
REMARK 921   NORMALIZED FREE ENERGY PREDICTED BY IDOCK:   -3.43 KCAL/MOL
REMARK 922        TOTAL FREE ENERGY PREDICTED BY IDOCK:   -5.25 KCAL/MOL
REMARK 923 INTER-LIGAND FREE ENERGY PREDICTED BY IDOCK:   -4.02 KCAL/MOL
REMARK 924 INTRA-LIGAND FREE ENERGY PREDICTED BY IDOCK:   -1.23 KCAL/MOL
REMARK 927      BINDING AFFINITY PREDICTED BY RF-SCORE:    0.00 PKD
ROOT
HETATM    1  C   UNL     1      -9.959   2.730  63.797  1.00  0.00    -0.152 C  
HETATM    2  N   UNL     1      -9.359   3.962  64.281  1.00  0.00    -0.143 N  
ENDROOT
BRANCH   2   3
HETATM    3  N   UNL     1      -8.755   4.869  63.406  1.00  0.00    -0.203 NA 
HETATM    4  H   UNL     1      -7.756   5.074  63.432  1.00  0.00     0.000 HD 
HETATM    5  O   UNL     1      -9.521   5.404  62.601  1.00  0.00    -0.329 OA 
HETATM    6  H   UNL     1      -9.110   6.020  62.007  1.00  0.00     0.000 HD 
ENDBRANCH   2   3
BRANCH   2   7
HETATM    7  C   UNL     1      -9.528   4.302  65.623  1.00  0.00    -0.176 C  
HETATM    8  O   UNL     1      -9.492   3.472  66.534  1.00  0.00    -0.190 OA 
BRANCH   7   9
HETATM    9  N   UNL     1      -9.768   5.631  65.873  1.00  0.00    -0.350 N  
HETATM   10  H   UNL     1     -10.660   6.036  65.588  1.00  0.00     0.000 HD 
BRANCH   9  11
HETATM   11  C   UNL     1      -8.772   6.485  66.542  1.00  0.00    -0.134 C  
HETATM   12  C   UNL     1      -8.823   7.897  65.929  1.00  0.00    -0.148 C  
HETATM   13  O   UNL     1     -10.076   8.531  66.188  1.00  0.00    -0.221 OA 
HETATM   14  O   UNL     1      -8.688   7.772  64.512  1.00  0.00    -0.370 OA 
HETATM   15  H   UNL     1      -8.719   8.643  64.134  1.00  0.00     0.000 HD 
HETATM   16  C   UNL     1     -10.375   8.705  67.583  1.00  0.00    -0.254 C  
HETATM   17  C   UNL     1     -10.305   7.372  68.360  1.00  0.00    -0.194 C  
HETATM   18  H   UNL     1      -8.035   7.291  69.600  1.00  0.00     0.000 HD 
HETATM   19  C   UNL     1      -9.014   6.587  68.059  1.00  0.00    -0.116 C  
HETATM   20  O   UNL     1     -11.448   6.572  68.021  1.00  0.00    -0.596 OA 
HETATM   21  O   UNL     1      -7.885   7.228  68.664  1.00  0.00    -0.117 OA 
HETATM   22  H   UNL     1     -11.406   5.752  68.500  1.00  0.00     0.000 HD 
BRANCH  16  23
HETATM   23  C   UNL     1      -9.537   9.835  68.203  1.00  0.00    -0.143 C  
HETATM   24  O   UNL     1      -9.357   9.652  69.602  1.00  0.00    -0.181 OA 
HETATM   25  H   UNL     1      -8.839  10.350  69.986  1.00  0.00     0.000 HD 
ENDBRANCH  16  23
ENDBRANCH   9  11
ENDBRANCH   7   9
ENDBRANCH   2   7
TORSDOF 5
ENDMDL
MODEL      185
REMARK 921   NORMALIZED FREE ENERGY PREDICTED BY IDOCK:   -3.42 KCAL/MOL
REMARK 922        TOTAL FREE ENERGY PREDICTED BY IDOCK:   -5.24 KCAL/MOL
REMARK 923 INTER-LIGAND FREE ENERGY PREDICTED BY IDOCK:   -4.64 KCAL/MOL
REMARK 924 INTRA-LIGAND FREE ENERGY PREDICTED BY IDOCK:   -0.60 KCAL/MOL
REMARK 927      BINDING AFFINITY PREDICTED BY RF-SCORE:    0.00 PKD
ROOT
HETATM    1  C   UNL     1     -13.091  10.218  71.836  1.00  0.00    -0.463 C  
HETATM    2  N   UNL     1     -12.023   9.528  71.132  1.00  0.00    -0.325 N  
ENDROOT
BRANCH   2   3
HETATM    3  N   UNL     1     -10.924  10.222  70.620  1.00  0.00    -0.393 NA 
HETATM    4  H   UNL     1      -9.975   9.849  70.656  1.00  0.00     0.000 HD 
HETATM    5  O   UNL     1     -11.187  11.318  70.121  1.00  0.00    -0.467 OA 
HETATM    6  H   UNL     1     -10.439  11.789  69.773  1.00  0.00     0.000 HD 
ENDBRANCH   2   3
BRANCH   2   7
HETATM    7  C   UNL     1     -12.036   8.133  71.108  1.00  0.00    -0.273 C  
HETATM    8  O   UNL     1     -12.935   7.462  71.617  1.00  0.00    -0.349 OA 
BRANCH   7   9
HETATM    9  N   UNL     1     -10.957   7.542  70.497  1.00  0.00    -0.249 N  
HETATM   10  H   UNL     1     -10.152   8.116  70.246  1.00  0.00     0.000 HD 
BRANCH   9  11
HETATM   11  C   UNL     1     -10.933   6.100  70.195  1.00  0.00    -0.358 C  
HETATM   12  C   UNL     1     -10.618   5.901  68.701  1.00  0.00    -0.256 C  
HETATM   13  O   UNL     1      -9.305   6.360  68.381  1.00  0.00    -0.123 OA 
HETATM   14  O   UNL     1     -11.544   6.682  67.943  1.00  0.00    -0.608 OA 
HETATM   15  H   UNL     1     -11.350   6.560  67.022  1.00  0.00     0.000 HD 
HETATM   16  C   UNL     1      -8.252   5.685  69.090  1.00  0.00    -0.100 C  
HETATM   17  C   UNL     1      -8.456   5.743  70.620  1.00  0.00    -0.128 C  
HETATM   18  H   UNL     1      -9.438   3.471  71.378  1.00  0.00     0.000 HD 
HETATM   19  C   UNL     1      -9.886   5.345  71.034  1.00  0.00    -0.187 C  
HETATM   20  O   UNL     1      -8.171   7.072  71.081  1.00  0.00    -0.111 OA 
HETATM   21  O   UNL     1     -10.084   3.937  70.861  1.00  0.00    -0.129 OA 
HETATM   22  H   UNL     1      -8.296   7.107  72.022  1.00  0.00     0.000 HD 
BRANCH  16  23
HETATM   23  C   UNL     1      -8.022   4.267  68.542  1.00  0.00    -0.073 C  
HETATM   24  O   UNL     1      -7.615   3.366  69.565  1.00  0.00    -0.048 OA 
HETATM   25  H   UNL     1      -7.472   2.489  69.227  1.00  0.00     0.000 HD 
ENDBRANCH  16  23
ENDBRANCH   9  11
ENDBRANCH   7   9
ENDBRANCH   2   7
TORSDOF 5
ENDMDL
MODEL      186
REMARK 921   NORMALIZED FREE ENERGY PREDICTED BY IDOCK:   -3.41 KCAL/MOL
REMARK 922        TOTAL FREE ENERGY PREDICTED BY IDOCK:   -5.23 KCAL/MOL
REMARK 923 INTER-LIGAND FREE ENERGY PREDICTED BY IDOCK:   -4.87 KCAL/MOL
REMARK 924 INTRA-LIGAND FREE ENERGY PREDICTED BY IDOCK:   -0.36 KCAL/MOL
REMARK 927      BINDING AFFINITY PREDICTED BY RF-SCORE:    0.00 PKD
ROOT
HETATM    1  C   UNL     1      -6.415  17.253  67.201  1.00  0.00    -0.168 C  
HETATM    2  N   UNL     1      -7.538  16.492  66.678  1.00  0.00    -0.258 N  
ENDROOT
BRANCH   2   3
HETATM    3  N   UNL     1      -8.445  17.061  65.781  1.00  0.00    -0.457 NA 
HETATM    4  H   UNL     1      -8.186  17.317  64.828  1.00  0.00     0.000 HD 
HETATM    5  O   UNL     1      -9.582  17.228  66.226  1.00  0.00    -0.292 OA 
HETATM    6  H   UNL     1     -10.199  17.615  65.615  1.00  0.00     0.000 HD 
ENDBRANCH   2   3
BRANCH   2   7
HETATM    7  C   UNL     1      -7.611  15.130  66.970  1.00  0.00    -0.086 C  
HETATM    8  O   UNL     1      -6.617  14.439  67.198  1.00  0.00    -0.205 OA 
BRANCH   7   9
HETATM    9  N   UNL     1      -8.873  14.589  66.960  1.00  0.00    -0.227 N  
HETATM   10  H   UNL     1      -9.468  14.731  66.143  1.00  0.00     0.000 HD 
BRANCH   9  11
HETATM   11  C   UNL     1      -9.391  13.810  68.098  1.00  0.00    -0.211 C  
HETATM   12  C   UNL     1      -9.513  14.730  69.327  1.00  0.00    -0.055 C  
HETATM   13  O   UNL     1     -10.486  15.752  69.116  1.00  0.00    -0.213 OA 
HETATM   14  O   UNL     1      -8.252  15.370  69.530  1.00  0.00    -0.243 OA 
HETATM   15  H   UNL     1      -8.328  15.938  70.289  1.00  0.00     0.000 HD 
HETATM   16  C   UNL     1     -11.815  15.263  68.867  1.00  0.00    -0.320 C  
HETATM   17  C   UNL     1     -11.853  14.268  67.685  1.00  0.00    -0.385 C  
HETATM   18  H   UNL     1     -11.935  11.873  68.663  1.00  0.00     0.000 HD 
HETATM   19  C   UNL     1     -10.765  13.184  67.800  1.00  0.00    -0.240 C  
HETATM   20  O   UNL     1     -11.686  14.993  66.457  1.00  0.00    -0.266 OA 
HETATM   21  O   UNL     1     -11.087  12.260  68.847  1.00  0.00    -0.224 OA 
HETATM   22  H   UNL     1     -11.710  14.381  65.731  1.00  0.00     0.000 HD 
BRANCH  16  23
HETATM   23  C   UNL     1     -12.472  14.734  70.152  1.00  0.00    -0.309 C  
HETATM   24  O   UNL     1     -13.728  15.356  70.397  1.00  0.00    -0.715 OA 
HETATM   25  H   UNL     1     -14.135  15.028  71.192  1.00  0.00     0.000 HD 
ENDBRANCH  16  23
ENDBRANCH   9  11
ENDBRANCH   7   9
ENDBRANCH   2   7
TORSDOF 5
ENDMDL
MODEL      187
REMARK 921   NORMALIZED FREE ENERGY PREDICTED BY IDOCK:   -3.41 KCAL/MOL
REMARK 922        TOTAL FREE ENERGY PREDICTED BY IDOCK:   -5.23 KCAL/MOL
REMARK 923 INTER-LIGAND FREE ENERGY PREDICTED BY IDOCK:   -3.80 KCAL/MOL
REMARK 924 INTRA-LIGAND FREE ENERGY PREDICTED BY IDOCK:   -1.43 KCAL/MOL
REMARK 927      BINDING AFFINITY PREDICTED BY RF-SCORE:    0.00 PKD
ROOT
HETATM    1  C   UNL     1      -6.238   8.028  72.745  1.00  0.00    -0.071 C  
HETATM    2  N   UNL     1      -6.892   7.894  71.454  1.00  0.00    -0.045 N  
ENDROOT
BRANCH   2   3
HETATM    3  N   UNL     1      -7.002   6.654  70.820  1.00  0.00    -0.066 NA 
HETATM    4  H   UNL     1      -6.875   5.772  71.317  1.00  0.00     0.000 HD 
HETATM    5  O   UNL     1      -7.263   6.705  69.617  1.00  0.00    -0.073 OA 
HETATM    6  H   UNL     1      -7.337   5.862  69.186  1.00  0.00     0.000 HD 
ENDBRANCH   2   3
BRANCH   2   7
HETATM    7  C   UNL     1      -7.548   9.005  70.922  1.00  0.00    -0.124 C  
HETATM    8  O   UNL     1      -6.974  10.068  70.676  1.00  0.00    -0.260 OA 
BRANCH   7   9
HETATM    9  N   UNL     1      -8.896   8.852  70.710  1.00  0.00    -0.188 N  
HETATM   10  H   UNL     1      -9.234   8.690  69.761  1.00  0.00     0.000 HD 
BRANCH   9  11
HETATM   11  C   UNL     1      -9.866   8.915  71.816  1.00  0.00    -0.315 C  
HETATM   12  C   UNL     1     -11.196   9.487  71.292  1.00  0.00    -0.382 C  
HETATM   13  O   UNL     1     -11.795   8.614  70.335  1.00  0.00    -0.110 OA 
HETATM   14  O   UNL     1     -10.919  10.724  70.632  1.00  0.00    -0.398 OA 
HETATM   15  H   UNL     1     -11.739  11.077  70.308  1.00  0.00     0.000 HD 
HETATM   16  C   UNL     1     -12.111   7.307  70.842  1.00  0.00    -0.288 C  
HETATM   17  C   UNL     1     -10.879   6.614  71.465  1.00  0.00    -0.239 C  
HETATM   18  H   UNL     1     -11.044   6.858  74.036  1.00  0.00     0.000 HD 
HETATM   19  C   UNL     1     -10.126   7.534  72.445  1.00  0.00    -0.203 C  
HETATM   20  O   UNL     1      -9.993   6.200  70.414  1.00  0.00    -0.174 OA 
HETATM   21  O   UNL     1     -10.883   7.711  73.648  1.00  0.00    -0.308 OA 
HETATM   22  H   UNL     1      -9.235   5.774  70.797  1.00  0.00     0.000 HD 
BRANCH  16  23
HETATM   23  C   UNL     1     -13.342   7.340  71.762  1.00  0.00    -0.304 C  
HETATM   24  O   UNL     1     -13.396   6.201  72.614  1.00  0.00    -0.253 OA 
HETATM   25  H   UNL     1     -14.156   6.222  73.183  1.00  0.00     0.000 HD 
ENDBRANCH  16  23
ENDBRANCH   9  11
ENDBRANCH   7   9
ENDBRANCH   2   7
TORSDOF 5
ENDMDL
MODEL      188
REMARK 921   NORMALIZED FREE ENERGY PREDICTED BY IDOCK:   -3.41 KCAL/MOL
REMARK 922        TOTAL FREE ENERGY PREDICTED BY IDOCK:   -5.23 KCAL/MOL
REMARK 923 INTER-LIGAND FREE ENERGY PREDICTED BY IDOCK:   -4.37 KCAL/MOL
REMARK 924 INTRA-LIGAND FREE ENERGY PREDICTED BY IDOCK:   -0.86 KCAL/MOL
REMARK 927      BINDING AFFINITY PREDICTED BY RF-SCORE:    0.00 PKD
ROOT
HETATM    1  C   UNL     1      -9.704   5.032  65.914  1.00  0.00    -0.166 C  
HETATM    2  N   UNL     1      -9.291   6.426  65.899  1.00  0.00    -0.021 N  
ENDROOT
BRANCH   2   3
HETATM    3  N   UNL     1      -8.293   6.879  65.034  1.00  0.00    -0.288 NA 
HETATM    4  H   UNL     1      -7.363   7.142  65.360  1.00  0.00     0.000 HD 
HETATM    5  O   UNL     1      -8.619   6.935  63.847  1.00  0.00    -0.329 OA 
HETATM    6  H   UNL     1      -7.940   7.243  63.258  1.00  0.00     0.000 HD 
ENDBRANCH   2   3
BRANCH   2   7
HETATM    7  C   UNL     1     -10.017   7.342  66.660  1.00  0.00    -0.191 C  
HETATM    8  O   UNL     1     -10.514   7.062  67.753  1.00  0.00    -0.187 OA 
BRANCH   7   9
HETATM    9  N   UNL     1     -10.171   8.587  66.101  1.00  0.00    -0.393 N  
HETATM   10  H   UNL     1     -10.969   8.760  65.488  1.00  0.00     0.000 HD 
BRANCH   9  11
HETATM   11  C   UNL     1      -9.217   9.678  66.362  1.00  0.00    -0.163 C  
HETATM   12  C   UNL     1      -9.542  10.867  65.440  1.00  0.00    -0.225 C  
HETATM   13  O   UNL     1     -10.820  11.425  65.743  1.00  0.00    -0.275 OA 
HETATM   14  O   UNL     1      -9.589  10.388  64.095  1.00  0.00    -0.277 OA 
HETATM   15  H   UNL     1      -9.790  11.121  63.526  1.00  0.00     0.000 HD 
HETATM   16  C   UNL     1     -10.943  11.931  67.083  1.00  0.00    -0.269 C  
HETATM   17  C   UNL     1     -10.587  10.862  68.140  1.00  0.00    -0.198 C  
HETATM   18  H   UNL     1      -8.177  11.325  68.960  1.00  0.00     0.000 HD 
HETATM   19  C   UNL     1      -9.257  10.151  67.826  1.00  0.00    -0.137 C  
HETATM   20  O   UNL     1     -11.648   9.897  68.205  1.00  0.00    -0.564 OA 
HETATM   21  O   UNL     1      -8.152  11.033  68.057  1.00  0.00    -0.113 OA 
HETATM   22  H   UNL     1     -11.429   9.240  68.856  1.00  0.00     0.000 HD 
BRANCH  16  23
HETATM   23  C   UNL     1     -10.188  13.259  67.257  1.00  0.00    -0.240 C  
HETATM   24  O   UNL     1      -9.909  13.532  68.625  1.00  0.00    -0.329 OA 
HETATM   25  H   UNL     1      -9.442  14.353  68.733  1.00  0.00     0.000 HD 
ENDBRANCH  16  23
ENDBRANCH   9  11
ENDBRANCH   7   9
ENDBRANCH   2   7
TORSDOF 5
ENDMDL
MODEL      189
REMARK 921   NORMALIZED FREE ENERGY PREDICTED BY IDOCK:   -3.38 KCAL/MOL
REMARK 922        TOTAL FREE ENERGY PREDICTED BY IDOCK:   -5.19 KCAL/MOL
REMARK 923 INTER-LIGAND FREE ENERGY PREDICTED BY IDOCK:   -4.54 KCAL/MOL
REMARK 924 INTRA-LIGAND FREE ENERGY PREDICTED BY IDOCK:   -0.65 KCAL/MOL
REMARK 927      BINDING AFFINITY PREDICTED BY RF-SCORE:    0.00 PKD
ROOT
HETATM    1  C   UNL     1      -8.627  15.359  68.939  1.00  0.00    -0.207 C  
HETATM    2  N   UNL     1      -9.579  14.266  68.833  1.00  0.00    -0.140 N  
ENDROOT
BRANCH   2   3
HETATM    3  N   UNL     1     -10.849  14.350  69.409  1.00  0.00    -0.350 NA 
HETATM    4  H   UNL     1     -11.348  15.234  69.509  1.00  0.00     0.000 HD 
HETATM    5  O   UNL     1     -11.321  13.276  69.787  1.00  0.00    -0.456 OA 
HETATM    6  H   UNL     1     -12.184  13.334  70.179  1.00  0.00     0.000 HD 
ENDBRANCH   2   3
BRANCH   2   7
HETATM    7  C   UNL     1      -9.260  13.184  68.012  1.00  0.00    -0.211 C  
HETATM    8  O   UNL     1      -9.178  13.274  66.786  1.00  0.00    -0.238 OA 
BRANCH   7   9
HETATM    9  N   UNL     1      -9.067  11.987  68.658  1.00  0.00    -0.374 N  
HETATM   10  H   UNL     1      -9.182  11.945  69.671  1.00  0.00     0.000 HD 
BRANCH   9  11
HETATM   11  C   UNL     1      -8.697  10.763  67.926  1.00  0.00    -0.129 C  
HETATM   12  C   UNL     1      -8.324   9.663  68.936  1.00  0.00    -0.116 C  
HETATM   13  O   UNL     1      -9.448   9.284  69.731  1.00  0.00    -0.169 OA 
HETATM   14  O   UNL     1      -7.330  10.187  69.818  1.00  0.00    -0.123 OA 
HETATM   15  H   UNL     1      -7.100   9.508  70.442  1.00  0.00     0.000 HD 
HETATM   16  C   UNL     1     -10.554   8.758  68.979  1.00  0.00    -0.171 C  
HETATM   17  C   UNL     1     -11.015   9.731  67.870  1.00  0.00    -0.188 C  
HETATM   18  H   UNL     1     -10.033   8.902  65.624  1.00  0.00     0.000 HD 
HETATM   19  C   UNL     1      -9.838  10.254  67.026  1.00  0.00    -0.193 C  
HETATM   20  O   UNL     1     -11.706  10.835  68.475  1.00  0.00    -0.488 OA 
HETATM   21  O   UNL     1      -9.329   9.216  66.180  1.00  0.00    -0.190 OA 
HETATM   22  H   UNL     1     -11.990  11.433  67.793  1.00  0.00     0.000 HD 
BRANCH  16  23
HETATM   23  C   UNL     1     -10.272   7.331  68.481  1.00  0.00    -0.181 C  
HETATM   24  O   UNL     1     -11.440   6.716  67.950  1.00  0.00    -0.614 OA 
HETATM   25  H   UNL     1     -11.266   5.834  67.642  1.00  0.00     0.000 HD 
ENDBRANCH  16  23
ENDBRANCH   9  11
ENDBRANCH   7   9
ENDBRANCH   2   7
TORSDOF 5
ENDMDL
MODEL      190
REMARK 921   NORMALIZED FREE ENERGY PREDICTED BY IDOCK:   -3.38 KCAL/MOL
REMARK 922        TOTAL FREE ENERGY PREDICTED BY IDOCK:   -5.19 KCAL/MOL
REMARK 923 INTER-LIGAND FREE ENERGY PREDICTED BY IDOCK:   -4.17 KCAL/MOL
REMARK 924 INTRA-LIGAND FREE ENERGY PREDICTED BY IDOCK:   -1.02 KCAL/MOL
REMARK 927      BINDING AFFINITY PREDICTED BY RF-SCORE:    0.00 PKD
ROOT
HETATM    1  C   UNL     1     -11.997  12.880  68.724  1.00  0.00    -0.253 C  
HETATM    2  N   UNL     1     -10.968  13.902  68.816  1.00  0.00    -0.256 N  
ENDROOT
BRANCH   2   3
HETATM    3  N   UNL     1     -11.174  15.077  69.543  1.00  0.00    -0.261 NA 
HETATM    4  H   UNL     1     -11.991  15.672  69.402  1.00  0.00     0.000 HD 
HETATM    5  O   UNL     1     -10.297  15.340  70.368  1.00  0.00    -0.475 OA 
HETATM    6  H   UNL     1     -10.437  16.139  70.862  1.00  0.00     0.000 HD 
ENDBRANCH   2   3
BRANCH   2   7
HETATM    7  C   UNL     1      -9.706  13.624  68.291  1.00  0.00    -0.231 C  
HETATM    8  O   UNL     1      -8.869  14.499  68.060  1.00  0.00    -0.163 OA 
BRANCH   7   9
HETATM    9  N   UNL     1      -9.456  12.302  68.017  1.00  0.00    -0.201 N  
HETATM   10  H   UNL     1      -9.407  11.636  68.789  1.00  0.00     0.000 HD 
BRANCH   9  11
HETATM   11  C   UNL     1      -9.256  11.821  66.640  1.00  0.00    -0.198 C  
HETATM   12  C   UNL     1      -7.813  11.307  66.487  1.00  0.00    -0.133 C  
HETATM   13  O   UNL     1      -7.580  10.162  67.307  1.00  0.00    -0.094 OA 
HETATM   14  O   UNL     1      -6.925  12.337  66.923  1.00  0.00    -0.344 OA 
HETATM   15  H   UNL     1      -6.034  12.020  66.830  1.00  0.00     0.000 HD 
HETATM   16  C   UNL     1      -8.423   9.037  67.008  1.00  0.00    -0.120 C  
HETATM   17  C   UNL     1      -9.922   9.408  67.060  1.00  0.00    -0.221 C  
HETATM   18  H   UNL     1     -10.744   9.748  64.630  1.00  0.00     0.000 HD 
HETATM   19  C   UNL     1     -10.234  10.692  66.268  1.00  0.00    -0.245 C  
HETATM   20  O   UNL     1     -10.315   9.579  68.431  1.00  0.00    -0.190 OA 
HETATM   21  O   UNL     1     -10.140  10.446  64.859  1.00  0.00    -0.322 OA 
HETATM   22  H   UNL     1     -11.237   9.806  68.463  1.00  0.00     0.000 HD 
BRANCH  16  23
HETATM   23  C   UNL     1      -7.996   8.341  65.705  1.00  0.00    -0.099 C  
HETATM   24  O   UNL     1      -9.065   7.600  65.128  1.00  0.00    -0.361 OA 
HETATM   25  H   UNL     1      -8.801   7.170  64.322  1.00  0.00     0.000 HD 
ENDBRANCH  16  23
ENDBRANCH   9  11
ENDBRANCH   7   9
ENDBRANCH   2   7
TORSDOF 5
ENDMDL
MODEL      191
REMARK 921   NORMALIZED FREE ENERGY PREDICTED BY IDOCK:   -3.37 KCAL/MOL
REMARK 922        TOTAL FREE ENERGY PREDICTED BY IDOCK:   -5.17 KCAL/MOL
REMARK 923 INTER-LIGAND FREE ENERGY PREDICTED BY IDOCK:   -4.30 KCAL/MOL
REMARK 924 INTRA-LIGAND FREE ENERGY PREDICTED BY IDOCK:   -0.87 KCAL/MOL
REMARK 927      BINDING AFFINITY PREDICTED BY RF-SCORE:    0.00 PKD
ROOT
HETATM    1  C   UNL     1      -9.679   9.804  65.553  1.00  0.00    -0.312 C  
HETATM    2  N   UNL     1      -9.797   9.578  66.984  1.00  0.00    -0.178 N  
ENDROOT
BRANCH   2   3
HETATM    3  N   UNL     1      -9.557  10.602  67.903  1.00  0.00    -0.160 NA 
HETATM    4  H   UNL     1     -10.170  11.413  67.992  1.00  0.00     0.000 HD 
HETATM    5  O   UNL     1      -8.552  10.451  68.600  1.00  0.00    -0.119 OA 
HETATM    6  H   UNL     1      -8.390  11.148  69.225  1.00  0.00     0.000 HD 
ENDBRANCH   2   3
BRANCH   2   7
HETATM    7  C   UNL     1     -10.303   8.355  67.424  1.00  0.00    -0.285 C  
HETATM    8  O   UNL     1     -10.754   7.501  66.657  1.00  0.00    -0.239 OA 
BRANCH   7   9
HETATM    9  N   UNL     1     -10.296   8.165  68.784  1.00  0.00    -0.207 N  
HETATM   10  H   UNL     1     -10.671   8.896  69.389  1.00  0.00     0.000 HD 
BRANCH   9  11
HETATM   11  C   UNL     1      -9.761   6.934  69.391  1.00  0.00    -0.157 C  
HETATM   12  C   UNL     1      -9.031   7.291  70.699  1.00  0.00    -0.156 C  
HETATM   13  O   UNL     1      -9.936   7.811  71.673  1.00  0.00    -0.171 OA 
HETATM   14  O   UNL     1      -8.075   8.312  70.411  1.00  0.00    -0.101 OA 
HETATM   15  H   UNL     1      -7.625   8.532  71.218  1.00  0.00     0.000 HD 
HETATM   16  C   UNL     1     -10.985   6.904  72.052  1.00  0.00    -0.235 C  
HETATM   17  C   UNL     1     -11.783   6.400  70.828  1.00  0.00    -0.312 C  
HETATM   18  H   UNL     1     -10.931   4.028  70.244  1.00  0.00     0.000 HD 
HETATM   19  C   UNL     1     -10.865   5.905  69.695  1.00  0.00    -0.374 C  
HETATM   20  O   UNL     1     -12.619   7.463  70.344  1.00  0.00    -0.495 OA 
HETATM   21  O   UNL     1     -10.250   4.663  70.056  1.00  0.00    -0.234 OA 
HETATM   22  H   UNL     1     -13.110   7.153  69.592  1.00  0.00     0.000 HD 
BRANCH  16  23
HETATM   23  C   UNL     1     -10.461   5.782  72.961  1.00  0.00    -0.221 C  
HETATM   24  O   UNL     1     -11.007   5.866  74.273  1.00  0.00    -0.347 OA 
HETATM   25  H   UNL     1     -10.683   5.172  74.836  1.00  0.00     0.000 HD 
ENDBRANCH  16  23
ENDBRANCH   9  11
ENDBRANCH   7   9
ENDBRANCH   2   7
TORSDOF 5
ENDMDL
MODEL      192
REMARK 921   NORMALIZED FREE ENERGY PREDICTED BY IDOCK:   -3.33 KCAL/MOL
REMARK 922        TOTAL FREE ENERGY PREDICTED BY IDOCK:   -5.13 KCAL/MOL
REMARK 923 INTER-LIGAND FREE ENERGY PREDICTED BY IDOCK:   -4.43 KCAL/MOL
REMARK 924 INTRA-LIGAND FREE ENERGY PREDICTED BY IDOCK:   -0.69 KCAL/MOL
REMARK 927      BINDING AFFINITY PREDICTED BY RF-SCORE:    0.00 PKD
ROOT
HETATM    1  C   UNL     1      -9.500   7.672  73.152  1.00  0.00    -0.243 C  
HETATM    2  N   UNL     1     -10.599   7.099  72.393  1.00  0.00    -0.216 N  
ENDROOT
BRANCH   2   3
HETATM    3  N   UNL     1     -11.913   7.538  72.573  1.00  0.00    -0.522 NA 
HETATM    4  H   UNL     1     -12.616   6.980  73.057  1.00  0.00     0.000 HD 
HETATM    5  O   UNL     1     -12.159   8.651  72.104  1.00  0.00    -0.342 OA 
HETATM    6  H   UNL     1     -13.053   8.949  72.226  1.00  0.00     0.000 HD 
ENDBRANCH   2   3
BRANCH   2   7
HETATM    7  C   UNL     1     -10.303   6.203  71.366  1.00  0.00    -0.214 C  
HETATM    8  O   UNL     1      -9.827   5.084  71.570  1.00  0.00    -0.164 OA 
BRANCH   7   9
HETATM    9  N   UNL     1     -10.549   6.656  70.094  1.00  0.00    -0.209 N  
HETATM   10  H   UNL     1     -11.290   6.219  69.545  1.00  0.00     0.000 HD 
BRANCH   9  11
HETATM   11  C   UNL     1      -9.773   7.759  69.501  1.00  0.00    -0.165 C  
HETATM   12  C   UNL     1      -8.446   7.203  68.950  1.00  0.00    -0.126 C  
HETATM   13  O   UNL     1      -8.670   6.297  67.870  1.00  0.00    -0.115 OA 
HETATM   14  O   UNL     1      -7.799   6.476  69.996  1.00  0.00    -0.106 OA 
HETATM   15  H   UNL     1      -6.981   6.134  69.656  1.00  0.00     0.000 HD 
HETATM   16  C   UNL     1      -9.344   6.876  66.741  1.00  0.00    -0.158 C  
HETATM   17  C   UNL     1     -10.683   7.536  67.142  1.00  0.00    -0.309 C  
HETATM   18  H   UNL     1     -10.294  10.090  67.301  1.00  0.00     0.000 HD 
HETATM   19  C   UNL     1     -10.533   8.463  68.363  1.00  0.00    -0.164 C  
HETATM   20  O   UNL     1     -11.644   6.509  67.428  1.00  0.00    -0.719 OA 
HETATM   21  O   UNL     1      -9.825   9.655  68.003  1.00  0.00    -0.144 OA 
HETATM   22  H   UNL     1     -12.467   6.915  67.674  1.00  0.00     0.000 HD 
BRANCH  16  23
HETATM   23  C   UNL     1      -8.411   7.794  65.935  1.00  0.00    -0.134 C  
HETATM   24  O   UNL     1      -9.139   8.730  65.149  1.00  0.00    -0.383 OA 
HETATM   25  H   UNL     1      -8.562   9.298  64.651  1.00  0.00     0.000 HD 
ENDBRANCH  16  23
ENDBRANCH   9  11
ENDBRANCH   7   9
ENDBRANCH   2   7
TORSDOF 5
ENDMDL
MODEL      193
REMARK 921   NORMALIZED FREE ENERGY PREDICTED BY IDOCK:   -3.29 KCAL/MOL
REMARK 922        TOTAL FREE ENERGY PREDICTED BY IDOCK:   -5.07 KCAL/MOL
REMARK 923 INTER-LIGAND FREE ENERGY PREDICTED BY IDOCK:   -4.72 KCAL/MOL
REMARK 924 INTRA-LIGAND FREE ENERGY PREDICTED BY IDOCK:   -0.35 KCAL/MOL
REMARK 927      BINDING AFFINITY PREDICTED BY RF-SCORE:    0.00 PKD
ROOT
HETATM    1  C   UNL     1     -12.388  10.024  71.040  1.00  0.00    -0.360 C  
HETATM    2  N   UNL     1     -12.264   9.169  72.209  1.00  0.00    -0.319 N  
ENDROOT
BRANCH   2   3
HETATM    3  N   UNL     1     -13.332   8.987  73.091  1.00  0.00    -0.861 NA 
HETATM    4  H   UNL     1     -13.403   9.490  73.976  1.00  0.00     0.000 HD 
HETATM    5  O   UNL     1     -14.181   8.174  72.721  1.00  0.00    -0.645 OA 
HETATM    6  H   UNL     1     -14.906   8.050  73.322  1.00  0.00     0.000 HD 
ENDBRANCH   2   3
BRANCH   2   7
HETATM    7  C   UNL     1     -11.105   8.407  72.356  1.00  0.00    -0.361 C  
HETATM    8  O   UNL     1     -10.998   7.504  73.187  1.00  0.00    -0.376 OA 
BRANCH   7   9
HETATM    9  N   UNL     1     -10.064   8.746  71.526  1.00  0.00    -0.272 N  
HETATM   10  H   UNL     1     -10.036   9.682  71.122  1.00  0.00     0.000 HD 
BRANCH   9  11
HETATM   11  C   UNL     1      -8.988   7.793  71.207  1.00  0.00    -0.134 C  
HETATM   12  C   UNL     1      -9.416   6.930  70.005  1.00  0.00    -0.158 C  
HETATM   13  O   UNL     1      -9.561   7.720  68.825  1.00  0.00    -0.152 OA 
HETATM   14  O   UNL     1     -10.690   6.357  70.299  1.00  0.00    -0.228 OA 
HETATM   15  H   UNL     1     -10.954   5.825  69.558  1.00  0.00     0.000 HD 
HETATM   16  C   UNL     1      -8.361   8.393  68.409  1.00  0.00    -0.131 C  
HETATM   17  C   UNL     1      -7.765   9.263  69.538  1.00  0.00    -0.084 C  
HETATM   18  H   UNL     1      -5.801   7.955  70.601  1.00  0.00     0.000 HD 
HETATM   19  C   UNL     1      -7.662   8.500  70.872  1.00  0.00    -0.090 C  
HETATM   20  O   UNL     1      -8.584  10.430  69.711  1.00  0.00    -0.360 OA 
HETATM   21  O   UNL     1      -6.620   7.519  70.808  1.00  0.00    -0.042 OA 
HETATM   22  H   UNL     1      -8.217  10.966  70.405  1.00  0.00     0.000 HD 
BRANCH  16  23
HETATM   23  C   UNL     1      -7.356   7.416  67.777  1.00  0.00    -0.092 C  
HETATM   24  O   UNL     1      -6.558   8.049  66.784  1.00  0.00    -0.054 OA 
HETATM   25  H   UNL     1      -5.936   7.445  66.393  1.00  0.00     0.000 HD 
ENDBRANCH  16  23
ENDBRANCH   9  11
ENDBRANCH   7   9
ENDBRANCH   2   7
TORSDOF 5
ENDMDL
MODEL      194
REMARK 921   NORMALIZED FREE ENERGY PREDICTED BY IDOCK:   -3.28 KCAL/MOL
REMARK 922        TOTAL FREE ENERGY PREDICTED BY IDOCK:   -5.06 KCAL/MOL
REMARK 923 INTER-LIGAND FREE ENERGY PREDICTED BY IDOCK:   -4.30 KCAL/MOL
REMARK 924 INTRA-LIGAND FREE ENERGY PREDICTED BY IDOCK:   -0.76 KCAL/MOL
REMARK 927      BINDING AFFINITY PREDICTED BY RF-SCORE:    0.00 PKD
ROOT
HETATM    1  C   UNL     1      -8.053   9.206  71.048  1.00  0.00    -0.134 C  
HETATM    2  N   UNL     1      -9.488   9.276  70.825  1.00  0.00    -0.267 N  
ENDROOT
BRANCH   2   3
HETATM    3  N   UNL     1     -10.394   9.147  71.881  1.00  0.00    -0.283 NA 
HETATM    4  H   UNL     1     -10.288   9.654  72.760  1.00  0.00     0.000 HD 
HETATM    5  O   UNL     1     -11.332   8.375  71.670  1.00  0.00    -0.256 OA 
HETATM    6  H   UNL     1     -11.948   8.287  72.388  1.00  0.00     0.000 HD 
ENDBRANCH   2   3
BRANCH   2   7
HETATM    7  C   UNL     1      -9.947   9.629  69.556  1.00  0.00    -0.209 C  
HETATM    8  O   UNL     1     -10.055  10.799  69.184  1.00  0.00    -0.213 OA 
BRANCH   7   9
HETATM    9  N   UNL     1     -10.303   8.582  68.742  1.00  0.00    -0.217 N  
HETATM   10  H   UNL     1     -10.982   8.741  67.998  1.00  0.00     0.000 HD 
BRANCH   9  11
HETATM   11  C   UNL     1      -9.729   7.237  68.916  1.00  0.00    -0.148 C  
HETATM   12  C   UNL     1     -10.854   6.190  68.812  1.00  0.00    -0.336 C  
HETATM   13  O   UNL     1     -11.428   6.172  67.505  1.00  0.00    -0.028 OA 
HETATM   14  O   UNL     1     -11.885   6.552  69.731  1.00  0.00    -0.628 OA 
HETATM   15  H   UNL     1     -12.579   5.906  69.667  1.00  0.00     0.000 HD 
HETATM   16  C   UNL     1     -10.501   5.848  66.455  1.00  0.00    -0.190 C  
HETATM   17  C   UNL     1      -9.270   6.783  66.462  1.00  0.00    -0.162 C  
HETATM   18  H   UNL     1      -7.315   5.516  67.589  1.00  0.00     0.000 HD 
HETATM   19  C   UNL     1      -8.650   6.921  67.865  1.00  0.00    -0.122 C  
HETATM   20  O   UNL     1      -9.662   8.076  65.975  1.00  0.00    -0.435 OA 
HETATM   21  O   UNL     1      -7.981   5.711  68.239  1.00  0.00    -0.098 OA 
HETATM   22  H   UNL     1      -8.904   8.650  65.979  1.00  0.00     0.000 HD 
BRANCH  16  23
HETATM   23  C   UNL     1     -10.150   4.352  66.453  1.00  0.00    -0.209 C  
HETATM   24  O   UNL     1     -10.196   3.800  65.142  1.00  0.00    -0.367 OA 
HETATM   25  H   UNL     1      -9.979   2.875  65.140  1.00  0.00     0.000 HD 
ENDBRANCH  16  23
ENDBRANCH   9  11
ENDBRANCH   7   9
ENDBRANCH   2   7
TORSDOF 5
ENDMDL
MODEL      195
REMARK 921   NORMALIZED FREE ENERGY PREDICTED BY IDOCK:   -3.27 KCAL/MOL
REMARK 922        TOTAL FREE ENERGY PREDICTED BY IDOCK:   -5.05 KCAL/MOL
REMARK 923 INTER-LIGAND FREE ENERGY PREDICTED BY IDOCK:   -4.45 KCAL/MOL
REMARK 924 INTRA-LIGAND FREE ENERGY PREDICTED BY IDOCK:   -0.59 KCAL/MOL
REMARK 927      BINDING AFFINITY PREDICTED BY RF-SCORE:    0.00 PKD
ROOT
HETATM    1  C   UNL     1     -12.776  10.321  71.203  1.00  0.00    -0.403 C  
HETATM    2  N   UNL     1     -12.820   9.033  71.874  1.00  0.00    -0.358 N  
ENDROOT
BRANCH   2   3
HETATM    3  N   UNL     1     -14.032   8.382  72.118  1.00  0.00    -0.521 NA 
HETATM    4  H   UNL     1     -14.865   8.876  72.439  1.00  0.00     0.000 HD 
HETATM    5  O   UNL     1     -14.020   7.166  71.915  1.00  0.00    -0.517 OA 
HETATM    6  H   UNL     1     -14.844   6.724  72.081  1.00  0.00     0.000 HD 
ENDBRANCH   2   3
BRANCH   2   7
HETATM    7  C   UNL     1     -11.617   8.379  72.138  1.00  0.00    -0.374 C  
HETATM    8  O   UNL     1     -11.202   8.174  73.281  1.00  0.00    -0.180 OA 
BRANCH   7   9
HETATM    9  N   UNL     1     -10.895   7.996  71.034  1.00  0.00    -0.231 N  
HETATM   10  H   UNL     1     -11.139   8.384  70.123  1.00  0.00     0.000 HD 
BRANCH   9  11
HETATM   11  C   UNL     1      -9.779   7.040  71.132  1.00  0.00    -0.172 C  
HETATM   12  C   UNL     1     -10.339   5.606  71.125  1.00  0.00    -0.232 C  
HETATM   13  O   UNL     1     -10.969   5.300  69.881  1.00  0.00    -0.165 OA 
HETATM   14  O   UNL     1     -11.334   5.511  72.146  1.00  0.00    -0.232 OA 
HETATM   15  H   UNL     1     -11.679   4.626  72.142  1.00  0.00     0.000 HD 
HETATM   16  C   UNL     1     -10.098   5.380  68.740  1.00  0.00    -0.185 C  
HETATM   17  C   UNL     1      -9.403   6.756  68.638  1.00  0.00    -0.131 C  
HETATM   18  H   UNL     1      -6.994   6.501  69.551  1.00  0.00     0.000 HD 
HETATM   19  C   UNL     1      -8.775   7.194  69.975  1.00  0.00    -0.141 C  
HETATM   20  O   UNL     1     -10.363   7.735  68.211  1.00  0.00    -0.197 OA 
HETATM   21  O   UNL     1      -7.614   6.406  70.265  1.00  0.00    -0.092 OA 
HETATM   22  H   UNL     1      -9.935   8.581  68.147  1.00  0.00     0.000 HD 
BRANCH  16  23
HETATM   23  C   UNL     1      -9.132   4.185  68.683  1.00  0.00    -0.133 C  
HETATM   24  O   UNL     1      -9.707   3.073  68.006  1.00  0.00    -0.191 OA 
HETATM   25  H   UNL     1      -9.110   2.334  67.971  1.00  0.00     0.000 HD 
ENDBRANCH  16  23
ENDBRANCH   9  11
ENDBRANCH   7   9
ENDBRANCH   2   7
TORSDOF 5
ENDMDL
MODEL      196
REMARK 921   NORMALIZED FREE ENERGY PREDICTED BY IDOCK:   -3.26 KCAL/MOL
REMARK 922        TOTAL FREE ENERGY PREDICTED BY IDOCK:   -5.04 KCAL/MOL
REMARK 923 INTER-LIGAND FREE ENERGY PREDICTED BY IDOCK:   -4.09 KCAL/MOL
REMARK 924 INTRA-LIGAND FREE ENERGY PREDICTED BY IDOCK:   -0.95 KCAL/MOL
REMARK 927      BINDING AFFINITY PREDICTED BY RF-SCORE:    0.00 PKD
ROOT
HETATM    1  C   UNL     1     -12.909  10.525  70.823  1.00  0.00    -0.367 C  
HETATM    2  N   UNL     1     -11.709  10.741  70.032  1.00  0.00    -0.305 N  
ENDROOT
BRANCH   2   3
HETATM    3  N   UNL     1     -11.120  12.004  69.937  1.00  0.00    -0.461 NA 
HETATM    4  H   UNL     1     -10.331  12.286  70.519  1.00  0.00     0.000 HD 
HETATM    5  O   UNL     1     -11.625  12.752  69.098  1.00  0.00    -0.282 OA 
HETATM    6  H   UNL     1     -11.224  13.611  69.033  1.00  0.00     0.000 HD 
ENDBRANCH   2   3
BRANCH   2   7
HETATM    7  C   UNL     1     -11.063   9.631  69.488  1.00  0.00    -0.168 C  
HETATM    8  O   UNL     1     -11.117   8.509  69.994  1.00  0.00    -0.236 OA 
BRANCH   7   9
HETATM    9  N   UNL     1     -10.328   9.871  68.352  1.00  0.00    -0.188 N  
HETATM   10  H   UNL     1     -10.649  10.583  67.695  1.00  0.00     0.000 HD 
BRANCH   9  11
HETATM   11  C   UNL     1      -9.090   9.129  68.059  1.00  0.00    -0.131 C  
HETATM   12  C   UNL     1      -8.695   9.363  66.590  1.00  0.00    -0.131 C  
HETATM   13  O   UNL     1      -8.361  10.731  66.353  1.00  0.00    -0.142 OA 
HETATM   14  O   UNL     1      -9.822   9.047  65.770  1.00  0.00    -0.426 OA 
HETATM   15  H   UNL     1      -9.578   9.192  64.863  1.00  0.00     0.000 HD 
HETATM   16  C   UNL     1      -7.254  11.214  67.132  1.00  0.00    -0.120 C  
HETATM   17  C   UNL     1      -7.471  10.994  68.646  1.00  0.00    -0.112 C  
HETATM   18  H   UNL     1      -6.118   8.903  69.349  1.00  0.00     0.000 HD 
HETATM   19  C   UNL     1      -7.924   9.557  68.968  1.00  0.00    -0.092 C  
HETATM   20  O   UNL     1      -8.455  11.928  69.118  1.00  0.00    -0.353 OA 
HETATM   21  O   UNL     1      -6.839   8.638  68.789  1.00  0.00    -0.060 OA 
HETATM   22  H   UNL     1      -8.588  11.793  70.049  1.00  0.00     0.000 HD 
BRANCH  16  23
HETATM   23  C   UNL     1      -5.915  10.670  66.607  1.00  0.00    -0.079 C  
HETATM   24  O   UNL     1      -5.640  11.128  65.288  1.00  0.00    -0.438 OA 
HETATM   25  H   UNL     1      -4.812  10.792  64.963  1.00  0.00     0.000 HD 
ENDBRANCH  16  23
ENDBRANCH   9  11
ENDBRANCH   7   9
ENDBRANCH   2   7
TORSDOF 5
ENDMDL
MODEL      197
REMARK 921   NORMALIZED FREE ENERGY PREDICTED BY IDOCK:   -3.24 KCAL/MOL
REMARK 922        TOTAL FREE ENERGY PREDICTED BY IDOCK:   -5.01 KCAL/MOL
REMARK 923 INTER-LIGAND FREE ENERGY PREDICTED BY IDOCK:   -4.33 KCAL/MOL
REMARK 924 INTRA-LIGAND FREE ENERGY PREDICTED BY IDOCK:   -0.68 KCAL/MOL
REMARK 927      BINDING AFFINITY PREDICTED BY RF-SCORE:    0.00 PKD
ROOT
HETATM    1  C   UNL     1      -9.748  10.596  67.116  1.00  0.00    -0.171 C  
HETATM    2  N   UNL     1     -10.208  11.972  67.030  1.00  0.00    -0.203 N  
ENDROOT
BRANCH   2   3
HETATM    3  N   UNL     1     -11.542  12.276  66.750  1.00  0.00    -0.444 NA 
HETATM    4  H   UNL     1     -11.862  12.532  65.816  1.00  0.00     0.000 HD 
HETATM    5  O   UNL     1     -12.304  12.211  67.717  1.00  0.00    -0.313 OA 
HETATM    6  H   UNL     1     -13.212  12.418  67.526  1.00  0.00     0.000 HD 
ENDBRANCH   2   3
BRANCH   2   7
HETATM    7  C   UNL     1      -9.323  12.991  67.382  1.00  0.00    -0.209 C  
HETATM    8  O   UNL     1      -8.100  12.882  67.282  1.00  0.00    -0.176 OA 
BRANCH   7   9
HETATM    9  N   UNL     1      -9.902  14.133  67.880  1.00  0.00    -0.219 N  
HETATM   10  H   UNL     1     -10.302  14.117  68.819  1.00  0.00     0.000 HD 
BRANCH   9  11
HETATM   11  C   UNL     1      -9.960  15.378  67.096  1.00  0.00    -0.234 C  
HETATM   12  C   UNL     1     -10.889  16.381  67.806  1.00  0.00    -0.306 C  
HETATM   13  O   UNL     1     -10.358  16.774  69.071  1.00  0.00    -0.287 OA 
HETATM   14  O   UNL     1     -12.140  15.735  68.046  1.00  0.00    -0.269 OA 
HETATM   15  H   UNL     1     -12.713  16.354  68.484  1.00  0.00     0.000 HD 
HETATM   16  C   UNL     1      -9.075  17.420  69.000  1.00  0.00    -0.075 C  
HETATM   17  C   UNL     1      -8.033  16.556  68.253  1.00  0.00    -0.177 C  
HETATM   18  H   UNL     1      -7.819  17.474  65.843  1.00  0.00     0.000 HD 
HETATM   19  C   UNL     1      -8.573  16.019  66.914  1.00  0.00    -0.231 C  
HETATM   20  O   UNL     1      -7.646  15.459  69.095  1.00  0.00    -0.163 OA 
HETATM   21  O   UNL     1      -8.676  17.078  65.955  1.00  0.00    -0.524 OA 
HETATM   22  H   UNL     1      -7.005  14.928  68.636  1.00  0.00     0.000 HD 
BRANCH  16  23
HETATM   23  C   UNL     1      -9.194  18.857  68.466  1.00  0.00    -0.361 C  
HETATM   24  O   UNL     1      -8.866  19.819  69.462  1.00  0.00     0.031 OA 
HETATM   25  H   UNL     1      -8.939  20.707  69.133  1.00  0.00     0.000 HD 
ENDBRANCH  16  23
ENDBRANCH   9  11
ENDBRANCH   7   9
ENDBRANCH   2   7
TORSDOF 5
ENDMDL
MODEL      198
REMARK 921   NORMALIZED FREE ENERGY PREDICTED BY IDOCK:   -3.21 KCAL/MOL
REMARK 922        TOTAL FREE ENERGY PREDICTED BY IDOCK:   -4.97 KCAL/MOL
REMARK 923 INTER-LIGAND FREE ENERGY PREDICTED BY IDOCK:   -4.16 KCAL/MOL
REMARK 924 INTRA-LIGAND FREE ENERGY PREDICTED BY IDOCK:   -0.81 KCAL/MOL
REMARK 927      BINDING AFFINITY PREDICTED BY RF-SCORE:    0.00 PKD
ROOT
HETATM    1  C   UNL     1      -5.883   6.497  72.368  1.00  0.00    -0.038 C  
HETATM    2  N   UNL     1      -6.728   7.201  71.418  1.00  0.00    -0.051 N  
ENDROOT
BRANCH   2   3
HETATM    3  N   UNL     1      -6.452   8.516  71.036  1.00  0.00    -0.041 NA 
HETATM    4  H   UNL     1      -6.372   8.798  70.059  1.00  0.00     0.000 HD 
HETATM    5  O   UNL     1      -6.313   9.311  71.968  1.00  0.00    -0.260 OA 
HETATM    6  H   UNL     1      -6.125  10.205  71.708  1.00  0.00     0.000 HD 
ENDBRANCH   2   3
BRANCH   2   7
HETATM    7  C   UNL     1      -7.741   6.490  70.774  1.00  0.00    -0.101 C  
HETATM    8  O   UNL     1      -7.537   5.439  70.164  1.00  0.00    -0.069 OA 
BRANCH   7   9
HETATM    9  N   UNL     1      -8.992   7.052  70.837  1.00  0.00    -0.151 N  
HETATM   10  H   UNL     1      -9.318   7.627  70.059  1.00  0.00     0.000 HD 
BRANCH   9  11
HETATM   11  C   UNL     1      -9.876   6.846  71.996  1.00  0.00    -0.162 C  
HETATM   12  C   UNL     1     -10.195   8.209  72.638  1.00  0.00    -0.318 C  
HETATM   13  O   UNL     1     -10.948   9.037  71.752  1.00  0.00    -0.335 OA 
HETATM   14  O   UNL     1      -8.960   8.875  72.905  1.00  0.00    -0.264 OA 
HETATM   15  H   UNL     1      -9.156   9.716  73.300  1.00  0.00     0.000 HD 
HETATM   16  C   UNL     1     -12.218   8.488  71.363  1.00  0.00    -0.304 C  
HETATM   17  C   UNL     1     -12.074   7.077  70.748  1.00  0.00    -0.327 C  
HETATM   18  H   UNL     1     -12.700   5.348  72.569  1.00  0.00     0.000 HD 
HETATM   19  C   UNL     1     -11.195   6.152  71.610  1.00  0.00    -0.286 C  
HETATM   20  O   UNL     1     -11.509   7.195  69.433  1.00  0.00    -0.495 OA 
HETATM   21  O   UNL     1     -11.886   5.776  72.807  1.00  0.00    -0.237 OA 
HETATM   22  H   UNL     1     -11.421   6.327  69.055  1.00  0.00     0.000 HD 
BRANCH  16  23
HETATM   23  C   UNL     1     -13.243   8.570  72.505  1.00  0.00    -0.223 C  
HETATM   24  O   UNL     1     -14.140   9.661  72.332  1.00  0.00    -0.496 OA 
HETATM   25  H   UNL     1     -14.774   9.713  73.038  1.00  0.00     0.000 HD 
ENDBRANCH  16  23
ENDBRANCH   9  11
ENDBRANCH   7   9
ENDBRANCH   2   7
TORSDOF 5
ENDMDL
MODEL      199
REMARK 921   NORMALIZED FREE ENERGY PREDICTED BY IDOCK:   -3.20 KCAL/MOL
REMARK 922        TOTAL FREE ENERGY PREDICTED BY IDOCK:   -4.96 KCAL/MOL
REMARK 923 INTER-LIGAND FREE ENERGY PREDICTED BY IDOCK:   -4.14 KCAL/MOL
REMARK 924 INTRA-LIGAND FREE ENERGY PREDICTED BY IDOCK:   -0.82 KCAL/MOL
REMARK 927      BINDING AFFINITY PREDICTED BY RF-SCORE:    0.00 PKD
ROOT
HETATM    1  C   UNL     1      -6.186  19.381  65.915  1.00  0.00    -0.192 C  
HETATM    2  N   UNL     1      -7.036  18.697  66.876  1.00  0.00    -0.200 N  
ENDROOT
BRANCH   2   3
HETATM    3  N   UNL     1      -7.772  19.407  67.829  1.00  0.00    -0.270 NA 
HETATM    4  H   UNL     1      -8.202  20.310  67.628  1.00  0.00     0.000 HD 
HETATM    5  O   UNL     1      -7.861  18.860  68.930  1.00  0.00    -0.329 OA 
HETATM    6  H   UNL     1      -8.361  19.343  69.577  1.00  0.00     0.000 HD 
ENDBRANCH   2   3
BRANCH   2   7
HETATM    7  C   UNL     1      -7.228  17.323  66.735  1.00  0.00    -0.214 C  
HETATM    8  O   UNL     1      -6.313  16.544  66.461  1.00  0.00    -0.278 OA 
BRANCH   7   9
HETATM    9  N   UNL     1      -8.519  16.885  66.895  1.00  0.00    -0.199 N  
HETATM   10  H   UNL     1      -9.289  17.506  66.646  1.00  0.00     0.000 HD 
BRANCH   9  11
HETATM   11  C   UNL     1      -8.822  15.541  67.417  1.00  0.00    -0.190 C  
HETATM   12  C   UNL     1      -8.813  15.582  68.956  1.00  0.00    -0.242 C  
HETATM   13  O   UNL     1      -9.861  16.409  69.460  1.00  0.00    -0.216 OA 
HETATM   14  O   UNL     1      -7.573  16.151  69.379  1.00  0.00    -0.234 OA 
HETATM   15  H   UNL     1      -7.567  16.176  70.329  1.00  0.00     0.000 HD 
HETATM   16  C   UNL     1     -11.183  15.981  69.093  1.00  0.00    -0.342 C  
HETATM   17  C   UNL     1     -11.339  15.831  67.563  1.00  0.00    -0.150 C  
HETATM   18  H   UNL     1     -11.147  13.316  66.986  1.00  0.00     0.000 HD 
HETATM   19  C   UNL     1     -10.188  15.021  66.935  1.00  0.00    -0.258 C  
HETATM   20  O   UNL     1     -11.392  17.137  66.968  1.00  0.00     0.286 OA 
HETATM   21  O   UNL     1     -10.304  13.636  67.282  1.00  0.00    -0.247 OA 
HETATM   22  H   UNL     1     -11.489  17.045  66.027  1.00  0.00     0.000 HD 
BRANCH  16  23
HETATM   23  C   UNL     1     -11.616  14.740  69.890  1.00  0.00    -0.286 C  
HETATM   24  O   UNL     1     -13.020  14.724  70.122  1.00  0.00    -0.576 OA 
HETATM   25  H   UNL     1     -13.288  13.957  70.614  1.00  0.00     0.000 HD 
ENDBRANCH  16  23
ENDBRANCH   9  11
ENDBRANCH   7   9
ENDBRANCH   2   7
TORSDOF 5
ENDMDL
MODEL      200
REMARK 921   NORMALIZED FREE ENERGY PREDICTED BY IDOCK:   -3.20 KCAL/MOL
REMARK 922        TOTAL FREE ENERGY PREDICTED BY IDOCK:   -4.96 KCAL/MOL
REMARK 923 INTER-LIGAND FREE ENERGY PREDICTED BY IDOCK:   -3.44 KCAL/MOL
REMARK 924 INTRA-LIGAND FREE ENERGY PREDICTED BY IDOCK:   -1.52 KCAL/MOL
REMARK 927      BINDING AFFINITY PREDICTED BY RF-SCORE:    0.00 PKD
ROOT
HETATM    1  C   UNL     1      -5.936   6.245  66.928  1.00  0.00    -0.024 C  
HETATM    2  N   UNL     1      -7.131   6.877  67.461  1.00  0.00    -0.082 N  
ENDROOT
BRANCH   2   3
HETATM    3  N   UNL     1      -8.334   6.176  67.575  1.00  0.00    -0.109 NA 
HETATM    4  H   UNL     1      -8.524   5.323  67.047  1.00  0.00     0.000 HD 
HETATM    5  O   UNL     1      -9.149   6.664  68.360  1.00  0.00    -0.126 OA 
HETATM    6  H   UNL     1      -9.967   6.187  68.437  1.00  0.00     0.000 HD 
ENDBRANCH   2   3
BRANCH   2   7
HETATM    7  C   UNL     1      -7.022   8.158  68.001  1.00  0.00    -0.077 C  
HETATM    8  O   UNL     1      -6.588   8.372  69.135  1.00  0.00    -0.045 OA 
BRANCH   7   9
HETATM    9  N   UNL     1      -7.457   9.181  67.195  1.00  0.00    -0.087 N  
HETATM   10  H   UNL     1      -7.336   9.103  66.185  1.00  0.00     0.000 HD 
BRANCH   9  11
HETATM   11  C   UNL     1      -8.095  10.387  67.751  1.00  0.00    -0.103 C  
HETATM   12  C   UNL     1      -8.062  11.509  66.697  1.00  0.00    -0.139 C  
HETATM   13  O   UNL     1      -8.853  11.174  65.557  1.00  0.00    -0.195 OA 
HETATM   14  O   UNL     1      -6.713  11.664  66.255  1.00  0.00    -0.367 OA 
HETATM   15  H   UNL     1      -6.692  12.356  65.604  1.00  0.00     0.000 HD 
HETATM   16  C   UNL     1     -10.244  10.956  65.844  1.00  0.00    -0.257 C  
HETATM   17  C   UNL     1     -10.448   9.886  66.941  1.00  0.00    -0.215 C  
HETATM   18  H   UNL     1     -10.926  11.113  69.169  1.00  0.00     0.000 HD 
HETATM   19  C   UNL     1      -9.555  10.134  68.171  1.00  0.00    -0.139 C  
HETATM   20  O   UNL     1     -10.164   8.591  66.390  1.00  0.00    -0.371 OA 
HETATM   21  O   UNL     1     -10.025  11.268  68.910  1.00  0.00    -0.203 OA 
HETATM   22  H   UNL     1     -10.290   7.933  67.064  1.00  0.00     0.000 HD 
BRANCH  16  23
HETATM   23  C   UNL     1     -10.979  12.278  66.116  1.00  0.00    -0.293 C  
HETATM   24  O   UNL     1     -12.161  12.078  66.883  1.00  0.00    -0.608 OA 
HETATM   25  H   UNL     1     -12.615  12.895  67.051  1.00  0.00     0.000 HD 
ENDBRANCH  16  23
ENDBRANCH   9  11
ENDBRANCH   7   9
ENDBRANCH   2   7
TORSDOF 5
ENDMDL
MODEL      201
REMARK 921   NORMALIZED FREE ENERGY PREDICTED BY IDOCK:   -3.15 KCAL/MOL
REMARK 922        TOTAL FREE ENERGY PREDICTED BY IDOCK:   -4.90 KCAL/MOL
REMARK 923 INTER-LIGAND FREE ENERGY PREDICTED BY IDOCK:   -4.56 KCAL/MOL
REMARK 924 INTRA-LIGAND FREE ENERGY PREDICTED BY IDOCK:   -0.34 KCAL/MOL
REMARK 927      BINDING AFFINITY PREDICTED BY RF-SCORE:    0.00 PKD
ROOT
HETATM    1  C   UNL     1      -8.303   9.964  68.528  1.00  0.00    -0.108 C  
HETATM    2  N   UNL     1      -8.784   9.823  67.164  1.00  0.00    -0.132 N  
ENDROOT
BRANCH   2   3
HETATM    3  N   UNL     1      -8.298   8.818  66.324  1.00  0.00    -0.114 NA 
HETATM    4  H   UNL     1      -7.383   8.387  66.456  1.00  0.00     0.000 HD 
HETATM    5  O   UNL     1      -9.058   8.490  65.411  1.00  0.00    -0.366 OA 
HETATM    6  H   UNL     1      -8.728   7.807  64.839  1.00  0.00     0.000 HD 
ENDBRANCH   2   3
BRANCH   2   7
HETATM    7  C   UNL     1      -9.854  10.615  66.750  1.00  0.00    -0.198 C  
HETATM    8  O   UNL     1     -10.866  10.152  66.221  1.00  0.00    -0.044 OA 
BRANCH   7   9
HETATM    9  N   UNL     1      -9.701  11.966  66.944  1.00  0.00    -0.198 N  
HETATM   10  H   UNL     1      -9.362  12.543  66.174  1.00  0.00     0.000 HD 
BRANCH   9  11
HETATM   11  C   UNL     1     -10.014  12.604  68.234  1.00  0.00    -0.229 C  
HETATM   12  C   UNL     1      -9.272  13.949  68.327  1.00  0.00    -0.207 C  
HETATM   13  O   UNL     1      -9.742  14.871  67.345  1.00  0.00    -0.214 OA 
HETATM   14  O   UNL     1      -7.887  13.713  68.067  1.00  0.00    -0.123 OA 
HETATM   15  H   UNL     1      -7.429  14.543  68.125  1.00  0.00     0.000 HD 
HETATM   16  C   UNL     1     -11.139  15.193  67.455  1.00  0.00    -0.325 C  
HETATM   17  C   UNL     1     -12.027  13.929  67.438  1.00  0.00    -0.401 C  
HETATM   18  H   UNL     1     -12.700  13.396  69.880  1.00  0.00     0.000 HD 
HETATM   19  C   UNL     1     -11.523  12.849  68.414  1.00  0.00    -0.312 C  
HETATM   20  O   UNL     1     -12.061  13.398  66.104  1.00  0.00    -0.399 OA 
HETATM   21  O   UNL     1     -11.768  13.244  69.769  1.00  0.00    -0.298 OA 
HETATM   22  H   UNL     1     -12.608  12.621  66.094  1.00  0.00     0.000 HD 
BRANCH  16  23
HETATM   23  C   UNL     1     -11.410  16.133  68.641  1.00  0.00    -0.365 C  
HETATM   24  O   UNL     1     -12.616  15.794  69.318  1.00  0.00    -0.526 OA 
HETATM   25  H   UNL     1     -12.784  16.375  70.051  1.00  0.00     0.000 HD 
ENDBRANCH  16  23
ENDBRANCH   9  11
ENDBRANCH   7   9
ENDBRANCH   2   7
TORSDOF 5
ENDMDL
MODEL      202
REMARK 921   NORMALIZED FREE ENERGY PREDICTED BY IDOCK:   -3.15 KCAL/MOL
REMARK 922        TOTAL FREE ENERGY PREDICTED BY IDOCK:   -4.89 KCAL/MOL
REMARK 923 INTER-LIGAND FREE ENERGY PREDICTED BY IDOCK:   -3.59 KCAL/MOL
REMARK 924 INTRA-LIGAND FREE ENERGY PREDICTED BY IDOCK:   -1.29 KCAL/MOL
REMARK 927      BINDING AFFINITY PREDICTED BY RF-SCORE:    0.00 PKD
ROOT
HETATM    1  C   UNL     1      -6.991   3.388  68.524  1.00  0.00    -0.050 C  
HETATM    2  N   UNL     1      -8.261   4.095  68.526  1.00  0.00    -0.082 N  
ENDROOT
BRANCH   2   3
HETATM    3  N   UNL     1      -8.821   4.587  67.344  1.00  0.00    -0.104 NA 
HETATM    4  H   UNL     1      -8.252   4.869  66.545  1.00  0.00     0.000 HD 
HETATM    5  O   UNL     1     -10.051   4.653  67.338  1.00  0.00    -0.164 OA 
HETATM    6  H   UNL     1     -10.431   4.988  66.534  1.00  0.00     0.000 HD 
ENDBRANCH   2   3
BRANCH   2   7
HETATM    7  C   UNL     1      -8.993   4.145  69.712  1.00  0.00    -0.096 C  
HETATM    8  O   UNL     1      -9.645   3.189  70.138  1.00  0.00    -0.169 OA 
BRANCH   7   9
HETATM    9  N   UNL     1      -8.968   5.347  70.375  1.00  0.00    -0.131 N  
HETATM   10  H   UNL     1      -8.099   5.882  70.399  1.00  0.00     0.000 HD 
BRANCH   9  11
HETATM   11  C   UNL     1     -10.161   5.885  71.050  1.00  0.00    -0.211 C  
HETATM   12  C   UNL     1      -9.734   7.002  72.020  1.00  0.00    -0.155 C  
HETATM   13  O   UNL     1      -9.183   8.116  71.318  1.00  0.00    -0.143 OA 
HETATM   14  O   UNL     1      -8.713   6.483  72.874  1.00  0.00    -0.124 OA 
HETATM   15  H   UNL     1      -8.450   7.173  73.473  1.00  0.00     0.000 HD 
HETATM   16  C   UNL     1     -10.087   8.737  70.389  1.00  0.00    -0.192 C  
HETATM   17  C   UNL     1     -10.658   7.723  69.372  1.00  0.00    -0.208 C  
HETATM   18  H   UNL     1     -13.042   7.079  70.145  1.00  0.00     0.000 HD 
HETATM   19  C   UNL     1     -11.191   6.449  70.055  1.00  0.00    -0.411 C  
HETATM   20  O   UNL     1      -9.631   7.374  68.431  1.00  0.00    -0.146 OA 
HETATM   21  O   UNL     1     -12.407   6.730  70.759  1.00  0.00    -0.377 OA 
HETATM   22  H   UNL     1      -9.982   6.751  67.806  1.00  0.00     0.000 HD 
BRANCH  16  23
HETATM   23  C   UNL     1     -11.158   9.568  71.113  1.00  0.00    -0.379 C  
HETATM   24  O   UNL     1     -11.263  10.880  70.572  1.00  0.00    -0.449 OA 
HETATM   25  H   UNL     1     -11.926  11.395  71.019  1.00  0.00     0.000 HD 
ENDBRANCH  16  23
ENDBRANCH   9  11
ENDBRANCH   7   9
ENDBRANCH   2   7
TORSDOF 5
ENDMDL
MODEL      203
REMARK 921   NORMALIZED FREE ENERGY PREDICTED BY IDOCK:   -3.14 KCAL/MOL
REMARK 922        TOTAL FREE ENERGY PREDICTED BY IDOCK:   -4.88 KCAL/MOL
REMARK 923 INTER-LIGAND FREE ENERGY PREDICTED BY IDOCK:   -4.70 KCAL/MOL
REMARK 924 INTRA-LIGAND FREE ENERGY PREDICTED BY IDOCK:   -0.17 KCAL/MOL
REMARK 927      BINDING AFFINITY PREDICTED BY RF-SCORE:    0.00 PKD
ROOT
HETATM    1  C   UNL     1      -8.251  11.050  68.470  1.00  0.00    -0.146 C  
HETATM    2  N   UNL     1      -9.454  10.889  67.671  1.00  0.00    -0.158 N  
ENDROOT
BRANCH   2   3
HETATM    3  N   UNL     1      -9.781  11.797  66.661  1.00  0.00    -0.198 NA 
HETATM    4  H   UNL     1     -10.598  12.406  66.715  1.00  0.00     0.000 HD 
HETATM    5  O   UNL     1      -9.010  11.807  65.700  1.00  0.00    -0.390 OA 
HETATM    6  H   UNL     1      -9.233  12.425  65.013  1.00  0.00     0.000 HD 
ENDBRANCH   2   3
BRANCH   2   7
HETATM    7  C   UNL     1     -10.204   9.723  67.825  1.00  0.00    -0.208 C  
HETATM    8  O   UNL     1     -10.990   9.314  66.968  1.00  0.00    -0.106 OA 
BRANCH   7   9
HETATM    9  N   UNL     1     -10.034   9.062  69.017  1.00  0.00    -0.180 N  
HETATM   10  H   UNL     1      -9.092   8.797  69.307  1.00  0.00     0.000 HD 
BRANCH   9  11
HETATM   11  C   UNL     1     -11.175   8.726  69.885  1.00  0.00    -0.051 C  
HETATM   12  C   UNL     1     -11.286   7.195  70.005  1.00  0.00    -0.238 C  
HETATM   13  O   UNL     1     -10.150   6.642  70.669  1.00  0.00    -0.183 OA 
HETATM   14  O   UNL     1     -11.323   6.647  68.686  1.00  0.00    -0.545 OA 
HETATM   15  H   UNL     1     -11.391   5.702  68.760  1.00  0.00     0.000 HD 
HETATM   16  C   UNL     1      -9.957   7.120  72.011  1.00  0.00    -0.162 C  
HETATM   17  C   UNL     1      -9.884   8.663  72.070  1.00  0.00    -0.325 C  
HETATM   18  H   UNL     1     -12.187   9.538  72.862  1.00  0.00     0.000 HD 
HETATM   19  C   UNL     1     -11.034   9.332  71.294  1.00  0.00    -0.351 C  
HETATM   20  O   UNL     1      -8.624   9.093  71.534  1.00  0.00    -0.339 OA 
HETATM   21  O   UNL     1     -12.274   9.165  71.993  1.00  0.00    -0.367 OA 
HETATM   22  H   UNL     1      -8.579  10.041  71.571  1.00  0.00     0.000 HD 
BRANCH  16  23
HETATM   23  C   UNL     1     -10.977   6.504  72.983  1.00  0.00    -0.239 C  
HETATM   24  O   UNL     1     -12.207   6.201  72.335  1.00  0.00    -0.516 OA 
HETATM   25  H   UNL     1     -12.837   5.820  72.935  1.00  0.00     0.000 HD 
ENDBRANCH  16  23
ENDBRANCH   9  11
ENDBRANCH   7   9
ENDBRANCH   2   7
TORSDOF 5
ENDMDL
MODEL      204
REMARK 921   NORMALIZED FREE ENERGY PREDICTED BY IDOCK:   -3.12 KCAL/MOL
REMARK 922        TOTAL FREE ENERGY PREDICTED BY IDOCK:   -4.86 KCAL/MOL
REMARK 923 INTER-LIGAND FREE ENERGY PREDICTED BY IDOCK:   -4.08 KCAL/MOL
REMARK 924 INTRA-LIGAND FREE ENERGY PREDICTED BY IDOCK:   -0.78 KCAL/MOL
REMARK 927      BINDING AFFINITY PREDICTED BY RF-SCORE:    0.00 PKD
ROOT
HETATM    1  C   UNL     1      -8.411   6.191  71.142  1.00  0.00    -0.124 C  
HETATM    2  N   UNL     1      -9.757   6.733  71.075  1.00  0.00    -0.175 N  
ENDROOT
BRANCH   2   3
HETATM    3  N   UNL     1     -10.855   6.012  71.551  1.00  0.00    -0.257 NA 
HETATM    4  H   UNL     1     -10.791   5.380  72.349  1.00  0.00     0.000 HD 
HETATM    5  O   UNL     1     -11.907   6.197  70.935  1.00  0.00    -0.232 OA 
HETATM    6  H   UNL     1     -12.653   5.707  71.259  1.00  0.00     0.000 HD 
ENDBRANCH   2   3
BRANCH   2   7
HETATM    7  C   UNL     1      -9.922   8.056  70.664  1.00  0.00    -0.189 C  
HETATM    8  O   UNL     1      -9.817   9.014  71.431  1.00  0.00    -0.278 OA 
BRANCH   7   9
HETATM    9  N   UNL     1     -10.240   8.229  69.339  1.00  0.00    -0.200 N  
HETATM   10  H   UNL     1     -11.215   8.377  69.078  1.00  0.00     0.000 HD 
BRANCH   9  11
HETATM   11  C   UNL     1      -9.210   8.208  68.286  1.00  0.00    -0.134 C  
HETATM   12  C   UNL     1      -9.885   8.389  66.914  1.00  0.00    -0.245 C  
HETATM   13  O   UNL     1     -10.493   9.676  66.800  1.00  0.00    -0.230 OA 
HETATM   14  O   UNL     1     -10.920   7.412  66.795  1.00  0.00    -0.509 OA 
HETATM   15  H   UNL     1     -11.337   7.524  65.948  1.00  0.00     0.000 HD 
HETATM   16  C   UNL     1      -9.578  10.777  66.928  1.00  0.00    -0.171 C  
HETATM   17  C   UNL     1      -8.769  10.708  68.242  1.00  0.00    -0.135 C  
HETATM   18  H   UNL     1      -6.424   9.766  67.685  1.00  0.00     0.000 HD 
HETATM   19  C   UNL     1      -8.156   9.314  68.478  1.00  0.00    -0.106 C  
HETATM   20  O   UNL     1      -9.630  11.049  69.340  1.00  0.00    -0.417 OA 
HETATM   21  O   UNL     1      -7.075   9.083  67.567  1.00  0.00    -0.075 OA 
HETATM   22  H   UNL     1      -9.132  11.007  70.148  1.00  0.00     0.000 HD 
BRANCH  16  23
HETATM   23  C   UNL     1      -8.712  10.941  65.668  1.00  0.00    -0.183 C  
HETATM   24  O   UNL     1      -9.350  11.756  64.691  1.00  0.00    -0.421 OA 
HETATM   25  H   UNL     1      -8.814  11.857  63.912  1.00  0.00     0.000 HD 
ENDBRANCH  16  23
ENDBRANCH   9  11
ENDBRANCH   7   9
ENDBRANCH   2   7
TORSDOF 5
ENDMDL
MODEL      205
REMARK 921   NORMALIZED FREE ENERGY PREDICTED BY IDOCK:   -3.11 KCAL/MOL
REMARK 922        TOTAL FREE ENERGY PREDICTED BY IDOCK:   -4.85 KCAL/MOL
REMARK 923 INTER-LIGAND FREE ENERGY PREDICTED BY IDOCK:   -3.65 KCAL/MOL
REMARK 924 INTRA-LIGAND FREE ENERGY PREDICTED BY IDOCK:   -1.20 KCAL/MOL
REMARK 927      BINDING AFFINITY PREDICTED BY RF-SCORE:    0.00 PKD
ROOT
HETATM    1  C   UNL     1      -9.610   4.435  65.326  1.00  0.00    -0.182 C  
HETATM    2  N   UNL     1      -9.537   5.462  66.352  1.00  0.00    -0.152 N  
ENDROOT
BRANCH   2   3
HETATM    3  N   UNL     1      -9.961   5.214  67.660  1.00  0.00    -0.161 NA 
HETATM    4  H   UNL     1      -9.348   4.808  68.367  1.00  0.00     0.000 HD 
HETATM    5  O   UNL     1     -11.131   5.521  67.895  1.00  0.00    -0.086 OA 
HETATM    6  H   UNL     1     -11.419   5.351  68.784  1.00  0.00     0.000 HD 
ENDBRANCH   2   3
BRANCH   2   7
HETATM    7  C   UNL     1      -8.893   6.661  66.048  1.00  0.00    -0.139 C  
HETATM    8  O   UNL     1      -7.709   6.719  65.709  1.00  0.00    -0.087 OA 
BRANCH   7   9
HETATM    9  N   UNL     1      -9.658   7.794  66.177  1.00  0.00    -0.426 N  
HETATM   10  H   UNL     1     -10.670   7.725  66.069  1.00  0.00     0.000 HD 
BRANCH   9  11
HETATM   11  C   UNL     1      -9.055   9.107  66.468  1.00  0.00    -0.156 C  
HETATM   12  C   UNL     1      -9.948  10.215  65.880  1.00  0.00    -0.267 C  
HETATM   13  O   UNL     1     -11.222  10.252  66.521  1.00  0.00     0.082 OA 
HETATM   14  O   UNL     1     -10.169   9.922  64.499  1.00  0.00    -0.378 OA 
HETATM   15  H   UNL     1     -10.719  10.606  64.136  1.00  0.00     0.000 HD 
HETATM   16  C   UNL     1     -11.167  10.511  67.934  1.00  0.00    -0.289 C  
HETATM   17  C   UNL     1     -10.251   9.508  68.671  1.00  0.00    -0.195 C  
HETATM   18  H   UNL     1      -7.980  10.672  69.103  1.00  0.00     0.000 HD 
HETATM   19  C   UNL     1      -8.884   9.348  67.979  1.00  0.00    -0.124 C  
HETATM   20  O   UNL     1     -10.911   8.234  68.739  1.00  0.00    -0.415 OA 
HETATM   21  O   UNL     1      -8.086  10.523  68.170  1.00  0.00    -0.108 OA 
HETATM   22  H   UNL     1     -10.348   7.618  69.192  1.00  0.00     0.000 HD 
BRANCH  16  23
HETATM   23  C   UNL     1     -10.842  11.985  68.226  1.00  0.00    -0.229 C  
HETATM   24  O   UNL     1     -10.399  12.173  69.565  1.00  0.00    -0.335 OA 
HETATM   25  H   UNL     1     -10.198  13.084  69.745  1.00  0.00     0.000 HD 
ENDBRANCH  16  23
ENDBRANCH   9  11
ENDBRANCH   7   9
ENDBRANCH   2   7
TORSDOF 5
ENDMDL
MODEL      206
REMARK 921   NORMALIZED FREE ENERGY PREDICTED BY IDOCK:   -3.11 KCAL/MOL
REMARK 922        TOTAL FREE ENERGY PREDICTED BY IDOCK:   -4.84 KCAL/MOL
REMARK 923 INTER-LIGAND FREE ENERGY PREDICTED BY IDOCK:   -4.53 KCAL/MOL
REMARK 924 INTRA-LIGAND FREE ENERGY PREDICTED BY IDOCK:   -0.31 KCAL/MOL
REMARK 927      BINDING AFFINITY PREDICTED BY RF-SCORE:    0.00 PKD
ROOT
HETATM    1  C   UNL     1      -9.227  15.379  68.584  1.00  0.00    -0.199 C  
HETATM    2  N   UNL     1     -10.498  14.698  68.768  1.00  0.00    -0.241 N  
ENDROOT
BRANCH   2   3
HETATM    3  N   UNL     1     -11.243  14.854  69.939  1.00  0.00    -0.268 NA 
HETATM    4  H   UNL     1     -11.905  14.150  70.266  1.00  0.00     0.000 HD 
HETATM    5  O   UNL     1     -11.042  15.907  70.547  1.00  0.00    -0.329 OA 
HETATM    6  H   UNL     1     -11.550  16.014  71.343  1.00  0.00     0.000 HD 
ENDBRANCH   2   3
BRANCH   2   7
HETATM    7  C   UNL     1     -11.040  14.000  67.689  1.00  0.00    -0.282 C  
HETATM    8  O   UNL     1     -12.183  14.194  67.270  1.00  0.00    -0.402 OA 
BRANCH   7   9
HETATM    9  N   UNL     1     -10.223  13.049  67.127  1.00  0.00    -0.241 N  
HETATM   10  H   UNL     1      -9.915  13.167  66.162  1.00  0.00     0.000 HD 
BRANCH   9  11
HETATM   11  C   UNL     1      -9.782  11.864  67.882  1.00  0.00    -0.192 C  
HETATM   12  C   UNL     1     -10.788  10.718  67.660  1.00  0.00    -0.279 C  
HETATM   13  O   UNL     1     -10.799  10.295  66.296  1.00  0.00    -0.068 OA 
HETATM   14  O   UNL     1     -12.094  11.206  67.971  1.00  0.00    -0.674 OA 
HETATM   15  H   UNL     1     -12.714  10.500  67.833  1.00  0.00     0.000 HD 
HETATM   16  C   UNL     1      -9.538   9.799  65.819  1.00  0.00    -0.254 C  
HETATM   17  C   UNL     1      -8.397  10.820  66.029  1.00  0.00    -0.163 C  
HETATM   18  H   UNL     1      -7.063  10.105  68.128  1.00  0.00     0.000 HD 
HETATM   19  C   UNL     1      -8.380  11.390  67.460  1.00  0.00    -0.137 C  
HETATM   20  O   UNL     1      -8.548  11.891  65.083  1.00  0.00    -0.123 OA 
HETATM   21  O   UNL     1      -7.929  10.397  68.389  1.00  0.00    -0.103 OA 
HETATM   22  H   UNL     1      -7.847  12.519  65.212  1.00  0.00     0.000 HD 
BRANCH  16  23
HETATM   23  C   UNL     1      -9.234   8.399  66.378  1.00  0.00    -0.201 C  
HETATM   24  O   UNL     1      -8.940   7.469  65.341  1.00  0.00    -0.376 OA 
HETATM   25  H   UNL     1      -8.752   6.604  65.686  1.00  0.00     0.000 HD 
ENDBRANCH  16  23
ENDBRANCH   9  11
ENDBRANCH   7   9
ENDBRANCH   2   7
TORSDOF 5
ENDMDL
MODEL      207
REMARK 921   NORMALIZED FREE ENERGY PREDICTED BY IDOCK:   -3.10 KCAL/MOL
REMARK 922        TOTAL FREE ENERGY PREDICTED BY IDOCK:   -4.83 KCAL/MOL
REMARK 923 INTER-LIGAND FREE ENERGY PREDICTED BY IDOCK:   -3.88 KCAL/MOL
REMARK 924 INTRA-LIGAND FREE ENERGY PREDICTED BY IDOCK:   -0.95 KCAL/MOL
REMARK 927      BINDING AFFINITY PREDICTED BY RF-SCORE:    0.00 PKD
ROOT
HETATM    1  C   UNL     1      -5.650   5.845  70.928  1.00  0.00    -0.017 C  
HETATM    2  N   UNL     1      -7.036   5.745  70.503  1.00  0.00    -0.064 N  
ENDROOT
BRANCH   2   3
HETATM    3  N   UNL     1      -7.379   5.668  69.151  1.00  0.00    -0.076 NA 
HETATM    4  H   UNL     1      -7.104   4.883  68.560  1.00  0.00     0.000 HD 
HETATM    5  O   UNL     1      -8.038   6.618  68.726  1.00  0.00    -0.116 OA 
HETATM    6  H   UNL     1      -8.270   6.565  67.806  1.00  0.00     0.000 HD 
ENDBRANCH   2   3
BRANCH   2   7
HETATM    7  C   UNL     1      -8.019   5.574  71.478  1.00  0.00    -0.116 C  
HETATM    8  O   UNL     1      -8.213   4.501  72.053  1.00  0.00    -0.097 OA 
BRANCH   7   9
HETATM    9  N   UNL     1      -8.789   6.679  71.745  1.00  0.00    -0.130 N  
HETATM   10  H   UNL     1      -8.338   7.592  71.819  1.00  0.00     0.000 HD 
BRANCH   9  11
HETATM   11  C   UNL     1     -10.247   6.583  71.926  1.00  0.00    -0.194 C  
HETATM   12  C   UNL     1     -10.682   7.538  73.053  1.00  0.00    -0.384 C  
HETATM   13  O   UNL     1     -10.451   8.901  72.696  1.00  0.00    -0.055 OA 
HETATM   14  O   UNL     1      -9.889   7.254  74.207  1.00  0.00    -0.430 OA 
HETATM   15  H   UNL     1     -10.157   7.844  74.902  1.00  0.00     0.000 HD 
HETATM   16  C   UNL     1     -11.164   9.336  71.526  1.00  0.00    -0.386 C  
HETATM   17  C   UNL     1     -10.878   8.431  70.306  1.00  0.00    -0.239 C  
HETATM   18  H   UNL     1     -12.876   6.809  70.033  1.00  0.00     0.000 HD 
HETATM   19  C   UNL     1     -11.020   6.935  70.642  1.00  0.00    -0.264 C  
HETATM   20  O   UNL     1      -9.550   8.696  69.828  1.00  0.00    -0.167 OA 
HETATM   21  O   UNL     1     -12.399   6.591  70.825  1.00  0.00    -0.284 OA 
HETATM   22  H   UNL     1      -9.375   8.141  69.077  1.00  0.00     0.000 HD 
BRANCH  16  23
HETATM   23  C   UNL     1     -12.659   9.539  71.818  1.00  0.00    -0.405 C  
HETATM   24  O   UNL     1     -13.030  10.910  71.744  1.00  0.00    -0.452 OA 
HETATM   25  H   UNL     1     -13.955  11.036  71.924  1.00  0.00     0.000 HD 
ENDBRANCH  16  23
ENDBRANCH   9  11
ENDBRANCH   7   9
ENDBRANCH   2   7
TORSDOF 5
ENDMDL
MODEL      208
REMARK 921   NORMALIZED FREE ENERGY PREDICTED BY IDOCK:   -3.08 KCAL/MOL
REMARK 922        TOTAL FREE ENERGY PREDICTED BY IDOCK:   -4.80 KCAL/MOL
REMARK 923 INTER-LIGAND FREE ENERGY PREDICTED BY IDOCK:   -4.12 KCAL/MOL
REMARK 924 INTRA-LIGAND FREE ENERGY PREDICTED BY IDOCK:   -0.68 KCAL/MOL
REMARK 927      BINDING AFFINITY PREDICTED BY RF-SCORE:    0.00 PKD
ROOT
HETATM    1  C   UNL     1     -10.927   7.578  72.776  1.00  0.00    -0.359 C  
HETATM    2  N   UNL     1     -11.163   8.095  71.438  1.00  0.00    -0.248 N  
ENDROOT
BRANCH   2   3
HETATM    3  N   UNL     1     -12.442   8.100  70.876  1.00  0.00    -0.502 NA 
HETATM    4  H   UNL     1     -12.601   7.988  69.875  1.00  0.00     0.000 HD 
HETATM    5  O   UNL     1     -13.363   8.250  71.681  1.00  0.00    -0.333 OA 
HETATM    6  H   UNL     1     -14.233   8.253  71.298  1.00  0.00     0.000 HD 
ENDBRANCH   2   3
BRANCH   2   7
HETATM    7  C   UNL     1     -10.112   8.730  70.776  1.00  0.00    -0.210 C  
HETATM    8  O   UNL     1      -9.360   9.535  71.329  1.00  0.00    -0.229 OA 
BRANCH   7   9
HETATM    9  N   UNL     1      -9.978   8.422  69.445  1.00  0.00    -0.186 N  
HETATM   10  H   UNL     1     -10.338   9.073  68.746  1.00  0.00     0.000 HD 
BRANCH   9  11
HETATM   11  C   UNL     1      -9.328   7.178  68.999  1.00  0.00    -0.140 C  
HETATM   12  C   UNL     1     -10.238   6.469  67.979  1.00  0.00    -0.164 C  
HETATM   13  O   UNL     1     -10.388   7.245  66.790  1.00  0.00    -0.269 OA 
HETATM   14  O   UNL     1     -11.533   6.322  68.564  1.00  0.00    -0.481 OA 
HETATM   15  H   UNL     1     -12.094   5.885  67.935  1.00  0.00     0.000 HD 
HETATM   16  C   UNL     1      -9.159   7.506  66.093  1.00  0.00    -0.137 C  
HETATM   17  C   UNL     1      -8.105   8.170  67.008  1.00  0.00    -0.108 C  
HETATM   18  H   UNL     1      -6.442   6.339  67.768  1.00  0.00     0.000 HD 
HETATM   19  C   UNL     1      -7.954   7.436  68.354  1.00  0.00    -0.124 C  
HETATM   20  O   UNL     1      -8.483   9.536  67.242  1.00  0.00    -0.126 OA 
HETATM   21  O   UNL     1      -7.290   6.180  68.167  1.00  0.00    -0.081 OA 
HETATM   22  H   UNL     1      -7.835   9.944  67.805  1.00  0.00     0.000 HD 
BRANCH  16  23
HETATM   23  C   UNL     1      -8.649   6.256  65.358  1.00  0.00    -0.092 C  
HETATM   24  O   UNL     1      -8.552   6.471  63.955  1.00  0.00    -0.329 OA 
HETATM   25  H   UNL     1      -8.237   5.698  63.500  1.00  0.00     0.000 HD 
ENDBRANCH  16  23
ENDBRANCH   9  11
ENDBRANCH   7   9
ENDBRANCH   2   7
TORSDOF 5
ENDMDL
MODEL      209
REMARK 921   NORMALIZED FREE ENERGY PREDICTED BY IDOCK:   -3.07 KCAL/MOL
REMARK 922        TOTAL FREE ENERGY PREDICTED BY IDOCK:   -4.78 KCAL/MOL
REMARK 923 INTER-LIGAND FREE ENERGY PREDICTED BY IDOCK:   -3.54 KCAL/MOL
REMARK 924 INTRA-LIGAND FREE ENERGY PREDICTED BY IDOCK:   -1.24 KCAL/MOL
REMARK 927      BINDING AFFINITY PREDICTED BY RF-SCORE:    0.00 PKD
ROOT
HETATM    1  C   UNL     1     -11.439   8.801  70.875  1.00  0.00    -0.284 C  
HETATM    2  N   UNL     1     -10.629   9.721  70.095  1.00  0.00    -0.264 N  
ENDROOT
BRANCH   2   3
HETATM    3  N   UNL     1      -9.364  10.123  70.529  1.00  0.00    -0.236 NA 
HETATM    4  H   UNL     1      -9.229  10.880  71.200  1.00  0.00     0.000 HD 
HETATM    5  O   UNL     1      -8.422   9.494  70.042  1.00  0.00    -0.157 OA 
HETATM    6  H   UNL     1      -7.562   9.767  70.338  1.00  0.00     0.000 HD 
ENDBRANCH   2   3
BRANCH   2   7
HETATM    7  C   UNL     1     -11.073  10.082  68.823  1.00  0.00    -0.173 C  
HETATM    8  O   UNL     1     -12.144  10.658  68.625  1.00  0.00    -0.410 OA 
BRANCH   7   9
HETATM    9  N   UNL     1     -10.246   9.730  67.784  1.00  0.00    -0.194 N  
HETATM   10  H   UNL     1      -9.892   8.774  67.734  1.00  0.00     0.000 HD 
BRANCH   9  11
HETATM   11  C   UNL     1      -9.857  10.695  66.742  1.00  0.00    -0.198 C  
HETATM   12  C   UNL     1      -8.447  11.232  67.051  1.00  0.00    -0.150 C  
HETATM   13  O   UNL     1      -7.467  10.197  66.969  1.00  0.00    -0.091 OA 
HETATM   14  O   UNL     1      -8.442  11.725  68.392  1.00  0.00    -0.155 OA 
HETATM   15  H   UNL     1      -7.572  12.056  68.583  1.00  0.00     0.000 HD 
HETATM   16  C   UNL     1      -7.369   9.576  65.677  1.00  0.00    -0.094 C  
HETATM   17  C   UNL     1      -8.731   9.032  65.191  1.00  0.00    -0.189 C  
HETATM   18  H   UNL     1      -9.708  10.728  63.498  1.00  0.00     0.000 HD 
HETATM   19  C   UNL     1      -9.860  10.070  65.336  1.00  0.00    -0.314 C  
HETATM   20  O   UNL     1      -9.059   7.853  65.943  1.00  0.00    -0.284 OA 
HETATM   21  O   UNL     1      -9.707  11.114  64.367  1.00  0.00    -0.238 OA 
HETATM   22  H   UNL     1      -9.897   7.518  65.644  1.00  0.00     0.000 HD 
BRANCH  16  23
HETATM   23  C   UNL     1      -6.663  10.490  64.662  1.00  0.00     0.056 C  
HETATM   24  O   UNL     1      -7.102  10.241  63.332  1.00  0.00    -0.170 OA 
HETATM   25  H   UNL     1      -6.666  10.806  62.704  1.00  0.00     0.000 HD 
ENDBRANCH  16  23
ENDBRANCH   9  11
ENDBRANCH   7   9
ENDBRANCH   2   7
TORSDOF 5
ENDMDL
MODEL      210
REMARK 921   NORMALIZED FREE ENERGY PREDICTED BY IDOCK:   -3.05 KCAL/MOL
REMARK 922        TOTAL FREE ENERGY PREDICTED BY IDOCK:   -4.77 KCAL/MOL
REMARK 923 INTER-LIGAND FREE ENERGY PREDICTED BY IDOCK:   -3.69 KCAL/MOL
REMARK 924 INTRA-LIGAND FREE ENERGY PREDICTED BY IDOCK:   -1.08 KCAL/MOL
REMARK 927      BINDING AFFINITY PREDICTED BY RF-SCORE:    0.00 PKD
ROOT
HETATM    1  C   UNL     1      -9.505   9.907  65.455  1.00  0.00    -0.252 C  
HETATM    2  N   UNL     1      -9.173   9.491  66.807  1.00  0.00    -0.145 N  
ENDROOT
BRANCH   2   3
HETATM    3  N   UNL     1      -8.335  10.260  67.620  1.00  0.00    -0.114 NA 
HETATM    4  H   UNL     1      -8.640  11.135  68.047  1.00  0.00     0.000 HD 
HETATM    5  O   UNL     1      -7.203   9.802  67.781  1.00  0.00    -0.086 OA 
HETATM    6  H   UNL     1      -6.634  10.325  68.333  1.00  0.00     0.000 HD 
ENDBRANCH   2   3
BRANCH   2   7
HETATM    7  C   UNL     1      -9.827   8.380  67.341  1.00  0.00    -0.191 C  
HETATM    8  O   UNL     1     -10.839   7.892  66.835  1.00  0.00    -0.288 OA 
BRANCH   7   9
HETATM    9  N   UNL     1      -9.286   7.872  68.496  1.00  0.00    -0.139 N  
HETATM   10  H   UNL     1      -8.272   7.863  68.607  1.00  0.00     0.000 HD 
BRANCH   9  11
HETATM   11  C   UNL     1     -10.131   7.339  69.578  1.00  0.00    -0.182 C  
HETATM   12  C   UNL     1      -9.282   6.425  70.481  1.00  0.00    -0.158 C  
HETATM   13  O   UNL     1      -8.259   7.162  71.150  1.00  0.00    -0.110 OA 
HETATM   14  O   UNL     1      -8.641   5.453  69.653  1.00  0.00    -0.101 OA 
HETATM   15  H   UNL     1      -8.116   4.890  70.210  1.00  0.00     0.000 HD 
HETATM   16  C   UNL     1      -8.747   8.206  72.009  1.00  0.00    -0.164 C  
HETATM   17  C   UNL     1      -9.676   9.186  71.258  1.00  0.00    -0.281 C  
HETATM   18  H   UNL     1     -12.121   8.564  71.833  1.00  0.00     0.000 HD 
HETATM   19  C   UNL     1     -10.754   8.454  70.436  1.00  0.00    -0.231 C  
HETATM   20  O   UNL     1      -8.883  10.011  70.390  1.00  0.00    -0.321 OA 
HETATM   21  O   UNL     1     -11.737   7.875  71.303  1.00  0.00    -0.278 OA 
HETATM   22  H   UNL     1      -9.455  10.614  69.928  1.00  0.00     0.000 HD 
BRANCH  16  23
HETATM   23  C   UNL     1      -9.353   7.638  73.303  1.00  0.00    -0.243 C  
HETATM   24  O   UNL     1      -8.760   8.213  74.461  1.00  0.00    -0.406 OA 
HETATM   25  H   UNL     1      -9.134   7.862  75.261  1.00  0.00     0.000 HD 
ENDBRANCH  16  23
ENDBRANCH   9  11
ENDBRANCH   7   9
ENDBRANCH   2   7
TORSDOF 5
ENDMDL
MODEL      211
REMARK 921   NORMALIZED FREE ENERGY PREDICTED BY IDOCK:   -3.04 KCAL/MOL
REMARK 922        TOTAL FREE ENERGY PREDICTED BY IDOCK:   -4.76 KCAL/MOL
REMARK 923 INTER-LIGAND FREE ENERGY PREDICTED BY IDOCK:   -3.76 KCAL/MOL
REMARK 924 INTRA-LIGAND FREE ENERGY PREDICTED BY IDOCK:   -1.00 KCAL/MOL
REMARK 927      BINDING AFFINITY PREDICTED BY RF-SCORE:    0.00 PKD
ROOT
HETATM    1  C   UNL     1      -6.096   8.645  69.068  1.00  0.00    -0.043 C  
HETATM    2  N   UNL     1      -6.581   9.671  69.976  1.00  0.00    -0.062 N  
ENDROOT
BRANCH   2   3
HETATM    3  N   UNL     1      -5.790  10.770  70.320  1.00  0.00    -0.089 NA 
HETATM    4  H   UNL     1      -4.782  10.699  70.454  1.00  0.00     0.000 HD 
HETATM    5  O   UNL     1      -6.403  11.832  70.448  1.00  0.00    -0.437 OA 
HETATM    6  H   UNL     1      -5.865  12.580  70.681  1.00  0.00     0.000 HD 
ENDBRANCH   2   3
BRANCH   2   7
HETATM    7  C   UNL     1      -7.914   9.621  70.385  1.00  0.00    -0.165 C  
HETATM    8  O   UNL     1      -8.346   8.764  71.158  1.00  0.00    -0.146 OA 
BRANCH   7   9
HETATM    9  N   UNL     1      -8.736  10.581  69.847  1.00  0.00    -0.330 N  
HETATM   10  H   UNL     1      -8.677  11.537  70.196  1.00  0.00     0.000 HD 
BRANCH   9  11
HETATM   11  C   UNL     1      -9.699  10.264  68.778  1.00  0.00    -0.177 C  
HETATM   12  C   UNL     1     -10.734  11.400  68.678  1.00  0.00    -0.206 C  
HETATM   13  O   UNL     1     -10.125  12.623  68.265  1.00  0.00    -0.224 OA 
HETATM   14  O   UNL     1     -11.290  11.612  69.976  1.00  0.00    -0.466 OA 
HETATM   15  H   UNL     1     -11.928  12.313  69.914  1.00  0.00     0.000 HD 
HETATM   16  C   UNL     1      -9.490  12.564  66.976  1.00  0.00    -0.217 C  
HETATM   17  C   UNL     1      -8.453  11.422  66.894  1.00  0.00    -0.157 C  
HETATM   18  H   UNL     1      -9.549   9.440  65.640  1.00  0.00     0.000 HD 
HETATM   19  C   UNL     1      -9.016  10.084  67.410  1.00  0.00    -0.131 C  
HETATM   20  O   UNL     1      -7.293  11.787  67.658  1.00  0.00    -0.103 OA 
HETATM   21  O   UNL     1      -9.971   9.552  66.485  1.00  0.00    -0.225 OA 
HETATM   22  H   UNL     1      -6.656  11.084  67.607  1.00  0.00     0.000 HD 
BRANCH  16  23
HETATM   23  C   UNL     1     -10.524  12.554  65.838  1.00  0.00    -0.265 C  
HETATM   24  O   UNL     1     -11.477  13.601  65.981  1.00  0.00    -0.312 OA 
HETATM   25  H   UNL     1     -12.116  13.595  65.277  1.00  0.00     0.000 HD 
ENDBRANCH  16  23
ENDBRANCH   9  11
ENDBRANCH   7   9
ENDBRANCH   2   7
TORSDOF 5
ENDMDL
MODEL      212
REMARK 921   NORMALIZED FREE ENERGY PREDICTED BY IDOCK:   -3.04 KCAL/MOL
REMARK 922        TOTAL FREE ENERGY PREDICTED BY IDOCK:   -4.75 KCAL/MOL
REMARK 923 INTER-LIGAND FREE ENERGY PREDICTED BY IDOCK:   -4.59 KCAL/MOL
REMARK 924 INTRA-LIGAND FREE ENERGY PREDICTED BY IDOCK:   -0.16 KCAL/MOL
REMARK 927      BINDING AFFINITY PREDICTED BY RF-SCORE:    0.00 PKD
ROOT
HETATM    1  C   UNL     1      -7.306   6.091  72.428  1.00  0.00    -0.090 C  
HETATM    2  N   UNL     1      -7.597   7.045  71.371  1.00  0.00    -0.085 N  
ENDROOT
BRANCH   2   3
HETATM    3  N   UNL     1      -7.586   6.666  70.026  1.00  0.00    -0.098 NA 
HETATM    4  H   UNL     1      -7.387   5.710  69.728  1.00  0.00     0.000 HD 
HETATM    5  O   UNL     1      -7.833   7.571  69.227  1.00  0.00    -0.113 OA 
HETATM    6  H   UNL     1      -7.825   7.313  68.313  1.00  0.00     0.000 HD 
ENDBRANCH   2   3
BRANCH   2   7
HETATM    7  C   UNL     1      -8.040   8.319  71.728  1.00  0.00    -0.141 C  
HETATM    8  O   UNL     1      -7.333   9.324  71.640  1.00  0.00    -0.333 OA 
BRANCH   7   9
HETATM    9  N   UNL     1      -9.322   8.385  72.216  1.00  0.00    -0.261 N  
HETATM   10  H   UNL     1      -9.578   9.152  72.838  1.00  0.00     0.000 HD 
BRANCH   9  11
HETATM   11  C   UNL     1     -10.338   7.377  71.865  1.00  0.00    -0.192 C  
HETATM   12  C   UNL     1     -11.372   7.283  73.002  1.00  0.00    -0.201 C  
HETATM   13  O   UNL     1     -12.104   8.501  73.140  1.00  0.00    -0.070 OA 
HETATM   14  O   UNL     1     -10.669   7.062  74.226  1.00  0.00    -0.523 OA 
HETATM   15  H   UNL     1     -11.307   7.004  74.927  1.00  0.00     0.000 HD 
HETATM   16  C   UNL     1     -12.849   8.881  71.972  1.00  0.00    -0.397 C  
HETATM   17  C   UNL     1     -11.953   8.961  70.715  1.00  0.00    -0.148 C  
HETATM   18  H   UNL     1     -12.304   6.793  69.347  1.00  0.00     0.000 HD 
HETATM   19  C   UNL     1     -11.065   7.714  70.551  1.00  0.00    -0.255 C  
HETATM   20  O   UNL     1     -11.129  10.134  70.802  1.00  0.00    -0.322 OA 
HETATM   21  O   UNL     1     -11.855   6.585  70.158  1.00  0.00    -0.416 OA 
HETATM   22  H   UNL     1     -10.579  10.184  70.029  1.00  0.00     0.000 HD 
BRANCH  16  23
HETATM   23  C   UNL     1     -14.101   8.007  71.792  1.00  0.00    -0.434 C  
HETATM   24  O   UNL     1     -13.862   6.657  72.171  1.00  0.00    -0.515 OA 
HETATM   25  H   UNL     1     -14.636   6.117  72.060  1.00  0.00     0.000 HD 
ENDBRANCH  16  23
ENDBRANCH   9  11
ENDBRANCH   7   9
ENDBRANCH   2   7
TORSDOF 5
ENDMDL
MODEL      213
REMARK 921   NORMALIZED FREE ENERGY PREDICTED BY IDOCK:   -3.04 KCAL/MOL
REMARK 922        TOTAL FREE ENERGY PREDICTED BY IDOCK:   -4.75 KCAL/MOL
REMARK 923 INTER-LIGAND FREE ENERGY PREDICTED BY IDOCK:   -4.42 KCAL/MOL
REMARK 924 INTRA-LIGAND FREE ENERGY PREDICTED BY IDOCK:   -0.32 KCAL/MOL
REMARK 927      BINDING AFFINITY PREDICTED BY RF-SCORE:    0.00 PKD
ROOT
HETATM    1  C   UNL     1      -8.725   5.767  73.220  1.00  0.00    -0.118 C  
HETATM    2  N   UNL     1      -9.888   5.191  72.565  1.00  0.00    -0.157 N  
ENDROOT
BRANCH   2   3
HETATM    3  N   UNL     1     -10.931   4.626  73.302  1.00  0.00    -0.276 NA 
HETATM    4  H   UNL     1     -10.796   3.820  73.913  1.00  0.00     0.000 HD 
HETATM    5  O   UNL     1     -12.026   5.173  73.159  1.00  0.00    -0.525 OA 
HETATM    6  H   UNL     1     -12.735   4.788  73.660  1.00  0.00     0.000 HD 
ENDBRANCH   2   3
BRANCH   2   7
HETATM    7  C   UNL     1     -10.019   5.348  71.185  1.00  0.00    -0.196 C  
HETATM    8  O   UNL     1     -10.492   4.476  70.453  1.00  0.00    -0.071 OA 
BRANCH   7   9
HETATM    9  N   UNL     1      -9.559   6.538  70.677  1.00  0.00    -0.172 N  
HETATM   10  H   UNL     1      -8.683   6.923  71.031  1.00  0.00     0.000 HD 
BRANCH   9  11
HETATM   11  C   UNL     1     -10.297   7.272  69.635  1.00  0.00    -0.221 C  
HETATM   12  C   UNL     1     -11.650   7.737  70.206  1.00  0.00    -0.034 C  
HETATM   13  O   UNL     1     -11.472   8.685  71.258  1.00  0.00    -0.259 OA 
HETATM   14  O   UNL     1     -12.315   6.600  70.758  1.00  0.00    -0.377 OA 
HETATM   15  H   UNL     1     -13.149   6.886  71.110  1.00  0.00     0.000 HD 
HETATM   16  C   UNL     1     -10.786   9.885  70.865  1.00  0.00    -0.286 C  
HETATM   17  C   UNL     1      -9.419   9.583  70.211  1.00  0.00    -0.259 C  
HETATM   18  H   UNL     1      -9.705   9.770  67.646  1.00  0.00     0.000 HD 
HETATM   19  C   UNL     1      -9.520   8.498  69.122  1.00  0.00    -0.154 C  
HETATM   20  O   UNL     1      -8.496   9.163  71.228  1.00  0.00    -0.286 OA 
HETATM   21  O   UNL     1     -10.185   9.013  67.962  1.00  0.00    -0.192 OA 
HETATM   22  H   UNL     1      -7.656   8.978  70.826  1.00  0.00     0.000 HD 
BRANCH  16  23
HETATM   23  C   UNL     1     -11.690  10.804  70.028  1.00  0.00    -0.336 C  
HETATM   24  O   UNL     1     -11.296  12.167  70.128  1.00  0.00    -0.503 OA 
HETATM   25  H   UNL     1     -11.854  12.736  69.610  1.00  0.00     0.000 HD 
ENDBRANCH  16  23
ENDBRANCH   9  11
ENDBRANCH   7   9
ENDBRANCH   2   7
TORSDOF 5
ENDMDL
MODEL      214
REMARK 921   NORMALIZED FREE ENERGY PREDICTED BY IDOCK:   -3.02 KCAL/MOL
REMARK 922        TOTAL FREE ENERGY PREDICTED BY IDOCK:   -4.73 KCAL/MOL
REMARK 923 INTER-LIGAND FREE ENERGY PREDICTED BY IDOCK:   -4.39 KCAL/MOL
REMARK 924 INTRA-LIGAND FREE ENERGY PREDICTED BY IDOCK:   -0.34 KCAL/MOL
REMARK 927      BINDING AFFINITY PREDICTED BY RF-SCORE:    0.00 PKD
ROOT
HETATM    1  C   UNL     1     -10.148  15.499  69.928  1.00  0.00    -0.272 C  
HETATM    2  N   UNL     1     -11.192  14.488  69.935  1.00  0.00    -0.234 N  
ENDROOT
BRANCH   2   3
HETATM    3  N   UNL     1     -12.199  14.491  70.903  1.00  0.00    -0.316 NA 
HETATM    4  H   UNL     1     -12.787  13.677  71.085  1.00  0.00     0.000 HD 
HETATM    5  O   UNL     1     -12.324  15.550  71.521  1.00  0.00    -0.334 OA 
HETATM    6  H   UNL     1     -13.009  15.552  72.179  1.00  0.00     0.000 HD 
ENDBRANCH   2   3
BRANCH   2   7
HETATM    7  C   UNL     1     -11.261  13.596  68.865  1.00  0.00    -0.270 C  
HETATM    8  O   UNL     1     -12.232  13.531  68.108  1.00  0.00    -0.302 OA 
BRANCH   7   9
HETATM    9  N   UNL     1     -10.180  12.762  68.717  1.00  0.00    -0.410 N  
HETATM   10  H   UNL     1      -9.435  12.787  69.413  1.00  0.00     0.000 HD 
BRANCH   9  11
HETATM   11  C   UNL     1     -10.069  11.832  67.580  1.00  0.00    -0.192 C  
HETATM   12  C   UNL     1      -9.141  12.445  66.514  1.00  0.00    -0.181 C  
HETATM   13  O   UNL     1      -7.807  12.579  67.003  1.00  0.00    -0.147 OA 
HETATM   14  O   UNL     1      -9.621  13.754  66.206  1.00  0.00    -0.309 OA 
HETATM   15  H   UNL     1      -9.048  14.132  65.549  1.00  0.00     0.000 HD 
HETATM   16  C   UNL     1      -7.189  11.339  67.387  1.00  0.00    -0.110 C  
HETATM   17  C   UNL     1      -8.038  10.565  68.421  1.00  0.00    -0.119 C  
HETATM   18  H   UNL     1      -9.318   8.701  67.163  1.00  0.00     0.000 HD 
HETATM   19  C   UNL     1      -9.516  10.459  68.000  1.00  0.00    -0.143 C  
HETATM   20  O   UNL     1      -7.942  11.225  69.693  1.00  0.00    -0.340 OA 
HETATM   21  O   UNL     1      -9.660   9.548  66.903  1.00  0.00    -0.150 OA 
HETATM   22  H   UNL     1      -8.464  10.748  70.328  1.00  0.00     0.000 HD 
BRANCH  16  23
HETATM   23  C   UNL     1      -6.784  10.506  66.160  1.00  0.00    -0.127 C  
HETATM   24  O   UNL     1      -5.961  11.247  65.266  1.00  0.00    -0.431 OA 
HETATM   25  H   UNL     1      -5.711  10.732  64.508  1.00  0.00     0.000 HD 
ENDBRANCH  16  23
ENDBRANCH   9  11
ENDBRANCH   7   9
ENDBRANCH   2   7
TORSDOF 5
ENDMDL
MODEL      215
REMARK 921   NORMALIZED FREE ENERGY PREDICTED BY IDOCK:   -3.01 KCAL/MOL
REMARK 922        TOTAL FREE ENERGY PREDICTED BY IDOCK:   -4.71 KCAL/MOL
REMARK 923 INTER-LIGAND FREE ENERGY PREDICTED BY IDOCK:   -3.56 KCAL/MOL
REMARK 924 INTRA-LIGAND FREE ENERGY PREDICTED BY IDOCK:   -1.16 KCAL/MOL
REMARK 927      BINDING AFFINITY PREDICTED BY RF-SCORE:    0.00 PKD
ROOT
HETATM    1  C   UNL     1      -7.830  16.386  68.044  1.00  0.00    -0.155 C  
HETATM    2  N   UNL     1      -8.275  15.229  68.802  1.00  0.00    -0.156 N  
ENDROOT
BRANCH   2   3
HETATM    3  N   UNL     1      -9.391  15.295  69.641  1.00  0.00    -0.428 NA 
HETATM    4  H   UNL     1      -9.381  15.801  70.527  1.00  0.00     0.000 HD 
HETATM    5  O   UNL     1     -10.387  14.698  69.230  1.00  0.00    -0.277 OA 
HETATM    6  H   UNL     1     -11.145  14.743  69.801  1.00  0.00     0.000 HD 
ENDBRANCH   2   3
BRANCH   2   7
HETATM    7  C   UNL     1      -7.660  14.000  68.564  1.00  0.00    -0.130 C  
HETATM    8  O   UNL     1      -6.733  13.570  69.253  1.00  0.00    -0.106 OA 
BRANCH   7   9
HETATM    9  N   UNL     1      -8.135  13.299  67.483  1.00  0.00    -0.174 N  
HETATM   10  H   UNL     1      -7.951  13.651  66.543  1.00  0.00     0.000 HD 
BRANCH   9  11
HETATM   11  C   UNL     1      -8.902  12.053  67.645  1.00  0.00    -0.172 C  
HETATM   12  C   UNL     1     -10.021  12.006  66.587  1.00  0.00    -0.201 C  
HETATM   13  O   UNL     1      -9.484  11.931  65.267  1.00  0.00    -0.189 OA 
HETATM   14  O   UNL     1     -10.771  13.218  66.680  1.00  0.00    -0.277 OA 
HETATM   15  H   UNL     1     -11.461  13.189  66.027  1.00  0.00     0.000 HD 
HETATM   16  C   UNL     1      -8.673  10.771  65.021  1.00  0.00    -0.151 C  
HETATM   17  C   UNL     1      -7.526  10.639  66.048  1.00  0.00    -0.137 C  
HETATM   18  H   UNL     1      -8.232   8.879  67.809  1.00  0.00     0.000 HD 
HETATM   19  C   UNL     1      -8.019  10.800  67.498  1.00  0.00    -0.110 C  
HETATM   20  O   UNL     1      -6.527  11.630  65.764  1.00  0.00    -0.254 OA 
HETATM   21  O   UNL     1      -8.777   9.652  67.900  1.00  0.00    -0.119 OA 
HETATM   22  H   UNL     1      -5.821  11.549  66.395  1.00  0.00     0.000 HD 
BRANCH  16  23
HETATM   23  C   UNL     1      -9.530   9.503  64.875  1.00  0.00    -0.160 C  
HETATM   24  O   UNL     1      -8.794   8.328  65.194  1.00  0.00    -0.363 OA 
HETATM   25  H   UNL     1      -9.323   7.544  65.104  1.00  0.00     0.000 HD 
ENDBRANCH  16  23
ENDBRANCH   9  11
ENDBRANCH   7   9
ENDBRANCH   2   7
TORSDOF 5
ENDMDL
MODEL      216
REMARK 921   NORMALIZED FREE ENERGY PREDICTED BY IDOCK:   -3.00 KCAL/MOL
REMARK 922        TOTAL FREE ENERGY PREDICTED BY IDOCK:   -4.69 KCAL/MOL
REMARK 923 INTER-LIGAND FREE ENERGY PREDICTED BY IDOCK:   -3.86 KCAL/MOL
REMARK 924 INTRA-LIGAND FREE ENERGY PREDICTED BY IDOCK:   -0.83 KCAL/MOL
REMARK 927      BINDING AFFINITY PREDICTED BY RF-SCORE:    0.00 PKD
ROOT
HETATM    1  C   UNL     1      -7.620  13.173  67.463  1.00  0.00    -0.163 C  
HETATM    2  N   UNL     1      -7.940  11.830  67.011  1.00  0.00    -0.161 N  
ENDROOT
BRANCH   2   3
HETATM    3  N   UNL     1      -7.124  11.157  66.098  1.00  0.00    -0.331 NA 
HETATM    4  H   UNL     1      -7.449  10.351  65.563  1.00  0.00     0.000 HD 
HETATM    5  O   UNL     1      -5.984  11.610  65.987  1.00  0.00    -0.487 OA 
HETATM    6  H   UNL     1      -5.429  11.152  65.366  1.00  0.00     0.000 HD 
ENDBRANCH   2   3
BRANCH   2   7
HETATM    7  C   UNL     1      -9.000  11.158  67.620  1.00  0.00    -0.140 C  
HETATM    8  O   UNL     1      -9.700  11.666  68.498  1.00  0.00    -0.195 OA 
BRANCH   7   9
HETATM    9  N   UNL     1      -9.204   9.866  67.199  1.00  0.00    -0.138 N  
HETATM   10  H   UNL     1      -9.570   9.702  66.261  1.00  0.00     0.000 HD 
BRANCH   9  11
HETATM   11  C   UNL     1      -8.907   8.713  68.066  1.00  0.00    -0.141 C  
HETATM   12  C   UNL     1     -10.224   8.003  68.432  1.00  0.00    -0.207 C  
HETATM   13  O   UNL     1     -10.846   7.438  67.278  1.00  0.00    -0.301 OA 
HETATM   14  O   UNL     1     -11.119   8.976  68.972  1.00  0.00    -0.435 OA 
HETATM   15  H   UNL     1     -11.931   8.538  69.197  1.00  0.00     0.000 HD 
HETATM   16  C   UNL     1     -10.052   6.451  66.599  1.00  0.00    -0.145 C  
HETATM   17  C   UNL     1      -8.658   6.997  66.213  1.00  0.00    -0.139 C  
HETATM   18  H   UNL     1      -6.952   6.123  67.952  1.00  0.00     0.000 HD 
HETATM   19  C   UNL     1      -7.961   7.703  67.391  1.00  0.00    -0.119 C  
HETATM   20  O   UNL     1      -8.801   7.912  65.116  1.00  0.00    -0.379 OA 
HETATM   21  O   UNL     1      -7.536   6.746  68.369  1.00  0.00    -0.091 OA 
HETATM   22  H   UNL     1      -7.944   8.246  64.879  1.00  0.00     0.000 HD 
BRANCH  16  23
HETATM   23  C   UNL     1     -10.011   5.125  67.376  1.00  0.00    -0.180 C  
HETATM   24  O   UNL     1      -8.863   4.353  67.044  1.00  0.00    -0.110 OA 
HETATM   25  H   UNL     1      -8.838   3.534  67.525  1.00  0.00     0.000 HD 
ENDBRANCH  16  23
ENDBRANCH   9  11
ENDBRANCH   7   9
ENDBRANCH   2   7
TORSDOF 5
ENDMDL
MODEL      217
REMARK 921   NORMALIZED FREE ENERGY PREDICTED BY IDOCK:   -2.98 KCAL/MOL
REMARK 922        TOTAL FREE ENERGY PREDICTED BY IDOCK:   -4.67 KCAL/MOL
REMARK 923 INTER-LIGAND FREE ENERGY PREDICTED BY IDOCK:   -4.17 KCAL/MOL
REMARK 924 INTRA-LIGAND FREE ENERGY PREDICTED BY IDOCK:   -0.50 KCAL/MOL
REMARK 927      BINDING AFFINITY PREDICTED BY RF-SCORE:    0.00 PKD
ROOT
HETATM    1  C   UNL     1     -10.592   7.905  67.384  1.00  0.00    -0.272 C  
HETATM    2  N   UNL     1      -9.475   8.625  67.971  1.00  0.00    -0.139 N  
ENDROOT
BRANCH   2   3
HETATM    3  N   UNL     1      -9.082   8.403  69.294  1.00  0.00    -0.150 NA 
HETATM    4  H   UNL     1      -9.634   8.722  70.090  1.00  0.00     0.000 HD 
HETATM    5  O   UNL     1      -8.020   7.792  69.426  1.00  0.00    -0.119 OA 
HETATM    6  H   UNL     1      -7.753   7.641  70.325  1.00  0.00     0.000 HD 
ENDBRANCH   2   3
BRANCH   2   7
HETATM    7  C   UNL     1      -8.698   9.436  67.145  1.00  0.00    -0.128 C  
HETATM    8  O   UNL     1      -7.662   9.046  66.604  1.00  0.00    -0.095 OA 
BRANCH   7   9
HETATM    9  N   UNL     1      -9.147  10.725  66.987  1.00  0.00    -0.144 N  
HETATM   10  H   UNL     1      -8.862  11.252  66.162  1.00  0.00     0.000 HD 
BRANCH   9  11
HETATM   11  C   UNL     1     -10.029  11.363  67.979  1.00  0.00    -0.182 C  
HETATM   12  C   UNL     1      -9.487  12.767  68.309  1.00  0.00    -0.203 C  
HETATM   13  O   UNL     1      -9.541  13.625  67.170  1.00  0.00    -0.226 OA 
HETATM   14  O   UNL     1      -8.115  12.636  68.686  1.00  0.00    -0.280 OA 
HETATM   15  H   UNL     1      -7.781  13.502  68.889  1.00  0.00     0.000 HD 
HETATM   16  C   UNL     1     -10.864  13.836  66.649  1.00  0.00    -0.288 C  
HETATM   17  C   UNL     1     -11.575  12.504  66.320  1.00  0.00    -0.394 C  
HETATM   18  H   UNL     1     -13.207  11.974  68.257  1.00  0.00     0.000 HD 
HETATM   19  C   UNL     1     -11.478  11.490  67.475  1.00  0.00    -0.282 C  
HETATM   20  O   UNL     1     -10.992  11.943  65.134  1.00  0.00    -0.299 OA 
HETATM   21  O   UNL     1     -12.312  11.895  68.568  1.00  0.00    -0.298 OA 
HETATM   22  H   UNL     1     -11.430  11.124  64.931  1.00  0.00     0.000 HD 
BRANCH  16  23
HETATM   23  C   UNL     1     -11.682  14.777  67.548  1.00  0.00    -0.348 C  
HETATM   24  O   UNL     1     -11.040  16.035  67.720  1.00  0.00    -0.327 OA 
HETATM   25  H   UNL     1     -11.546  16.616  68.276  1.00  0.00     0.000 HD 
ENDBRANCH  16  23
ENDBRANCH   9  11
ENDBRANCH   7   9
ENDBRANCH   2   7
TORSDOF 5
ENDMDL
MODEL      218
REMARK 921   NORMALIZED FREE ENERGY PREDICTED BY IDOCK:   -2.94 KCAL/MOL
REMARK 922        TOTAL FREE ENERGY PREDICTED BY IDOCK:   -4.62 KCAL/MOL
REMARK 923 INTER-LIGAND FREE ENERGY PREDICTED BY IDOCK:   -3.78 KCAL/MOL
REMARK 924 INTRA-LIGAND FREE ENERGY PREDICTED BY IDOCK:   -0.84 KCAL/MOL
REMARK 927      BINDING AFFINITY PREDICTED BY RF-SCORE:    0.00 PKD
ROOT
HETATM    1  C   UNL     1      -9.347   3.952  64.050  1.00  0.00    -0.149 C  
HETATM    2  N   UNL     1      -8.681   5.236  63.912  1.00  0.00    -0.061 N  
ENDROOT
BRANCH   2   3
HETATM    3  N   UNL     1      -8.890   6.046  62.792  1.00  0.00    -0.321 NA 
HETATM    4  H   UNL     1      -9.379   5.715  61.960  1.00  0.00     0.000 HD 
HETATM    5  O   UNL     1      -8.439   7.189  62.885  1.00  0.00    -0.355 OA 
HETATM    6  H   UNL     1      -8.580   7.739  62.124  1.00  0.00     0.000 HD 
ENDBRANCH   2   3
BRANCH   2   7
HETATM    7  C   UNL     1      -7.942   5.722  64.991  1.00  0.00    -0.121 C  
HETATM    8  O   UNL     1      -6.719   5.870  64.953  1.00  0.00    -0.044 OA 
BRANCH   7   9
HETATM    9  N   UNL     1      -8.664   6.004  66.124  1.00  0.00    -0.141 N  
HETATM   10  H   UNL     1      -8.618   5.361  66.915  1.00  0.00     0.000 HD 
BRANCH   9  11
HETATM   11  C   UNL     1      -9.502   7.211  66.228  1.00  0.00    -0.067 C  
HETATM   12  C   UNL     1     -10.794   6.865  66.992  1.00  0.00    -0.366 C  
HETATM   13  O   UNL     1     -10.516   6.501  68.344  1.00  0.00    -0.177 OA 
HETATM   14  O   UNL     1     -11.399   5.737  66.357  1.00  0.00    -0.723 OA 
HETATM   15  H   UNL     1     -12.195   5.524  66.829  1.00  0.00     0.000 HD 
HETATM   16  C   UNL     1      -9.875   7.530  69.115  1.00  0.00    -0.170 C  
HETATM   17  C   UNL     1      -8.578   8.034  68.443  1.00  0.00    -0.127 C  
HETATM   18  H   UNL     1      -9.114  10.268  67.252  1.00  0.00     0.000 HD 
HETATM   19  C   UNL     1      -8.782   8.362  66.952  1.00  0.00    -0.130 C  
HETATM   20  O   UNL     1      -7.559   7.032  68.583  1.00  0.00    -0.103 OA 
HETATM   21  O   UNL     1      -9.559   9.557  66.805  1.00  0.00    -0.157 OA 
HETATM   22  H   UNL     1      -6.761   7.342  68.171  1.00  0.00     0.000 HD 
BRANCH  16  23
HETATM   23  C   UNL     1     -10.860   8.650  69.492  1.00  0.00    -0.129 C  
HETATM   24  O   UNL     1     -11.752   8.243  70.523  1.00  0.00    -0.441 OA 
HETATM   25  H   UNL     1     -12.361   8.935  70.756  1.00  0.00     0.000 HD 
ENDBRANCH  16  23
ENDBRANCH   9  11
ENDBRANCH   7   9
ENDBRANCH   2   7
TORSDOF 5
ENDMDL
MODEL      219
REMARK 921   NORMALIZED FREE ENERGY PREDICTED BY IDOCK:   -2.92 KCAL/MOL
REMARK 922        TOTAL FREE ENERGY PREDICTED BY IDOCK:   -4.60 KCAL/MOL
REMARK 923 INTER-LIGAND FREE ENERGY PREDICTED BY IDOCK:   -3.68 KCAL/MOL
REMARK 924 INTRA-LIGAND FREE ENERGY PREDICTED BY IDOCK:   -0.92 KCAL/MOL
REMARK 927      BINDING AFFINITY PREDICTED BY RF-SCORE:    0.00 PKD
ROOT
HETATM    1  C   UNL     1     -11.811  15.309  64.702  1.00  0.00    -0.267 C  
HETATM    2  N   UNL     1     -10.610  15.584  65.472  1.00  0.00    -0.369 N  
ENDROOT
BRANCH   2   3
HETATM    3  N   UNL     1     -10.293  16.880  65.885  1.00  0.00    -0.458 NA 
HETATM    4  H   UNL     1     -10.943  17.461  66.415  1.00  0.00     0.000 HD 
HETATM    5  O   UNL     1      -9.169  17.270  65.562  1.00  0.00    -0.343 OA 
HETATM    6  H   UNL     1      -8.953  18.151  65.843  1.00  0.00     0.000 HD 
ENDBRANCH   2   3
BRANCH   2   7
HETATM    7  C   UNL     1      -9.850  14.506  65.927  1.00  0.00    -0.321 C  
HETATM    8  O   UNL     1      -9.734  13.454  65.295  1.00  0.00    -0.126 OA 
BRANCH   7   9
HETATM    9  N   UNL     1      -9.251  14.677  67.151  1.00  0.00    -0.211 N  
HETATM   10  H   UNL     1      -9.814  14.584  67.996  1.00  0.00     0.000 HD 
BRANCH   9  11
HETATM   11  C   UNL     1      -7.817  14.991  67.274  1.00  0.00    -0.211 C  
HETATM   12  C   UNL     1      -7.602  15.906  68.494  1.00  0.00    -0.145 C  
HETATM   13  O   UNL     1      -7.932  15.235  69.710  1.00  0.00    -0.204 OA 
HETATM   14  O   UNL     1      -8.479  17.027  68.369  1.00  0.00    -0.221 OA 
HETATM   15  H   UNL     1      -8.346  17.592  69.122  1.00  0.00     0.000 HD 
HETATM   16  C   UNL     1      -7.149  14.058  69.969  1.00  0.00     0.314 C  
HETATM   17  C   UNL     1      -7.211  13.053  68.796  1.00  0.00    -0.082 C  
HETATM   18  H   UNL     1      -5.041  13.311  67.410  1.00  0.00     0.000 HD 
HETATM   19  C   UNL     1      -6.954  13.727  67.435  1.00  0.00    -0.047 C  
HETATM   20  O   UNL     1      -8.502  12.423  68.788  1.00  0.00    -0.348 OA 
HETATM   21  O   UNL     1      -5.574  14.091  67.310  1.00  0.00    -0.304 OA 
HETATM   22  H   UNL     1      -8.540  11.805  68.068  1.00  0.00     0.000 HD 
BRANCH  16  23
HETATM   23  C   UNL     1      -5.721  14.415  70.411  1.00  0.00    -0.146 C  
HETATM   24  O   UNL     1      -5.500  14.109  71.783  1.00  0.00    -0.193 OA 
HETATM   25  H   UNL     1      -4.617  14.330  72.057  1.00  0.00     0.000 HD 
ENDBRANCH  16  23
ENDBRANCH   9  11
ENDBRANCH   7   9
ENDBRANCH   2   7
TORSDOF 5
ENDMDL
MODEL      220
REMARK 921   NORMALIZED FREE ENERGY PREDICTED BY IDOCK:   -2.92 KCAL/MOL
REMARK 922        TOTAL FREE ENERGY PREDICTED BY IDOCK:   -4.59 KCAL/MOL
REMARK 923 INTER-LIGAND FREE ENERGY PREDICTED BY IDOCK:   -3.83 KCAL/MOL
REMARK 924 INTRA-LIGAND FREE ENERGY PREDICTED BY IDOCK:   -0.77 KCAL/MOL
REMARK 927      BINDING AFFINITY PREDICTED BY RF-SCORE:    0.00 PKD
ROOT
HETATM    1  C   UNL     1      -9.638  10.692  64.786  1.00  0.00    -0.280 C  
HETATM    2  N   UNL     1      -8.996   9.440  65.151  1.00  0.00    -0.201 N  
ENDROOT
BRANCH   2   3
HETATM    3  N   UNL     1      -8.823   8.413  64.220  1.00  0.00    -0.382 NA 
HETATM    4  H   UNL     1      -9.051   8.525  63.232  1.00  0.00     0.000 HD 
HETATM    5  O   UNL     1      -8.376   7.362  64.682  1.00  0.00    -0.307 OA 
HETATM    6  H   UNL     1      -8.259   6.663  64.048  1.00  0.00     0.000 HD 
ENDBRANCH   2   3
BRANCH   2   7
HETATM    7  C   UNL     1      -8.413   9.336  66.414  1.00  0.00    -0.123 C  
HETATM    8  O   UNL     1      -7.384   9.937  66.729  1.00  0.00    -0.093 OA 
BRANCH   7   9
HETATM    9  N   UNL     1      -9.047   8.491  67.292  1.00  0.00    -0.132 N  
HETATM   10  H   UNL     1      -8.574   7.638  67.588  1.00  0.00     0.000 HD 
BRANCH   9  11
HETATM   11  C   UNL     1     -10.392   8.786  67.816  1.00  0.00    -0.237 C  
HETATM   12  C   UNL     1     -11.152   7.465  68.031  1.00  0.00     0.155 C  
HETATM   13  O   UNL     1     -10.535   6.670  69.044  1.00  0.00    -0.185 OA 
HETATM   14  O   UNL     1     -11.106   6.721  66.813  1.00  0.00    -0.520 OA 
HETATM   15  H   UNL     1     -11.575   5.905  66.946  1.00  0.00     0.000 HD 
HETATM   16  C   UNL     1     -10.478   7.297  70.336  1.00  0.00    -0.220 C  
HETATM   17  C   UNL     1      -9.788   8.679  70.279  1.00  0.00    -0.178 C  
HETATM   18  H   UNL     1     -11.636  10.491  70.284  1.00  0.00     0.000 HD 
HETATM   19  C   UNL     1     -10.344   9.561  69.145  1.00  0.00    -0.207 C  
HETATM   20  O   UNL     1      -8.376   8.490  70.098  1.00  0.00    -0.115 OA 
HETATM   21  O   UNL     1     -11.665  10.013  69.463  1.00  0.00    -0.131 OA 
HETATM   22  H   UNL     1      -7.952   9.340  70.063  1.00  0.00     0.000 HD 
BRANCH  16  23
HETATM   23  C   UNL     1     -11.855   7.314  71.018  1.00  0.00    -0.318 C  
HETATM   24  O   UNL     1     -11.855   6.565  72.229  1.00  0.00    -0.352 OA 
HETATM   25  H   UNL     1     -12.706   6.576  72.651  1.00  0.00     0.000 HD 
ENDBRANCH  16  23
ENDBRANCH   9  11
ENDBRANCH   7   9
ENDBRANCH   2   7
TORSDOF 5
ENDMDL
MODEL      221
REMARK 921   NORMALIZED FREE ENERGY PREDICTED BY IDOCK:   -2.90 KCAL/MOL
REMARK 922        TOTAL FREE ENERGY PREDICTED BY IDOCK:   -4.57 KCAL/MOL
REMARK 923 INTER-LIGAND FREE ENERGY PREDICTED BY IDOCK:   -4.19 KCAL/MOL
REMARK 924 INTRA-LIGAND FREE ENERGY PREDICTED BY IDOCK:   -0.39 KCAL/MOL
REMARK 927      BINDING AFFINITY PREDICTED BY RF-SCORE:    0.00 PKD
ROOT
HETATM    1  C   UNL     1     -13.090  10.078  72.113  1.00  0.00    -0.386 C  
HETATM    2  N   UNL     1     -12.293   9.957  70.903  1.00  0.00    -0.309 N  
ENDROOT
BRANCH   2   3
HETATM    3  N   UNL     1     -12.159  11.024  70.012  1.00  0.00    -0.337 NA 
HETATM    4  H   UNL     1     -11.750  11.918  70.285  1.00  0.00     0.000 HD 
HETATM    5  O   UNL     1     -12.570  10.804  68.871  1.00  0.00    -0.735 OA 
HETATM    6  H   UNL     1     -12.478  11.531  68.265  1.00  0.00     0.000 HD 
ENDBRANCH   2   3
BRANCH   2   7
HETATM    7  C   UNL     1     -11.536   8.800  70.719  1.00  0.00    -0.270 C  
HETATM    8  O   UNL     1     -11.997   7.666  70.866  1.00  0.00    -0.291 OA 
BRANCH   7   9
HETATM    9  N   UNL     1     -10.219   9.000  70.385  1.00  0.00    -0.196 N  
HETATM   10  H   UNL     1      -9.515   9.006  71.124  1.00  0.00     0.000 HD 
BRANCH   9  11
HETATM   11  C   UNL     1      -9.797   9.208  68.989  1.00  0.00    -0.174 C  
HETATM   12  C   UNL     1      -8.293   9.541  68.960  1.00  0.00    -0.126 C  
HETATM   13  O   UNL     1      -7.509   8.439  69.415  1.00  0.00    -0.084 OA 
HETATM   14  O   UNL     1      -8.061  10.632  69.851  1.00  0.00    -0.365 OA 
HETATM   15  H   UNL     1      -7.134  10.837  69.833  1.00  0.00     0.000 HD 
HETATM   16  C   UNL     1      -7.655   7.243  68.631  1.00  0.00    -0.114 C  
HETATM   17  C   UNL     1      -9.132   6.805  68.512  1.00  0.00    -0.129 C  
HETATM   18  H   UNL     1     -10.004   7.564  66.197  1.00  0.00     0.000 HD 
HETATM   19  C   UNL     1     -10.056   7.971  68.111  1.00  0.00    -0.197 C  
HETATM   20  O   UNL     1      -9.560   6.260  69.770  1.00  0.00    -0.150 OA 
HETATM   21  O   UNL     1      -9.845   8.327  66.739  1.00  0.00    -0.216 OA 
HETATM   22  H   UNL     1     -10.469   5.990  69.697  1.00  0.00     0.000 HD 
BRANCH  16  23
HETATM   23  C   UNL     1      -6.927   7.360  67.281  1.00  0.00    -0.083 C  
HETATM   24  O   UNL     1      -5.514   7.292  67.435  1.00  0.00    -0.026 OA 
HETATM   25  H   UNL     1      -5.064   7.364  66.601  1.00  0.00     0.000 HD 
ENDBRANCH  16  23
ENDBRANCH   9  11
ENDBRANCH   7   9
ENDBRANCH   2   7
TORSDOF 5
ENDMDL
MODEL      222
REMARK 921   NORMALIZED FREE ENERGY PREDICTED BY IDOCK:   -2.88 KCAL/MOL
REMARK 922        TOTAL FREE ENERGY PREDICTED BY IDOCK:   -4.54 KCAL/MOL
REMARK 923 INTER-LIGAND FREE ENERGY PREDICTED BY IDOCK:   -3.84 KCAL/MOL
REMARK 924 INTRA-LIGAND FREE ENERGY PREDICTED BY IDOCK:   -0.71 KCAL/MOL
REMARK 927      BINDING AFFINITY PREDICTED BY RF-SCORE:    0.00 PKD
ROOT
HETATM    1  C   UNL     1     -11.547   8.999  70.849  1.00  0.00    -0.290 C  
HETATM    2  N   UNL     1     -10.340   9.284  70.091  1.00  0.00    -0.206 N  
ENDROOT
BRANCH   2   3
HETATM    3  N   UNL     1      -9.183   9.754  70.718  1.00  0.00    -0.343 NA 
HETATM    4  H   UNL     1      -8.867   9.399  71.620  1.00  0.00     0.000 HD 
HETATM    5  O   UNL     1      -8.574  10.628  70.098  1.00  0.00    -0.215 OA 
HETATM    6  H   UNL     1      -7.787  10.947  70.524  1.00  0.00     0.000 HD 
ENDBRANCH   2   3
BRANCH   2   7
HETATM    7  C   UNL     1     -10.305   8.936  68.741  1.00  0.00    -0.211 C  
HETATM    8  O   UNL     1     -10.806   9.633  67.856  1.00  0.00    -0.259 OA 
BRANCH   7   9
HETATM    9  N   UNL     1      -9.694   7.740  68.453  1.00  0.00    -0.156 N  
HETATM   10  H   UNL     1      -8.800   7.745  67.962  1.00  0.00     0.000 HD 
BRANCH   9  11
HETATM   11  C   UNL     1     -10.297   6.452  68.834  1.00  0.00    -0.201 C  
HETATM   12  C   UNL     1     -10.695   5.683  67.561  1.00  0.00    -0.187 C  
HETATM   13  O   UNL     1      -9.549   5.331  66.786  1.00  0.00    -0.130 OA 
HETATM   14  O   UNL     1     -11.510   6.540  66.760  1.00  0.00    -0.774 OA 
HETATM   15  H   UNL     1     -11.756   6.066  65.974  1.00  0.00     0.000 HD 
HETATM   16  C   UNL     1      -8.609   4.485  67.469  1.00  0.00    -0.103 C  
HETATM   17  C   UNL     1      -8.152   5.095  68.814  1.00  0.00    -0.085 C  
HETATM   18  H   UNL     1      -9.475   3.930  70.708  1.00  0.00     0.000 HD 
HETATM   19  C   UNL     1      -9.338   5.582  69.667  1.00  0.00    -0.134 C  
HETATM   20  O   UNL     1      -7.262   6.191  68.551  1.00  0.00    -0.079 OA 
HETATM   21  O   UNL     1     -10.067   4.467  70.194  1.00  0.00    -0.217 OA 
HETATM   22  H   UNL     1      -6.981   6.566  69.377  1.00  0.00     0.000 HD 
BRANCH  16  23
HETATM   23  C   UNL     1      -9.126   3.041  67.582  1.00  0.00    -0.181 C  
HETATM   24  O   UNL     1      -8.534   2.352  68.677  1.00  0.00    -0.062 OA 
HETATM   25  H   UNL     1      -8.853   1.460  68.747  1.00  0.00     0.000 HD 
ENDBRANCH  16  23
ENDBRANCH   9  11
ENDBRANCH   7   9
ENDBRANCH   2   7
TORSDOF 5
ENDMDL
MODEL      223
REMARK 921   NORMALIZED FREE ENERGY PREDICTED BY IDOCK:   -2.87 KCAL/MOL
REMARK 922        TOTAL FREE ENERGY PREDICTED BY IDOCK:   -4.54 KCAL/MOL
REMARK 923 INTER-LIGAND FREE ENERGY PREDICTED BY IDOCK:   -3.74 KCAL/MOL
REMARK 924 INTRA-LIGAND FREE ENERGY PREDICTED BY IDOCK:   -0.79 KCAL/MOL
REMARK 927      BINDING AFFINITY PREDICTED BY RF-SCORE:    0.00 PKD
ROOT
HETATM    1  C   UNL     1      -6.323   9.320  70.968  1.00  0.00    -0.076 C  
HETATM    2  N   UNL     1      -7.718   8.981  71.194  1.00  0.00    -0.130 N  
ENDROOT
BRANCH   2   3
HETATM    3  N   UNL     1      -8.190   8.663  72.470  1.00  0.00    -0.392 NA 
HETATM    4  H   UNL     1      -7.576   8.339  73.217  1.00  0.00     0.000 HD 
HETATM    5  O   UNL     1      -9.405   8.803  72.626  1.00  0.00    -0.300 OA 
HETATM    6  H   UNL     1      -9.726   8.586  73.493  1.00  0.00     0.000 HD 
ENDBRANCH   2   3
BRANCH   2   7
HETATM    7  C   UNL     1      -8.618   9.126  70.138  1.00  0.00    -0.182 C  
HETATM    8  O   UNL     1      -9.126  10.207  69.834  1.00  0.00    -0.189 OA 
BRANCH   7   9
HETATM    9  N   UNL     1      -8.930   7.972  69.463  1.00  0.00    -0.147 N  
HETATM   10  H   UNL     1      -9.458   7.243  69.944  1.00  0.00     0.000 HD 
BRANCH   9  11
HETATM   11  C   UNL     1      -8.525   7.760  68.063  1.00  0.00    -0.123 C  
HETATM   12  C   UNL     1      -7.923   6.350  67.919  1.00  0.00    -0.111 C  
HETATM   13  O   UNL     1      -8.900   5.340  68.169  1.00  0.00    -0.105 OA 
HETATM   14  O   UNL     1      -6.892   6.204  68.896  1.00  0.00    -0.061 OA 
HETATM   15  H   UNL     1      -6.521   5.334  68.807  1.00  0.00     0.000 HD 
HETATM   16  C   UNL     1     -10.027   5.371  67.277  1.00  0.00    -0.171 C  
HETATM   17  C   UNL     1     -10.713   6.756  67.261  1.00  0.00    -0.353 C  
HETATM   18  H   UNL     1      -9.921   8.013  65.142  1.00  0.00     0.000 HD 
HETATM   19  C   UNL     1      -9.704   7.906  67.084  1.00  0.00    -0.191 C  
HETATM   20  O   UNL     1     -11.439   6.933  68.488  1.00  0.00    -0.525 OA 
HETATM   21  O   UNL     1      -9.193   7.923  65.746  1.00  0.00    -0.102 OA 
HETATM   22  H   UNL     1     -11.861   7.784  68.477  1.00  0.00     0.000 HD 
BRANCH  16  23
HETATM   23  C   UNL     1      -9.659   4.840  65.882  1.00  0.00    -0.180 C  
HETATM   24  O   UNL     1     -10.087   3.495  65.700  1.00  0.00    -0.404 OA 
HETATM   25  H   UNL     1      -9.859   3.166  64.838  1.00  0.00     0.000 HD 
ENDBRANCH  16  23
ENDBRANCH   9  11
ENDBRANCH   7   9
ENDBRANCH   2   7
TORSDOF 5
ENDMDL
MODEL      224
REMARK 921   NORMALIZED FREE ENERGY PREDICTED BY IDOCK:   -2.86 KCAL/MOL
REMARK 922        TOTAL FREE ENERGY PREDICTED BY IDOCK:   -4.52 KCAL/MOL
REMARK 923 INTER-LIGAND FREE ENERGY PREDICTED BY IDOCK:   -3.70 KCAL/MOL
REMARK 924 INTRA-LIGAND FREE ENERGY PREDICTED BY IDOCK:   -0.82 KCAL/MOL
REMARK 927      BINDING AFFINITY PREDICTED BY RF-SCORE:    0.00 PKD
ROOT
HETATM    1  C   UNL     1     -10.872  12.634  69.501  1.00  0.00     0.212 C  
HETATM    2  N   UNL     1     -10.244  12.768  68.197  1.00  0.00    -0.235 N  
ENDROOT
BRANCH   2   3
HETATM    3  N   UNL     1     -10.995  12.720  67.020  1.00  0.00    -0.257 NA 
HETATM    4  H   UNL     1     -12.013  12.659  67.022  1.00  0.00     0.000 HD 
HETATM    5  O   UNL     1     -10.336  12.757  65.980  1.00  0.00    -0.265 OA 
HETATM    6  H   UNL     1     -10.847  12.724  65.180  1.00  0.00     0.000 HD 
ENDBRANCH   2   3
BRANCH   2   7
HETATM    7  C   UNL     1      -8.891  13.101  68.143  1.00  0.00    -0.194 C  
HETATM    8  O   UNL     1      -7.999  12.350  68.543  1.00  0.00    -0.149 OA 
BRANCH   7   9
HETATM    9  N   UNL     1      -8.606  14.345  67.635  1.00  0.00    -0.173 N  
HETATM   10  H   UNL     1      -8.191  14.418  66.706  1.00  0.00     0.000 HD 
BRANCH   9  11
HETATM   11  C   UNL     1      -8.883  15.574  68.396  1.00  0.00    -0.183 C  
HETATM   12  C   UNL     1      -7.640  16.483  68.361  1.00  0.00    -0.189 C  
HETATM   13  O   UNL     1      -7.363  16.933  67.035  1.00  0.00    -0.157 OA 
HETATM   14  O   UNL     1      -6.517  15.717  68.799  1.00  0.00    -0.106 OA 
HETATM   15  H   UNL     1      -5.750  16.278  68.777  1.00  0.00     0.000 HD 
HETATM   16  C   UNL     1      -8.420  17.703  66.438  1.00  0.00    -0.246 C  
HETATM   17  C   UNL     1      -9.767  16.944  66.451  1.00  0.00    -0.284 C  
HETATM   18  H   UNL     1     -11.182  17.868  68.410  1.00  0.00     0.000 HD 
HETATM   19  C   UNL     1     -10.089  16.350  67.835  1.00  0.00    -0.250 C  
HETATM   20  O   UNL     1      -9.721  15.894  65.472  1.00  0.00    -0.376 OA 
HETATM   21  O   UNL     1     -10.438  17.389  68.757  1.00  0.00    -0.348 OA 
HETATM   22  H   UNL     1     -10.550  15.428  65.480  1.00  0.00     0.000 HD 
BRANCH  16  23
HETATM   23  C   UNL     1      -8.495  19.118  67.033  1.00  0.00    -0.285 C  
HETATM   24  O   UNL     1      -7.230  19.554  67.517  1.00  0.00    -0.219 OA 
HETATM   25  H   UNL     1      -7.275  20.429  67.885  1.00  0.00     0.000 HD 
ENDBRANCH  16  23
ENDBRANCH   9  11
ENDBRANCH   7   9
ENDBRANCH   2   7
TORSDOF 5
ENDMDL
MODEL      225
REMARK 921   NORMALIZED FREE ENERGY PREDICTED BY IDOCK:   -2.85 KCAL/MOL
REMARK 922        TOTAL FREE ENERGY PREDICTED BY IDOCK:   -4.50 KCAL/MOL
REMARK 923 INTER-LIGAND FREE ENERGY PREDICTED BY IDOCK:   -3.59 KCAL/MOL
REMARK 924 INTRA-LIGAND FREE ENERGY PREDICTED BY IDOCK:   -0.92 KCAL/MOL
REMARK 927      BINDING AFFINITY PREDICTED BY RF-SCORE:    0.00 PKD
ROOT
HETATM    1  C   UNL     1     -12.139   6.672  70.616  1.00  0.00    -0.281 C  
HETATM    2  N   UNL     1     -10.960   6.703  69.765  1.00  0.00    -0.285 N  
ENDROOT
BRANCH   2   3
HETATM    3  N   UNL     1     -10.561   7.877  69.121  1.00  0.00    -0.311 NA 
HETATM    4  H   UNL     1      -9.740   8.409  69.410  1.00  0.00     0.000 HD 
HETATM    5  O   UNL     1     -11.276   8.221  68.178  1.00  0.00    -0.303 OA 
HETATM    6  H   UNL     1     -11.004   9.020  67.740  1.00  0.00     0.000 HD 
ENDBRANCH   2   3
BRANCH   2   7
HETATM    7  C   UNL     1     -10.141   5.576  69.722  1.00  0.00    -0.232 C  
HETATM    8  O   UNL     1      -9.990   4.819  70.683  1.00  0.00    -0.207 OA 
BRANCH   7   9
HETATM    9  N   UNL     1      -9.481   5.368  68.536  1.00  0.00    -0.118 N  
HETATM   10  H   UNL     1      -8.675   5.950  68.308  1.00  0.00     0.000 HD 
BRANCH   9  11
HETATM   11  C   UNL     1      -9.906   4.326  67.585  1.00  0.00    -0.094 C  
HETATM   12  C   UNL     1     -10.243   4.983  66.233  1.00  0.00    -0.273 C  
HETATM   13  O   UNL     1      -9.085   5.567  65.636  1.00  0.00    -0.160 OA 
HETATM   14  O   UNL     1     -11.182   6.032  66.470  1.00  0.00    -0.741 OA 
HETATM   15  H   UNL     1     -11.390   6.437  65.636  1.00  0.00     0.000 HD 
HETATM   16  C   UNL     1      -8.027   4.635  65.359  1.00  0.00    -0.099 C  
HETATM   17  C   UNL     1      -7.609   3.842  66.618  1.00  0.00    -0.088 C  
HETATM   18  H   UNL     1      -8.719   1.507  66.494  1.00  0.00     0.000 HD 
HETATM   19  C   UNL     1      -8.821   3.256  67.368  1.00  0.00    -0.134 C  
HETATM   20  O   UNL     1      -6.872   4.710  67.494  1.00  0.00    -0.057 OA 
HETATM   21  O   UNL     1      -9.388   2.168  66.628  1.00  0.00    -0.045 OA 
HETATM   22  H   UNL     1      -6.615   4.222  68.268  1.00  0.00     0.000 HD 
BRANCH  16  23
HETATM   23  C   UNL     1      -8.356   3.751  64.145  1.00  0.00    -0.091 C  
HETATM   24  O   UNL     1      -7.957   4.363  62.923  1.00  0.00    -0.068 OA 
HETATM   25  H   UNL     1      -8.160   3.816  62.172  1.00  0.00     0.000 HD 
ENDBRANCH  16  23
ENDBRANCH   9  11
ENDBRANCH   7   9
ENDBRANCH   2   7
TORSDOF 5
ENDMDL
MODEL      226
REMARK 921   NORMALIZED FREE ENERGY PREDICTED BY IDOCK:   -2.85 KCAL/MOL
REMARK 922        TOTAL FREE ENERGY PREDICTED BY IDOCK:   -4.50 KCAL/MOL
REMARK 923 INTER-LIGAND FREE ENERGY PREDICTED BY IDOCK:   -3.59 KCAL/MOL
REMARK 924 INTRA-LIGAND FREE ENERGY PREDICTED BY IDOCK:   -0.91 KCAL/MOL
REMARK 927      BINDING AFFINITY PREDICTED BY RF-SCORE:    0.00 PKD
ROOT
HETATM    1  C   UNL     1      -9.085   9.111  65.110  1.00  0.00    -0.176 C  
HETATM    2  N   UNL     1      -9.535   9.000  66.488  1.00  0.00    -0.187 N  
ENDROOT
BRANCH   2   3
HETATM    3  N   UNL     1      -9.462  10.085  67.365  1.00  0.00    -0.151 NA 
HETATM    4  H   UNL     1      -9.910  10.980  67.168  1.00  0.00     0.000 HD 
HETATM    5  O   UNL     1      -8.817   9.879  68.395  1.00  0.00    -0.118 OA 
HETATM    6  H   UNL     1      -8.768  10.617  68.992  1.00  0.00     0.000 HD 
ENDBRANCH   2   3
BRANCH   2   7
HETATM    7  C   UNL     1     -10.185   7.831  66.883  1.00  0.00    -0.303 C  
HETATM    8  O   UNL     1     -10.905   7.769  67.881  1.00  0.00    -0.138 OA 
BRANCH   7   9
HETATM    9  N   UNL     1      -9.951   6.729  66.098  1.00  0.00    -0.411 N  
HETATM   10  H   UNL     1      -9.803   6.855  65.096  1.00  0.00     0.000 HD 
BRANCH   9  11
HETATM   11  C   UNL     1      -9.910   5.370  66.664  1.00  0.00    -0.174 C  
HETATM   12  C   UNL     1     -10.436   4.369  65.618  1.00  0.00    -0.193 C  
HETATM   13  O   UNL     1      -9.580   4.312  64.478  1.00  0.00    -0.159 OA 
HETATM   14  O   UNL     1     -11.716   4.822  65.174  1.00  0.00    -1.013 OA 
HETATM   15  H   UNL     1     -12.040   4.205  64.529  1.00  0.00     0.000 HD 
HETATM   16  C   UNL     1      -8.234   3.896  64.767  1.00  0.00    -0.093 C  
HETATM   17  C   UNL     1      -7.579   4.775  65.856  1.00  0.00    -0.090 C  
HETATM   18  H   UNL     1      -7.689   3.481  68.095  1.00  0.00     0.000 HD 
HETATM   19  C   UNL     1      -8.488   4.956  67.086  1.00  0.00    -0.105 C  
HETATM   20  O   UNL     1      -7.263   6.058  65.295  1.00  0.00    -0.066 OA 
HETATM   21  O   UNL     1      -8.566   3.737  67.835  1.00  0.00    -0.092 OA 
HETATM   22  H   UNL     1      -6.859   6.598  65.964  1.00  0.00     0.000 HD 
BRANCH  16  23
HETATM   23  C   UNL     1      -8.158   2.387  65.051  1.00  0.00    -0.079 C  
HETATM   24  O   UNL     1      -7.020   2.055  65.837  1.00  0.00    -0.038 OA 
HETATM   25  H   UNL     1      -6.972   1.122  66.013  1.00  0.00     0.000 HD 
ENDBRANCH  16  23
ENDBRANCH   9  11
ENDBRANCH   7   9
ENDBRANCH   2   7
TORSDOF 5
ENDMDL
MODEL      227
REMARK 921   NORMALIZED FREE ENERGY PREDICTED BY IDOCK:   -2.83 KCAL/MOL
REMARK 922        TOTAL FREE ENERGY PREDICTED BY IDOCK:   -4.49 KCAL/MOL
REMARK 923 INTER-LIGAND FREE ENERGY PREDICTED BY IDOCK:   -3.83 KCAL/MOL
REMARK 924 INTRA-LIGAND FREE ENERGY PREDICTED BY IDOCK:   -0.66 KCAL/MOL
REMARK 927      BINDING AFFINITY PREDICTED BY RF-SCORE:    0.00 PKD
ROOT
HETATM    1  C   UNL     1      -5.884   8.295  68.598  1.00  0.00    -0.040 C  
HETATM    2  N   UNL     1      -6.816   9.240  69.191  1.00  0.00    -0.050 N  
ENDROOT
BRANCH   2   3
HETATM    3  N   UNL     1      -6.385  10.479  69.673  1.00  0.00    -0.063 NA 
HETATM    4  H   UNL     1      -5.404  10.759  69.664  1.00  0.00     0.000 HD 
HETATM    5  O   UNL     1      -7.279  11.206  70.110  1.00  0.00    -0.434 OA 
HETATM    6  H   UNL     1      -6.986  12.048  70.438  1.00  0.00     0.000 HD 
ENDBRANCH   2   3
BRANCH   2   7
HETATM    7  C   UNL     1      -8.180   8.954  69.135  1.00  0.00    -0.118 C  
HETATM    8  O   UNL     1      -8.741   8.206  69.938  1.00  0.00    -0.135 OA 
BRANCH   7   9
HETATM    9  N   UNL     1      -8.866   9.541  68.101  1.00  0.00    -0.124 N  
HETATM   10  H   UNL     1      -9.691  10.104  68.309  1.00  0.00     0.000 HD 
BRANCH   9  11
HETATM   11  C   UNL     1      -8.443   9.379  66.699  1.00  0.00    -0.126 C  
HETATM   12  C   UNL     1      -9.667   9.013  65.840  1.00  0.00    -0.236 C  
HETATM   13  O   UNL     1     -10.618  10.077  65.810  1.00  0.00    -0.089 OA 
HETATM   14  O   UNL     1     -10.305   7.881  66.434  1.00  0.00    -0.482 OA 
HETATM   15  H   UNL     1     -11.061   7.655  65.904  1.00  0.00     0.000 HD 
HETATM   16  C   UNL     1     -10.115  11.306  65.260  1.00  0.00    -0.267 C  
HETATM   17  C   UNL     1      -8.836  11.782  65.984  1.00  0.00    -0.057 C  
HETATM   18  H   UNL     1      -6.804  11.138  64.516  1.00  0.00     0.000 HD 
HETATM   19  C   UNL     1      -7.796  10.656  66.133  1.00  0.00    -0.152 C  
HETATM   20  O   UNL     1      -9.192  12.288  67.280  1.00  0.00    -0.174 OA 
HETATM   21  O   UNL     1      -7.203  10.350  64.866  1.00  0.00    -0.129 OA 
HETATM   22  H   UNL     1      -8.405  12.581  67.724  1.00  0.00     0.000 HD 
BRANCH  16  23
HETATM   23  C   UNL     1      -9.976  11.225  63.731  1.00  0.00    -0.342 C  
HETATM   24  O   UNL     1     -11.241  11.107  63.091  1.00  0.00    -0.807 OA 
HETATM   25  H   UNL     1     -11.155  11.057  62.146  1.00  0.00     0.000 HD 
ENDBRANCH  16  23
ENDBRANCH   9  11
ENDBRANCH   7   9
ENDBRANCH   2   7
TORSDOF 5
ENDMDL
MODEL      228
REMARK 921   NORMALIZED FREE ENERGY PREDICTED BY IDOCK:   -2.83 KCAL/MOL
REMARK 922        TOTAL FREE ENERGY PREDICTED BY IDOCK:   -4.48 KCAL/MOL
REMARK 923 INTER-LIGAND FREE ENERGY PREDICTED BY IDOCK:   -3.66 KCAL/MOL
REMARK 924 INTRA-LIGAND FREE ENERGY PREDICTED BY IDOCK:   -0.82 KCAL/MOL
REMARK 927      BINDING AFFINITY PREDICTED BY RF-SCORE:    0.00 PKD
ROOT
HETATM    1  C   UNL     1      -8.925   7.773  66.629  1.00  0.00    -0.149 C  
HETATM    2  N   UNL     1      -9.422   8.963  67.300  1.00  0.00    -0.149 N  
ENDROOT
BRANCH   2   3
HETATM    3  N   UNL     1     -10.270   9.863  66.650  1.00  0.00    -0.231 NA 
HETATM    4  H   UNL     1     -10.462   9.810  65.649  1.00  0.00     0.000 HD 
HETATM    5  O   UNL     1     -10.770  10.725  67.375  1.00  0.00    -0.231 OA 
HETATM    6  H   UNL     1     -11.347  11.336  66.933  1.00  0.00     0.000 HD 
ENDBRANCH   2   3
BRANCH   2   7
HETATM    7  C   UNL     1      -9.161   9.117  68.661  1.00  0.00    -0.136 C  
HETATM    8  O   UNL     1      -8.668  10.142  69.137  1.00  0.00    -0.148 OA 
BRANCH   7   9
HETATM    9  N   UNL     1      -9.464   8.034  69.449  1.00  0.00    -0.159 N  
HETATM   10  H   UNL     1      -9.505   7.107  69.024  1.00  0.00     0.000 HD 
BRANCH   9  11
HETATM   11  C   UNL     1      -9.729   8.175  70.891  1.00  0.00    -0.166 C  
HETATM   12  C   UNL     1     -11.195   7.798  71.175  1.00  0.00    -0.264 C  
HETATM   13  O   UNL     1     -11.440   6.420  70.896  1.00  0.00    -0.321 OA 
HETATM   14  O   UNL     1     -12.029   8.568  70.308  1.00  0.00    -0.470 OA 
HETATM   15  H   UNL     1     -12.933   8.335  70.483  1.00  0.00     0.000 HD 
HETATM   16  C   UNL     1     -10.648   5.507  71.675  1.00  0.00    -0.231 C  
HETATM   17  C   UNL     1      -9.136   5.796  71.544  1.00  0.00    -0.140 C  
HETATM   18  H   UNL     1      -8.390   7.104  73.649  1.00  0.00     0.000 HD 
HETATM   19  C   UNL     1      -8.807   7.287  71.745  1.00  0.00    -0.116 C  
HETATM   20  O   UNL     1      -8.689   5.372  70.247  1.00  0.00    -0.123 OA 
HETATM   21  O   UNL     1      -8.959   7.653  73.122  1.00  0.00    -0.152 OA 
HETATM   22  H   UNL     1      -7.759   5.548  70.167  1.00  0.00     0.000 HD 
BRANCH  16  23
HETATM   23  C   UNL     1     -11.146   5.426  73.127  1.00  0.00    -0.308 C  
HETATM   24  O   UNL     1     -10.109   5.037  74.020  1.00  0.00    -0.169 OA 
HETATM   25  H   UNL     1     -10.416   4.987  74.918  1.00  0.00     0.000 HD 
ENDBRANCH  16  23
ENDBRANCH   9  11
ENDBRANCH   7   9
ENDBRANCH   2   7
TORSDOF 5
ENDMDL
MODEL      229
REMARK 921   NORMALIZED FREE ENERGY PREDICTED BY IDOCK:   -2.83 KCAL/MOL
REMARK 922        TOTAL FREE ENERGY PREDICTED BY IDOCK:   -4.48 KCAL/MOL
REMARK 923 INTER-LIGAND FREE ENERGY PREDICTED BY IDOCK:   -3.44 KCAL/MOL
REMARK 924 INTRA-LIGAND FREE ENERGY PREDICTED BY IDOCK:   -1.04 KCAL/MOL
REMARK 927      BINDING AFFINITY PREDICTED BY RF-SCORE:    0.00 PKD
ROOT
HETATM    1  C   UNL     1      -6.543   4.501  66.927  1.00  0.00    -0.050 C  
HETATM    2  N   UNL     1      -7.439   5.580  66.544  1.00  0.00    -0.086 N  
ENDROOT
BRANCH   2   3
HETATM    3  N   UNL     1      -6.991   6.657  65.775  1.00  0.00    -0.056 NA 
HETATM    4  H   UNL     1      -6.090   6.652  65.297  1.00  0.00     0.000 HD 
HETATM    5  O   UNL     1      -7.766   7.613  65.717  1.00  0.00    -0.091 OA 
HETATM    6  H   UNL     1      -7.461   8.346  65.195  1.00  0.00     0.000 HD 
ENDBRANCH   2   3
BRANCH   2   7
HETATM    7  C   UNL     1      -8.798   5.448  66.828  1.00  0.00    -0.112 C  
HETATM    8  O   UNL     1      -9.643   5.205  65.964  1.00  0.00    -0.155 OA 
BRANCH   7   9
HETATM    9  N   UNL     1      -9.150   5.635  68.142  1.00  0.00    -0.110 N  
HETATM   10  H   UNL     1      -9.181   4.830  68.767  1.00  0.00     0.000 HD 
BRANCH   9  11
HETATM   11  C   UNL     1      -9.483   6.968  68.672  1.00  0.00    -0.135 C  
HETATM   12  C   UNL     1     -11.006   7.064  68.880  1.00  0.00    -0.118 C  
HETATM   13  O   UNL     1     -11.451   6.153  69.885  1.00  0.00    -0.421 OA 
HETATM   14  O   UNL     1     -11.647   6.700  67.656  1.00  0.00    -0.664 OA 
HETATM   15  H   UNL     1     -12.586   6.759  67.785  1.00  0.00     0.000 HD 
HETATM   16  C   UNL     1     -10.870   6.372  71.182  1.00  0.00    -0.258 C  
HETATM   17  C   UNL     1      -9.325   6.366  71.132  1.00  0.00    -0.160 C  
HETATM   18  H   UNL     1      -8.518   8.824  71.156  1.00  0.00     0.000 HD 
HETATM   19  C   UNL     1      -8.774   7.261  70.006  1.00  0.00    -0.141 C  
HETATM   20  O   UNL     1      -8.869   5.017  70.946  1.00  0.00    -0.127 OA 
HETATM   21  O   UNL     1      -8.956   8.644  70.332  1.00  0.00    -0.142 OA 
HETATM   22  H   UNL     1      -7.919   5.013  70.916  1.00  0.00     0.000 HD 
BRANCH  16  23
HETATM   23  C   UNL     1     -11.469   7.610  71.868  1.00  0.00    -0.272 C  
HETATM   24  O   UNL     1     -10.610   8.119  72.882  1.00  0.00    -0.346 OA 
HETATM   25  H   UNL     1     -10.980   8.885  73.306  1.00  0.00     0.000 HD 
ENDBRANCH  16  23
ENDBRANCH   9  11
ENDBRANCH   7   9
ENDBRANCH   2   7
TORSDOF 5
ENDMDL
MODEL      230
REMARK 921   NORMALIZED FREE ENERGY PREDICTED BY IDOCK:   -2.82 KCAL/MOL
REMARK 922        TOTAL FREE ENERGY PREDICTED BY IDOCK:   -4.47 KCAL/MOL
REMARK 923 INTER-LIGAND FREE ENERGY PREDICTED BY IDOCK:   -3.81 KCAL/MOL
REMARK 924 INTRA-LIGAND FREE ENERGY PREDICTED BY IDOCK:   -0.66 KCAL/MOL
REMARK 927      BINDING AFFINITY PREDICTED BY RF-SCORE:    0.00 PKD
ROOT
HETATM    1  C   UNL     1      -9.847   9.918  67.535  1.00  0.00    -0.169 C  
HETATM    2  N   UNL     1      -9.120  11.112  67.138  1.00  0.00    -0.146 N  
ENDROOT
BRANCH   2   3
HETATM    3  N   UNL     1      -9.341  11.718  65.899  1.00  0.00    -0.281 NA 
HETATM    4  H   UNL     1      -8.673  12.366  65.479  1.00  0.00     0.000 HD 
HETATM    5  O   UNL     1     -10.401  11.412  65.351  1.00  0.00    -0.258 OA 
HETATM    6  H   UNL     1     -10.551  11.824  64.508  1.00  0.00     0.000 HD 
ENDBRANCH   2   3
BRANCH   2   7
HETATM    7  C   UNL     1      -8.303  11.737  68.080  1.00  0.00    -0.156 C  
HETATM    8  O   UNL     1      -7.385  11.156  68.663  1.00  0.00    -0.094 OA 
BRANCH   7   9
HETATM    9  N   UNL     1      -8.602  13.051  68.346  1.00  0.00    -0.280 N  
HETATM   10  H   UNL     1      -9.157  13.277  69.172  1.00  0.00     0.000 HD 
BRANCH   9  11
HETATM   11  C   UNL     1      -8.143  14.142  67.470  1.00  0.00    -0.187 C  
HETATM   12  C   UNL     1      -9.241  15.218  67.383  1.00  0.00    -0.195 C  
HETATM   13  O   UNL     1      -9.461  15.839  68.649  1.00  0.00    -0.194 OA 
HETATM   14  O   UNL     1     -10.460  14.580  66.999  1.00  0.00    -0.265 OA 
HETATM   15  H   UNL     1     -11.138  15.244  66.946  1.00  0.00     0.000 HD 
HETATM   16  C   UNL     1      -8.309  16.507  69.190  1.00  0.00    -0.157 C  
HETATM   17  C   UNL     1      -7.087  15.566  69.286  1.00  0.00    -0.186 C  
HETATM   18  H   UNL     1      -5.535  16.068  67.276  1.00  0.00     0.000 HD 
HETATM   19  C   UNL     1      -6.843  14.791  67.977  1.00  0.00    -0.140 C  
HETATM   20  O   UNL     1      -7.292  14.641  70.365  1.00  0.00    -0.301 OA 
HETATM   21  O   UNL     1      -6.338  15.667  66.963  1.00  0.00    -0.298 OA 
HETATM   22  H   UNL     1      -6.540  14.063  70.425  1.00  0.00     0.000 HD 
BRANCH  16  23
HETATM   23  C   UNL     1      -8.025  17.828  68.456  1.00  0.00    -0.294 C  
HETATM   24  O   UNL     1      -6.660  18.214  68.573  1.00  0.00    -0.204 OA 
HETATM   25  H   UNL     1      -6.484  19.031  68.119  1.00  0.00     0.000 HD 
ENDBRANCH  16  23
ENDBRANCH   9  11
ENDBRANCH   7   9
ENDBRANCH   2   7
TORSDOF 5
ENDMDL
MODEL      231
REMARK 921   NORMALIZED FREE ENERGY PREDICTED BY IDOCK:   -2.81 KCAL/MOL
REMARK 922        TOTAL FREE ENERGY PREDICTED BY IDOCK:   -4.46 KCAL/MOL
REMARK 923 INTER-LIGAND FREE ENERGY PREDICTED BY IDOCK:   -3.50 KCAL/MOL
REMARK 924 INTRA-LIGAND FREE ENERGY PREDICTED BY IDOCK:   -0.95 KCAL/MOL
REMARK 927      BINDING AFFINITY PREDICTED BY RF-SCORE:    0.00 PKD
ROOT
HETATM    1  C   UNL     1      -8.058   5.706  63.513  1.00  0.00    -0.112 C  
HETATM    2  N   UNL     1      -7.290   6.940  63.482  1.00  0.00    -0.074 N  
ENDROOT
BRANCH   2   3
HETATM    3  N   UNL     1      -5.894   6.925  63.424  1.00  0.00    -0.035 NA 
HETATM    4  H   UNL     1      -5.319   6.518  64.161  1.00  0.00     0.000 HD 
HETATM    5  O   UNL     1      -5.410   7.440  62.414  1.00  0.00    -0.043 OA 
HETATM    6  H   UNL     1      -4.461   7.430  62.375  1.00  0.00     0.000 HD 
ENDBRANCH   2   3
BRANCH   2   7
HETATM    7  C   UNL     1      -7.976   8.147  63.358  1.00  0.00    -0.147 C  
HETATM    8  O   UNL     1      -7.930   8.843  62.342  1.00  0.00    -0.126 OA 
BRANCH   7   9
HETATM    9  N   UNL     1      -8.697   8.536  64.460  1.00  0.00    -0.405 N  
HETATM   10  H   UNL     1      -9.612   8.115  64.629  1.00  0.00     0.000 HD 
BRANCH   9  11
HETATM   11  C   UNL     1      -8.185   9.543  65.405  1.00  0.00    -0.127 C  
HETATM   12  C   UNL     1      -8.967  10.856  65.217  1.00  0.00    -0.186 C  
HETATM   13  O   UNL     1     -10.341  10.698  65.567  1.00  0.00    -0.266 OA 
HETATM   14  O   UNL     1      -8.913  11.213  63.835  1.00  0.00    -0.371 OA 
HETATM   15  H   UNL     1      -9.395  12.023  63.719  1.00  0.00     0.000 HD 
HETATM   16  C   UNL     1     -10.564  10.309  66.933  1.00  0.00    -0.217 C  
HETATM   17  C   UNL     1      -9.790   9.023  67.302  1.00  0.00    -0.196 C  
HETATM   18  H   UNL     1      -7.665   9.720  68.606  1.00  0.00     0.000 HD 
HETATM   19  C   UNL     1      -8.312   9.087  66.870  1.00  0.00    -0.119 C  
HETATM   20  O   UNL     1     -10.428   7.898  66.679  1.00  0.00    -0.439 OA 
HETATM   21  O   UNL     1      -7.587  10.001  67.701  1.00  0.00    -0.090 OA 
HETATM   22  H   UNL     1      -9.952   7.107  66.907  1.00  0.00     0.000 HD 
BRANCH  16  23
HETATM   23  C   UNL     1     -10.328  11.480  67.900  1.00  0.00    -0.183 C  
HETATM   24  O   UNL     1     -10.004  11.027  69.209  1.00  0.00    -0.368 OA 
HETATM   25  H   UNL     1      -9.857  11.752  69.807  1.00  0.00     0.000 HD 
ENDBRANCH  16  23
ENDBRANCH   9  11
ENDBRANCH   7   9
ENDBRANCH   2   7
TORSDOF 5
ENDMDL
MODEL      232
REMARK 921   NORMALIZED FREE ENERGY PREDICTED BY IDOCK:   -2.79 KCAL/MOL
REMARK 922        TOTAL FREE ENERGY PREDICTED BY IDOCK:   -4.43 KCAL/MOL
REMARK 923 INTER-LIGAND FREE ENERGY PREDICTED BY IDOCK:   -4.46 KCAL/MOL
REMARK 924 INTRA-LIGAND FREE ENERGY PREDICTED BY IDOCK:    0.03 KCAL/MOL
REMARK 927      BINDING AFFINITY PREDICTED BY RF-SCORE:    0.00 PKD
ROOT
HETATM    1  C   UNL     1      -5.875  17.067  66.968  1.00  0.00    -0.179 C  
HETATM    2  N   UNL     1      -7.166  16.434  67.181  1.00  0.00    -0.177 N  
ENDROOT
BRANCH   2   3
HETATM    3  N   UNL     1      -8.356  17.076  66.830  1.00  0.00    -0.215 NA 
HETATM    4  H   UNL     1      -9.118  17.218  67.493  1.00  0.00     0.000 HD 
HETATM    5  O   UNL     1      -8.416  17.457  65.659  1.00  0.00    -0.468 OA 
HETATM    6  H   UNL     1      -9.225  17.893  65.421  1.00  0.00     0.000 HD 
ENDBRANCH   2   3
BRANCH   2   7
HETATM    7  C   UNL     1      -7.193  15.105  67.605  1.00  0.00    -0.185 C  
HETATM    8  O   UNL     1      -6.683  14.728  68.662  1.00  0.00    -0.083 OA 
BRANCH   7   9
HETATM    9  N   UNL     1      -7.807  14.223  66.750  1.00  0.00    -0.253 N  
HETATM   10  H   UNL     1      -7.483  14.160  65.785  1.00  0.00     0.000 HD 
BRANCH   9  11
HETATM   11  C   UNL     1      -8.921  13.366  67.191  1.00  0.00    -0.226 C  
HETATM   12  C   UNL     1      -9.889  14.197  68.054  1.00  0.00    -0.223 C  
HETATM   13  O   UNL     1     -10.509  15.231  67.290  1.00  0.00    -0.265 OA 
HETATM   14  O   UNL     1      -9.133  14.823  69.093  1.00  0.00    -0.304 OA 
HETATM   15  H   UNL     1      -9.730  15.336  69.625  1.00  0.00     0.000 HD 
HETATM   16  C   UNL     1     -11.290  14.760  66.180  1.00  0.00    -0.330 C  
HETATM   17  C   UNL     1     -10.469  13.850  65.239  1.00  0.00    -0.371 C  
HETATM   18  H   UNL     1     -11.078  11.393  65.776  1.00  0.00     0.000 HD 
HETATM   19  C   UNL     1      -9.697  12.761  66.007  1.00  0.00    -0.224 C  
HETATM   20  O   UNL     1      -9.548  14.659  64.491  1.00  0.00    -0.285 OA 
HETATM   21  O   UNL     1     -10.598  11.766  66.507  1.00  0.00    -0.235 OA 
HETATM   22  H   UNL     1      -9.043  14.100  63.912  1.00  0.00     0.000 HD 
BRANCH  16  23
HETATM   23  C   UNL     1     -12.618  14.141  66.646  1.00  0.00    -0.051 C  
HETATM   24  O   UNL     1     -13.170  13.273  65.662  1.00  0.00    -0.380 OA 
HETATM   25  H   UNL     1     -13.991  12.891  65.950  1.00  0.00     0.000 HD 
ENDBRANCH  16  23
ENDBRANCH   9  11
ENDBRANCH   7   9
ENDBRANCH   2   7
TORSDOF 5
ENDMDL
MODEL      233
REMARK 921   NORMALIZED FREE ENERGY PREDICTED BY IDOCK:   -2.77 KCAL/MOL
REMARK 922        TOTAL FREE ENERGY PREDICTED BY IDOCK:   -4.40 KCAL/MOL
REMARK 923 INTER-LIGAND FREE ENERGY PREDICTED BY IDOCK:   -3.53 KCAL/MOL
REMARK 924 INTRA-LIGAND FREE ENERGY PREDICTED BY IDOCK:   -0.86 KCAL/MOL
REMARK 927      BINDING AFFINITY PREDICTED BY RF-SCORE:    0.00 PKD
ROOT
HETATM    1  C   UNL     1      -9.402   4.395  64.958  1.00  0.00    -0.164 C  
HETATM    2  N   UNL     1      -9.209   4.114  66.371  1.00  0.00    -0.146 N  
ENDROOT
BRANCH   2   3
HETATM    3  N   UNL     1      -9.770   2.983  66.969  1.00  0.00    -0.380 NA 
HETATM    4  H   UNL     1     -10.300   3.030  67.840  1.00  0.00     0.000 HD 
HETATM    5  O   UNL     1      -9.578   1.925  66.367  1.00  0.00    -0.342 OA 
HETATM    6  H   UNL     1      -9.959   1.157  66.775  1.00  0.00     0.000 HD 
ENDBRANCH   2   3
BRANCH   2   7
HETATM    7  C   UNL     1      -8.323   4.913  67.093  1.00  0.00    -0.106 C  
HETATM    8  O   UNL     1      -7.150   5.088  66.756  1.00  0.00    -0.066 OA 
BRANCH   7   9
HETATM    9  N   UNL     1      -8.834   5.482  68.234  1.00  0.00    -0.105 N  
HETATM   10  H   UNL     1      -8.463   5.196  69.140  1.00  0.00     0.000 HD 
BRANCH   9  11
HETATM   11  C   UNL     1      -9.902   6.495  68.183  1.00  0.00    -0.131 C  
HETATM   12  C   UNL     1     -10.420   6.756  69.609  1.00  0.00    -0.214 C  
HETATM   13  O   UNL     1      -9.409   7.339  70.431  1.00  0.00    -0.158 OA 
HETATM   14  O   UNL     1     -10.777   5.501  70.190  1.00  0.00    -0.306 OA 
HETATM   15  H   UNL     1     -11.097   5.662  71.070  1.00  0.00     0.000 HD 
HETATM   16  C   UNL     1      -8.919   8.606  69.961  1.00  0.00    -0.147 C  
HETATM   17  C   UNL     1      -8.412   8.525  68.503  1.00  0.00    -0.131 C  
HETATM   18  H   UNL     1     -10.257   9.484  66.963  1.00  0.00     0.000 HD 
HETATM   19  C   UNL     1      -9.419   7.823  67.572  1.00  0.00    -0.141 C  
HETATM   20  O   UNL     1      -7.161   7.820  68.482  1.00  0.00    -0.069 OA 
HETATM   21  O   UNL     1     -10.555   8.664  67.340  1.00  0.00    -0.274 OA 
HETATM   22  H   UNL     1      -6.849   7.771  67.585  1.00  0.00     0.000 HD 
BRANCH  16  23
HETATM   23  C   UNL     1      -9.937   9.731  70.207  1.00  0.00    -0.253 C  
HETATM   24  O   UNL     1      -9.708  10.847  69.354  1.00  0.00    -0.402 OA 
HETATM   25  H   UNL     1     -10.337  11.543  69.506  1.00  0.00     0.000 HD 
ENDBRANCH  16  23
ENDBRANCH   9  11
ENDBRANCH   7   9
ENDBRANCH   2   7
TORSDOF 5
ENDMDL
MODEL      234
REMARK 921   NORMALIZED FREE ENERGY PREDICTED BY IDOCK:   -2.75 KCAL/MOL
REMARK 922        TOTAL FREE ENERGY PREDICTED BY IDOCK:   -4.38 KCAL/MOL
REMARK 923 INTER-LIGAND FREE ENERGY PREDICTED BY IDOCK:   -3.32 KCAL/MOL
REMARK 924 INTRA-LIGAND FREE ENERGY PREDICTED BY IDOCK:   -1.06 KCAL/MOL
REMARK 927      BINDING AFFINITY PREDICTED BY RF-SCORE:    0.00 PKD
ROOT
HETATM    1  C   UNL     1      -5.683   6.331  69.139  1.00  0.00    -0.020 C  
HETATM    2  N   UNL     1      -6.614   7.447  69.113  1.00  0.00    -0.039 N  
ENDROOT
BRANCH   2   3
HETATM    3  N   UNL     1      -6.477   8.527  69.988  1.00  0.00    -0.038 NA 
HETATM    4  H   UNL     1      -6.623   8.440  70.994  1.00  0.00     0.000 HD 
HETATM    5  O   UNL     1      -6.165   9.593  69.453  1.00  0.00    -0.040 OA 
HETATM    6  H   UNL     1      -6.072  10.328  70.048  1.00  0.00     0.000 HD 
ENDBRANCH   2   3
BRANCH   2   7
HETATM    7  C   UNL     1      -7.565   7.496  68.094  1.00  0.00    -0.114 C  
HETATM    8  O   UNL     1      -7.544   6.740  67.121  1.00  0.00    -0.095 OA 
BRANCH   7   9
HETATM    9  N   UNL     1      -8.524   8.469  68.225  1.00  0.00    -0.133 N  
HETATM   10  H   UNL     1      -8.875   8.698  69.155  1.00  0.00     0.000 HD 
BRANCH   9  11
HETATM   11  C   UNL     1      -9.060   9.191  67.058  1.00  0.00    -0.123 C  
HETATM   12  C   UNL     1     -10.598   9.199  67.130  1.00  0.00    -0.216 C  
HETATM   13  O   UNL     1     -11.062   9.940  68.258  1.00  0.00    -0.230 OA 
HETATM   14  O   UNL     1     -11.043   7.850  67.288  1.00  0.00    -0.496 OA 
HETATM   15  H   UNL     1     -11.992   7.855  67.332  1.00  0.00     0.000 HD 
HETATM   16  C   UNL     1     -10.669  11.323  68.260  1.00  0.00    -0.194 C  
HETATM   17  C   UNL     1      -9.138  11.490  68.132  1.00  0.00    -0.181 C  
HETATM   18  H   UNL     1      -8.606  12.093  65.672  1.00  0.00     0.000 HD 
HETATM   19  C   UNL     1      -8.553  10.643  66.986  1.00  0.00    -0.128 C  
HETATM   20  O   UNL     1      -8.521  11.116  69.374  1.00  0.00    -0.378 OA 
HETATM   21  O   UNL     1      -8.919  11.197  65.717  1.00  0.00    -0.198 OA 
HETATM   22  H   UNL     1      -7.580  11.219  69.295  1.00  0.00     0.000 HD 
BRANCH  16  23
HETATM   23  C   UNL     1     -11.475  12.141  67.238  1.00  0.00    -0.345 C  
HETATM   24  O   UNL     1     -11.932  13.371  67.789  1.00  0.00    -0.351 OA 
HETATM   25  H   UNL     1     -12.431  13.877  67.158  1.00  0.00     0.000 HD 
ENDBRANCH  16  23
ENDBRANCH   9  11
ENDBRANCH   7   9
ENDBRANCH   2   7
TORSDOF 5
ENDMDL
MODEL      235
REMARK 921   NORMALIZED FREE ENERGY PREDICTED BY IDOCK:   -2.75 KCAL/MOL
REMARK 922        TOTAL FREE ENERGY PREDICTED BY IDOCK:   -4.38 KCAL/MOL
REMARK 923 INTER-LIGAND FREE ENERGY PREDICTED BY IDOCK:   -3.79 KCAL/MOL
REMARK 924 INTRA-LIGAND FREE ENERGY PREDICTED BY IDOCK:   -0.59 KCAL/MOL
REMARK 927      BINDING AFFINITY PREDICTED BY RF-SCORE:    0.00 PKD
ROOT
HETATM    1  C   UNL     1      -7.487  10.495  69.194  1.00  0.00    -0.114 C  
HETATM    2  N   UNL     1      -7.598   9.505  68.136  1.00  0.00    -0.079 N  
ENDROOT
BRANCH   2   3
HETATM    3  N   UNL     1      -6.859   8.320  68.170  1.00  0.00    -0.068 NA 
HETATM    4  H   UNL     1      -5.851   8.298  68.012  1.00  0.00     0.000 HD 
HETATM    5  O   UNL     1      -7.515   7.304  68.405  1.00  0.00    -0.100 OA 
HETATM    6  H   UNL     1      -7.012   6.498  68.428  1.00  0.00     0.000 HD 
ENDBRANCH   2   3
BRANCH   2   7
HETATM    7  C   UNL     1      -8.572   9.686  67.155  1.00  0.00    -0.132 C  
HETATM    8  O   UNL     1      -8.624   9.007  66.128  1.00  0.00    -0.124 OA 
BRANCH   7   9
HETATM    9  N   UNL     1      -9.470  10.699  67.391  1.00  0.00    -0.153 N  
HETATM   10  H   UNL     1      -9.229  11.429  68.062  1.00  0.00     0.000 HD 
BRANCH   9  11
HETATM   11  C   UNL     1     -10.769  10.759  66.700  1.00  0.00    -0.207 C  
HETATM   12  C   UNL     1     -11.781  11.506  67.588  1.00  0.00    -0.208 C  
HETATM   13  O   UNL     1     -11.404  12.871  67.770  1.00  0.00    -0.264 OA 
HETATM   14  O   UNL     1     -11.786  10.886  68.875  1.00  0.00    -0.297 OA 
HETATM   15  H   UNL     1     -12.410  11.347  69.423  1.00  0.00     0.000 HD 
HETATM   16  C   UNL     1     -11.325  13.631  66.552  1.00  0.00    -0.319 C  
HETATM   17  C   UNL     1     -10.383  12.972  65.519  1.00  0.00    -0.294 C  
HETATM   18  H   UNL     1     -11.848  11.720  63.791  1.00  0.00     0.000 HD 
HETATM   19  C   UNL     1     -10.674  11.471  65.338  1.00  0.00    -0.278 C  
HETATM   20  O   UNL     1      -9.024  13.155  65.943  1.00  0.00    -0.394 OA 
HETATM   21  O   UNL     1     -11.906  11.281  64.632  1.00  0.00     0.115 OA 
HETATM   22  H   UNL     1      -8.444  12.750  65.307  1.00  0.00     0.000 HD 
BRANCH  16  23
HETATM   23  C   UNL     1     -12.722  13.963  66.002  1.00  0.00    -0.362 C  
HETATM   24  O   UNL     1     -12.650  14.687  64.779  1.00  0.00    -0.514 OA 
HETATM   25  H   UNL     1     -13.513  14.892  64.439  1.00  0.00     0.000 HD 
ENDBRANCH  16  23
ENDBRANCH   9  11
ENDBRANCH   7   9
ENDBRANCH   2   7
TORSDOF 5
ENDMDL
MODEL      236
REMARK 921   NORMALIZED FREE ENERGY PREDICTED BY IDOCK:   -2.73 KCAL/MOL
REMARK 922        TOTAL FREE ENERGY PREDICTED BY IDOCK:   -4.35 KCAL/MOL
REMARK 923 INTER-LIGAND FREE ENERGY PREDICTED BY IDOCK:   -3.82 KCAL/MOL
REMARK 924 INTRA-LIGAND FREE ENERGY PREDICTED BY IDOCK:   -0.53 KCAL/MOL
REMARK 927      BINDING AFFINITY PREDICTED BY RF-SCORE:    0.00 PKD
ROOT
HETATM    1  C   UNL     1      -8.867   5.381  65.642  1.00  0.00    -0.153 C  
HETATM    2  N   UNL     1      -8.481   6.376  66.628  1.00  0.00    -0.112 N  
ENDROOT
BRANCH   2   3
HETATM    3  N   UNL     1      -7.255   6.301  67.294  1.00  0.00    -0.077 NA 
HETATM    4  H   UNL     1      -6.600   7.083  67.327  1.00  0.00     0.000 HD 
HETATM    5  O   UNL     1      -7.024   5.221  67.839  1.00  0.00    -0.062 OA 
HETATM    6  H   UNL     1      -6.190   5.170  68.292  1.00  0.00     0.000 HD 
ENDBRANCH   2   3
BRANCH   2   7
HETATM    7  C   UNL     1      -9.291   7.499  66.792  1.00  0.00    -0.165 C  
HETATM    8  O   UNL     1      -9.315   8.432  65.986  1.00  0.00    -0.209 OA 
BRANCH   7   9
HETATM    9  N   UNL     1     -10.053   7.519  67.934  1.00  0.00    -0.173 N  
HETATM   10  H   UNL     1     -10.923   6.987  67.959  1.00  0.00     0.000 HD 
BRANCH   9  11
HETATM   11  C   UNL     1      -9.647   8.288  69.122  1.00  0.00    -0.160 C  
HETATM   12  C   UNL     1     -10.846   9.116  69.623  1.00  0.00    -0.197 C  
HETATM   13  O   UNL     1     -11.904   8.275  70.081  1.00  0.00     0.078 OA 
HETATM   14  O   UNL     1     -11.348   9.881  68.526  1.00  0.00    -0.493 OA 
HETATM   15  H   UNL     1     -12.087  10.392  68.834  1.00  0.00     0.000 HD 
HETATM   16  C   UNL     1     -11.545   7.414  71.175  1.00  0.00    -0.286 C  
HETATM   17  C   UNL     1     -10.306   6.550  70.850  1.00  0.00    -0.207 C  
HETATM   18  H   UNL     1      -8.252   7.642  71.983  1.00  0.00     0.000 HD 
HETATM   19  C   UNL     1      -9.151   7.382  70.263  1.00  0.00    -0.151 C  
HETATM   20  O   UNL     1     -10.684   5.523  69.919  1.00  0.00    -0.319 OA 
HETATM   21  O   UNL     1      -8.559   8.202  71.278  1.00  0.00    -0.121 OA 
HETATM   22  H   UNL     1      -9.923   4.991  69.720  1.00  0.00     0.000 HD 
BRANCH  16  23
HETATM   23  C   UNL     1     -11.433   8.196  72.495  1.00  0.00    -0.404 C  
HETATM   24  O   UNL     1     -12.701   8.661  72.942  1.00  0.00    -0.611 OA 
HETATM   25  H   UNL     1     -12.632   9.144  73.758  1.00  0.00     0.000 HD 
ENDBRANCH  16  23
ENDBRANCH   9  11
ENDBRANCH   7   9
ENDBRANCH   2   7
TORSDOF 5
ENDMDL
MODEL      237
REMARK 921   NORMALIZED FREE ENERGY PREDICTED BY IDOCK:   -2.71 KCAL/MOL
REMARK 922        TOTAL FREE ENERGY PREDICTED BY IDOCK:   -4.33 KCAL/MOL
REMARK 923 INTER-LIGAND FREE ENERGY PREDICTED BY IDOCK:   -3.30 KCAL/MOL
REMARK 924 INTRA-LIGAND FREE ENERGY PREDICTED BY IDOCK:   -1.03 KCAL/MOL
REMARK 927      BINDING AFFINITY PREDICTED BY RF-SCORE:    0.00 PKD
ROOT
HETATM    1  C   UNL     1      -8.831   5.454  65.352  1.00  0.00    -0.143 C  
HETATM    2  N   UNL     1      -8.371   6.359  66.392  1.00  0.00    -0.115 N  
ENDROOT
BRANCH   2   3
HETATM    3  N   UNL     1      -7.050   6.332  66.847  1.00  0.00    -0.071 NA 
HETATM    4  H   UNL     1      -6.539   5.461  66.993  1.00  0.00     0.000 HD 
HETATM    5  O   UNL     1      -6.550   7.438  67.060  1.00  0.00    -0.057 OA 
HETATM    6  H   UNL     1      -5.652   7.418  67.370  1.00  0.00     0.000 HD 
ENDBRANCH   2   3
BRANCH   2   7
HETATM    7  C   UNL     1      -9.233   7.366  66.825  1.00  0.00    -0.156 C  
HETATM    8  O   UNL     1      -9.592   8.299  66.103  1.00  0.00    -0.209 OA 
BRANCH   7   9
HETATM    9  N   UNL     1      -9.644   7.273  68.132  1.00  0.00    -0.139 N  
HETATM   10  H   UNL     1     -10.315   7.952  68.492  1.00  0.00     0.000 HD 
BRANCH   9  11
HETATM   11  C   UNL     1      -9.141   6.218  69.029  1.00  0.00    -0.129 C  
HETATM   12  C   UNL     1      -8.422   6.869  70.224  1.00  0.00    -0.139 C  
HETATM   13  O   UNL     1      -9.330   7.624  71.027  1.00  0.00    -0.152 OA 
HETATM   14  O   UNL     1      -7.442   7.775  69.715  1.00  0.00    -0.085 OA 
HETATM   15  H   UNL     1      -6.999   8.177  70.453  1.00  0.00     0.000 HD 
HETATM   16  C   UNL     1     -10.401   6.852  71.595  1.00  0.00    -0.199 C  
HETATM   17  C   UNL     1     -11.193   6.080  70.516  1.00  0.00    -0.292 C  
HETATM   18  H   UNL     1     -10.380   3.623  70.539  1.00  0.00     0.000 HD 
HETATM   19  C   UNL     1     -10.269   5.311  69.553  1.00  0.00    -0.268 C  
HETATM   20  O   UNL     1     -12.001   7.007  69.775  1.00  0.00    -0.588 OA 
HETATM   21  O   UNL     1      -9.684   4.183  70.214  1.00  0.00    -0.189 OA 
HETATM   22  H   UNL     1     -12.488   6.532  69.112  1.00  0.00     0.000 HD 
BRANCH  16  23
HETATM   23  C   UNL     1      -9.911   5.975  72.759  1.00  0.00    -0.163 C  
HETATM   24  O   UNL     1     -10.755   4.848  72.963  1.00  0.00    -0.207 OA 
HETATM   25  H   UNL     1     -10.452   4.306  73.682  1.00  0.00     0.000 HD 
ENDBRANCH  16  23
ENDBRANCH   9  11
ENDBRANCH   7   9
ENDBRANCH   2   7
TORSDOF 5
ENDMDL
MODEL      238
REMARK 921   NORMALIZED FREE ENERGY PREDICTED BY IDOCK:   -2.71 KCAL/MOL
REMARK 922        TOTAL FREE ENERGY PREDICTED BY IDOCK:   -4.32 KCAL/MOL
REMARK 923 INTER-LIGAND FREE ENERGY PREDICTED BY IDOCK:   -3.68 KCAL/MOL
REMARK 924 INTRA-LIGAND FREE ENERGY PREDICTED BY IDOCK:   -0.65 KCAL/MOL
REMARK 927      BINDING AFFINITY PREDICTED BY RF-SCORE:    0.00 PKD
ROOT
HETATM    1  C   UNL     1      -6.751   8.105  74.228  1.00  0.00    -0.129 C  
HETATM    2  N   UNL     1      -6.830   7.782  72.813  1.00  0.00    -0.070 N  
ENDROOT
BRANCH   2   3
HETATM    3  N   UNL     1      -6.158   6.678  72.282  1.00  0.00    -0.038 NA 
HETATM    4  H   UNL     1      -5.593   6.736  71.435  1.00  0.00     0.000 HD 
HETATM    5  O   UNL     1      -6.300   5.629  72.913  1.00  0.00    -0.056 OA 
HETATM    6  H   UNL     1      -5.843   4.878  72.552  1.00  0.00     0.000 HD 
ENDBRANCH   2   3
BRANCH   2   7
HETATM    7  C   UNL     1      -7.714   8.506  72.014  1.00  0.00    -0.096 C  
HETATM    8  O   UNL     1      -7.534   9.688  71.715  1.00  0.00     0.009 OA 
BRANCH   7   9
HETATM    9  N   UNL     1      -8.830   7.823  71.595  1.00  0.00    -0.115 N  
HETATM   10  H   UNL     1      -8.831   6.804  71.633  1.00  0.00     0.000 HD 
BRANCH   9  11
HETATM   11  C   UNL     1     -10.024   8.524  71.094  1.00  0.00    -0.207 C  
HETATM   12  C   UNL     1     -10.732   7.637  70.053  1.00  0.00    -0.241 C  
HETATM   13  O   UNL     1     -11.238   6.442  70.648  1.00  0.00    -0.293 OA 
HETATM   14  O   UNL     1      -9.772   7.254  69.067  1.00  0.00    -0.150 OA 
HETATM   15  H   UNL     1     -10.209   6.707  68.425  1.00  0.00     0.000 HD 
HETATM   16  C   UNL     1     -12.204   6.661  71.690  1.00  0.00    -0.352 C  
HETATM   17  C   UNL     1     -11.661   7.594  72.796  1.00  0.00    -0.281 C  
HETATM   18  H   UNL     1     -12.633   9.958  72.392  1.00  0.00     0.000 HD 
HETATM   19  C   UNL     1     -11.016   8.868  72.219  1.00  0.00    -0.175 C  
HETATM   20  O   UNL     1     -10.696   6.876  73.581  1.00  0.00    -0.435 OA 
HETATM   21  O   UNL     1     -12.021   9.745  71.697  1.00  0.00    -0.383 OA 
HETATM   22  H   UNL     1     -10.363   7.449  74.261  1.00  0.00     0.000 HD 
BRANCH  16  23
HETATM   23  C   UNL     1     -13.563   7.095  71.117  1.00  0.00    -0.102 C  
HETATM   24  O   UNL     1     -14.386   7.696  72.110  1.00  0.00    -0.563 OA 
HETATM   25  H   UNL     1     -15.227   7.965  71.756  1.00  0.00     0.000 HD 
ENDBRANCH  16  23
ENDBRANCH   9  11
ENDBRANCH   7   9
ENDBRANCH   2   7
TORSDOF 5
ENDMDL
MODEL      239
REMARK 921   NORMALIZED FREE ENERGY PREDICTED BY IDOCK:   -2.71 KCAL/MOL
REMARK 922        TOTAL FREE ENERGY PREDICTED BY IDOCK:   -4.32 KCAL/MOL
REMARK 923 INTER-LIGAND FREE ENERGY PREDICTED BY IDOCK:   -4.58 KCAL/MOL
REMARK 924 INTRA-LIGAND FREE ENERGY PREDICTED BY IDOCK:    0.26 KCAL/MOL
REMARK 927      BINDING AFFINITY PREDICTED BY RF-SCORE:    0.00 PKD
ROOT
HETATM    1  C   UNL     1     -11.892  12.291  66.312  1.00  0.00    -0.317 C  
HETATM    2  N   UNL     1     -10.670  12.859  65.767  1.00  0.00    -0.269 N  
ENDROOT
BRANCH   2   3
HETATM    3  N   UNL     1     -10.594  13.276  64.436  1.00  0.00    -0.416 NA 
HETATM    4  H   UNL     1     -11.258  13.934  64.029  1.00  0.00     0.000 HD 
HETATM    5  O   UNL     1      -9.664  12.789  63.790  1.00  0.00    -0.678 OA 
HETATM    6  H   UNL     1      -9.612  13.072  62.885  1.00  0.00     0.000 HD 
ENDBRANCH   2   3
BRANCH   2   7
HETATM    7  C   UNL     1      -9.614  13.125  66.638  1.00  0.00    -0.260 C  
HETATM    8  O   UNL     1      -8.539  12.523  66.592  1.00  0.00    -0.160 OA 
BRANCH   7   9
HETATM    9  N   UNL     1      -9.854  14.092  67.583  1.00  0.00    -0.226 N  
HETATM   10  H   UNL     1      -9.837  15.073  67.304  1.00  0.00     0.000 HD 
BRANCH   9  11
HETATM   11  C   UNL     1     -10.133  13.750  68.988  1.00  0.00     0.019 C  
HETATM   12  C   UNL     1      -9.828  14.970  69.877  1.00  0.00     0.039 C  
HETATM   13  O   UNL     1     -10.708  16.056  69.587  1.00  0.00    -0.265 OA 
HETATM   14  O   UNL     1      -8.497  15.406  69.593  1.00  0.00    -0.279 OA 
HETATM   15  H   UNL     1      -8.309  16.158  70.141  1.00  0.00     0.000 HD 
HETATM   16  C   UNL     1     -12.099  15.765  69.797  1.00  0.00    -0.281 C  
HETATM   17  C   UNL     1     -12.553  14.514  69.011  1.00  0.00     0.248 C  
HETATM   18  H   UNL     1     -12.631  12.522  70.661  1.00  0.00     0.000 HD 
HETATM   19  C   UNL     1     -11.596  13.323  69.205  1.00  0.00    -0.314 C  
HETATM   20  O   UNL     1     -12.639  14.844  67.616  1.00  0.00    -0.265 OA 
HETATM   21  O   UNL     1     -11.728  12.785  70.526  1.00  0.00    -0.165 OA 
HETATM   22  H   UNL     1     -12.919  14.075  67.133  1.00  0.00     0.000 HD 
BRANCH  16  23
HETATM   23  C   UNL     1     -12.448  15.723  71.294  1.00  0.00    -0.448 C  
HETATM   24  O   UNL     1     -11.660  16.639  72.045  1.00  0.00    -0.538 OA 
HETATM   25  H   UNL     1     -11.875  16.614  72.971  1.00  0.00     0.000 HD 
ENDBRANCH  16  23
ENDBRANCH   9  11
ENDBRANCH   7   9
ENDBRANCH   2   7
TORSDOF 5
ENDMDL
MODEL      240
REMARK 921   NORMALIZED FREE ENERGY PREDICTED BY IDOCK:   -2.70 KCAL/MOL
REMARK 922        TOTAL FREE ENERGY PREDICTED BY IDOCK:   -4.31 KCAL/MOL
REMARK 923 INTER-LIGAND FREE ENERGY PREDICTED BY IDOCK:   -4.45 KCAL/MOL
REMARK 924 INTRA-LIGAND FREE ENERGY PREDICTED BY IDOCK:    0.14 KCAL/MOL
REMARK 927      BINDING AFFINITY PREDICTED BY RF-SCORE:    0.00 PKD
ROOT
HETATM    1  C   UNL     1     -10.970  15.195  69.044  1.00  0.00    -0.244 C  
HETATM    2  N   UNL     1     -10.250  16.082  68.145  1.00  0.00    -0.238 N  
ENDROOT
BRANCH   2   3
HETATM    3  N   UNL     1     -10.672  17.396  67.930  1.00  0.00    -0.384 NA 
HETATM    4  H   UNL     1     -11.629  17.628  67.663  1.00  0.00     0.000 HD 
HETATM    5  O   UNL     1      -9.802  18.254  68.087  1.00  0.00    -0.307 OA 
HETATM    6  H   UNL     1     -10.089  19.148  67.940  1.00  0.00     0.000 HD 
ENDBRANCH   2   3
BRANCH   2   7
HETATM    7  C   UNL     1      -9.037  15.647  67.613  1.00  0.00    -0.192 C  
HETATM    8  O   UNL     1      -8.000  16.311  67.677  1.00  0.00    -0.138 OA 
BRANCH   7   9
HETATM    9  N   UNL     1      -9.070  14.429  66.979  1.00  0.00    -0.225 N  
HETATM   10  H   UNL     1      -8.197  13.922  66.831  1.00  0.00     0.000 HD 
BRANCH   9  11
HETATM   11  C   UNL     1     -10.333  13.835  66.509  1.00  0.00    -0.286 C  
HETATM   12  C   UNL     1     -10.326  13.785  64.970  1.00  0.00    -0.382 C  
HETATM   13  O   UNL     1      -9.311  12.909  64.482  1.00  0.00     0.414 OA 
HETATM   14  O   UNL     1     -10.034  15.096  64.484  1.00  0.00    -0.332 OA 
HETATM   15  H   UNL     1     -10.030  15.066  63.534  1.00  0.00     0.000 HD 
HETATM   16  C   UNL     1      -9.450  11.544  64.911  1.00  0.00    -0.129 C  
HETATM   17  C   UNL     1      -9.533  11.427  66.450  1.00  0.00    -0.204 C  
HETATM   18  H   UNL     1     -12.021  11.123  67.092  1.00  0.00     0.000 HD 
HETATM   19  C   UNL     1     -10.549  12.412  67.057  1.00  0.00    -0.225 C  
HETATM   20  O   UNL     1      -8.232  11.668  67.008  1.00  0.00    -0.157 OA 
HETATM   21  O   UNL     1     -11.888  12.001  66.755  1.00  0.00    -0.581 OA 
HETATM   22  H   UNL     1      -8.283  11.595  67.954  1.00  0.00     0.000 HD 
BRANCH  16  23
HETATM   23  C   UNL     1     -10.591  10.832  64.168  1.00  0.00    -0.133 C  
HETATM   24  O   UNL     1     -10.259  10.581  62.807  1.00  0.00    -0.706 OA 
HETATM   25  H   UNL     1     -10.964  10.140  62.347  1.00  0.00     0.000 HD 
ENDBRANCH  16  23
ENDBRANCH   9  11
ENDBRANCH   7   9
ENDBRANCH   2   7
TORSDOF 5
ENDMDL
MODEL      241
REMARK 921   NORMALIZED FREE ENERGY PREDICTED BY IDOCK:   -2.69 KCAL/MOL
REMARK 922        TOTAL FREE ENERGY PREDICTED BY IDOCK:   -4.30 KCAL/MOL
REMARK 923 INTER-LIGAND FREE ENERGY PREDICTED BY IDOCK:   -3.69 KCAL/MOL
REMARK 924 INTRA-LIGAND FREE ENERGY PREDICTED BY IDOCK:   -0.61 KCAL/MOL
REMARK 927      BINDING AFFINITY PREDICTED BY RF-SCORE:    0.00 PKD
ROOT
HETATM    1  C   UNL     1      -9.241   4.115  63.827  1.00  0.00    -0.141 C  
HETATM    2  N   UNL     1      -8.466   5.247  64.310  1.00  0.00    -0.134 N  
ENDROOT
BRANCH   2   3
HETATM    3  N   UNL     1      -8.266   6.381  63.519  1.00  0.00    -0.305 NA 
HETATM    4  H   UNL     1      -7.742   6.353  62.644  1.00  0.00     0.000 HD 
HETATM    5  O   UNL     1      -8.771   7.416  63.957  1.00  0.00    -0.234 OA 
HETATM    6  H   UNL     1      -8.634   8.187  63.418  1.00  0.00     0.000 HD 
ENDBRANCH   2   3
BRANCH   2   7
HETATM    7  C   UNL     1      -8.048   5.247  65.641  1.00  0.00    -0.117 C  
HETATM    8  O   UNL     1      -7.141   4.526  66.059  1.00  0.00    -0.068 OA 
BRANCH   7   9
HETATM    9  N   UNL     1      -8.736   6.092  66.477  1.00  0.00    -0.128 N  
HETATM   10  H   UNL     1      -9.274   6.860  66.074  1.00  0.00     0.000 HD 
BRANCH   9  11
HETATM   11  C   UNL     1      -8.717   5.919  67.939  1.00  0.00    -0.104 C  
HETATM   12  C   UNL     1      -8.377   7.265  68.604  1.00  0.00    -0.125 C  
HETATM   13  O   UNL     1      -9.398   8.234  68.369  1.00  0.00    -0.136 OA 
HETATM   14  O   UNL     1      -7.171   7.759  68.018  1.00  0.00    -0.082 OA 
HETATM   15  H   UNL     1      -6.961   8.590  68.428  1.00  0.00     0.000 HD 
HETATM   16  C   UNL     1     -10.691   7.868  68.879  1.00  0.00    -0.073 C  
HETATM   17  C   UNL     1     -11.155   6.493  68.346  1.00  0.00    -0.254 C  
HETATM   18  H   UNL     1     -10.729   4.736  70.198  1.00  0.00     0.000 HD 
HETATM   19  C   UNL     1     -10.065   5.414  68.486  1.00  0.00    -0.177 C  
HETATM   20  O   UNL     1     -11.529   6.628  66.966  1.00  0.00    -0.763 OA 
HETATM   21  O   UNL     1      -9.897   5.047  69.860  1.00  0.00    -0.184 OA 
HETATM   22  H   UNL     1     -11.814   5.783  66.638  1.00  0.00     0.000 HD 
BRANCH  16  23
HETATM   23  C   UNL     1     -10.752   7.998  70.409  1.00  0.00    -0.233 C  
HETATM   24  O   UNL     1     -12.093   7.990  70.887  1.00  0.00    -0.432 OA 
HETATM   25  H   UNL     1     -12.131   8.070  71.833  1.00  0.00     0.000 HD 
ENDBRANCH  16  23
ENDBRANCH   9  11
ENDBRANCH   7   9
ENDBRANCH   2   7
TORSDOF 5
ENDMDL
MODEL      242
REMARK 921   NORMALIZED FREE ENERGY PREDICTED BY IDOCK:   -2.69 KCAL/MOL
REMARK 922        TOTAL FREE ENERGY PREDICTED BY IDOCK:   -4.29 KCAL/MOL
REMARK 923 INTER-LIGAND FREE ENERGY PREDICTED BY IDOCK:   -3.51 KCAL/MOL
REMARK 924 INTRA-LIGAND FREE ENERGY PREDICTED BY IDOCK:   -0.79 KCAL/MOL
REMARK 927      BINDING AFFINITY PREDICTED BY RF-SCORE:    0.00 PKD
ROOT
HETATM    1  C   UNL     1      -8.531   6.460  71.171  1.00  0.00    -0.124 C  
HETATM    2  N   UNL     1      -9.429   7.425  70.561  1.00  0.00    -0.162 N  
ENDROOT
BRANCH   2   3
HETATM    3  N   UNL     1     -10.387   7.033  69.622  1.00  0.00    -0.202 NA 
HETATM    4  H   UNL     1     -10.196   6.335  68.903  1.00  0.00     0.000 HD 
HETATM    5  O   UNL     1     -11.479   7.594  69.727  1.00  0.00    -0.465 OA 
HETATM    6  H   UNL     1     -12.130   7.328  69.088  1.00  0.00     0.000 HD 
ENDBRANCH   2   3
BRANCH   2   7
HETATM    7  C   UNL     1      -9.424   8.735  71.041  1.00  0.00    -0.228 C  
HETATM    8  O   UNL     1     -10.185   9.126  71.929  1.00  0.00    -0.332 OA 
BRANCH   7   9
HETATM    9  N   UNL     1      -8.528   9.583  70.439  1.00  0.00    -0.204 N  
HETATM   10  H   UNL     1      -7.965  10.204  71.021  1.00  0.00     0.000 HD 
BRANCH   9  11
HETATM   11  C   UNL     1      -8.358   9.619  68.977  1.00  0.00    -0.122 C  
HETATM   12  C   UNL     1      -9.442  10.525  68.363  1.00  0.00    -0.157 C  
HETATM   13  O   UNL     1      -9.282  11.881  68.780  1.00  0.00    -0.103 OA 
HETATM   14  O   UNL     1     -10.714  10.077  68.833  1.00  0.00    -0.203 OA 
HETATM   15  H   UNL     1     -11.383  10.636  68.455  1.00  0.00     0.000 HD 
HETATM   16  C   UNL     1      -8.027  12.473  68.404  1.00  0.00    -0.139 C  
HETATM   17  C   UNL     1      -6.823  11.640  68.899  1.00  0.00    -0.101 C  
HETATM   18  H   UNL     1      -5.941  10.251  66.901  1.00  0.00     0.000 HD 
HETATM   19  C   UNL     1      -6.971  10.144  68.563  1.00  0.00    -0.069 C  
HETATM   20  O   UNL     1      -6.692  11.806  70.319  1.00  0.00    -0.473 OA 
HETATM   21  O   UNL     1      -6.797   9.927  67.157  1.00  0.00    -0.081 OA 
HETATM   22  H   UNL     1      -5.952  11.294  70.623  1.00  0.00     0.000 HD 
BRANCH  16  23
HETATM   23  C   UNL     1      -7.985  12.802  66.903  1.00  0.00     0.052 C  
HETATM   24  O   UNL     1      -9.110  13.574  66.499  1.00  0.00    -0.393 OA 
HETATM   25  H   UNL     1      -9.084  13.778  65.571  1.00  0.00     0.000 HD 
ENDBRANCH  16  23
ENDBRANCH   9  11
ENDBRANCH   7   9
ENDBRANCH   2   7
TORSDOF 5
ENDMDL
MODEL      243
REMARK 921   NORMALIZED FREE ENERGY PREDICTED BY IDOCK:   -2.67 KCAL/MOL
REMARK 922        TOTAL FREE ENERGY PREDICTED BY IDOCK:   -4.28 KCAL/MOL
REMARK 923 INTER-LIGAND FREE ENERGY PREDICTED BY IDOCK:   -3.56 KCAL/MOL
REMARK 924 INTRA-LIGAND FREE ENERGY PREDICTED BY IDOCK:   -0.72 KCAL/MOL
REMARK 927      BINDING AFFINITY PREDICTED BY RF-SCORE:    0.00 PKD
ROOT
HETATM    1  C   UNL     1      -8.416   4.938  65.253  1.00  0.00    -0.137 C  
HETATM    2  N   UNL     1      -8.252   6.358  64.993  1.00  0.00    -0.141 N  
ENDROOT
BRANCH   2   3
HETATM    3  N   UNL     1      -7.756   6.821  63.771  1.00  0.00    -0.108 NA 
HETATM    4  H   UNL     1      -6.830   6.571  63.426  1.00  0.00     0.000 HD 
HETATM    5  O   UNL     1      -8.523   7.553  63.142  1.00  0.00    -0.372 OA 
HETATM    6  H   UNL     1      -8.185   7.867  62.312  1.00  0.00     0.000 HD 
ENDBRANCH   2   3
BRANCH   2   7
HETATM    7  C   UNL     1      -8.743   7.267  65.931  1.00  0.00    -0.131 C  
HETATM    8  O   UNL     1      -8.996   8.441  65.657  1.00  0.00    -0.179 OA 
BRANCH   7   9
HETATM    9  N   UNL     1      -8.904   6.776  67.203  1.00  0.00    -0.118 N  
HETATM   10  H   UNL     1      -8.570   5.836  67.419  1.00  0.00     0.000 HD 
BRANCH   9  11
HETATM   11  C   UNL     1      -9.545   7.571  68.264  1.00  0.00    -0.152 C  
HETATM   12  C   UNL     1     -10.861   6.889  68.683  1.00  0.00    -0.187 C  
HETATM   13  O   UNL     1     -10.618   5.616  69.281  1.00  0.00    -0.267 OA 
HETATM   14  O   UNL     1     -11.643   6.671  67.507  1.00  0.00    -0.693 OA 
HETATM   15  H   UNL     1     -12.454   6.249  67.765  1.00  0.00     0.000 HD 
HETATM   16  C   UNL     1      -9.814   5.664  70.471  1.00  0.00    -0.191 C  
HETATM   17  C   UNL     1      -8.466   6.381  70.230  1.00  0.00    -0.135 C  
HETATM   18  H   UNL     1      -8.674   8.793  71.144  1.00  0.00     0.000 HD 
HETATM   19  C   UNL     1      -8.644   7.728  69.503  1.00  0.00    -0.135 C  
HETATM   20  O   UNL     1      -7.611   5.524  69.458  1.00  0.00    -0.069 OA 
HETATM   21  O   UNL     1      -9.230   8.697  70.380  1.00  0.00    -0.156 OA 
HETATM   22  H   UNL     1      -6.783   5.965  69.310  1.00  0.00     0.000 HD 
BRANCH  16  23
HETATM   23  C   UNL     1     -10.608   6.210  71.668  1.00  0.00    -0.230 C  
HETATM   24  O   UNL     1      -9.753   6.585  72.742  1.00  0.00    -0.157 OA 
HETATM   25  H   UNL     1     -10.243   6.923  73.483  1.00  0.00     0.000 HD 
ENDBRANCH  16  23
ENDBRANCH   9  11
ENDBRANCH   7   9
ENDBRANCH   2   7
TORSDOF 5
ENDMDL
MODEL      244
REMARK 921   NORMALIZED FREE ENERGY PREDICTED BY IDOCK:   -2.66 KCAL/MOL
REMARK 922        TOTAL FREE ENERGY PREDICTED BY IDOCK:   -4.26 KCAL/MOL
REMARK 923 INTER-LIGAND FREE ENERGY PREDICTED BY IDOCK:   -3.61 KCAL/MOL
REMARK 924 INTRA-LIGAND FREE ENERGY PREDICTED BY IDOCK:   -0.65 KCAL/MOL
REMARK 927      BINDING AFFINITY PREDICTED BY RF-SCORE:    0.00 PKD
ROOT
HETATM    1  C   UNL     1      -8.483   4.635  72.484  1.00  0.00    -0.115 C  
HETATM    2  N   UNL     1      -9.798   5.198  72.743  1.00  0.00    -0.156 N  
ENDROOT
BRANCH   2   3
HETATM    3  N   UNL     1     -10.350   5.193  74.026  1.00  0.00    -0.239 NA 
HETATM    4  H   UNL     1     -10.412   4.347  74.592  1.00  0.00     0.000 HD 
HETATM    5  O   UNL     1     -10.757   6.287  74.422  1.00  0.00    -0.358 OA 
HETATM    6  H   UNL     1     -11.133   6.283  75.295  1.00  0.00     0.000 HD 
ENDBRANCH   2   3
BRANCH   2   7
HETATM    7  C   UNL     1     -10.441   5.886  71.714  1.00  0.00    -0.227 C  
HETATM    8  O   UNL     1     -11.566   6.375  71.835  1.00  0.00    -0.289 OA 
BRANCH   7   9
HETATM    9  N   UNL     1      -9.750   5.963  70.529  1.00  0.00    -0.171 N  
HETATM   10  H   UNL     1      -8.948   6.590  70.463  1.00  0.00     0.000 HD 
BRANCH   9  11
HETATM   11  C   UNL     1     -10.136   5.164  69.354  1.00  0.00    -0.234 C  
HETATM   12  C   UNL     1     -10.815   6.081  68.320  1.00  0.00    -0.284 C  
HETATM   13  O   UNL     1      -9.904   7.055  67.812  1.00  0.00    -0.132 OA 
HETATM   14  O   UNL     1     -11.875   6.781  68.974  1.00  0.00    -0.465 OA 
HETATM   15  H   UNL     1     -12.294   7.347  68.336  1.00  0.00     0.000 HD 
HETATM   16  C   UNL     1      -8.758   6.503  67.143  1.00  0.00    -0.111 C  
HETATM   17  C   UNL     1      -7.992   5.503  68.039  1.00  0.00    -0.096 C  
HETATM   18  H   UNL     1      -8.662   3.111  67.315  1.00  0.00     0.000 HD 
HETATM   19  C   UNL     1      -8.929   4.472  68.696  1.00  0.00    -0.112 C  
HETATM   20  O   UNL     1      -7.285   6.231  69.054  1.00  0.00    -0.078 OA 
HETATM   21  O   UNL     1      -9.407   3.538  67.721  1.00  0.00    -0.175 OA 
HETATM   22  H   UNL     1      -6.813   5.617  69.604  1.00  0.00     0.000 HD 
BRANCH  16  23
HETATM   23  C   UNL     1      -9.125   5.947  65.758  1.00  0.00    -0.087 C  
HETATM   24  O   UNL     1      -8.405   6.600  64.719  1.00  0.00    -0.274 OA 
HETATM   25  H   UNL     1      -8.632   6.257  63.862  1.00  0.00     0.000 HD 
ENDBRANCH  16  23
ENDBRANCH   9  11
ENDBRANCH   7   9
ENDBRANCH   2   7
TORSDOF 5
ENDMDL
MODEL      245
REMARK 921   NORMALIZED FREE ENERGY PREDICTED BY IDOCK:   -2.65 KCAL/MOL
REMARK 922        TOTAL FREE ENERGY PREDICTED BY IDOCK:   -4.24 KCAL/MOL
REMARK 923 INTER-LIGAND FREE ENERGY PREDICTED BY IDOCK:   -3.84 KCAL/MOL
REMARK 924 INTRA-LIGAND FREE ENERGY PREDICTED BY IDOCK:   -0.40 KCAL/MOL
REMARK 927      BINDING AFFINITY PREDICTED BY RF-SCORE:    0.00 PKD
ROOT
HETATM    1  C   UNL     1     -11.695   7.791  72.793  1.00  0.00    -0.258 C  
HETATM    2  N   UNL     1     -10.420   7.099  72.876  1.00  0.00    -0.239 N  
ENDROOT
BRANCH   2   3
HETATM    3  N   UNL     1      -9.902   6.676  74.103  1.00  0.00    -0.277 NA 
HETATM    4  H   UNL     1     -10.266   5.863  74.601  1.00  0.00     0.000 HD 
HETATM    5  O   UNL     1      -8.973   7.359  74.538  1.00  0.00    -0.370 OA 
HETATM    6  H   UNL     1      -8.621   7.071  75.373  1.00  0.00     0.000 HD 
ENDBRANCH   2   3
BRANCH   2   7
HETATM    7  C   UNL     1      -9.788   6.724  71.691  1.00  0.00    -0.165 C  
HETATM    8  O   UNL     1      -8.947   5.825  71.634  1.00  0.00    -0.136 OA 
BRANCH   7   9
HETATM    9  N   UNL     1     -10.141   7.446  70.577  1.00  0.00    -0.191 N  
HETATM   10  H   UNL     1     -11.124   7.670  70.422  1.00  0.00     0.000 HD 
BRANCH   9  11
HETATM   11  C   UNL     1      -9.138   7.903  69.600  1.00  0.00    -0.153 C  
HETATM   12  C   UNL     1      -9.606   7.529  68.181  1.00  0.00    -0.148 C  
HETATM   13  O   UNL     1     -10.800   8.226  67.827  1.00  0.00    -0.138 OA 
HETATM   14  O   UNL     1      -9.902   6.132  68.164  1.00  0.00    -0.124 OA 
HETATM   15  H   UNL     1     -10.190   5.901  67.289  1.00  0.00     0.000 HD 
HETATM   16  C   UNL     1     -10.673   9.658  67.826  1.00  0.00    -0.257 C  
HETATM   17  C   UNL     1     -10.149  10.193  69.178  1.00  0.00    -0.213 C  
HETATM   18  H   UNL     1      -7.623  10.692  68.912  1.00  0.00     0.000 HD 
HETATM   19  C   UNL     1      -8.908   9.424  69.669  1.00  0.00    -0.172 C  
HETATM   20  O   UNL     1     -11.195  10.098  70.156  1.00  0.00    -0.266 OA 
HETATM   21  O   UNL     1      -7.766   9.754  68.870  1.00  0.00    -0.078 OA 
HETATM   22  H   UNL     1     -10.873  10.428  70.987  1.00  0.00     0.000 HD 
BRANCH  16  23
HETATM   23  C   UNL     1      -9.878  10.154  66.607  1.00  0.00    -0.200 C  
HETATM   24  O   UNL     1      -9.870   9.194  65.556  1.00  0.00    -0.455 OA 
HETATM   25  H   UNL     1      -9.379   9.500  64.802  1.00  0.00     0.000 HD 
ENDBRANCH  16  23
ENDBRANCH   9  11
ENDBRANCH   7   9
ENDBRANCH   2   7
TORSDOF 5
ENDMDL
MODEL      246
REMARK 921   NORMALIZED FREE ENERGY PREDICTED BY IDOCK:   -2.60 KCAL/MOL
REMARK 922        TOTAL FREE ENERGY PREDICTED BY IDOCK:   -4.19 KCAL/MOL
REMARK 923 INTER-LIGAND FREE ENERGY PREDICTED BY IDOCK:   -3.37 KCAL/MOL
REMARK 924 INTRA-LIGAND FREE ENERGY PREDICTED BY IDOCK:   -0.82 KCAL/MOL
REMARK 927      BINDING AFFINITY PREDICTED BY RF-SCORE:    0.00 PKD
ROOT
HETATM    1  C   UNL     1     -10.067   9.626  71.001  1.00  0.00    -0.130 C  
HETATM    2  N   UNL     1      -9.799  10.012  69.626  1.00  0.00    -0.226 N  
ENDROOT
BRANCH   2   3
HETATM    3  N   UNL     1      -8.705  10.816  69.297  1.00  0.00    -0.356 NA 
HETATM    4  H   UNL     1      -7.802  10.731  69.765  1.00  0.00     0.000 HD 
HETATM    5  O   UNL     1      -8.912  11.635  68.400  1.00  0.00    -0.176 OA 
HETATM    6  H   UNL     1      -8.168  12.182  68.177  1.00  0.00     0.000 HD 
ENDBRANCH   2   3
BRANCH   2   7
HETATM    7  C   UNL     1     -10.568   9.440  68.613  1.00  0.00    -0.200 C  
HETATM    8  O   UNL     1     -11.296  10.101  67.869  1.00  0.00    -0.252 OA 
BRANCH   7   9
HETATM    9  N   UNL     1     -10.488   8.073  68.508  1.00  0.00    -0.304 N  
HETATM   10  H   UNL     1     -10.472   7.510  69.358  1.00  0.00     0.000 HD 
BRANCH   9  11
HETATM   11  C   UNL     1     -10.424   7.400  67.199  1.00  0.00    -0.333 C  
HETATM   12  C   UNL     1      -8.994   7.516  66.639  1.00  0.00    -0.153 C  
HETATM   13  O   UNL     1      -8.058   6.812  67.455  1.00  0.00    -0.116 OA 
HETATM   14  O   UNL     1      -8.623   8.895  66.650  1.00  0.00    -0.119 OA 
HETATM   15  H   UNL     1      -7.741   8.967  66.305  1.00  0.00     0.000 HD 
HETATM   16  C   UNL     1      -8.314   5.402  67.568  1.00  0.00    -0.103 C  
HETATM   17  C   UNL     1      -9.748   5.112  68.067  1.00  0.00    -0.146 C  
HETATM   18  H   UNL     1     -11.191   4.474  66.016  1.00  0.00     0.000 HD 
HETATM   19  C   UNL     1     -10.809   5.912  67.288  1.00  0.00    -0.260 C  
HETATM   20  O   UNL     1      -9.830   5.432  69.465  1.00  0.00    -0.162 OA 
HETATM   21  O   UNL     1     -10.954   5.393  65.961  1.00  0.00    -0.119 OA 
HETATM   22  H   UNL     1     -10.712   5.253  69.771  1.00  0.00     0.000 HD 
BRANCH  16  23
HETATM   23  C   UNL     1      -7.938   4.654  66.279  1.00  0.00    -0.103 C  
HETATM   24  O   UNL     1      -8.744   3.497  66.085  1.00  0.00    -0.113 OA 
HETATM   25  H   UNL     1      -8.512   3.035  65.288  1.00  0.00     0.000 HD 
ENDBRANCH  16  23
ENDBRANCH   9  11
ENDBRANCH   7   9
ENDBRANCH   2   7
TORSDOF 5
ENDMDL
MODEL      247
REMARK 921   NORMALIZED FREE ENERGY PREDICTED BY IDOCK:   -2.58 KCAL/MOL
REMARK 922        TOTAL FREE ENERGY PREDICTED BY IDOCK:   -4.15 KCAL/MOL
REMARK 923 INTER-LIGAND FREE ENERGY PREDICTED BY IDOCK:   -3.69 KCAL/MOL
REMARK 924 INTRA-LIGAND FREE ENERGY PREDICTED BY IDOCK:   -0.46 KCAL/MOL
REMARK 927      BINDING AFFINITY PREDICTED BY RF-SCORE:    0.00 PKD
ROOT
HETATM    1  C   UNL     1      -8.480   7.903  68.390  1.00  0.00    -0.128 C  
HETATM    2  N   UNL     1      -8.311   8.973  69.358  1.00  0.00    -0.116 N  
ENDROOT
BRANCH   2   3
HETATM    3  N   UNL     1      -8.308   8.716  70.732  1.00  0.00    -0.136 NA 
HETATM    4  H   UNL     1      -7.683   9.198  71.378  1.00  0.00     0.000 HD 
HETATM    5  O   UNL     1      -9.117   7.864  71.103  1.00  0.00    -0.139 OA 
HETATM    6  H   UNL     1      -9.115   7.689  72.037  1.00  0.00     0.000 HD 
ENDBRANCH   2   3
BRANCH   2   7
HETATM    7  C   UNL     1      -7.998  10.249  68.891  1.00  0.00    -0.113 C  
HETATM    8  O   UNL     1      -7.273  11.030  69.510  1.00  0.00    -0.130 OA 
BRANCH   7   9
HETATM    9  N   UNL     1      -8.577  10.602  67.696  1.00  0.00    -0.118 N  
HETATM   10  H   UNL     1      -8.162  10.266  66.826  1.00  0.00     0.000 HD 
BRANCH   9  11
HETATM   11  C   UNL     1      -9.779  11.450  67.638  1.00  0.00    -0.172 C  
HETATM   12  C   UNL     1      -9.568  12.557  66.588  1.00  0.00    -0.239 C  
HETATM   13  O   UNL     1      -9.447  12.010  65.275  1.00  0.00    -0.160 OA 
HETATM   14  O   UNL     1      -8.343  13.228  66.890  1.00  0.00    -0.373 OA 
HETATM   15  H   UNL     1      -8.213  13.911  66.243  1.00  0.00     0.000 HD 
HETATM   16  C   UNL     1     -10.598  11.273  64.832  1.00  0.00    -0.300 C  
HETATM   17  C   UNL     1     -10.982  10.149  65.821  1.00  0.00     0.567 C  
HETATM   18  H   UNL     1     -12.970  10.989  67.248  1.00  0.00     0.000 HD 
HETATM   19  C   UNL     1     -11.043  10.649  67.276  1.00  0.00    -0.243 C  
HETATM   20  O   UNL     1     -10.024   9.085  65.714  1.00  0.00    -0.451 OA 
HETATM   21  O   UNL     1     -12.190  11.484  67.471  1.00  0.00    -0.463 OA 
HETATM   22  H   UNL     1     -10.260   8.394  66.321  1.00  0.00     0.000 HD 
BRANCH  16  23
HETATM   23  C   UNL     1     -11.762  12.209  64.466  1.00  0.00    -0.338 C  
HETATM   24  O   UNL     1     -11.442  13.042  63.358  1.00  0.00    -0.637 OA 
HETATM   25  H   UNL     1     -12.161  13.620  63.131  1.00  0.00     0.000 HD 
ENDBRANCH  16  23
ENDBRANCH   9  11
ENDBRANCH   7   9
ENDBRANCH   2   7
TORSDOF 5
ENDMDL
MODEL      248
REMARK 921   NORMALIZED FREE ENERGY PREDICTED BY IDOCK:   -2.56 KCAL/MOL
REMARK 922        TOTAL FREE ENERGY PREDICTED BY IDOCK:   -4.12 KCAL/MOL
REMARK 923 INTER-LIGAND FREE ENERGY PREDICTED BY IDOCK:   -3.99 KCAL/MOL
REMARK 924 INTRA-LIGAND FREE ENERGY PREDICTED BY IDOCK:   -0.14 KCAL/MOL
REMARK 927      BINDING AFFINITY PREDICTED BY RF-SCORE:    0.00 PKD
ROOT
HETATM    1  C   UNL     1     -11.640  11.992  63.855  1.00  0.00    -0.449 C  
HETATM    2  N   UNL     1     -11.310  12.327  65.231  1.00  0.00    -0.328 N  
ENDROOT
BRANCH   2   3
HETATM    3  N   UNL     1     -12.287  12.774  66.124  1.00  0.00    -0.531 NA 
HETATM    4  H   UNL     1     -13.177  13.165  65.813  1.00  0.00     0.000 HD 
HETATM    5  O   UNL     1     -11.994  12.660  67.316  1.00  0.00    -0.424 OA 
HETATM    6  H   UNL     1     -12.658  12.963  67.923  1.00  0.00     0.000 HD 
ENDBRANCH   2   3
BRANCH   2   7
HETATM    7  C   UNL     1     -10.023  12.050  65.692  1.00  0.00    -0.245 C  
HETATM    8  O   UNL     1      -9.380  12.832  66.395  1.00  0.00    -0.241 OA 
BRANCH   7   9
HETATM    9  N   UNL     1      -9.495  10.849  65.288  1.00  0.00    -0.206 N  
HETATM   10  H   UNL     1     -10.046  10.243  64.680  1.00  0.00     0.000 HD 
BRANCH   9  11
HETATM   11  C   UNL     1      -8.153  10.412  65.711  1.00  0.00    -0.155 C  
HETATM   12  C   UNL     1      -8.289   9.228  66.685  1.00  0.00    -0.122 C  
HETATM   13  O   UNL     1      -8.854   8.087  66.040  1.00  0.00    -0.153 OA 
HETATM   14  O   UNL     1      -9.179   9.614  67.734  1.00  0.00    -0.125 OA 
HETATM   15  H   UNL     1      -9.264   8.883  68.335  1.00  0.00     0.000 HD 
HETATM   16  C   UNL     1      -8.083   7.589  64.934  1.00  0.00    -0.121 C  
HETATM   17  C   UNL     1      -7.805   8.687  63.883  1.00  0.00    -0.147 C  
HETATM   18  H   UNL     1      -5.389   9.541  64.245  1.00  0.00     0.000 HD 
HETATM   19  C   UNL     1      -7.276   9.985  64.520  1.00  0.00    -0.139 C  
HETATM   20  O   UNL     1      -9.015   8.961  63.160  1.00  0.00    -0.433 OA 
HETATM   21  O   UNL     1      -5.931   9.805  64.980  1.00  0.00    -0.076 OA 
HETATM   22  H   UNL     1      -8.844   9.635  62.513  1.00  0.00     0.000 HD 
BRANCH  16  23
HETATM   23  C   UNL     1      -6.825   6.847  65.411  1.00  0.00    -0.052 C  
HETATM   24  O   UNL     1      -6.310   7.401  66.616  1.00  0.00    -0.042 OA 
HETATM   25  H   UNL     1      -5.531   6.942  66.912  1.00  0.00     0.000 HD 
ENDBRANCH  16  23
ENDBRANCH   9  11
ENDBRANCH   7   9
ENDBRANCH   2   7
TORSDOF 5
ENDMDL
MODEL      249
REMARK 921   NORMALIZED FREE ENERGY PREDICTED BY IDOCK:   -2.50 KCAL/MOL
REMARK 922        TOTAL FREE ENERGY PREDICTED BY IDOCK:   -4.05 KCAL/MOL
REMARK 923 INTER-LIGAND FREE ENERGY PREDICTED BY IDOCK:   -3.25 KCAL/MOL
REMARK 924 INTRA-LIGAND FREE ENERGY PREDICTED BY IDOCK:   -0.80 KCAL/MOL
REMARK 927      BINDING AFFINITY PREDICTED BY RF-SCORE:    0.00 PKD
ROOT
HETATM    1  C   UNL     1      -6.832   3.906  68.875  1.00  0.00    -0.046 C  
HETATM    2  N   UNL     1      -7.314   5.119  68.234  1.00  0.00    -0.070 N  
ENDROOT
BRANCH   2   3
HETATM    3  N   UNL     1      -6.494   5.866  67.384  1.00  0.00    -0.045 NA 
HETATM    4  H   UNL     1      -5.477   5.798  67.404  1.00  0.00     0.000 HD 
HETATM    5  O   UNL     1      -7.093   6.614  66.609  1.00  0.00    -0.065 OA 
HETATM    6  H   UNL     1      -6.536   7.122  66.031  1.00  0.00     0.000 HD 
ENDBRANCH   2   3
BRANCH   2   7
HETATM    7  C   UNL     1      -8.663   5.447  68.361  1.00  0.00    -0.098 C  
HETATM    8  O   UNL     1      -9.566   4.785  67.845  1.00  0.00    -0.140 OA 
BRANCH   7   9
HETATM    9  N   UNL     1      -8.932   6.584  69.084  1.00  0.00    -0.130 N  
HETATM   10  H   UNL     1      -8.287   6.867  69.822  1.00  0.00     0.000 HD 
BRANCH   9  11
HETATM   11  C   UNL     1     -10.125   7.406  68.819  1.00  0.00    -0.179 C  
HETATM   12  C   UNL     1     -11.149   7.189  69.948  1.00  0.00    -0.235 C  
HETATM   13  O   UNL     1     -10.652   7.665  71.199  1.00  0.00    -0.220 OA 
HETATM   14  O   UNL     1     -11.375   5.785  70.081  1.00  0.00    -0.274 OA 
HETATM   15  H   UNL     1     -12.007   5.651  70.777  1.00  0.00     0.000 HD 
HETATM   16  C   UNL     1     -10.347   9.070  71.220  1.00  0.00    -0.313 C  
HETATM   17  C   UNL     1      -9.365   9.465  70.094  1.00  0.00    -0.241 C  
HETATM   18  H   UNL     1     -10.738  10.530  68.176  1.00  0.00     0.000 HD 
HETATM   19  C   UNL     1      -9.792   8.906  68.724  1.00  0.00    -0.173 C  
HETATM   20  O   UNL     1      -8.054   8.982  70.426  1.00  0.00    -0.109 OA 
HETATM   21  O   UNL     1     -10.943   9.604  68.235  1.00  0.00    -0.206 OA 
HETATM   22  H   UNL     1      -7.450   9.226  69.734  1.00  0.00     0.000 HD 
BRANCH  16  23
HETATM   23  C   UNL     1     -11.624   9.925  71.264  1.00  0.00    -0.379 C  
HETATM   24  O   UNL     1     -12.503   9.508  72.303  1.00  0.00    -0.322 OA 
HETATM   25  H   UNL     1     -13.292  10.036  72.330  1.00  0.00     0.000 HD 
ENDBRANCH  16  23
ENDBRANCH   9  11
ENDBRANCH   7   9
ENDBRANCH   2   7
TORSDOF 5
ENDMDL
MODEL      250
REMARK 921   NORMALIZED FREE ENERGY PREDICTED BY IDOCK:   -2.49 KCAL/MOL
REMARK 922        TOTAL FREE ENERGY PREDICTED BY IDOCK:   -4.04 KCAL/MOL
REMARK 923 INTER-LIGAND FREE ENERGY PREDICTED BY IDOCK:   -3.99 KCAL/MOL
REMARK 924 INTRA-LIGAND FREE ENERGY PREDICTED BY IDOCK:   -0.05 KCAL/MOL
REMARK 927      BINDING AFFINITY PREDICTED BY RF-SCORE:    0.00 PKD
ROOT
HETATM    1  C   UNL     1     -13.296   8.194  72.172  1.00  0.00    -0.219 C  
HETATM    2  N   UNL     1     -11.889   7.829  72.195  1.00  0.00    -0.309 N  
ENDROOT
BRANCH   2   3
HETATM    3  N   UNL     1     -11.474   6.560  72.607  1.00  0.00    -0.417 NA 
HETATM    4  H   UNL     1     -11.931   6.054  73.365  1.00  0.00     0.000 HD 
HETATM    5  O   UNL     1     -10.514   6.099  71.987  1.00  0.00    -0.202 OA 
HETATM    6  H   UNL     1     -10.232   5.237  72.268  1.00  0.00     0.000 HD 
ENDBRANCH   2   3
BRANCH   2   7
HETATM    7  C   UNL     1     -10.963   8.719  71.651  1.00  0.00    -0.321 C  
HETATM    8  O   UNL     1     -11.111   9.942  71.681  1.00  0.00    -0.200 OA 
BRANCH   7   9
HETATM    9  N   UNL     1      -9.872   8.143  71.047  1.00  0.00    -0.177 N  
HETATM   10  H   UNL     1      -9.507   7.265  71.415  1.00  0.00     0.000 HD 
BRANCH   9  11
HETATM   11  C   UNL     1      -9.216   8.761  69.882  1.00  0.00    -0.157 C  
HETATM   12  C   UNL     1      -8.007   7.902  69.467  1.00  0.00    -0.116 C  
HETATM   13  O   UNL     1      -8.418   6.614  69.010  1.00  0.00    -0.128 OA 
HETATM   14  O   UNL     1      -7.183   7.708  70.618  1.00  0.00    -0.060 OA 
HETATM   15  H   UNL     1      -6.437   7.178  70.362  1.00  0.00     0.000 HD 
HETATM   16  C   UNL     1      -9.284   6.641  67.863  1.00  0.00    -0.111 C  
HETATM   17  C   UNL     1     -10.531   7.522  68.100  1.00  0.00    -0.183 C  
HETATM   18  H   UNL     1     -10.127   9.802  66.944  1.00  0.00     0.000 HD 
HETATM   19  C   UNL     1     -10.169   8.902  68.682  1.00  0.00    -0.200 C  
HETATM   20  O   UNL     1     -11.424   6.839  68.994  1.00  0.00    -0.558 OA 
HETATM   21  O   UNL     1      -9.539   9.716  67.685  1.00  0.00    -0.139 OA 
HETATM   22  H   UNL     1     -12.191   7.381  69.139  1.00  0.00     0.000 HD 
BRANCH  16  23
HETATM   23  C   UNL     1      -8.511   6.984  66.579  1.00  0.00    -0.125 C  
HETATM   24  O   UNL     1      -9.250   6.645  65.411  1.00  0.00    -0.365 OA 
HETATM   25  H   UNL     1      -8.772   6.857  64.617  1.00  0.00     0.000 HD 
ENDBRANCH  16  23
ENDBRANCH   9  11
ENDBRANCH   7   9
ENDBRANCH   2   7
TORSDOF 5
ENDMDL
MODEL      251
REMARK 921   NORMALIZED FREE ENERGY PREDICTED BY IDOCK:   -2.47 KCAL/MOL
REMARK 922        TOTAL FREE ENERGY PREDICTED BY IDOCK:   -4.01 KCAL/MOL
REMARK 923 INTER-LIGAND FREE ENERGY PREDICTED BY IDOCK:   -3.54 KCAL/MOL
REMARK 924 INTRA-LIGAND FREE ENERGY PREDICTED BY IDOCK:   -0.47 KCAL/MOL
REMARK 927      BINDING AFFINITY PREDICTED BY RF-SCORE:    0.00 PKD
ROOT
HETATM    1  C   UNL     1      -9.539   5.107  65.736  1.00  0.00    -0.122 C  
HETATM    2  N   UNL     1      -8.955   6.342  66.234  1.00  0.00    -0.153 N  
ENDROOT
BRANCH   2   3
HETATM    3  N   UNL     1      -7.765   6.847  65.705  1.00  0.00    -0.096 NA 
HETATM    4  H   UNL     1      -6.889   6.326  65.730  1.00  0.00     0.000 HD 
HETATM    5  O   UNL     1      -7.853   7.970  65.205  1.00  0.00    -0.101 OA 
HETATM    6  H   UNL     1      -7.044   8.314  64.845  1.00  0.00     0.000 HD 
ENDBRANCH   2   3
BRANCH   2   7
HETATM    7  C   UNL     1      -9.683   7.100  67.150  1.00  0.00    -0.164 C  
HETATM    8  O   UNL     1     -10.564   6.620  67.867  1.00  0.00    -0.194 OA 
BRANCH   7   9
HETATM    9  N   UNL     1      -9.377   8.438  67.190  1.00  0.00    -0.147 N  
HETATM   10  H   UNL     1      -8.578   8.780  66.655  1.00  0.00     0.000 HD 
BRANCH   9  11
HETATM   11  C   UNL     1     -10.171   9.392  67.983  1.00  0.00    -0.204 C  
HETATM   12  C   UNL     1      -9.232  10.179  68.916  1.00  0.00    -0.172 C  
HETATM   13  O   UNL     1      -8.325  10.993  68.173  1.00  0.00    -0.119 OA 
HETATM   14  O   UNL     1      -8.455   9.240  69.662  1.00  0.00    -0.120 OA 
HETATM   15  H   UNL     1      -7.876   9.726  70.237  1.00  0.00     0.000 HD 
HETATM   16  C   UNL     1      -8.959  11.980  67.342  1.00  0.00    -0.176 C  
HETATM   17  C   UNL     1      -9.989  11.349  66.377  1.00  0.00    -0.214 C  
HETATM   18  H   UNL     1     -12.347  11.723  67.374  1.00  0.00     0.000 HD 
HETATM   19  C   UNL     1     -10.948  10.383  67.098  1.00  0.00    -0.196 C  
HETATM   20  O   UNL     1      -9.288  10.649  65.338  1.00  0.00    -0.187 OA 
HETATM   21  O   UNL     1     -11.868  11.111  67.920  1.00  0.00    -0.601 OA 
HETATM   22  H   UNL     1      -9.921  10.261  64.745  1.00  0.00     0.000 HD 
BRANCH  16  23
HETATM   23  C   UNL     1      -9.515  13.147  68.174  1.00  0.00    -0.222 C  
HETATM   24  O   UNL     1      -8.504  13.760  68.965  1.00  0.00    -0.351 OA 
HETATM   25  H   UNL     1      -8.848  14.481  69.480  1.00  0.00     0.000 HD 
ENDBRANCH  16  23
ENDBRANCH   9  11
ENDBRANCH   7   9
ENDBRANCH   2   7
TORSDOF 5
ENDMDL
MODEL      252
REMARK 921   NORMALIZED FREE ENERGY PREDICTED BY IDOCK:   -2.43 KCAL/MOL
REMARK 922        TOTAL FREE ENERGY PREDICTED BY IDOCK:   -3.96 KCAL/MOL
REMARK 923 INTER-LIGAND FREE ENERGY PREDICTED BY IDOCK:   -3.19 KCAL/MOL
REMARK 924 INTRA-LIGAND FREE ENERGY PREDICTED BY IDOCK:   -0.78 KCAL/MOL
REMARK 927      BINDING AFFINITY PREDICTED BY RF-SCORE:    0.00 PKD
ROOT
HETATM    1  C   UNL     1      -5.863   7.560  68.926  1.00  0.00    -0.023 C  
HETATM    2  N   UNL     1      -6.726   8.513  69.604  1.00  0.00    -0.039 N  
ENDROOT
BRANCH   2   3
HETATM    3  N   UNL     1      -6.203   9.485  70.460  1.00  0.00    -0.062 NA 
HETATM    4  H   UNL     1      -5.484   9.276  71.153  1.00  0.00     0.000 HD 
HETATM    5  O   UNL     1      -6.675  10.614  70.315  1.00  0.00    -0.185 OA 
HETATM    6  H   UNL     1      -6.319  11.276  70.897  1.00  0.00     0.000 HD 
ENDBRANCH   2   3
BRANCH   2   7
HETATM    7  C   UNL     1      -8.079   8.540  69.269  1.00  0.00    -0.113 C  
HETATM    8  O   UNL     1      -8.559   9.357  68.481  1.00  0.00    -0.122 OA 
BRANCH   7   9
HETATM    9  N   UNL     1      -8.865   7.605  69.898  1.00  0.00    -0.143 N  
HETATM   10  H   UNL     1      -9.055   6.720  69.429  1.00  0.00     0.000 HD 
BRANCH   9  11
HETATM   11  C   UNL     1      -9.438   7.848  71.233  1.00  0.00    -0.157 C  
HETATM   12  C   UNL     1     -10.883   7.315  71.267  1.00  0.00    -0.235 C  
HETATM   13  O   UNL     1     -10.917   5.897  71.111  1.00  0.00    -0.270 OA 
HETATM   14  O   UNL     1     -11.594   7.887  70.169  1.00  0.00    -0.473 OA 
HETATM   15  H   UNL     1     -12.486   7.558  70.190  1.00  0.00     0.000 HD 
HETATM   16  C   UNL     1     -10.214   5.171  72.133  1.00  0.00    -0.202 C  
HETATM   17  C   UNL     1      -8.747   5.636  72.268  1.00  0.00    -0.132 C  
HETATM   18  H   UNL     1      -8.598   7.222  74.307  1.00  0.00     0.000 HD 
HETATM   19  C   UNL     1      -8.626   7.169  72.350  1.00  0.00    -0.119 C  
HETATM   20  O   UNL     1      -7.997   5.151  71.143  1.00  0.00    -0.098 OA 
HETATM   21  O   UNL     1      -9.099   7.641  73.617  1.00  0.00    -0.225 OA 
HETATM   22  H   UNL     1      -7.095   5.436  71.226  1.00  0.00     0.000 HD 
BRANCH  16  23
HETATM   23  C   UNL     1     -10.992   5.165  73.459  1.00  0.00    -0.310 C  
HETATM   24  O   UNL     1     -12.334   4.724  73.282  1.00  0.00    -0.277 OA 
HETATM   25  H   UNL     1     -12.815   4.721  74.102  1.00  0.00     0.000 HD 
ENDBRANCH  16  23
ENDBRANCH   9  11
ENDBRANCH   7   9
ENDBRANCH   2   7
TORSDOF 5
ENDMDL
MODEL      253
REMARK 921   NORMALIZED FREE ENERGY PREDICTED BY IDOCK:   -2.42 KCAL/MOL
REMARK 922        TOTAL FREE ENERGY PREDICTED BY IDOCK:   -3.94 KCAL/MOL
REMARK 923 INTER-LIGAND FREE ENERGY PREDICTED BY IDOCK:   -4.17 KCAL/MOL
REMARK 924 INTRA-LIGAND FREE ENERGY PREDICTED BY IDOCK:    0.23 KCAL/MOL
REMARK 927      BINDING AFFINITY PREDICTED BY RF-SCORE:    0.00 PKD
ROOT
HETATM    1  C   UNL     1      -9.592   7.057  66.018  1.00  0.00     0.160 C  
HETATM    2  N   UNL     1      -9.418   6.946  67.457  1.00  0.00    -0.127 N  
ENDROOT
BRANCH   2   3
HETATM    3  N   UNL     1      -8.960   5.763  68.043  1.00  0.00    -0.112 NA 
HETATM    4  H   UNL     1      -8.414   5.755  68.905  1.00  0.00     0.000 HD 
HETATM    5  O   UNL     1      -9.264   4.732  67.441  1.00  0.00    -0.120 OA 
HETATM    6  H   UNL     1      -8.952   3.928  67.840  1.00  0.00     0.000 HD 
ENDBRANCH   2   3
BRANCH   2   7
HETATM    7  C   UNL     1      -9.571   8.092  68.236  1.00  0.00    -0.144 C  
HETATM    8  O   UNL     1      -9.226   8.151  69.418  1.00  0.00    -0.154 OA 
BRANCH   7   9
HETATM    9  N   UNL     1     -10.164   9.161  67.609  1.00  0.00    -0.221 N  
HETATM   10  H   UNL     1     -11.104   9.053  67.228  1.00  0.00     0.000 HD 
BRANCH   9  11
HETATM   11  C   UNL     1      -9.477  10.456  67.472  1.00  0.00    -0.149 C  
HETATM   12  C   UNL     1      -9.632  10.961  66.025  1.00  0.00    -0.209 C  
HETATM   13  O   UNL     1     -10.997  11.240  65.716  1.00  0.00    -0.240 OA 
HETATM   14  O   UNL     1      -9.194   9.926  65.143  1.00  0.00    -0.197 OA 
HETATM   15  H   UNL     1      -9.289  10.237  64.251  1.00  0.00     0.000 HD 
HETATM   16  C   UNL     1     -11.597  12.251  66.543  1.00  0.00    -0.377 C  
HETATM   17  C   UNL     1     -11.470  11.919  68.047  1.00  0.00    -0.323 C  
HETATM   18  H   UNL     1      -9.517  13.317  69.009  1.00  0.00     0.000 HD 
HETATM   19  C   UNL     1     -10.035  11.518  68.437  1.00  0.00    -0.206 C  
HETATM   20  O   UNL     1     -12.375  10.851  68.368  1.00  0.00    -0.803 OA 
HETATM   21  O   UNL     1      -9.172  12.661  68.414  1.00  0.00    -0.195 OA 
HETATM   22  H   UNL     1     -12.297  10.647  69.293  1.00  0.00     0.000 HD 
BRANCH  16  23
HETATM   23  C   UNL     1     -11.099  13.657  66.169  1.00  0.00    -0.295 C  
HETATM   24  O   UNL     1      -9.777  13.625  65.643  1.00  0.00    -0.460 OA 
HETATM   25  H   UNL     1      -9.468  14.494  65.411  1.00  0.00     0.000 HD 
ENDBRANCH  16  23
ENDBRANCH   9  11
ENDBRANCH   7   9
ENDBRANCH   2   7
TORSDOF 5
ENDMDL
MODEL      254
REMARK 921   NORMALIZED FREE ENERGY PREDICTED BY IDOCK:   -2.39 KCAL/MOL
REMARK 922        TOTAL FREE ENERGY PREDICTED BY IDOCK:   -3.92 KCAL/MOL
REMARK 923 INTER-LIGAND FREE ENERGY PREDICTED BY IDOCK:   -2.91 KCAL/MOL
REMARK 924 INTRA-LIGAND FREE ENERGY PREDICTED BY IDOCK:   -1.01 KCAL/MOL
REMARK 927      BINDING AFFINITY PREDICTED BY RF-SCORE:    0.00 PKD
ROOT
HETATM    1  C   UNL     1      -9.522   9.996  64.152  1.00  0.00    -0.252 C  
HETATM    2  N   UNL     1      -8.981  10.069  65.498  1.00  0.00    -0.163 N  
ENDROOT
BRANCH   2   3
HETATM    3  N   UNL     1      -8.446  11.256  66.003  1.00  0.00    -0.296 NA 
HETATM    4  H   UNL     1      -9.031  12.022  66.339  1.00  0.00     0.000 HD 
HETATM    5  O   UNL     1      -7.215  11.311  66.012  1.00  0.00    -0.354 OA 
HETATM    6  H   UNL     1      -6.852  12.119  66.356  1.00  0.00     0.000 HD 
ENDBRANCH   2   3
BRANCH   2   7
HETATM    7  C   UNL     1      -9.141   8.968  66.340  1.00  0.00    -0.170 C  
HETATM    8  O   UNL     1     -10.170   8.290  66.368  1.00  0.00    -0.253 OA 
BRANCH   7   9
HETATM    9  N   UNL     1      -8.080   8.694  67.167  1.00  0.00    -0.100 N  
HETATM   10  H   UNL     1      -7.153   9.041  66.917  1.00  0.00     0.000 HD 
BRANCH   9  11
HETATM   11  C   UNL     1      -8.244   7.915  68.406  1.00  0.00    -0.124 C  
HETATM   12  C   UNL     1      -6.858   7.477  68.916  1.00  0.00    -0.068 C  
HETATM   13  O   UNL     1      -6.067   8.602  69.298  1.00  0.00    -0.040 OA 
HETATM   14  O   UNL     1      -6.180   6.815  67.848  1.00  0.00    -0.030 OA 
HETATM   15  H   UNL     1      -5.325   6.545  68.162  1.00  0.00     0.000 HD 
HETATM   16  C   UNL     1      -6.634   9.394  70.355  1.00  0.00    -0.077 C  
HETATM   17  C   UNL     1      -8.066   9.867  70.019  1.00  0.00    -0.177 C  
HETATM   18  H   UNL     1      -9.727   8.323  71.266  1.00  0.00     0.000 HD 
HETATM   19  C   UNL     1      -8.956   8.717  69.510  1.00  0.00    -0.145 C  
HETATM   20  O   UNL     1      -7.996  10.901  69.025  1.00  0.00    -0.136 OA 
HETATM   21  O   UNL     1      -9.288   7.829  70.584  1.00  0.00    -0.161 OA 
HETATM   22  H   UNL     1      -8.877  11.192  68.818  1.00  0.00     0.000 HD 
BRANCH  16  23
HETATM   23  C   UNL     1      -6.511   8.691  71.717  1.00  0.00    -0.073 C  
HETATM   24  O   UNL     1      -5.815   9.494  72.664  1.00  0.00    -0.292 OA 
HETATM   25  H   UNL     1      -5.739   9.059  73.506  1.00  0.00     0.000 HD 
ENDBRANCH  16  23
ENDBRANCH   9  11
ENDBRANCH   7   9
ENDBRANCH   2   7
TORSDOF 5
ENDMDL
MODEL      255
REMARK 921   NORMALIZED FREE ENERGY PREDICTED BY IDOCK:   -2.36 KCAL/MOL
REMARK 922        TOTAL FREE ENERGY PREDICTED BY IDOCK:   -3.87 KCAL/MOL
REMARK 923 INTER-LIGAND FREE ENERGY PREDICTED BY IDOCK:   -3.01 KCAL/MOL
REMARK 924 INTRA-LIGAND FREE ENERGY PREDICTED BY IDOCK:   -0.86 KCAL/MOL
REMARK 927      BINDING AFFINITY PREDICTED BY RF-SCORE:    0.00 PKD
ROOT
HETATM    1  C   UNL     1      -7.551   4.492  64.749  1.00  0.00    -0.073 C  
HETATM    2  N   UNL     1      -7.096   5.631  65.528  1.00  0.00    -0.065 N  
ENDROOT
BRANCH   2   3
HETATM    3  N   UNL     1      -5.775   5.726  65.974  1.00  0.00    -0.013 NA 
HETATM    4  H   UNL     1      -5.071   5.022  65.753  1.00  0.00     0.000 HD 
HETATM    5  O   UNL     1      -5.525   6.724  66.652  1.00  0.00    -0.016 OA 
HETATM    6  H   UNL     1      -4.627   6.788  66.955  1.00  0.00     0.000 HD 
ENDBRANCH   2   3
BRANCH   2   7
HETATM    7  C   UNL     1      -7.964   6.710  65.699  1.00  0.00    -0.115 C  
HETATM    8  O   UNL     1      -7.853   7.765  65.072  1.00  0.00    -0.109 OA 
BRANCH   7   9
HETATM    9  N   UNL     1      -8.949   6.535  66.639  1.00  0.00    -0.133 N  
HETATM   10  H   UNL     1      -9.924   6.670  66.369  1.00  0.00     0.000 HD 
BRANCH   9  11
HETATM   11  C   UNL     1      -8.636   6.157  68.028  1.00  0.00    -0.115 C  
HETATM   12  C   UNL     1      -8.386   7.431  68.855  1.00  0.00    -0.129 C  
HETATM   13  O   UNL     1      -9.568   8.226  68.954  1.00  0.00    -0.151 OA 
HETATM   14  O   UNL     1      -7.397   8.212  68.182  1.00  0.00    -0.091 OA 
HETATM   15  H   UNL     1      -7.243   8.999  68.692  1.00  0.00     0.000 HD 
HETATM   16  C   UNL     1     -10.675   7.565  69.590  1.00  0.00    -0.230 C  
HETATM   17  C   UNL     1     -11.017   6.222  68.905  1.00  0.00    -0.368 C  
HETATM   18  H   UNL     1      -9.998   4.319  70.333  1.00  0.00     0.000 HD 
HETATM   19  C   UNL     1      -9.769   5.346  68.683  1.00  0.00    -0.138 C  
HETATM   20  O   UNL     1     -11.653   6.487  67.646  1.00  0.00    -0.670 OA 
HETATM   21  O   UNL     1      -9.298   4.819  69.929  1.00  0.00    -0.117 OA 
HETATM   22  H   UNL     1     -11.864   5.662  67.225  1.00  0.00     0.000 HD 
BRANCH  16  23
HETATM   23  C   UNL     1     -10.473   7.459  71.110  1.00  0.00    -0.209 C  
HETATM   24  O   UNL     1     -10.640   8.716  71.754  1.00  0.00    -0.270 OA 
HETATM   25  H   UNL     1     -10.515   8.651  72.694  1.00  0.00     0.000 HD 
ENDBRANCH  16  23
ENDBRANCH   9  11
ENDBRANCH   7   9
ENDBRANCH   2   7
TORSDOF 5
ENDMDL
MODEL      256
REMARK 921   NORMALIZED FREE ENERGY PREDICTED BY IDOCK:   -2.35 KCAL/MOL
REMARK 922        TOTAL FREE ENERGY PREDICTED BY IDOCK:   -3.86 KCAL/MOL
REMARK 923 INTER-LIGAND FREE ENERGY PREDICTED BY IDOCK:   -3.27 KCAL/MOL
REMARK 924 INTRA-LIGAND FREE ENERGY PREDICTED BY IDOCK:   -0.59 KCAL/MOL
REMARK 927      BINDING AFFINITY PREDICTED BY RF-SCORE:    0.00 PKD
ROOT
HETATM    1  C   UNL     1      -8.762  10.274  65.644  1.00  0.00    -0.162 C  
HETATM    2  N   UNL     1      -8.805  11.453  66.493  1.00  0.00    -0.183 N  
ENDROOT
BRANCH   2   3
HETATM    3  N   UNL     1      -8.941  12.733  65.952  1.00  0.00    -0.360 NA 
HETATM    4  H   UNL     1      -8.229  13.154  65.355  1.00  0.00     0.000 HD 
HETATM    5  O   UNL     1      -9.985  13.316  66.250  1.00  0.00    -0.279 OA 
HETATM    6  H   UNL     1     -10.077  14.187  65.882  1.00  0.00     0.000 HD 
ENDBRANCH   2   3
BRANCH   2   7
HETATM    7  C   UNL     1      -8.862  11.274  67.875  1.00  0.00    -0.142 C  
HETATM    8  O   UNL     1      -8.335  12.051  68.674  1.00  0.00    -0.127 OA 
BRANCH   7   9
HETATM    9  N   UNL     1      -9.527  10.150  68.301  1.00  0.00    -0.139 N  
HETATM   10  H   UNL     1      -9.895   9.499  67.608  1.00  0.00     0.000 HD 
BRANCH   9  11
HETATM   11  C   UNL     1      -9.722   9.861  69.732  1.00  0.00    -0.236 C  
HETATM   12  C   UNL     1     -11.178   9.415  69.965  1.00  0.00    -0.190 C  
HETATM   13  O   UNL     1     -11.454   8.180  69.305  1.00  0.00     0.326 OA 
HETATM   14  O   UNL     1     -12.042  10.405  69.404  1.00  0.00    -0.518 OA 
HETATM   15  H   UNL     1     -12.939  10.130  69.548  1.00  0.00     0.000 HD 
HETATM   16  C   UNL     1     -10.639   7.079  69.742  1.00  0.00    -0.233 C  
HETATM   17  C   UNL     1      -9.131   7.395  69.627  1.00  0.00    -0.140 C  
HETATM   18  H   UNL     1      -8.268   8.028  71.984  1.00  0.00     0.000 HD 
HETATM   19  C   UNL     1      -8.772   8.762  70.241  1.00  0.00    -0.161 C  
HETATM   20  O   UNL     1      -8.752   7.372  68.243  1.00  0.00    -0.123 OA 
HETATM   21  O   UNL     1      -8.854   8.707  71.670  1.00  0.00    -0.190 OA 
HETATM   22  H   UNL     1      -7.824   7.566  68.172  1.00  0.00     0.000 HD 
BRANCH  16  23
HETATM   23  C   UNL     1     -11.068   6.574  71.129  1.00  0.00    -0.282 C  
HETATM   24  O   UNL     1     -10.850   5.175  71.273  1.00  0.00    -0.134 OA 
HETATM   25  H   UNL     1     -11.116   4.863  72.130  1.00  0.00     0.000 HD 
ENDBRANCH  16  23
ENDBRANCH   9  11
ENDBRANCH   7   9
ENDBRANCH   2   7
TORSDOF 5
ENDMDL
MODEL      257
REMARK 921   NORMALIZED FREE ENERGY PREDICTED BY IDOCK:   -2.34 KCAL/MOL
REMARK 922        TOTAL FREE ENERGY PREDICTED BY IDOCK:   -3.85 KCAL/MOL
REMARK 923 INTER-LIGAND FREE ENERGY PREDICTED BY IDOCK:   -2.89 KCAL/MOL
REMARK 924 INTRA-LIGAND FREE ENERGY PREDICTED BY IDOCK:   -0.96 KCAL/MOL
REMARK 927      BINDING AFFINITY PREDICTED BY RF-SCORE:    0.00 PKD
ROOT
HETATM    1  C   UNL     1      -7.201   7.951  73.908  1.00  0.00    -0.135 C  
HETATM    2  N   UNL     1      -6.555   7.984  72.607  1.00  0.00    -0.072 N  
ENDROOT
BRANCH   2   3
HETATM    3  N   UNL     1      -5.672   6.977  72.208  1.00  0.00    -0.038 NA 
HETATM    4  H   UNL     1      -5.452   6.176  72.800  1.00  0.00     0.000 HD 
HETATM    5  O   UNL     1      -5.181   7.129  71.088  1.00  0.00    -0.026 OA 
HETATM    6  H   UNL     1      -4.581   6.444  70.818  1.00  0.00     0.000 HD 
ENDBRANCH   2   3
BRANCH   2   7
HETATM    7  C   UNL     1      -6.947   8.963  71.694  1.00  0.00    -0.041 C  
HETATM    8  O   UNL     1      -6.284   9.978  71.474  1.00  0.00    -0.311 OA 
BRANCH   7   9
HETATM    9  N   UNL     1      -8.148   8.741  71.066  1.00  0.00    -0.141 N  
HETATM   10  H   UNL     1      -8.832   9.497  71.022  1.00  0.00     0.000 HD 
BRANCH   9  11
HETATM   11  C   UNL     1      -8.474   7.441  70.455  1.00  0.00    -0.142 C  
HETATM   12  C   UNL     1      -9.997   7.225  70.508  1.00  0.00    -0.190 C  
HETATM   13  O   UNL     1     -10.686   8.184  69.706  1.00  0.00    -0.245 OA 
HETATM   14  O   UNL     1     -10.426   7.405  71.858  1.00  0.00    -0.199 OA 
HETATM   15  H   UNL     1     -11.366   7.271  71.891  1.00  0.00     0.000 HD 
HETATM   16  C   UNL     1     -10.340   8.150  68.311  1.00  0.00    -0.197 C  
HETATM   17  C   UNL     1      -8.817   8.295  68.090  1.00  0.00    -0.139 C  
HETATM   18  H   UNL     1      -7.848   5.937  67.646  1.00  0.00     0.000 HD 
HETATM   19  C   UNL     1      -8.003   7.349  68.992  1.00  0.00    -0.122 C  
HETATM   20  O   UNL     1      -8.435   9.656  68.345  1.00  0.00    -0.116 OA 
HETATM   21  O   UNL     1      -8.138   5.994  68.549  1.00  0.00    -0.105 OA 
HETATM   22  H   UNL     1      -7.499   9.745  68.208  1.00  0.00     0.000 HD 
BRANCH  16  23
HETATM   23  C   UNL     1     -10.961   6.934  67.605  1.00  0.00    -0.233 C  
HETATM   24  O   UNL     1     -10.321   6.660  66.364  1.00  0.00    -0.438 OA 
HETATM   25  H   UNL     1     -10.704   5.908  65.927  1.00  0.00     0.000 HD 
ENDBRANCH  16  23
ENDBRANCH   9  11
ENDBRANCH   7   9
ENDBRANCH   2   7
TORSDOF 5
ENDMDL
MODEL      258
REMARK 921   NORMALIZED FREE ENERGY PREDICTED BY IDOCK:   -2.34 KCAL/MOL
REMARK 922        TOTAL FREE ENERGY PREDICTED BY IDOCK:   -3.84 KCAL/MOL
REMARK 923 INTER-LIGAND FREE ENERGY PREDICTED BY IDOCK:   -2.52 KCAL/MOL
REMARK 924 INTRA-LIGAND FREE ENERGY PREDICTED BY IDOCK:   -1.33 KCAL/MOL
REMARK 927      BINDING AFFINITY PREDICTED BY RF-SCORE:    0.00 PKD
ROOT
HETATM    1  C   UNL     1      -5.547   3.161  66.790  1.00  0.00    -0.021 C  
HETATM    2  N   UNL     1      -6.589   4.161  66.624  1.00  0.00    -0.045 N  
ENDROOT
BRANCH   2   3
HETATM    3  N   UNL     1      -6.318   5.402  66.042  1.00  0.00    -0.034 NA 
HETATM    4  H   UNL     1      -5.387   5.664  65.717  1.00  0.00     0.000 HD 
HETATM    5  O   UNL     1      -7.288   6.157  65.950  1.00  0.00    -0.076 OA 
HETATM    6  H   UNL     1      -7.103   7.001  65.555  1.00  0.00     0.000 HD 
ENDBRANCH   2   3
BRANCH   2   7
HETATM    7  C   UNL     1      -7.905   3.805  66.916  1.00  0.00    -0.084 C  
HETATM    8  O   UNL     1      -8.649   3.259  66.099  1.00  0.00    -0.111 OA 
BRANCH   7   9
HETATM    9  N   UNL     1      -8.340   4.127  68.178  1.00  0.00    -0.092 N  
HETATM   10  H   UNL     1      -7.696   4.031  68.964  1.00  0.00     0.000 HD 
BRANCH   9  11
HETATM   11  C   UNL     1      -9.710   4.608  68.426  1.00  0.00    -0.134 C  
HETATM   12  C   UNL     1     -10.016   4.510  69.933  1.00  0.00    -0.203 C  
HETATM   13  O   UNL     1      -9.182   5.387  70.690  1.00  0.00    -0.142 OA 
HETATM   14  O   UNL     1      -9.736   3.175  70.358  1.00  0.00    -0.153 OA 
HETATM   15  H   UNL     1      -9.924   3.115  71.287  1.00  0.00     0.000 HD 
HETATM   16  C   UNL     1      -9.327   6.777  70.357  1.00  0.00    -0.163 C  
HETATM   17  C   UNL     1      -9.108   7.037  68.849  1.00  0.00    -0.134 C  
HETATM   18  H   UNL     1     -11.432   7.273  67.736  1.00  0.00     0.000 HD 
HETATM   19  C   UNL     1      -9.911   6.063  67.966  1.00  0.00    -0.124 C  
HETATM   20  O   UNL     1      -7.708   6.917  68.553  1.00  0.00    -0.108 OA 
HETATM   21  O   UNL     1     -11.308   6.375  68.019  1.00  0.00    -0.267 OA 
HETATM   22  H   UNL     1      -7.573   7.078  67.626  1.00  0.00     0.000 HD 
BRANCH  16  23
HETATM   23  C   UNL     1     -10.641   7.356  70.906  1.00  0.00    -0.223 C  
HETATM   24  O   UNL     1     -11.256   8.243  69.979  1.00  0.00    -0.402 OA 
HETATM   25  H   UNL     1     -12.069   8.601  70.318  1.00  0.00     0.000 HD 
ENDBRANCH  16  23
ENDBRANCH   9  11
ENDBRANCH   7   9
ENDBRANCH   2   7
TORSDOF 5
ENDMDL
MODEL      259
REMARK 921   NORMALIZED FREE ENERGY PREDICTED BY IDOCK:   -2.31 KCAL/MOL
REMARK 922        TOTAL FREE ENERGY PREDICTED BY IDOCK:   -3.80 KCAL/MOL
REMARK 923 INTER-LIGAND FREE ENERGY PREDICTED BY IDOCK:   -3.09 KCAL/MOL
REMARK 924 INTRA-LIGAND FREE ENERGY PREDICTED BY IDOCK:   -0.72 KCAL/MOL
REMARK 927      BINDING AFFINITY PREDICTED BY RF-SCORE:    0.00 PKD
ROOT
HETATM    1  C   UNL     1      -6.519   8.307  74.495  1.00  0.00    -0.127 C  
HETATM    2  N   UNL     1      -6.439   7.808  73.133  1.00  0.00    -0.064 N  
ENDROOT
BRANCH   2   3
HETATM    3  N   UNL     1      -5.943   6.531  72.854  1.00  0.00    -0.042 NA 
HETATM    4  H   UNL     1      -4.945   6.321  72.846  1.00  0.00     0.000 HD 
HETATM    5  O   UNL     1      -6.802   5.679  72.620  1.00  0.00    -0.073 OA 
HETATM    6  H   UNL     1      -6.464   4.811  72.431  1.00  0.00     0.000 HD 
ENDBRANCH   2   3
BRANCH   2   7
HETATM    7  C   UNL     1      -7.010   8.567  72.111  1.00  0.00    -0.077 C  
HETATM    8  O   UNL     1      -6.614   9.696  71.814  1.00  0.00    -0.300 OA 
BRANCH   7   9
HETATM    9  N   UNL     1      -8.073   7.987  71.464  1.00  0.00    -0.102 N  
HETATM   10  H   UNL     1      -8.462   7.117  71.830  1.00  0.00     0.000 HD 
BRANCH   9  11
HETATM   11  C   UNL     1      -8.666   8.587  70.257  1.00  0.00    -0.142 C  
HETATM   12  C   UNL     1      -7.958   8.021  69.011  1.00  0.00    -0.114 C  
HETATM   13  O   UNL     1      -8.193   6.621  68.871  1.00  0.00    -0.117 OA 
HETATM   14  O   UNL     1      -6.552   8.208  69.175  1.00  0.00    -0.042 OA 
HETATM   15  H   UNL     1      -6.115   7.859  68.407  1.00  0.00     0.000 HD 
HETATM   16  C   UNL     1      -9.578   6.264  68.724  1.00  0.00    -0.121 C  
HETATM   17  C   UNL     1     -10.444   6.816  69.878  1.00  0.00    -0.211 C  
HETATM   18  H   UNL     1     -11.649   8.940  69.024  1.00  0.00     0.000 HD 
HETATM   19  C   UNL     1     -10.176   8.309  70.147  1.00  0.00    -0.199 C  
HETATM   20  O   UNL     1     -10.179   6.055  71.067  1.00  0.00    -0.189 OA 
HETATM   21  O   UNL     1     -10.717   9.112  69.092  1.00  0.00    -0.225 OA 
HETATM   22  H   UNL     1     -10.712   6.394  71.777  1.00  0.00     0.000 HD 
BRANCH  16  23
HETATM   23  C   UNL     1     -10.106   6.615  67.323  1.00  0.00    -0.170 C  
HETATM   24  O   UNL     1     -11.525   6.711  67.303  1.00  0.00    -0.766 OA 
HETATM   25  H   UNL     1     -11.852   6.929  66.437  1.00  0.00     0.000 HD 
ENDBRANCH  16  23
ENDBRANCH   9  11
ENDBRANCH   7   9
ENDBRANCH   2   7
TORSDOF 5
ENDMDL
MODEL      260
REMARK 921   NORMALIZED FREE ENERGY PREDICTED BY IDOCK:   -2.30 KCAL/MOL
REMARK 922        TOTAL FREE ENERGY PREDICTED BY IDOCK:   -3.79 KCAL/MOL
REMARK 923 INTER-LIGAND FREE ENERGY PREDICTED BY IDOCK:   -2.89 KCAL/MOL
REMARK 924 INTRA-LIGAND FREE ENERGY PREDICTED BY IDOCK:   -0.91 KCAL/MOL
REMARK 927      BINDING AFFINITY PREDICTED BY RF-SCORE:    0.00 PKD
ROOT
HETATM    1  C   UNL     1      -5.600   6.258  70.035  1.00  0.00    -0.014 C  
HETATM    2  N   UNL     1      -6.740   6.841  70.723  1.00  0.00    -0.053 N  
ENDROOT
BRANCH   2   3
HETATM    3  N   UNL     1      -6.572   7.674  71.831  1.00  0.00    -0.042 NA 
HETATM    4  H   UNL     1      -6.555   7.317  72.787  1.00  0.00     0.000 HD 
HETATM    5  O   UNL     1      -6.446   8.871  71.569  1.00  0.00    -0.069 OA 
HETATM    6  H   UNL     1      -6.332   9.437  72.323  1.00  0.00     0.000 HD 
ENDBRANCH   2   3
BRANCH   2   7
HETATM    7  C   UNL     1      -8.008   6.677  70.164  1.00  0.00    -0.112 C  
HETATM    8  O   UNL     1      -8.355   5.650  69.578  1.00  0.00    -0.101 OA 
BRANCH   7   9
HETATM    9  N   UNL     1      -8.851   7.754  70.283  1.00  0.00    -0.143 N  
HETATM   10  H   UNL     1      -8.781   8.351  71.108  1.00  0.00     0.000 HD 
BRANCH   9  11
HETATM   11  C   UNL     1      -9.854   8.071  69.252  1.00  0.00    -0.178 C  
HETATM   12  C   UNL     1     -11.149   8.548  69.934  1.00  0.00    -0.112 C  
HETATM   13  O   UNL     1     -10.946   9.778  70.630  1.00  0.00    -0.282 OA 
HETATM   14  O   UNL     1     -11.533   7.566  70.897  1.00  0.00    -0.274 OA 
HETATM   15  H   UNL     1     -12.332   7.860  71.319  1.00  0.00     0.000 HD 
HETATM   16  C   UNL     1     -10.526  10.869  69.795  1.00  0.00    -0.008 C  
HETATM   17  C   UNL     1      -9.255  10.523  68.987  1.00  0.00    -0.185 C  
HETATM   18  H   UNL     1      -9.984   9.913  66.580  1.00  0.00     0.000 HD 
HETATM   19  C   UNL     1      -9.367   9.160  68.279  1.00  0.00    -0.135 C  
HETATM   20  O   UNL     1      -8.124  10.516  69.873  1.00  0.00    -0.364 OA 
HETATM   21  O   UNL     1     -10.284   9.240  67.181  1.00  0.00    -0.219 OA 
HETATM   22  H   UNL     1      -7.343  10.304  69.375  1.00  0.00     0.000 HD 
BRANCH  16  23
HETATM   23  C   UNL     1     -11.684  11.405  68.939  1.00  0.00    -0.343 C  
HETATM   24  O   UNL     1     -11.330  12.606  68.264  1.00  0.00    -0.252 OA 
HETATM   25  H   UNL     1     -12.047  12.938  67.734  1.00  0.00     0.000 HD 
ENDBRANCH  16  23
ENDBRANCH   9  11
ENDBRANCH   7   9
ENDBRANCH   2   7
TORSDOF 5
ENDMDL
MODEL      261
REMARK 921   NORMALIZED FREE ENERGY PREDICTED BY IDOCK:   -2.29 KCAL/MOL
REMARK 922        TOTAL FREE ENERGY PREDICTED BY IDOCK:   -3.78 KCAL/MOL
REMARK 923 INTER-LIGAND FREE ENERGY PREDICTED BY IDOCK:   -3.57 KCAL/MOL
REMARK 924 INTRA-LIGAND FREE ENERGY PREDICTED BY IDOCK:   -0.20 KCAL/MOL
REMARK 927      BINDING AFFINITY PREDICTED BY RF-SCORE:    0.00 PKD
ROOT
HETATM    1  C   UNL     1      -8.394   8.976  64.141  1.00  0.00    -0.173 C  
HETATM    2  N   UNL     1      -8.624   8.095  65.273  1.00  0.00    -0.142 N  
ENDROOT
BRANCH   2   3
HETATM    3  N   UNL     1      -8.748   6.713  65.105  1.00  0.00    -0.359 NA 
HETATM    4  H   UNL     1      -9.647   6.260  64.940  1.00  0.00     0.000 HD 
HETATM    5  O   UNL     1      -7.691   6.084  65.171  1.00  0.00    -0.084 OA 
HETATM    6  H   UNL     1      -7.775   5.144  65.057  1.00  0.00     0.000 HD 
ENDBRANCH   2   3
BRANCH   2   7
HETATM    7  C   UNL     1      -8.568   8.634  66.558  1.00  0.00    -0.116 C  
HETATM    8  O   UNL     1      -7.740   9.484  66.893  1.00  0.00    -0.097 OA 
BRANCH   7   9
HETATM    9  N   UNL     1      -9.485   8.136  67.451  1.00  0.00    -0.150 N  
HETATM   10  H   UNL     1     -10.478   8.191  67.225  1.00  0.00     0.000 HD 
BRANCH   9  11
HETATM   11  C   UNL     1      -9.071   7.525  68.726  1.00  0.00    -0.135 C  
HETATM   12  C   UNL     1      -9.711   8.303  69.891  1.00  0.00    -0.180 C  
HETATM   13  O   UNL     1     -11.133   8.182  69.877  1.00  0.00    -0.212 OA 
HETATM   14  O   UNL     1      -9.394   9.686  69.730  1.00  0.00    -0.188 OA 
HETATM   15  H   UNL     1      -9.789  10.166  70.449  1.00  0.00     0.000 HD 
HETATM   16  C   UNL     1     -11.616   6.834  70.002  1.00  0.00    -0.310 C  
HETATM   17  C   UNL     1     -11.012   5.902  68.928  1.00  0.00    -0.267 C  
HETATM   18  H   UNL     1      -9.099   4.551  70.030  1.00  0.00     0.000 HD 
HETATM   19  C   UNL     1      -9.482   6.045  68.824  1.00  0.00    -0.125 C  
HETATM   20  O   UNL     1     -11.613   6.199  67.658  1.00  0.00    -0.425 OA 
HETATM   21  O   UNL     1      -8.846   5.465  69.970  1.00  0.00    -0.122 OA 
HETATM   22  H   UNL     1     -11.242   5.625  66.998  1.00  0.00     0.000 HD 
BRANCH  16  23
HETATM   23  C   UNL     1     -11.465   6.312  71.440  1.00  0.00    -0.293 C  
HETATM   24  O   UNL     1     -10.395   6.953  72.125  1.00  0.00    -0.197 OA 
HETATM   25  H   UNL     1     -10.302   6.630  73.015  1.00  0.00     0.000 HD 
ENDBRANCH  16  23
ENDBRANCH   9  11
ENDBRANCH   7   9
ENDBRANCH   2   7
TORSDOF 5
ENDMDL
MODEL      262
REMARK 921   NORMALIZED FREE ENERGY PREDICTED BY IDOCK:   -2.27 KCAL/MOL
REMARK 922        TOTAL FREE ENERGY PREDICTED BY IDOCK:   -3.76 KCAL/MOL
REMARK 923 INTER-LIGAND FREE ENERGY PREDICTED BY IDOCK:   -3.13 KCAL/MOL
REMARK 924 INTRA-LIGAND FREE ENERGY PREDICTED BY IDOCK:   -0.63 KCAL/MOL
REMARK 927      BINDING AFFINITY PREDICTED BY RF-SCORE:    0.00 PKD
ROOT
HETATM    1  C   UNL     1      -9.476   4.682  65.629  1.00  0.00    -0.174 C  
HETATM    2  N   UNL     1      -9.263   6.006  66.190  1.00  0.00    -0.156 N  
ENDROOT
BRANCH   2   3
HETATM    3  N   UNL     1      -8.298   6.870  65.666  1.00  0.00    -0.144 NA 
HETATM    4  H   UNL     1      -7.357   6.559  65.427  1.00  0.00     0.000 HD 
HETATM    5  O   UNL     1      -8.670   8.035  65.516  1.00  0.00    -0.226 OA 
HETATM    6  H   UNL     1      -8.014   8.623  65.160  1.00  0.00     0.000 HD 
ENDBRANCH   2   3
BRANCH   2   7
HETATM    7  C   UNL     1     -10.145   6.463  67.169  1.00  0.00    -0.168 C  
HETATM    8  O   UNL     1     -11.370   6.450  67.027  1.00  0.00    -0.314 OA 
BRANCH   7   9
HETATM    9  N   UNL     1      -9.561   6.960  68.308  1.00  0.00    -0.129 N  
HETATM   10  H   UNL     1      -8.543   6.977  68.377  1.00  0.00     0.000 HD 
BRANCH   9  11
HETATM   11  C   UNL     1     -10.365   7.470  69.432  1.00  0.00    -0.213 C  
HETATM   12  C   UNL     1     -10.036   6.658  70.699  1.00  0.00    -0.184 C  
HETATM   13  O   UNL     1      -8.682   6.855  71.104  1.00  0.00    -0.134 OA 
HETATM   14  O   UNL     1     -10.198   5.272  70.393  1.00  0.00    -0.231 OA 
HETATM   15  H   UNL     1      -9.996   4.772  71.175  1.00  0.00     0.000 HD 
HETATM   16  C   UNL     1      -8.350   8.217  71.422  1.00  0.00    -0.122 C  
HETATM   17  C   UNL     1      -8.681   9.179  70.259  1.00  0.00    -0.200 C  
HETATM   18  H   UNL     1     -10.918  10.357  70.813  1.00  0.00     0.000 HD 
HETATM   19  C   UNL     1     -10.103   8.962  69.708  1.00  0.00    -0.199 C  
HETATM   20  O   UNL     1      -7.720   8.991  69.209  1.00  0.00    -0.086 OA 
HETATM   21  O   UNL     1     -11.080   9.436  70.642  1.00  0.00    -0.248 OA 
HETATM   22  H   UNL     1      -7.923   9.583  68.494  1.00  0.00     0.000 HD 
BRANCH  16  23
HETATM   23  C   UNL     1      -8.944   8.642  72.775  1.00  0.00     0.001 C  
HETATM   24  O   UNL     1      -8.552   7.764  73.824  1.00  0.00    -0.200 OA 
HETATM   25  H   UNL     1      -8.919   8.027  74.660  1.00  0.00     0.000 HD 
ENDBRANCH  16  23
ENDBRANCH   9  11
ENDBRANCH   7   9
ENDBRANCH   2   7
TORSDOF 5
ENDMDL
MODEL      263
REMARK 921   NORMALIZED FREE ENERGY PREDICTED BY IDOCK:   -2.21 KCAL/MOL
REMARK 922        TOTAL FREE ENERGY PREDICTED BY IDOCK:   -3.68 KCAL/MOL
REMARK 923 INTER-LIGAND FREE ENERGY PREDICTED BY IDOCK:   -3.52 KCAL/MOL
REMARK 924 INTRA-LIGAND FREE ENERGY PREDICTED BY IDOCK:   -0.16 KCAL/MOL
REMARK 927      BINDING AFFINITY PREDICTED BY RF-SCORE:    0.00 PKD
ROOT
HETATM    1  C   UNL     1      -6.417   9.799  66.673  1.00  0.00    -0.070 C  
HETATM    2  N   UNL     1      -7.803  10.152  66.417  1.00  0.00    -0.110 N  
ENDROOT
BRANCH   2   3
HETATM    3  N   UNL     1      -8.140  11.177  65.529  1.00  0.00    -0.368 NA 
HETATM    4  H   UNL     1      -8.219  12.151  65.821  1.00  0.00     0.000 HD 
HETATM    5  O   UNL     1      -8.333  10.816  64.366  1.00  0.00    -0.345 OA 
HETATM    6  H   UNL     1      -8.562  11.513  63.763  1.00  0.00     0.000 HD 
ENDBRANCH   2   3
BRANCH   2   7
HETATM    7  C   UNL     1      -8.805   9.346  66.958  1.00  0.00    -0.127 C  
HETATM    8  O   UNL     1      -9.530   8.625  66.270  1.00  0.00    -0.207 OA 
BRANCH   7   9
HETATM    9  N   UNL     1      -8.958   9.425  68.320  1.00  0.00    -0.128 N  
HETATM   10  H   UNL     1      -9.420  10.241  68.722  1.00  0.00     0.000 HD 
BRANCH   9  11
HETATM   11  C   UNL     1      -8.472   8.362  69.216  1.00  0.00    -0.125 C  
HETATM   12  C   UNL     1      -7.978   8.994  70.531  1.00  0.00    -0.139 C  
HETATM   13  O   UNL     1      -9.049   9.609  71.246  1.00  0.00    -0.142 OA 
HETATM   14  O   UNL     1      -7.034  10.016  70.205  1.00  0.00    -0.128 OA 
HETATM   15  H   UNL     1      -6.730  10.407  71.016  1.00  0.00     0.000 HD 
HETATM   16  C   UNL     1     -10.104   8.709  71.624  1.00  0.00    -0.294 C  
HETATM   17  C   UNL     1     -10.673   7.942  70.409  1.00  0.00    -0.233 C  
HETATM   18  H   UNL     1      -9.633   5.572  70.406  1.00  0.00     0.000 HD 
HETATM   19  C   UNL     1      -9.564   7.324  69.537  1.00  0.00    -0.155 C  
HETATM   20  O   UNL     1     -11.467   8.840  69.619  1.00  0.00    -0.437 OA 
HETATM   21  O   UNL     1      -8.959   6.212  70.208  1.00  0.00    -0.149 OA 
HETATM   22  H   UNL     1     -11.817   8.368  68.872  1.00  0.00     0.000 HD 
BRANCH  16  23
HETATM   23  C   UNL     1      -9.682   7.804  72.793  1.00  0.00    -0.232 C  
HETATM   24  O   UNL     1      -8.286   7.894  73.054  1.00  0.00    -0.127 OA 
HETATM   25  H   UNL     1      -8.024   7.335  73.777  1.00  0.00     0.000 HD 
ENDBRANCH  16  23
ENDBRANCH   9  11
ENDBRANCH   7   9
ENDBRANCH   2   7
TORSDOF 5
ENDMDL
MODEL      264
REMARK 921   NORMALIZED FREE ENERGY PREDICTED BY IDOCK:   -2.18 KCAL/MOL
REMARK 922        TOTAL FREE ENERGY PREDICTED BY IDOCK:   -3.65 KCAL/MOL
REMARK 923 INTER-LIGAND FREE ENERGY PREDICTED BY IDOCK:   -3.48 KCAL/MOL
REMARK 924 INTRA-LIGAND FREE ENERGY PREDICTED BY IDOCK:   -0.16 KCAL/MOL
REMARK 927      BINDING AFFINITY PREDICTED BY RF-SCORE:    0.00 PKD
ROOT
HETATM    1  C   UNL     1      -7.523  11.461  68.272  1.00  0.00    -0.101 C  
HETATM    2  N   UNL     1      -6.640  12.333  67.515  1.00  0.00    -0.126 N  
ENDROOT
BRANCH   2   3
HETATM    3  N   UNL     1      -6.136  11.952  66.269  1.00  0.00    -0.463 NA 
HETATM    4  H   UNL     1      -5.401  12.474  65.792  1.00  0.00     0.000 HD 
HETATM    5  O   UNL     1      -6.646  10.938  65.789  1.00  0.00    -0.284 OA 
HETATM    6  H   UNL     1      -6.303  10.679  64.942  1.00  0.00     0.000 HD 
ENDBRANCH   2   3
BRANCH   2   7
HETATM    7  C   UNL     1      -6.422  13.628  67.984  1.00  0.00    -0.138 C  
HETATM    8  O   UNL     1      -5.597  13.894  68.860  1.00  0.00    -0.079 OA 
BRANCH   7   9
HETATM    9  N   UNL     1      -7.212  14.602  67.424  1.00  0.00    -0.202 N  
HETATM   10  H   UNL     1      -7.323  14.629  66.410  1.00  0.00     0.000 HD 
BRANCH   9  11
HETATM   11  C   UNL     1      -7.903  15.609  68.249  1.00  0.00    -0.128 C  
HETATM   12  C   UNL     1      -8.192  16.854  67.391  1.00  0.00    -0.182 C  
HETATM   13  O   UNL     1      -9.109  16.558  66.338  1.00  0.00    -0.252 OA 
HETATM   14  O   UNL     1      -6.966  17.275  66.789  1.00  0.00    -0.170 OA 
HETATM   15  H   UNL     1      -7.145  18.043  66.260  1.00  0.00     0.000 HD 
HETATM   16  C   UNL     1     -10.393  16.091  66.784  1.00  0.00    -0.300 C  
HETATM   17  C   UNL     1     -10.270  14.865  67.717  1.00  0.00    -0.236 C  
HETATM   18  H   UNL     1     -10.530  15.690  70.156  1.00  0.00     0.000 HD 
HETATM   19  C   UNL     1      -9.227  15.079  68.829  1.00  0.00    -0.200 C  
HETATM   20  O   UNL     1      -9.913  13.715  66.934  1.00  0.00    -0.249 OA 
HETATM   21  O   UNL     1      -9.713  16.016  69.798  1.00  0.00    -0.221 OA 
HETATM   22  H   UNL     1      -9.838  12.961  67.507  1.00  0.00     0.000 HD 
BRANCH  16  23
HETATM   23  C   UNL     1     -11.240  17.235  67.364  1.00  0.00     0.253 C  
HETATM   24  O   UNL     1     -10.568  18.486  67.278  1.00  0.00    -0.405 OA 
HETATM   25  H   UNL     1     -11.092  19.194  67.636  1.00  0.00     0.000 HD 
ENDBRANCH  16  23
ENDBRANCH   9  11
ENDBRANCH   7   9
ENDBRANCH   2   7
TORSDOF 5
ENDMDL
MODEL      265
REMARK 921   NORMALIZED FREE ENERGY PREDICTED BY IDOCK:   -2.13 KCAL/MOL
REMARK 922        TOTAL FREE ENERGY PREDICTED BY IDOCK:   -3.57 KCAL/MOL
REMARK 923 INTER-LIGAND FREE ENERGY PREDICTED BY IDOCK:   -3.04 KCAL/MOL
REMARK 924 INTRA-LIGAND FREE ENERGY PREDICTED BY IDOCK:   -0.53 KCAL/MOL
REMARK 927      BINDING AFFINITY PREDICTED BY RF-SCORE:    0.00 PKD
ROOT
HETATM    1  C   UNL     1      -6.354   6.880  72.766  1.00  0.00    -0.054 C  
HETATM    2  N   UNL     1      -6.227   7.790  71.639  1.00  0.00    -0.035 N  
ENDROOT
BRANCH   2   3
HETATM    3  N   UNL     1      -5.505   8.982  71.746  1.00  0.00    -0.051 NA 
HETATM    4  H   UNL     1      -4.783   9.247  71.076  1.00  0.00     0.000 HD 
HETATM    5  O   UNL     1      -5.806   9.688  72.710  1.00  0.00    -0.305 OA 
HETATM    6  H   UNL     1      -5.314  10.498  72.782  1.00  0.00     0.000 HD 
ENDBRANCH   2   3
BRANCH   2   7
HETATM    7  C   UNL     1      -6.713   7.383  70.397  1.00  0.00    -0.047 C  
HETATM    8  O   UNL     1      -6.012   6.816  69.557  1.00  0.00    -0.017 OA 
BRANCH   7   9
HETATM    9  N   UNL     1      -8.031   7.679  70.150  1.00  0.00    -0.108 N  
HETATM   10  H   UNL     1      -8.480   7.288  69.321  1.00  0.00     0.000 HD 
BRANCH   9  11
HETATM   11  C   UNL     1      -8.812   8.544  71.049  1.00  0.00    -0.175 C  
HETATM   12  C   UNL     1      -8.911   9.954  70.436  1.00  0.00     0.080 C  
HETATM   13  O   UNL     1      -9.651   9.938  69.215  1.00  0.00    -0.181 OA 
HETATM   14  O   UNL     1      -7.588  10.400  70.132  1.00  0.00    -0.318 OA 
HETATM   15  H   UNL     1      -7.649  11.270  69.753  1.00  0.00     0.000 HD 
HETATM   16  C   UNL     1     -11.007   9.480  69.350  1.00  0.00    -0.170 C  
HETATM   17  C   UNL     1     -11.084   8.087  70.014  1.00  0.00    -0.154 C  
HETATM   18  H   UNL     1     -11.714   8.423  72.501  1.00  0.00     0.000 HD 
HETATM   19  C   UNL     1     -10.232   8.002  71.294  1.00  0.00    -0.192 C  
HETATM   20  O   UNL     1     -10.643   7.096  69.073  1.00  0.00    -0.209 OA 
HETATM   21  O   UNL     1     -10.838   8.757  72.350  1.00  0.00    -0.320 OA 
HETATM   22  H   UNL     1     -10.691   6.239  69.481  1.00  0.00     0.000 HD 
BRANCH  16  23
HETATM   23  C   UNL     1     -11.897  10.541  70.018  1.00  0.00    -0.308 C  
HETATM   24  O   UNL     1     -13.276  10.323  69.742  1.00  0.00    -0.480 OA 
HETATM   25  H   UNL     1     -13.827  10.978  70.154  1.00  0.00     0.000 HD 
ENDBRANCH  16  23
ENDBRANCH   9  11
ENDBRANCH   7   9
ENDBRANCH   2   7
TORSDOF 5
ENDMDL
MODEL      266
REMARK 921   NORMALIZED FREE ENERGY PREDICTED BY IDOCK:   -2.12 KCAL/MOL
REMARK 922        TOTAL FREE ENERGY PREDICTED BY IDOCK:   -3.57 KCAL/MOL
REMARK 923 INTER-LIGAND FREE ENERGY PREDICTED BY IDOCK:   -2.52 KCAL/MOL
REMARK 924 INTRA-LIGAND FREE ENERGY PREDICTED BY IDOCK:   -1.05 KCAL/MOL
REMARK 927      BINDING AFFINITY PREDICTED BY RF-SCORE:    0.00 PKD
ROOT
HETATM    1  C   UNL     1     -12.022   7.843  72.070  1.00  0.00    -0.319 C  
HETATM    2  N   UNL     1     -10.632   8.026  71.689  1.00  0.00    -0.220 N  
ENDROOT
BRANCH   2   3
HETATM    3  N   UNL     1      -9.605   7.330  72.332  1.00  0.00    -0.148 NA 
HETATM    4  H   UNL     1      -9.480   6.322  72.232  1.00  0.00     0.000 HD 
HETATM    5  O   UNL     1      -8.861   8.024  73.028  1.00  0.00    -0.189 OA 
HETATM    6  H   UNL     1      -8.163   7.550  73.465  1.00  0.00     0.000 HD 
ENDBRANCH   2   3
BRANCH   2   7
HETATM    7  C   UNL     1     -10.347   8.799  70.564  1.00  0.00    -0.203 C  
HETATM    8  O   UNL     1     -11.185   9.515  70.013  1.00  0.00    -0.239 OA 
BRANCH   7   9
HETATM    9  N   UNL     1      -9.065   8.693  70.081  1.00  0.00    -0.153 N  
HETATM   10  H   UNL     1      -8.670   7.766  69.922  1.00  0.00     0.000 HD 
BRANCH   9  11
HETATM   11  C   UNL     1      -8.248   9.882  69.786  1.00  0.00    -0.180 C  
HETATM   12  C   UNL     1      -6.757   9.511  69.894  1.00  0.00    -0.063 C  
HETATM   13  O   UNL     1      -6.385   8.561  68.896  1.00  0.00    -0.043 OA 
HETATM   14  O   UNL     1      -6.540   8.905  71.169  1.00  0.00    -0.063 OA 
HETATM   15  H   UNL     1      -5.621   8.675  71.235  1.00  0.00     0.000 HD 
HETATM   16  C   UNL     1      -6.573   9.015  67.545  1.00  0.00    -0.065 C  
HETATM   17  C   UNL     1      -8.023   9.486  67.290  1.00  0.00    -0.106 C  
HETATM   18  H   UNL     1      -8.051  12.071  67.396  1.00  0.00     0.000 HD 
HETATM   19  C   UNL     1      -8.525  10.449  68.382  1.00  0.00    -0.124 C  
HETATM   20  O   UNL     1      -8.883   8.338  67.223  1.00  0.00    -0.128 OA 
HETATM   21  O   UNL     1      -7.880  11.722  68.263  1.00  0.00    -0.122 OA 
HETATM   22  H   UNL     1      -9.774   8.627  67.066  1.00  0.00     0.000 HD 
BRANCH  16  23
HETATM   23  C   UNL     1      -5.502  10.041  67.140  1.00  0.00    -0.042 C  
HETATM   24  O   UNL     1      -5.923  10.836  66.037  1.00  0.00    -0.113 OA 
HETATM   25  H   UNL     1      -5.261  11.470  65.786  1.00  0.00     0.000 HD 
ENDBRANCH  16  23
ENDBRANCH   9  11
ENDBRANCH   7   9
ENDBRANCH   2   7
TORSDOF 5
ENDMDL
MODEL      267
REMARK 921   NORMALIZED FREE ENERGY PREDICTED BY IDOCK:   -2.11 KCAL/MOL
REMARK 922        TOTAL FREE ENERGY PREDICTED BY IDOCK:   -3.55 KCAL/MOL
REMARK 923 INTER-LIGAND FREE ENERGY PREDICTED BY IDOCK:   -2.69 KCAL/MOL
REMARK 924 INTRA-LIGAND FREE ENERGY PREDICTED BY IDOCK:   -0.86 KCAL/MOL
REMARK 927      BINDING AFFINITY PREDICTED BY RF-SCORE:    0.00 PKD
ROOT
HETATM    1  C   UNL     1      -6.557   8.229  69.696  1.00  0.00    -0.037 C  
HETATM    2  N   UNL     1      -7.589   7.551  68.929  1.00  0.00    -0.103 N  
ENDROOT
BRANCH   2   3
HETATM    3  N   UNL     1      -8.890   7.416  69.420  1.00  0.00    -0.137 NA 
HETATM    4  H   UNL     1      -9.149   6.697  70.095  1.00  0.00     0.000 HD 
HETATM    5  O   UNL     1      -9.700   8.231  68.976  1.00  0.00    -0.162 OA 
HETATM    6  H   UNL     1     -10.585   8.140  69.310  1.00  0.00     0.000 HD 
ENDBRANCH   2   3
BRANCH   2   7
HETATM    7  C   UNL     1      -7.298   7.166  67.620  1.00  0.00    -0.093 C  
HETATM    8  O   UNL     1      -6.307   7.568  67.007  1.00  0.00    -0.049 OA 
BRANCH   7   9
HETATM    9  N   UNL     1      -8.209   6.321  67.034  1.00  0.00    -0.109 N  
HETATM   10  H   UNL     1      -9.100   6.699  66.710  1.00  0.00     0.000 HD 
BRANCH   9  11
HETATM   11  C   UNL     1      -7.934   4.884  66.862  1.00  0.00    -0.103 C  
HETATM   12  C   UNL     1      -9.238   4.091  67.065  1.00  0.00    -0.168 C  
HETATM   13  O   UNL     1     -10.196   4.400  66.053  1.00  0.00    -0.244 OA 
HETATM   14  O   UNL     1      -9.800   4.473  68.321  1.00  0.00    -0.147 OA 
HETATM   15  H   UNL     1     -10.605   3.984  68.447  1.00  0.00     0.000 HD 
HETATM   16  C   UNL     1      -9.764   4.096  64.716  1.00  0.00    -0.184 C  
HETATM   17  C   UNL     1      -8.420   4.778  64.374  1.00  0.00    -0.134 C  
HETATM   18  H   UNL     1      -6.548   3.006  64.605  1.00  0.00     0.000 HD 
HETATM   19  C   UNL     1      -7.361   4.562  65.470  1.00  0.00    -0.080 C  
HETATM   20  O   UNL     1      -8.643   6.184  64.185  1.00  0.00    -0.342 OA 
HETATM   21  O   UNL     1      -6.902   3.205  65.464  1.00  0.00    -0.046 OA 
HETATM   22  H   UNL     1      -7.817   6.602  63.974  1.00  0.00     0.000 HD 
BRANCH  16  23
HETATM   23  C   UNL     1      -9.785   2.583  64.445  1.00  0.00    -0.094 C  
HETATM   24  O   UNL     1     -11.041   2.156  63.930  1.00  0.00    -0.457 OA 
HETATM   25  H   UNL     1     -11.055   1.221  63.762  1.00  0.00     0.000 HD 
ENDBRANCH  16  23
ENDBRANCH   9  11
ENDBRANCH   7   9
ENDBRANCH   2   7
TORSDOF 5
ENDMDL
MODEL      268
REMARK 921   NORMALIZED FREE ENERGY PREDICTED BY IDOCK:   -2.08 KCAL/MOL
REMARK 922        TOTAL FREE ENERGY PREDICTED BY IDOCK:   -3.51 KCAL/MOL
REMARK 923 INTER-LIGAND FREE ENERGY PREDICTED BY IDOCK:   -2.86 KCAL/MOL
REMARK 924 INTRA-LIGAND FREE ENERGY PREDICTED BY IDOCK:   -0.65 KCAL/MOL
REMARK 927      BINDING AFFINITY PREDICTED BY RF-SCORE:    0.00 PKD
ROOT
HETATM    1  C   UNL     1      -7.233   8.344  67.752  1.00  0.00    -0.088 C  
HETATM    2  N   UNL     1      -8.631   8.720  67.615  1.00  0.00    -0.127 N  
ENDROOT
BRANCH   2   3
HETATM    3  N   UNL     1      -9.152   9.144  66.390  1.00  0.00    -0.159 NA 
HETATM    4  H   UNL     1      -8.633   9.751  65.754  1.00  0.00     0.000 HD 
HETATM    5  O   UNL     1     -10.284   8.731  66.134  1.00  0.00    -0.405 OA 
HETATM    6  H   UNL     1     -10.638   9.020  65.301  1.00  0.00     0.000 HD 
ENDBRANCH   2   3
BRANCH   2   7
HETATM    7  C   UNL     1      -9.487   8.504  68.694  1.00  0.00    -0.143 C  
HETATM    8  O   UNL     1     -10.584   9.055  68.801  1.00  0.00    -0.217 OA 
BRANCH   7   9
HETATM    9  N   UNL     1      -9.018   7.648  69.661  1.00  0.00    -0.140 N  
HETATM   10  H   UNL     1      -8.311   6.956  69.411  1.00  0.00     0.000 HD 
BRANCH   9  11
HETATM   11  C   UNL     1      -9.507   7.705  71.049  1.00  0.00    -0.159 C  
HETATM   12  C   UNL     1      -9.972   6.301  71.480  1.00  0.00    -0.184 C  
HETATM   13  O   UNL     1      -8.881   5.382  71.518  1.00  0.00    -0.133 OA 
HETATM   14  O   UNL     1     -10.904   5.824  70.508  1.00  0.00    -0.283 OA 
HETATM   15  H   UNL     1     -11.190   4.958  70.773  1.00  0.00     0.000 HD 
HETATM   16  C   UNL     1      -7.835   5.741  72.437  1.00  0.00    -0.103 C  
HETATM   17  C   UNL     1      -7.296   7.165  72.173  1.00  0.00    -0.080 C  
HETATM   18  H   UNL     1      -8.374   8.758  73.905  1.00  0.00     0.000 HD 
HETATM   19  C   UNL     1      -8.428   8.200  72.029  1.00  0.00    -0.155 C  
HETATM   20  O   UNL     1      -6.500   7.149  70.979  1.00  0.00    -0.043 OA 
HETATM   21  O   UNL     1      -9.040   8.453  73.300  1.00  0.00    -0.229 OA 
HETATM   22  H   UNL     1      -6.168   8.025  70.817  1.00  0.00     0.000 HD 
BRANCH  16  23
HETATM   23  C   UNL     1      -8.255   5.491  73.895  1.00  0.00    -0.110 C  
HETATM   24  O   UNL     1      -8.686   4.151  74.098  1.00  0.00    -0.096 OA 
HETATM   25  H   UNL     1      -8.945   3.996  75.000  1.00  0.00     0.000 HD 
ENDBRANCH  16  23
ENDBRANCH   9  11
ENDBRANCH   7   9
ENDBRANCH   2   7
TORSDOF 5
ENDMDL
MODEL      269
REMARK 921   NORMALIZED FREE ENERGY PREDICTED BY IDOCK:   -2.06 KCAL/MOL
REMARK 922        TOTAL FREE ENERGY PREDICTED BY IDOCK:   -3.48 KCAL/MOL
REMARK 923 INTER-LIGAND FREE ENERGY PREDICTED BY IDOCK:   -3.10 KCAL/MOL
REMARK 924 INTRA-LIGAND FREE ENERGY PREDICTED BY IDOCK:   -0.39 KCAL/MOL
REMARK 927      BINDING AFFINITY PREDICTED BY RF-SCORE:    0.00 PKD
ROOT
HETATM    1  C   UNL     1     -10.951   7.003  67.146  1.00  0.00    -0.323 C  
HETATM    2  N   UNL     1      -9.646   7.432  67.619  1.00  0.00    -0.135 N  
ENDROOT
BRANCH   2   3
HETATM    3  N   UNL     1      -9.234   8.763  67.507  1.00  0.00    -0.136 NA 
HETATM    4  H   UNL     1      -9.876   9.547  67.624  1.00  0.00     0.000 HD 
HETATM    5  O   UNL     1      -8.037   8.918  67.256  1.00  0.00    -0.103 OA 
HETATM    6  H   UNL     1      -7.758   9.823  67.179  1.00  0.00     0.000 HD 
ENDBRANCH   2   3
BRANCH   2   7
HETATM    7  C   UNL     1      -8.864   6.522  68.330  1.00  0.00    -0.119 C  
HETATM    8  O   UNL     1      -8.126   5.701  67.781  1.00  0.00    -0.101 OA 
BRANCH   7   9
HETATM    9  N   UNL     1      -8.985   6.577  69.696  1.00  0.00    -0.141 N  
HETATM   10  H   UNL     1      -8.191   6.894  70.253  1.00  0.00     0.000 HD 
BRANCH   9  11
HETATM   11  C   UNL     1     -10.231   6.189  70.379  1.00  0.00    -0.203 C  
HETATM   12  C   UNL     1      -9.967   4.942  71.244  1.00  0.00    -0.201 C  
HETATM   13  O   UNL     1      -9.049   5.227  72.300  1.00  0.00    -0.138 OA 
HETATM   14  O   UNL     1      -9.372   3.943  70.415  1.00  0.00    -0.128 OA 
HETATM   15  H   UNL     1      -9.209   3.174  70.948  1.00  0.00     0.000 HD 
HETATM   16  C   UNL     1      -9.495   6.244  73.214  1.00  0.00    -0.138 C  
HETATM   17  C   UNL     1      -9.862   7.556  72.485  1.00  0.00    -0.176 C  
HETATM   18  H   UNL     1     -12.438   7.649  72.261  1.00  0.00     0.000 HD 
HETATM   19  C   UNL     1     -10.782   7.314  71.274  1.00  0.00    -0.225 C  
HETATM   20  O   UNL     1      -8.655   8.205  72.055  1.00  0.00    -0.132 OA 
HETATM   21  O   UNL     1     -12.098   6.954  71.709  1.00  0.00    -0.313 OA 
HETATM   22  H   UNL     1      -8.881   9.013  71.608  1.00  0.00     0.000 HD 
BRANCH  16  23
HETATM   23  C   UNL     1     -10.596   5.719  74.149  1.00  0.00    -0.168 C  
HETATM   24  O   UNL     1     -10.396   4.350  74.484  1.00  0.00    -0.218 OA 
HETATM   25  H   UNL     1     -11.077   4.025  75.063  1.00  0.00     0.000 HD 
ENDBRANCH  16  23
ENDBRANCH   9  11
ENDBRANCH   7   9
ENDBRANCH   2   7
TORSDOF 5
ENDMDL
MODEL      270
REMARK 921   NORMALIZED FREE ENERGY PREDICTED BY IDOCK:   -2.06 KCAL/MOL
REMARK 922        TOTAL FREE ENERGY PREDICTED BY IDOCK:   -3.48 KCAL/MOL
REMARK 923 INTER-LIGAND FREE ENERGY PREDICTED BY IDOCK:   -2.82 KCAL/MOL
REMARK 924 INTRA-LIGAND FREE ENERGY PREDICTED BY IDOCK:   -0.66 KCAL/MOL
REMARK 927      BINDING AFFINITY PREDICTED BY RF-SCORE:    0.00 PKD
ROOT
HETATM    1  C   UNL     1      -6.037   8.403  70.972  1.00  0.00    -0.035 C  
HETATM    2  N   UNL     1      -7.200   7.773  70.369  1.00  0.00    -0.057 N  
ENDROOT
BRANCH   2   3
HETATM    3  N   UNL     1      -8.187   7.170  71.152  1.00  0.00    -0.111 NA 
HETATM    4  H   UNL     1      -8.012   6.331  71.705  1.00  0.00     0.000 HD 
HETATM    5  O   UNL     1      -9.286   7.728  71.126  1.00  0.00    -0.145 OA 
HETATM    6  H   UNL     1      -9.957   7.318  71.659  1.00  0.00     0.000 HD 
ENDBRANCH   2   3
BRANCH   2   7
HETATM    7  C   UNL     1      -7.394   7.912  68.995  1.00  0.00    -0.088 C  
HETATM    8  O   UNL     1      -7.117   8.943  68.380  1.00  0.00    -0.074 OA 
BRANCH   7   9
HETATM    9  N   UNL     1      -7.946   6.826  68.361  1.00  0.00    -0.114 N  
HETATM   10  H   UNL     1      -7.730   5.889  68.703  1.00  0.00     0.000 HD 
BRANCH   9  11
HETATM   11  C   UNL     1      -8.841   6.978  67.201  1.00  0.00    -0.121 C  
HETATM   12  C   UNL     1      -8.175   6.350  65.963  1.00  0.00    -0.126 C  
HETATM   13  O   UNL     1      -8.018   4.940  66.116  1.00  0.00    -0.105 OA 
HETATM   14  O   UNL     1      -6.871   6.916  65.824  1.00  0.00    -0.050 OA 
HETATM   15  H   UNL     1      -6.460   6.529  65.060  1.00  0.00     0.000 HD 
HETATM   16  C   UNL     1      -9.251   4.222  66.296  1.00  0.00    -0.146 C  
HETATM   17  C   UNL     1     -10.076   4.778  67.479  1.00  0.00    -0.106 C  
HETATM   18  H   UNL     1     -11.938   6.290  66.510  1.00  0.00     0.000 HD 
HETATM   19  C   UNL     1     -10.210   6.312  67.428  1.00  0.00    -0.180 C  
HETATM   20  O   UNL     1      -9.449   4.388  68.711  1.00  0.00    -0.141 OA 
HETATM   21  O   UNL     1     -11.093   6.702  66.370  1.00  0.00     0.055 OA 
HETATM   22  H   UNL     1      -9.956   4.729  69.438  1.00  0.00     0.000 HD 
BRANCH  16  23
HETATM   23  C   UNL     1     -10.039   4.114  64.981  1.00  0.00    -0.208 C  
HETATM   24  O   UNL     1     -11.415   4.428  65.162  1.00  0.00    -1.069 OA 
HETATM   25  H   UNL     1     -11.902   4.361  64.349  1.00  0.00     0.000 HD 
ENDBRANCH  16  23
ENDBRANCH   9  11
ENDBRANCH   7   9
ENDBRANCH   2   7
TORSDOF 5
ENDMDL
MODEL      271
REMARK 921   NORMALIZED FREE ENERGY PREDICTED BY IDOCK:   -2.05 KCAL/MOL
REMARK 922        TOTAL FREE ENERGY PREDICTED BY IDOCK:   -3.47 KCAL/MOL
REMARK 923 INTER-LIGAND FREE ENERGY PREDICTED BY IDOCK:   -2.53 KCAL/MOL
REMARK 924 INTRA-LIGAND FREE ENERGY PREDICTED BY IDOCK:   -0.94 KCAL/MOL
REMARK 927      BINDING AFFINITY PREDICTED BY RF-SCORE:    0.00 PKD
ROOT
HETATM    1  C   UNL     1      -8.822   5.639  65.398  1.00  0.00    -0.106 C  
HETATM    2  N   UNL     1      -7.867   6.612  65.901  1.00  0.00    -0.097 N  
ENDROOT
BRANCH   2   3
HETATM    3  N   UNL     1      -6.652   6.214  66.463  1.00  0.00    -0.053 NA 
HETATM    4  H   UNL     1      -6.575   5.414  67.091  1.00  0.00     0.000 HD 
HETATM    5  O   UNL     1      -5.680   6.901  66.143  1.00  0.00    -0.028 OA 
HETATM    6  H   UNL     1      -4.854   6.630  66.526  1.00  0.00     0.000 HD 
ENDBRANCH   2   3
BRANCH   2   7
HETATM    7  C   UNL     1      -8.116   7.966  65.674  1.00  0.00    -0.130 C  
HETATM    8  O   UNL     1      -7.984   8.496  64.569  1.00  0.00    -0.130 OA 
BRANCH   7   9
HETATM    9  N   UNL     1      -8.495   8.692  66.776  1.00  0.00    -0.114 N  
HETATM   10  H   UNL     1      -8.325   9.697  66.791  1.00  0.00     0.000 HD 
BRANCH   9  11
HETATM   11  C   UNL     1      -9.141   8.056  67.937  1.00  0.00    -0.132 C  
HETATM   12  C   UNL     1      -8.518   8.612  69.231  1.00  0.00    -0.123 C  
HETATM   13  O   UNL     1      -8.792  10.005  69.382  1.00  0.00    -0.165 OA 
HETATM   14  O   UNL     1      -7.100   8.459  69.143  1.00  0.00    -0.061 OA 
HETATM   15  H   UNL     1      -6.716   8.803  69.941  1.00  0.00     0.000 HD 
HETATM   16  C   UNL     1     -10.191  10.329  69.457  1.00  0.00    -0.236 C  
HETATM   17  C   UNL     1     -10.977   9.780  68.246  1.00  0.00    -0.164 C  
HETATM   18  H   UNL     1     -12.181   7.614  68.992  1.00  0.00     0.000 HD 
HETATM   19  C   UNL     1     -10.661   8.299  67.966  1.00  0.00    -0.127 C  
HETATM   20  O   UNL     1     -10.663  10.569  67.088  1.00  0.00    -0.256 OA 
HETATM   21  O   UNL     1     -11.242   7.464  68.974  1.00  0.00     0.019 OA 
HETATM   22  H   UNL     1     -11.148  10.232  66.343  1.00  0.00     0.000 HD 
BRANCH  16  23
HETATM   23  C   UNL     1     -10.788   9.940  70.819  1.00  0.00    -0.317 C  
HETATM   24  O   UNL     1     -12.193   9.728  70.739  1.00  0.00    -0.314 OA 
HETATM   25  H   UNL     1     -12.563   9.487  71.580  1.00  0.00     0.000 HD 
ENDBRANCH  16  23
ENDBRANCH   9  11
ENDBRANCH   7   9
ENDBRANCH   2   7
TORSDOF 5
ENDMDL
MODEL      272
REMARK 921   NORMALIZED FREE ENERGY PREDICTED BY IDOCK:   -2.05 KCAL/MOL
REMARK 922        TOTAL FREE ENERGY PREDICTED BY IDOCK:   -3.47 KCAL/MOL
REMARK 923 INTER-LIGAND FREE ENERGY PREDICTED BY IDOCK:   -2.43 KCAL/MOL
REMARK 924 INTRA-LIGAND FREE ENERGY PREDICTED BY IDOCK:   -1.05 KCAL/MOL
REMARK 927      BINDING AFFINITY PREDICTED BY RF-SCORE:    0.00 PKD
ROOT
HETATM    1  C   UNL     1      -5.961   3.425  69.712  1.00  0.00    -0.023 C  
HETATM    2  N   UNL     1      -6.561   4.520  68.968  1.00  0.00    -0.043 N  
ENDROOT
BRANCH   2   3
HETATM    3  N   UNL     1      -5.781   5.394  68.207  1.00  0.00    -0.015 NA 
HETATM    4  H   UNL     1      -5.325   5.108  67.340  1.00  0.00     0.000 HD 
HETATM    5  O   UNL     1      -5.685   6.536  68.661  1.00  0.00    -0.015 OA 
HETATM    6  H   UNL     1      -5.154   7.130  68.143  1.00  0.00     0.000 HD 
ENDBRANCH   2   3
BRANCH   2   7
HETATM    7  C   UNL     1      -7.952   4.595  68.902  1.00  0.00    -0.075 C  
HETATM    8  O   UNL     1      -8.658   3.654  68.536  1.00  0.00    -0.084 OA 
BRANCH   7   9
HETATM    9  N   UNL     1      -8.497   5.808  69.247  1.00  0.00    -0.107 N  
HETATM   10  H   UNL     1      -7.956   6.447  69.830  1.00  0.00     0.000 HD 
BRANCH   9  11
HETATM   11  C   UNL     1      -9.840   6.210  68.796  1.00  0.00    -0.136 C  
HETATM   12  C   UNL     1     -10.382   7.305  69.734  1.00  0.00    -0.220 C  
HETATM   13  O   UNL     1      -9.601   8.496  69.648  1.00  0.00    -0.167 OA 
HETATM   14  O   UNL     1     -10.292   6.825  71.076  1.00  0.00    -0.204 OA 
HETATM   15  H   UNL     1     -10.626   7.500  71.655  1.00  0.00     0.000 HD 
HETATM   16  C   UNL     1      -9.568   9.091  68.340  1.00  0.00    -0.152 C  
HETATM   17  C   UNL     1      -9.096   8.090  67.261  1.00  0.00    -0.135 C  
HETATM   18  H   UNL     1     -11.190   7.214  66.018  1.00  0.00     0.000 HD 
HETATM   19  C   UNL     1      -9.837   6.742  67.351  1.00  0.00    -0.137 C  
HETATM   20  O   UNL     1      -7.683   7.876  67.407  1.00  0.00    -0.105 OA 
HETATM   21  O   UNL     1     -11.192   6.885  66.909  1.00  0.00    -0.353 OA 
HETATM   22  H   UNL     1      -7.393   7.261  66.743  1.00  0.00     0.000 HD 
BRANCH  16  23
HETATM   23  C   UNL     1     -10.894   9.792  68.005  1.00  0.00    -0.223 C  
HETATM   24  O   UNL     1     -11.190  10.831  68.931  1.00  0.00    -0.229 OA 
HETATM   25  H   UNL     1     -12.010  11.265  68.724  1.00  0.00     0.000 HD 
ENDBRANCH  16  23
ENDBRANCH   9  11
ENDBRANCH   7   9
ENDBRANCH   2   7
TORSDOF 5
ENDMDL
MODEL      273
REMARK 921   NORMALIZED FREE ENERGY PREDICTED BY IDOCK:   -2.02 KCAL/MOL
REMARK 922        TOTAL FREE ENERGY PREDICTED BY IDOCK:   -3.43 KCAL/MOL
REMARK 923 INTER-LIGAND FREE ENERGY PREDICTED BY IDOCK:   -3.00 KCAL/MOL
REMARK 924 INTRA-LIGAND FREE ENERGY PREDICTED BY IDOCK:   -0.43 KCAL/MOL
REMARK 927      BINDING AFFINITY PREDICTED BY RF-SCORE:    0.00 PKD
ROOT
HETATM    1  C   UNL     1      -7.516  15.091  67.806  1.00  0.00    -0.159 C  
HETATM    2  N   UNL     1      -7.404  13.658  67.590  1.00  0.00    -0.164 N  
ENDROOT
BRANCH   2   3
HETATM    3  N   UNL     1      -6.199  12.984  67.803  1.00  0.00    -0.135 NA 
HETATM    4  H   UNL     1      -5.613  12.653  67.036  1.00  0.00     0.000 HD 
HETATM    5  O   UNL     1      -5.897  12.819  68.986  1.00  0.00    -0.069 OA 
HETATM    6  H   UNL     1      -5.077  12.361  69.131  1.00  0.00     0.000 HD 
ENDBRANCH   2   3
BRANCH   2   7
HETATM    7  C   UNL     1      -8.563  12.935  67.310  1.00  0.00    -0.205 C  
HETATM    8  O   UNL     1      -9.595  13.459  66.886  1.00  0.00    -0.241 OA 
BRANCH   7   9
HETATM    9  N   UNL     1      -8.496  11.587  67.565  1.00  0.00    -0.139 N  
HETATM   10  H   UNL     1      -8.351  10.941  66.788  1.00  0.00     0.000 HD 
BRANCH   9  11
HETATM   11  C   UNL     1      -8.629  11.049  68.929  1.00  0.00    -0.119 C  
HETATM   12  C   UNL     1     -10.123  10.917  69.279  1.00  0.00    -0.140 C  
HETATM   13  O   UNL     1     -10.768   9.954  68.446  1.00  0.00    -0.218 OA 
HETATM   14  O   UNL     1     -10.748  12.179  69.042  1.00  0.00    -0.323 OA 
HETATM   15  H   UNL     1     -11.670  12.098  69.257  1.00  0.00     0.000 HD 
HETATM   16  C   UNL     1     -10.229   8.625  68.550  1.00  0.00    -0.195 C  
HETATM   17  C   UNL     1      -8.707   8.596  68.283  1.00  0.00    -0.142 C  
HETATM   18  H   UNL     1      -7.500   8.483  70.570  1.00  0.00     0.000 HD 
HETATM   19  C   UNL     1      -7.953   9.674  69.084  1.00  0.00    -0.099 C  
HETATM   20  O   UNL     1      -8.474   8.784  66.879  1.00  0.00    -0.110 OA 
HETATM   21  O   UNL     1      -7.917   9.332  70.474  1.00  0.00    -0.135 OA 
HETATM   22  H   UNL     1      -7.539   8.766  66.715  1.00  0.00     0.000 HD 
BRANCH  16  23
HETATM   23  C   UNL     1     -10.647   7.947  69.865  1.00  0.00    -0.242 C  
HETATM   24  O   UNL     1      -9.740   6.915  70.238  1.00  0.00    -0.172 OA 
HETATM   25  H   UNL     1      -9.998   6.496  71.051  1.00  0.00     0.000 HD 
ENDBRANCH  16  23
ENDBRANCH   9  11
ENDBRANCH   7   9
ENDBRANCH   2   7
TORSDOF 5
ENDMDL
MODEL      274
REMARK 921   NORMALIZED FREE ENERGY PREDICTED BY IDOCK:   -2.00 KCAL/MOL
REMARK 922        TOTAL FREE ENERGY PREDICTED BY IDOCK:   -3.41 KCAL/MOL
REMARK 923 INTER-LIGAND FREE ENERGY PREDICTED BY IDOCK:   -2.67 KCAL/MOL
REMARK 924 INTRA-LIGAND FREE ENERGY PREDICTED BY IDOCK:   -0.74 KCAL/MOL
REMARK 927      BINDING AFFINITY PREDICTED BY RF-SCORE:    0.00 PKD
ROOT
HETATM    1  C   UNL     1      -7.903  12.890  67.380  1.00  0.00    -0.170 C  
HETATM    2  N   UNL     1      -8.510  11.673  66.868  1.00  0.00    -0.164 N  
ENDROOT
BRANCH   2   3
HETATM    3  N   UNL     1      -8.258  11.226  65.568  1.00  0.00    -0.365 NA 
HETATM    4  H   UNL     1      -8.991  11.150  64.863  1.00  0.00     0.000 HD 
HETATM    5  O   UNL     1      -7.083  10.931  65.338  1.00  0.00    -0.357 OA 
HETATM    6  H   UNL     1      -6.912  10.627  64.455  1.00  0.00     0.000 HD 
ENDBRANCH   2   3
BRANCH   2   7
HETATM    7  C   UNL     1      -9.235  10.870  67.748  1.00  0.00    -0.153 C  
HETATM    8  O   UNL     1     -10.194  11.286  68.401  1.00  0.00    -0.181 OA 
BRANCH   7   9
HETATM    9  N   UNL     1      -8.794   9.575  67.869  1.00  0.00    -0.120 N  
HETATM   10  H   UNL     1      -9.432   8.810  67.647  1.00  0.00     0.000 HD 
BRANCH   9  11
HETATM   11  C   UNL     1      -7.424   9.261  68.310  1.00  0.00    -0.079 C  
HETATM   12  C   UNL     1      -7.427   9.006  69.829  1.00  0.00    -0.062 C  
HETATM   13  O   UNL     1      -8.188   7.844  70.159  1.00  0.00    -0.120 OA 
HETATM   14  O   UNL     1      -8.048  10.123  70.466  1.00  0.00    -0.416 OA 
HETATM   15  H   UNL     1      -8.050   9.966  71.403  1.00  0.00     0.000 HD 
HETATM   16  C   UNL     1      -7.703   6.629  69.565  1.00  0.00    -0.104 C  
HETATM   17  C   UNL     1      -7.583   6.744  68.028  1.00  0.00    -0.107 C  
HETATM   18  H   UNL     1      -5.095   7.166  67.453  1.00  0.00     0.000 HD 
HETATM   19  C   UNL     1      -6.848   8.026  67.594  1.00  0.00    -0.070 C  
HETATM   20  O   UNL     1      -8.899   6.721  67.453  1.00  0.00    -0.118 OA 
HETATM   21  O   UNL     1      -5.451   7.929  67.895  1.00  0.00    -0.031 OA 
HETATM   22  H   UNL     1      -8.825   6.791  66.509  1.00  0.00     0.000 HD 
BRANCH  16  23
HETATM   23  C   UNL     1      -6.422   6.135  70.257  1.00  0.00    -0.043 C  
HETATM   24  O   UNL     1      -5.643   5.309  69.398  1.00  0.00    -0.010 OA 
HETATM   25  H   UNL     1      -4.851   5.003  69.826  1.00  0.00     0.000 HD 
ENDBRANCH  16  23
ENDBRANCH   9  11
ENDBRANCH   7   9
ENDBRANCH   2   7
TORSDOF 5
ENDMDL
MODEL      275
REMARK 921   NORMALIZED FREE ENERGY PREDICTED BY IDOCK:   -2.00 KCAL/MOL
REMARK 922        TOTAL FREE ENERGY PREDICTED BY IDOCK:   -3.40 KCAL/MOL
REMARK 923 INTER-LIGAND FREE ENERGY PREDICTED BY IDOCK:   -2.64 KCAL/MOL
REMARK 924 INTRA-LIGAND FREE ENERGY PREDICTED BY IDOCK:   -0.76 KCAL/MOL
REMARK 927      BINDING AFFINITY PREDICTED BY RF-SCORE:    0.00 PKD
ROOT
HETATM    1  C   UNL     1      -5.844   3.245  69.490  1.00  0.00    -0.023 C  
HETATM    2  N   UNL     1      -6.539   4.520  69.534  1.00  0.00    -0.035 N  
ENDROOT
BRANCH   2   3
HETATM    3  N   UNL     1      -5.838   5.728  69.574  1.00  0.00    -0.019 NA 
HETATM    4  H   UNL     1      -5.214   6.025  68.824  1.00  0.00     0.000 HD 
HETATM    5  O   UNL     1      -6.030   6.409  70.584  1.00  0.00    -0.022 OA 
HETATM    6  H   UNL     1      -5.553   7.230  70.611  1.00  0.00     0.000 HD 
ENDBRANCH   2   3
BRANCH   2   7
HETATM    7  C   UNL     1      -7.925   4.528  69.382  1.00  0.00    -0.061 C  
HETATM    8  O   UNL     1      -8.489   4.139  68.357  1.00  0.00    -0.090 OA 
BRANCH   7   9
HETATM    9  N   UNL     1      -8.636   5.027  70.446  1.00  0.00    -0.106 N  
HETATM   10  H   UNL     1      -8.137   5.289  71.296  1.00  0.00     0.000 HD 
BRANCH   9  11
HETATM   11  C   UNL     1     -10.098   5.194  70.390  1.00  0.00    -0.262 C  
HETATM   12  C   UNL     1     -10.643   5.357  71.821  1.00  0.00    -0.222 C  
HETATM   13  O   UNL     1     -10.165   6.558  72.426  1.00  0.00    -0.183 OA 
HETATM   14  O   UNL     1     -10.169   4.261  72.605  1.00  0.00    -0.161 OA 
HETATM   15  H   UNL     1     -10.506   4.361  73.488  1.00  0.00     0.000 HD 
HETATM   16  C   UNL     1     -10.538   7.760  71.733  1.00  0.00    -0.217 C  
HETATM   17  C   UNL     1     -10.109   7.728  70.248  1.00  0.00    -0.195 C  
HETATM   18  H   UNL     1     -12.190   7.128  68.832  1.00  0.00     0.000 HD 
HETATM   19  C   UNL     1     -10.515   6.416  69.552  1.00  0.00    -0.230 C  
HETATM   20  O   UNL     1      -8.686   7.899  70.169  1.00  0.00    -0.133 OA 
HETATM   21  O   UNL     1     -11.933   6.374  69.349  1.00  0.00    -0.048 OA 
HETATM   22  H   UNL     1      -8.422   7.879  69.256  1.00  0.00     0.000 HD 
BRANCH  16  23
HETATM   23  C   UNL     1     -12.021   8.099  71.948  1.00  0.00    -0.320 C  
HETATM   24  O   UNL     1     -12.271   8.559  73.272  1.00  0.00    -0.311 OA 
HETATM   25  H   UNL     1     -13.189   8.769  73.405  1.00  0.00     0.000 HD 
ENDBRANCH  16  23
ENDBRANCH   9  11
ENDBRANCH   7   9
ENDBRANCH   2   7
TORSDOF 5
ENDMDL
MODEL      276
REMARK 921   NORMALIZED FREE ENERGY PREDICTED BY IDOCK:   -1.99 KCAL/MOL
REMARK 922        TOTAL FREE ENERGY PREDICTED BY IDOCK:   -3.39 KCAL/MOL
REMARK 923 INTER-LIGAND FREE ENERGY PREDICTED BY IDOCK:   -3.27 KCAL/MOL
REMARK 924 INTRA-LIGAND FREE ENERGY PREDICTED BY IDOCK:   -0.12 KCAL/MOL
REMARK 927      BINDING AFFINITY PREDICTED BY RF-SCORE:    0.00 PKD
ROOT
HETATM    1  C   UNL     1      -7.805   8.565  71.883  1.00  0.00    -0.111 C  
HETATM    2  N   UNL     1      -9.032   7.950  71.405  1.00  0.00    -0.132 N  
ENDROOT
BRANCH   2   3
HETATM    3  N   UNL     1     -10.173   7.884  72.208  1.00  0.00    -0.221 NA 
HETATM    4  H   UNL     1     -10.139   8.012  73.220  1.00  0.00     0.000 HD 
HETATM    5  O   UNL     1     -11.224   7.660  71.604  1.00  0.00    -0.241 OA 
HETATM    6  H   UNL     1     -11.999   7.615  72.151  1.00  0.00     0.000 HD 
ENDBRANCH   2   3
BRANCH   2   7
HETATM    7  C   UNL     1      -9.103   7.560  70.068  1.00  0.00    -0.148 C  
HETATM    8  O   UNL     1      -9.220   6.383  69.718  1.00  0.00    -0.143 OA 
BRANCH   7   9
HETATM    9  N   UNL     1      -9.004   8.574  69.147  1.00  0.00    -0.145 N  
HETATM   10  H   UNL     1      -8.561   9.452  69.421  1.00  0.00     0.000 HD 
BRANCH   9  11
HETATM   11  C   UNL     1      -9.521   8.429  67.776  1.00  0.00    -0.149 C  
HETATM   12  C   UNL     1     -10.505   9.577  67.481  1.00  0.00    -0.275 C  
HETATM   13  O   UNL     1      -9.843  10.841  67.486  1.00  0.00    -0.168 OA 
HETATM   14  O   UNL     1     -11.486   9.599  68.519  1.00  0.00    -0.493 OA 
HETATM   15  H   UNL     1     -12.092  10.308  68.338  1.00  0.00     0.000 HD 
HETATM   16  C   UNL     1      -8.799  10.967  66.507  1.00  0.00    -0.169 C  
HETATM   17  C   UNL     1      -7.749   9.840  66.632  1.00  0.00    -0.102 C  
HETATM   18  H   UNL     1      -8.255   8.076  64.807  1.00  0.00     0.000 HD 
HETATM   19  C   UNL     1      -8.398   8.446  66.723  1.00  0.00    -0.109 C  
HETATM   20  O   UNL     1      -6.944  10.077  67.797  1.00  0.00    -0.082 OA 
HETATM   21  O   UNL     1      -8.948   8.065  65.456  1.00  0.00    -0.116 OA 
HETATM   22  H   UNL     1      -6.299   9.384  67.874  1.00  0.00     0.000 HD 
BRANCH  16  23
HETATM   23  C   UNL     1      -9.370  11.136  65.090  1.00  0.00    -0.213 C  
HETATM   24  O   UNL     1     -10.384  10.176  64.812  1.00  0.00    -0.259 OA 
HETATM   25  H   UNL     1     -10.737  10.280  63.936  1.00  0.00     0.000 HD 
ENDBRANCH  16  23
ENDBRANCH   9  11
ENDBRANCH   7   9
ENDBRANCH   2   7
TORSDOF 5
ENDMDL
MODEL      277
REMARK 921   NORMALIZED FREE ENERGY PREDICTED BY IDOCK:   -1.98 KCAL/MOL
REMARK 922        TOTAL FREE ENERGY PREDICTED BY IDOCK:   -3.38 KCAL/MOL
REMARK 923 INTER-LIGAND FREE ENERGY PREDICTED BY IDOCK:   -2.52 KCAL/MOL
REMARK 924 INTRA-LIGAND FREE ENERGY PREDICTED BY IDOCK:   -0.86 KCAL/MOL
REMARK 927      BINDING AFFINITY PREDICTED BY RF-SCORE:    0.00 PKD
ROOT
HETATM    1  C   UNL     1     -12.702   8.568  71.448  1.00  0.00    -0.271 C  
HETATM    2  N   UNL     1     -11.416   7.894  71.523  1.00  0.00    -0.258 N  
ENDROOT
BRANCH   2   3
HETATM    3  N   UNL     1     -11.330   6.515  71.730  1.00  0.00    -0.266 NA 
HETATM    4  H   UNL     1     -11.548   5.836  71.000  1.00  0.00     0.000 HD 
HETATM    5  O   UNL     1     -10.971   6.180  72.860  1.00  0.00    -0.246 OA 
HETATM    6  H   UNL     1     -10.913   5.242  73.001  1.00  0.00     0.000 HD 
ENDBRANCH   2   3
BRANCH   2   7
HETATM    7  C   UNL     1     -10.265   8.625  71.231  1.00  0.00    -0.239 C  
HETATM    8  O   UNL     1     -10.294   9.770  70.776  1.00  0.00    -0.294 OA 
BRANCH   7   9
HETATM    9  N   UNL     1      -9.077   7.975  71.459  1.00  0.00    -0.136 N  
HETATM   10  H   UNL     1      -9.005   7.334  72.250  1.00  0.00     0.000 HD 
BRANCH   9  11
HETATM   11  C   UNL     1      -7.904   8.178  70.592  1.00  0.00    -0.091 C  
HETATM   12  C   UNL     1      -6.690   7.454  71.204  1.00  0.00    -0.047 C  
HETATM   13  O   UNL     1      -6.885   6.040  71.224  1.00  0.00    -0.062 OA 
HETATM   14  O   UNL     1      -6.549   7.888  72.558  1.00  0.00    -0.061 OA 
HETATM   15  H   UNL     1      -5.800   7.441  72.935  1.00  0.00     0.000 HD 
HETATM   16  C   UNL     1      -7.072   5.449  69.927  1.00  0.00    -0.062 C  
HETATM   17  C   UNL     1      -8.231   6.115  69.150  1.00  0.00    -0.113 C  
HETATM   18  H   UNL     1      -7.200   7.770  67.448  1.00  0.00     0.000 HD 
HETATM   19  C   UNL     1      -8.135   7.652  69.164  1.00  0.00    -0.125 C  
HETATM   20  O   UNL     1      -9.479   5.703  69.727  1.00  0.00    -0.141 OA 
HETATM   21  O   UNL     1      -7.058   8.095  68.330  1.00  0.00    -0.077 OA 
HETATM   22  H   UNL     1     -10.191   6.112  69.249  1.00  0.00     0.000 HD 
BRANCH  16  23
HETATM   23  C   UNL     1      -5.752   5.378  69.142  1.00  0.00    -0.012 C  
HETATM   24  O   UNL     1      -5.811   4.415  68.096  1.00  0.00    -0.024 OA 
HETATM   25  H   UNL     1      -4.995   4.372  67.611  1.00  0.00     0.000 HD 
ENDBRANCH  16  23
ENDBRANCH   9  11
ENDBRANCH   7   9
ENDBRANCH   2   7
TORSDOF 5
ENDMDL
MODEL      278
REMARK 921   NORMALIZED FREE ENERGY PREDICTED BY IDOCK:   -1.87 KCAL/MOL
REMARK 922        TOTAL FREE ENERGY PREDICTED BY IDOCK:   -3.24 KCAL/MOL
REMARK 923 INTER-LIGAND FREE ENERGY PREDICTED BY IDOCK:   -2.51 KCAL/MOL
REMARK 924 INTRA-LIGAND FREE ENERGY PREDICTED BY IDOCK:   -0.73 KCAL/MOL
REMARK 927      BINDING AFFINITY PREDICTED BY RF-SCORE:    0.00 PKD
ROOT
HETATM    1  C   UNL     1      -6.692   3.082  68.236  1.00  0.00    -0.041 C  
HETATM    2  N   UNL     1      -8.031   3.630  68.368  1.00  0.00    -0.070 N  
ENDROOT
BRANCH   2   3
HETATM    3  N   UNL     1      -8.624   4.357  67.333  1.00  0.00    -0.103 NA 
HETATM    4  H   UNL     1      -8.111   5.050  66.788  1.00  0.00     0.000 HD 
HETATM    5  O   UNL     1      -9.811   4.099  67.129  1.00  0.00    -0.205 OA 
HETATM    6  H   UNL     1     -10.214   4.594  66.425  1.00  0.00     0.000 HD 
ENDBRANCH   2   3
BRANCH   2   7
HETATM    7  C   UNL     1      -8.782   3.288  69.493  1.00  0.00    -0.078 C  
HETATM    8  O   UNL     1      -9.574   2.344  69.509  1.00  0.00    -0.092 OA 
BRANCH   7   9
HETATM    9  N   UNL     1      -8.604   4.093  70.592  1.00  0.00    -0.074 N  
HETATM   10  H   UNL     1      -7.799   3.935  71.198  1.00  0.00     0.000 HD 
BRANCH   9  11
HETATM   11  C   UNL     1      -9.545   5.179  70.916  1.00  0.00    -0.175 C  
HETATM   12  C   UNL     1      -9.972   5.055  72.391  1.00  0.00    -0.178 C  
HETATM   13  O   UNL     1      -8.867   5.259  73.270  1.00  0.00    -0.119 OA 
HETATM   14  O   UNL     1     -10.453   3.727  72.604  1.00  0.00    -0.164 OA 
HETATM   15  H   UNL     1     -10.716   3.650  73.514  1.00  0.00     0.000 HD 
HETATM   16  C   UNL     1      -8.249   6.552  73.155  1.00  0.00    -0.113 C  
HETATM   17  C   UNL     1      -7.813   6.858  71.704  1.00  0.00    -0.100 C  
HETATM   18  H   UNL     1      -9.591   8.415  70.650  1.00  0.00     0.000 HD 
HETATM   19  C   UNL     1      -8.933   6.572  70.686  1.00  0.00    -0.148 C  
HETATM   20  O   UNL     1      -6.657   6.068  71.387  1.00  0.00    -0.048 OA 
HETATM   21  O   UNL     1      -9.969   7.555  70.792  1.00  0.00    -0.183 OA 
HETATM   22  H   UNL     1      -6.388   6.256  70.495  1.00  0.00     0.000 HD 
BRANCH  16  23
HETATM   23  C   UNL     1      -9.116   7.651  73.792  1.00  0.00    -0.277 C  
HETATM   24  O   UNL     1      -8.334   8.764  74.210  1.00  0.00    -0.340 OA 
HETATM   25  H   UNL     1      -8.869   9.444  74.604  1.00  0.00     0.000 HD 
ENDBRANCH  16  23
ENDBRANCH   9  11
ENDBRANCH   7   9
ENDBRANCH   2   7
TORSDOF 5
ENDMDL
MODEL      279
REMARK 921   NORMALIZED FREE ENERGY PREDICTED BY IDOCK:   -1.81 KCAL/MOL
REMARK 922        TOTAL FREE ENERGY PREDICTED BY IDOCK:   -3.16 KCAL/MOL
REMARK 923 INTER-LIGAND FREE ENERGY PREDICTED BY IDOCK:   -2.90 KCAL/MOL
REMARK 924 INTRA-LIGAND FREE ENERGY PREDICTED BY IDOCK:   -0.26 KCAL/MOL
REMARK 927      BINDING AFFINITY PREDICTED BY RF-SCORE:    0.00 PKD
ROOT
HETATM    1  C   UNL     1      -6.262   8.514  67.011  1.00  0.00    -0.056 C  
HETATM    2  N   UNL     1      -6.473   9.502  65.966  1.00  0.00    -0.072 N  
ENDROOT
BRANCH   2   3
HETATM    3  N   UNL     1      -5.410   9.986  65.200  1.00  0.00    -0.055 NA 
HETATM    4  H   UNL     1      -4.577  10.402  65.618  1.00  0.00     0.000 HD 
HETATM    5  O   UNL     1      -5.553   9.873  63.981  1.00  0.00    -0.081 OA 
HETATM    6  H   UNL     1      -4.830  10.202  63.460  1.00  0.00     0.000 HD 
ENDBRANCH   2   3
BRANCH   2   7
HETATM    7  C   UNL     1      -7.782   9.851  65.635  1.00  0.00    -0.121 C  
HETATM    8  O   UNL     1      -8.614   9.032  65.238  1.00  0.00    -0.154 OA 
BRANCH   7   9
HETATM    9  N   UNL     1      -8.088  11.184  65.752  1.00  0.00    -0.358 N  
HETATM   10  H   UNL     1      -8.011  11.785  64.931  1.00  0.00     0.000 HD 
BRANCH   9  11
HETATM   11  C   UNL     1      -8.523  11.769  67.032  1.00  0.00    -0.175 C  
HETATM   12  C   UNL     1      -8.160  13.266  67.054  1.00  0.00    -0.005 C  
HETATM   13  O   UNL     1      -8.883  13.991  66.060  1.00  0.00     0.189 OA 
HETATM   14  O   UNL     1      -6.769  13.391  66.751  1.00  0.00    -0.251 OA 
HETATM   15  H   UNL     1      -6.545  14.314  66.765  1.00  0.00     0.000 HD 
HETATM   16  C   UNL     1     -10.312  13.939  66.211  1.00  0.00    -0.293 C  
HETATM   17  C   UNL     1     -10.835  12.485  66.268  1.00  0.00    -0.268 C  
HETATM   18  H   UNL     1     -11.277  11.895  68.749  1.00  0.00     0.000 HD 
HETATM   19  C   UNL     1     -10.038  11.617  67.259  1.00  0.00    -0.199 C  
HETATM   20  O   UNL     1     -10.763  11.911  64.954  1.00  0.00    -0.279 OA 
HETATM   21  O   UNL     1     -10.342  11.989  68.609  1.00  0.00    -0.216 OA 
HETATM   22  H   UNL     1     -11.086  11.017  64.989  1.00  0.00     0.000 HD 
BRANCH  16  23
HETATM   23  C   UNL     1     -10.789  14.821  67.376  1.00  0.00    -0.300 C  
HETATM   24  O   UNL     1      -9.757  15.039  68.331  1.00  0.00    -0.205 OA 
HETATM   25  H   UNL     1     -10.052  15.585  69.051  1.00  0.00     0.000 HD 
ENDBRANCH  16  23
ENDBRANCH   9  11
ENDBRANCH   7   9
ENDBRANCH   2   7
TORSDOF 5
ENDMDL
MODEL      280
REMARK 921   NORMALIZED FREE ENERGY PREDICTED BY IDOCK:   -1.75 KCAL/MOL
REMARK 922        TOTAL FREE ENERGY PREDICTED BY IDOCK:   -3.08 KCAL/MOL
REMARK 923 INTER-LIGAND FREE ENERGY PREDICTED BY IDOCK:   -2.53 KCAL/MOL
REMARK 924 INTRA-LIGAND FREE ENERGY PREDICTED BY IDOCK:   -0.55 KCAL/MOL
REMARK 927      BINDING AFFINITY PREDICTED BY RF-SCORE:    0.00 PKD
ROOT
HETATM    1  C   UNL     1      -8.359  11.567  68.376  1.00  0.00    -0.154 C  
HETATM    2  N   UNL     1      -9.579  10.985  68.910  1.00  0.00    -0.189 N  
ENDROOT
BRANCH   2   3
HETATM    3  N   UNL     1     -10.487  11.751  69.646  1.00  0.00    -0.298 NA 
HETATM    4  H   UNL     1     -10.990  11.379  70.452  1.00  0.00     0.000 HD 
HETATM    5  O   UNL     1     -10.634  12.908  69.250  1.00  0.00    -0.438 OA 
HETATM    6  H   UNL     1     -11.251  13.428  69.751  1.00  0.00     0.000 HD 
ENDBRANCH   2   3
BRANCH   2   7
HETATM    7  C   UNL     1      -9.908   9.680  68.546  1.00  0.00    -0.157 C  
HETATM    8  O   UNL     1     -10.974   9.384  68.002  1.00  0.00    -0.183 OA 
BRANCH   7   9
HETATM    9  N   UNL     1      -8.973   8.723  68.859  1.00  0.00    -0.134 N  
HETATM   10  H   UNL     1      -8.318   8.416  68.140  1.00  0.00     0.000 HD 
BRANCH   9  11
HETATM   11  C   UNL     1      -8.892   8.131  70.205  1.00  0.00    -0.141 C  
HETATM   12  C   UNL     1      -9.274   6.641  70.126  1.00  0.00    -0.155 C  
HETATM   13  O   UNL     1      -8.331   5.904  69.349  1.00  0.00    -0.111 OA 
HETATM   14  O   UNL     1     -10.541   6.541  69.476  1.00  0.00    -0.206 OA 
HETATM   15  H   UNL     1     -10.777   5.622  69.427  1.00  0.00     0.000 HD 
HETATM   16  C   UNL     1      -6.989   5.931  69.863  1.00  0.00    -0.066 C  
HETATM   17  C   UNL     1      -6.474   7.375  70.059  1.00  0.00    -0.038 C  
HETATM   18  H   UNL     1      -6.675   7.958  72.572  1.00  0.00     0.000 HD 
HETATM   19  C   UNL     1      -7.484   8.258  70.815  1.00  0.00    -0.065 C  
HETATM   20  O   UNL     1      -6.195   7.951  68.773  1.00  0.00    -0.038 OA 
HETATM   21  O   UNL     1      -7.544   7.881  72.196  1.00  0.00    -0.077 OA 
HETATM   22  H   UNL     1      -5.878   8.838  68.894  1.00  0.00     0.000 HD 
BRANCH  16  23
HETATM   23  C   UNL     1      -6.842   5.041  71.108  1.00  0.00    -0.043 C  
HETATM   24  O   UNL     1      -7.372   3.738  70.891  1.00  0.00    -0.037 OA 
HETATM   25  H   UNL     1      -7.281   3.188  71.660  1.00  0.00     0.000 HD 
ENDBRANCH  16  23
ENDBRANCH   9  11
ENDBRANCH   7   9
ENDBRANCH   2   7
TORSDOF 5
ENDMDL
MODEL      281
REMARK 921   NORMALIZED FREE ENERGY PREDICTED BY IDOCK:   -1.74 KCAL/MOL
REMARK 922        TOTAL FREE ENERGY PREDICTED BY IDOCK:   -3.07 KCAL/MOL
REMARK 923 INTER-LIGAND FREE ENERGY PREDICTED BY IDOCK:   -2.42 KCAL/MOL
REMARK 924 INTRA-LIGAND FREE ENERGY PREDICTED BY IDOCK:   -0.64 KCAL/MOL
REMARK 927      BINDING AFFINITY PREDICTED BY RF-SCORE:    0.00 PKD
ROOT
HETATM    1  C   UNL     1      -6.114   9.311  71.126  1.00  0.00    -0.071 C  
HETATM    2  N   UNL     1      -7.477   8.905  71.426  1.00  0.00    -0.104 N  
ENDROOT
BRANCH   2   3
HETATM    3  N   UNL     1      -7.878   8.618  72.733  1.00  0.00    -0.379 NA 
HETATM    4  H   UNL     1      -7.215   8.375  73.469  1.00  0.00     0.000 HD 
HETATM    5  O   UNL     1      -9.093   8.681  72.930  1.00  0.00    -0.314 OA 
HETATM    6  H   UNL     1      -9.366   8.486  73.818  1.00  0.00     0.000 HD 
ENDBRANCH   2   3
BRANCH   2   7
HETATM    7  C   UNL     1      -8.424   8.952  70.404  1.00  0.00    -0.166 C  
HETATM    8  O   UNL     1      -9.074   9.965  70.138  1.00  0.00    -0.223 OA 
BRANCH   7   9
HETATM    9  N   UNL     1      -8.614   7.778  69.717  1.00  0.00    -0.133 N  
HETATM   10  H   UNL     1      -9.304   7.748  68.966  1.00  0.00     0.000 HD 
BRANCH   9  11
HETATM   11  C   UNL     1      -7.848   6.561  70.036  1.00  0.00    -0.111 C  
HETATM   12  C   UNL     1      -8.804   5.355  70.072  1.00  0.00    -0.126 C  
HETATM   13  O   UNL     1      -9.367   5.100  68.785  1.00  0.00    -0.114 OA 
HETATM   14  O   UNL     1      -9.880   5.666  70.959  1.00  0.00    -0.167 OA 
HETATM   15  H   UNL     1     -10.470   4.922  70.980  1.00  0.00     0.000 HD 
HETATM   16  C   UNL     1      -8.401   4.796  67.765  1.00  0.00    -0.103 C  
HETATM   17  C   UNL     1      -7.322   5.896  67.644  1.00  0.00    -0.077 C  
HETATM   18  H   UNL     1      -5.203   5.072  68.880  1.00  0.00     0.000 HD 
HETATM   19  C   UNL     1      -6.732   6.288  69.012  1.00  0.00    -0.057 C  
HETATM   20  O   UNL     1      -7.900   7.052  67.017  1.00  0.00    -0.105 OA 
HETATM   21  O   UNL     1      -5.892   5.241  69.513  1.00  0.00    -0.015 OA 
HETATM   22  H   UNL     1      -7.237   7.728  66.943  1.00  0.00     0.000 HD 
BRANCH  16  23
HETATM   23  C   UNL     1      -7.832   3.378  67.930  1.00  0.00    -0.072 C  
HETATM   24  O   UNL     1      -8.478   2.446  67.070  1.00  0.00    -0.087 OA 
HETATM   25  H   UNL     1      -8.126   1.569  67.172  1.00  0.00     0.000 HD 
ENDBRANCH  16  23
ENDBRANCH   9  11
ENDBRANCH   7   9
ENDBRANCH   2   7
TORSDOF 5
ENDMDL
MODEL      282
REMARK 921   NORMALIZED FREE ENERGY PREDICTED BY IDOCK:   -1.72 KCAL/MOL
REMARK 922        TOTAL FREE ENERGY PREDICTED BY IDOCK:   -3.05 KCAL/MOL
REMARK 923 INTER-LIGAND FREE ENERGY PREDICTED BY IDOCK:   -2.98 KCAL/MOL
REMARK 924 INTRA-LIGAND FREE ENERGY PREDICTED BY IDOCK:   -0.07 KCAL/MOL
REMARK 927      BINDING AFFINITY PREDICTED BY RF-SCORE:    0.00 PKD
ROOT
HETATM    1  C   UNL     1      -8.488  12.998  67.553  1.00  0.00    -0.190 C  
HETATM    2  N   UNL     1      -9.579  12.293  66.901  1.00  0.00    -0.207 N  
ENDROOT
BRANCH   2   3
HETATM    3  N   UNL     1      -9.552  12.022  65.531  1.00  0.00    -0.364 NA 
HETATM    4  H   UNL     1     -10.259  12.377  64.888  1.00  0.00     0.000 HD 
HETATM    5  O   UNL     1      -8.609  11.321  65.157  1.00  0.00    -0.384 OA 
HETATM    6  H   UNL     1      -8.591  11.137  64.226  1.00  0.00     0.000 HD 
ENDBRANCH   2   3
BRANCH   2   7
HETATM    7  C   UNL     1     -10.590  11.753  67.695  1.00  0.00    -0.205 C  
HETATM    8  O   UNL     1     -11.248  10.765  67.363  1.00  0.00    -0.321 OA 
BRANCH   7   9
HETATM    9  N   UNL     1     -10.834  12.413  68.874  1.00  0.00    -0.319 N  
HETATM   10  H   UNL     1     -10.337  12.124  69.717  1.00  0.00     0.000 HD 
BRANCH   9  11
HETATM   11  C   UNL     1     -11.794  13.527  68.954  1.00  0.00    -0.345 C  
HETATM   12  C   UNL     1     -12.489  13.499  70.329  1.00  0.00    -0.239 C  
HETATM   13  O   UNL     1     -11.561  13.745  71.385  1.00  0.00     0.339 OA 
HETATM   14  O   UNL     1     -13.031  12.192  70.527  1.00  0.00     0.069 OA 
HETATM   15  H   UNL     1     -13.459  12.174  71.375  1.00  0.00     0.000 HD 
HETATM   16  C   UNL     1     -10.904  15.021  71.311  1.00  0.00     0.132 C  
HETATM   17  C   UNL     1     -10.200  15.232  69.951  1.00  0.00    -0.217 C  
HETATM   18  H   UNL     1     -11.717  16.741  68.495  1.00  0.00     0.000 HD 
HETATM   19  C   UNL     1     -11.118  14.896  68.761  1.00  0.00    -0.264 C  
HETATM   20  O   UNL     1      -9.023  14.411  69.901  1.00  0.00     0.005 OA 
HETATM   21  O   UNL     1     -12.134  15.896  68.615  1.00  0.00    -0.252 OA 
HETATM   22  H   UNL     1      -8.590  14.541  69.065  1.00  0.00     0.000 HD 
BRANCH  16  23
HETATM   23  C   UNL     1     -11.848  16.167  71.711  1.00  0.00    -0.506 C  
HETATM   24  O   UNL     1     -11.407  17.418  71.196  1.00  0.00     0.286 OA 
HETATM   25  H   UNL     1     -11.991  18.127  71.443  1.00  0.00     0.000 HD 
ENDBRANCH  16  23
ENDBRANCH   9  11
ENDBRANCH   7   9
ENDBRANCH   2   7
TORSDOF 5
ENDMDL
MODEL      283
REMARK 921   NORMALIZED FREE ENERGY PREDICTED BY IDOCK:   -1.67 KCAL/MOL
REMARK 922        TOTAL FREE ENERGY PREDICTED BY IDOCK:   -2.98 KCAL/MOL
REMARK 923 INTER-LIGAND FREE ENERGY PREDICTED BY IDOCK:   -3.50 KCAL/MOL
REMARK 924 INTRA-LIGAND FREE ENERGY PREDICTED BY IDOCK:    0.52 KCAL/MOL
REMARK 927      BINDING AFFINITY PREDICTED BY RF-SCORE:    0.00 PKD
ROOT
HETATM    1  C   UNL     1     -10.774  19.558  65.885  1.00  0.00    -0.420 C  
HETATM    2  N   UNL     1      -9.559  18.784  66.078  1.00  0.00    -0.197 N  
ENDROOT
BRANCH   2   3
HETATM    3  N   UNL     1      -8.297  19.375  65.974  1.00  0.00    -0.443 NA 
HETATM    4  H   UNL     1      -8.153  20.380  66.073  1.00  0.00     0.000 HD 
HETATM    5  O   UNL     1      -7.372  18.591  65.755  1.00  0.00    -0.447 OA 
HETATM    6  H   UNL     1      -6.514  18.994  65.684  1.00  0.00     0.000 HD 
ENDBRANCH   2   3
BRANCH   2   7
HETATM    7  C   UNL     1      -9.673  17.467  66.522  1.00  0.00    -0.293 C  
HETATM    8  O   UNL     1     -10.736  16.842  66.503  1.00  0.00    -0.222 OA 
BRANCH   7   9
HETATM    9  N   UNL     1      -8.520  16.905  67.014  1.00  0.00    -0.193 N  
HETATM   10  H   UNL     1      -7.935  17.449  67.649  1.00  0.00     0.000 HD 
BRANCH   9  11
HETATM   11  C   UNL     1      -8.108  15.539  66.650  1.00  0.00    -0.154 C  
HETATM   12  C   UNL     1      -6.744  15.233  67.296  1.00  0.00    -0.024 C  
HETATM   13  O   UNL     1      -6.836  15.215  68.720  1.00  0.00    -0.101 OA 
HETATM   14  O   UNL     1      -5.837  16.277  66.936  1.00  0.00    -0.335 OA 
HETATM   15  H   UNL     1      -4.995  16.088  67.335  1.00  0.00     0.000 HD 
HETATM   16  C   UNL     1      -7.741  14.228  69.243  1.00  0.00     0.048 C  
HETATM   17  C   UNL     1      -9.157  14.363  68.639  1.00  0.00    -0.178 C  
HETATM   18  H   UNL     1      -9.410  12.568  66.793  1.00  0.00     0.000 HD 
HETATM   19  C   UNL     1      -9.128  14.480  67.104  1.00  0.00    -0.225 C  
HETATM   20  O   UNL     1      -9.796  15.520  69.201  1.00  0.00    -0.213 OA 
HETATM   21  O   UNL     1      -8.780  13.222  66.513  1.00  0.00    -0.070 OA 
HETATM   22  H   UNL     1     -10.667  15.603  68.830  1.00  0.00     0.000 HD 
BRANCH  16  23
HETATM   23  C   UNL     1      -7.151  12.812  69.143  1.00  0.00     0.032 C  
HETATM   24  O   UNL     1      -6.179  12.717  68.107  1.00  0.00    -0.068 OA 
HETATM   25  H   UNL     1      -5.814  11.841  68.045  1.00  0.00     0.000 HD 
ENDBRANCH  16  23
ENDBRANCH   9  11
ENDBRANCH   7   9
ENDBRANCH   2   7
TORSDOF 5
ENDMDL
MODEL      284
REMARK 921   NORMALIZED FREE ENERGY PREDICTED BY IDOCK:   -1.63 KCAL/MOL
REMARK 922        TOTAL FREE ENERGY PREDICTED BY IDOCK:   -2.93 KCAL/MOL
REMARK 923 INTER-LIGAND FREE ENERGY PREDICTED BY IDOCK:   -3.02 KCAL/MOL
REMARK 924 INTRA-LIGAND FREE ENERGY PREDICTED BY IDOCK:    0.10 KCAL/MOL
REMARK 927      BINDING AFFINITY PREDICTED BY RF-SCORE:    0.00 PKD
ROOT
HETATM    1  C   UNL     1      -8.925   6.339  69.400  1.00  0.00    -0.126 C  
HETATM    2  N   UNL     1      -9.412   6.063  68.059  1.00  0.00    -0.113 N  
ENDROOT
BRANCH   2   3
HETATM    3  N   UNL     1     -10.779   6.057  67.770  1.00  0.00    -0.274 NA 
HETATM    4  H   UNL     1     -11.402   5.311  68.080  1.00  0.00     0.000 HD 
HETATM    5  O   UNL     1     -11.176   7.021  67.112  1.00  0.00    -0.590 OA 
HETATM    6  H   UNL     1     -12.105   7.017  66.915  1.00  0.00     0.000 HD 
ENDBRANCH   2   3
BRANCH   2   7
HETATM    7  C   UNL     1      -8.484   5.951  67.024  1.00  0.00    -0.107 C  
HETATM    8  O   UNL     1      -7.597   5.095  67.009  1.00  0.00    -0.086 OA 
BRANCH   7   9
HETATM    9  N   UNL     1      -8.600   6.881  66.021  1.00  0.00    -0.142 N  
HETATM   10  H   UNL     1      -8.872   6.573  65.087  1.00  0.00     0.000 HD 
BRANCH   9  11
HETATM   11  C   UNL     1      -8.342   8.312  66.258  1.00  0.00    -0.124 C  
HETATM   12  C   UNL     1      -6.821   8.552  66.299  1.00  0.00    -0.073 C  
HETATM   13  O   UNL     1      -6.218   8.280  65.035  1.00  0.00    -0.048 OA 
HETATM   14  O   UNL     1      -6.254   7.649  67.251  1.00  0.00    -0.049 OA 
HETATM   15  H   UNL     1      -5.316   7.797  67.276  1.00  0.00     0.000 HD 
HETATM   16  C   UNL     1      -6.707   9.095  63.957  1.00  0.00    -0.089 C  
HETATM   17  C   UNL     1      -8.244   9.011  63.820  1.00  0.00    -0.173 C  
HETATM   18  H   UNL     1      -9.259  11.124  64.917  1.00  0.00     0.000 HD 
HETATM   19  C   UNL     1      -8.962   9.206  65.169  1.00  0.00    -0.189 C  
HETATM   20  O   UNL     1      -8.595   7.734  63.264  1.00  0.00    -0.378 OA 
HETATM   21  O   UNL     1      -8.876  10.572  65.589  1.00  0.00    -0.168 OA 
HETATM   22  H   UNL     1      -9.540   7.683  63.180  1.00  0.00     0.000 HD 
BRANCH  16  23
HETATM   23  C   UNL     1      -6.165  10.531  64.043  1.00  0.00     0.011 C  
HETATM   24  O   UNL     1      -5.969  10.942  65.392  1.00  0.00    -0.307 OA 
HETATM   25  H   UNL     1      -5.634  11.829  65.446  1.00  0.00     0.000 HD 
ENDBRANCH  16  23
ENDBRANCH   9  11
ENDBRANCH   7   9
ENDBRANCH   2   7
TORSDOF 5
ENDMDL
MODEL      285
REMARK 921   NORMALIZED FREE ENERGY PREDICTED BY IDOCK:   -1.50 KCAL/MOL
REMARK 922        TOTAL FREE ENERGY PREDICTED BY IDOCK:   -2.77 KCAL/MOL
REMARK 923 INTER-LIGAND FREE ENERGY PREDICTED BY IDOCK:   -2.49 KCAL/MOL
REMARK 924 INTRA-LIGAND FREE ENERGY PREDICTED BY IDOCK:   -0.27 KCAL/MOL
REMARK 927      BINDING AFFINITY PREDICTED BY RF-SCORE:    0.00 PKD
ROOT
HETATM    1  C   UNL     1      -7.106  10.458  69.955  1.00  0.00    -0.159 C  
HETATM    2  N   UNL     1      -6.921   9.963  68.600  1.00  0.00    -0.062 N  
ENDROOT
BRANCH   2   3
HETATM    3  N   UNL     1      -6.496   8.654  68.357  1.00  0.00    -0.055 NA 
HETATM    4  H   UNL     1      -6.158   8.349  67.444  1.00  0.00     0.000 HD 
HETATM    5  O   UNL     1      -6.559   7.897  69.327  1.00  0.00    -0.035 OA 
HETATM    6  H   UNL     1      -6.270   7.008  69.161  1.00  0.00     0.000 HD 
ENDBRANCH   2   3
BRANCH   2   7
HETATM    7  C   UNL     1      -7.321  10.771  67.537  1.00  0.00    -0.092 C  
HETATM    8  O   UNL     1      -6.942  10.591  66.378  1.00  0.00    -0.108 OA 
BRANCH   7   9
HETATM    9  N   UNL     1      -8.154  11.813  67.864  1.00  0.00    -0.136 N  
HETATM   10  H   UNL     1      -8.789  11.710  68.657  1.00  0.00     0.000 HD 
BRANCH   9  11
HETATM   11  C   UNL     1      -8.154  13.073  67.103  1.00  0.00    -0.107 C  
HETATM   12  C   UNL     1      -9.515  13.772  67.281  1.00  0.00    -0.236 C  
HETATM   13  O   UNL     1      -9.721  14.169  68.637  1.00  0.00    -0.223 OA 
HETATM   14  O   UNL     1     -10.543  12.839  66.944  1.00  0.00    -0.242 OA 
HETATM   15  H   UNL     1     -11.382  13.270  67.055  1.00  0.00     0.000 HD 
HETATM   16  C   UNL     1      -8.744  15.095  69.139  1.00  0.00    -0.216 C  
HETATM   17  C   UNL     1      -7.303  14.560  68.975  1.00  0.00    -0.132 C  
HETATM   18  H   UNL     1      -6.260  15.704  66.901  1.00  0.00     0.000 HD 
HETATM   19  C   UNL     1      -7.035  14.029  67.554  1.00  0.00    -0.148 C  
HETATM   20  O   UNL     1      -7.081  13.513  69.933  1.00  0.00    -0.325 OA 
HETATM   21  O   UNL     1      -6.951  15.113  66.622  1.00  0.00     0.160 OA 
HETATM   22  H   UNL     1      -6.194  13.185  69.833  1.00  0.00     0.000 HD 
BRANCH  16  23
HETATM   23  C   UNL     1      -8.956  16.506  68.567  1.00  0.00    -0.231 C  
HETATM   24  O   UNL     1      -8.063  17.450  69.147  1.00  0.00    -0.149 OA 
HETATM   25  H   UNL     1      -8.194  18.323  68.794  1.00  0.00     0.000 HD 
ENDBRANCH  16  23
ENDBRANCH   9  11
ENDBRANCH   7   9
ENDBRANCH   2   7
TORSDOF 5
ENDMDL
MODEL      286
REMARK 921   NORMALIZED FREE ENERGY PREDICTED BY IDOCK:   -1.45 KCAL/MOL
REMARK 922        TOTAL FREE ENERGY PREDICTED BY IDOCK:   -2.69 KCAL/MOL
REMARK 923 INTER-LIGAND FREE ENERGY PREDICTED BY IDOCK:   -2.49 KCAL/MOL
REMARK 924 INTRA-LIGAND FREE ENERGY PREDICTED BY IDOCK:   -0.21 KCAL/MOL
REMARK 927      BINDING AFFINITY PREDICTED BY RF-SCORE:    0.00 PKD
ROOT
HETATM    1  C   UNL     1     -10.599   7.180  67.177  1.00  0.00    -0.347 C  
HETATM    2  N   UNL     1      -9.534   6.203  67.330  1.00  0.00    -0.113 N  
ENDROOT
BRANCH   2   3
HETATM    3  N   UNL     1      -8.471   6.140  66.425  1.00  0.00    -0.119 NA 
HETATM    4  H   UNL     1      -8.070   6.972  65.991  1.00  0.00     0.000 HD 
HETATM    5  O   UNL     1      -8.056   5.004  66.189  1.00  0.00    -0.106 OA 
HETATM    6  H   UNL     1      -7.334   4.961  65.573  1.00  0.00     0.000 HD 
ENDBRANCH   2   3
BRANCH   2   7
HETATM    7  C   UNL     1      -9.507   5.424  68.486  1.00  0.00    -0.123 C  
HETATM    8  O   UNL     1     -10.028   4.310  68.556  1.00  0.00    -0.085 OA 
BRANCH   7   9
HETATM    9  N   UNL     1      -8.880   5.992  69.569  1.00  0.00    -0.124 N  
HETATM   10  H   UNL     1      -7.871   6.141  69.536  1.00  0.00     0.000 HD 
BRANCH   9  11
HETATM   11  C   UNL     1      -9.625   6.390  70.775  1.00  0.00    -0.179 C  
HETATM   12  C   UNL     1      -9.428   5.323  71.867  1.00  0.00    -0.146 C  
HETATM   13  O   UNL     1      -8.066   5.258  72.290  1.00  0.00    -0.108 OA 
HETATM   14  O   UNL     1      -9.769   4.051  71.314  1.00  0.00    -0.167 OA 
HETATM   15  H   UNL     1      -9.647   3.393  71.988  1.00  0.00     0.000 HD 
HETATM   16  C   UNL     1      -7.560   6.482  72.849  1.00  0.00    -0.097 C  
HETATM   17  C   UNL     1      -7.741   7.677  71.886  1.00  0.00    -0.087 C  
HETATM   18  H   UNL     1      -9.809   9.022  72.668  1.00  0.00     0.000 HD 
HETATM   19  C   UNL     1      -9.170   7.757  71.318  1.00  0.00    -0.141 C  
HETATM   20  O   UNL     1      -6.798   7.557  70.810  1.00  0.00    -0.046 OA 
HETATM   21  O   UNL     1     -10.090   8.179  72.332  1.00  0.00    -0.232 OA 
HETATM   22  H   UNL     1      -6.909   8.293  70.218  1.00  0.00     0.000 HD 
BRANCH  16  23
HETATM   23  C   UNL     1      -8.112   6.728  74.262  1.00  0.00    -0.121 C  
HETATM   24  O   UNL     1      -9.384   6.117  74.446  1.00  0.00    -0.144 OA 
HETATM   25  H   UNL     1      -9.726   6.268  75.319  1.00  0.00     0.000 HD 
ENDBRANCH  16  23
ENDBRANCH   9  11
ENDBRANCH   7   9
ENDBRANCH   2   7
TORSDOF 5
ENDMDL
MODEL      287
REMARK 921   NORMALIZED FREE ENERGY PREDICTED BY IDOCK:   -0.99 KCAL/MOL
REMARK 922        TOTAL FREE ENERGY PREDICTED BY IDOCK:   -2.10 KCAL/MOL
REMARK 923 INTER-LIGAND FREE ENERGY PREDICTED BY IDOCK:   -1.30 KCAL/MOL
REMARK 924 INTRA-LIGAND FREE ENERGY PREDICTED BY IDOCK:   -0.80 KCAL/MOL
REMARK 927      BINDING AFFINITY PREDICTED BY RF-SCORE:    0.00 PKD
ROOT
HETATM    1  C   UNL     1      -9.901   9.510  64.474  1.00  0.00     0.445 C  
HETATM    2  N   UNL     1      -8.762   8.647  64.208  1.00  0.00    -0.028 N  
ENDROOT
BRANCH   2   3
HETATM    3  N   UNL     1      -8.434   8.257  62.907  1.00  0.00    -0.403 NA 
HETATM    4  H   UNL     1      -8.945   8.590  62.090  1.00  0.00     0.000 HD 
HETATM    5  O   UNL     1      -7.481   7.480  62.822  1.00  0.00    -0.091 OA 
HETATM    6  H   UNL     1      -7.258   7.215  61.937  1.00  0.00     0.000 HD 
ENDBRANCH   2   3
BRANCH   2   7
HETATM    7  C   UNL     1      -7.905   8.334  65.263  1.00  0.00    -0.120 C  
HETATM    8  O   UNL     1      -6.958   9.051  65.593  1.00  0.00    -0.078 OA 
BRANCH   7   9
HETATM    9  N   UNL     1      -8.164   7.149  65.906  1.00  0.00    -0.125 N  
HETATM   10  H   UNL     1      -9.133   6.856  66.036  1.00  0.00     0.000 HD 
BRANCH   9  11
HETATM   11  C   UNL     1      -7.080   6.289  66.412  1.00  0.00    -0.068 C  
HETATM   12  C   UNL     1      -7.360   5.937  67.885  1.00  0.00    -0.077 C  
HETATM   13  O   UNL     1      -8.540   5.145  68.015  1.00  0.00    -0.104 OA 
HETATM   14  O   UNL     1      -7.577   7.155  68.600  1.00  0.00    -0.105 OA 
HETATM   15  H   UNL     1      -7.749   6.938  69.509  1.00  0.00     0.000 HD 
HETATM   16  C   UNL     1      -8.489   3.887  67.321  1.00  0.00    -0.100 C  
HETATM   17  C   UNL     1      -8.154   4.067  65.823  1.00  0.00    -0.097 C  
HETATM   18  H   UNL     1      -5.645   3.524  65.497  1.00  0.00     0.000 HD 
HETATM   19  C   UNL     1      -6.940   4.988  65.602  1.00  0.00    -0.063 C  
HETATM   20  O   UNL     1      -9.301   4.607  65.149  1.00  0.00    -0.154 OA 
HETATM   21  O   UNL     1      -5.732   4.327  65.997  1.00  0.00    -0.020 OA 
HETATM   22  H   UNL     1      -9.095   4.717  64.227  1.00  0.00     0.000 HD 
BRANCH  16  23
HETATM   23  C   UNL     1      -7.585   2.878  68.047  1.00  0.00    -0.056 C  
HETATM   24  O   UNL     1      -8.329   1.780  68.564  1.00  0.00    -0.055 OA 
HETATM   25  H   UNL     1      -7.771   1.156  69.013  1.00  0.00     0.000 HD 
ENDBRANCH  16  23
ENDBRANCH   9  11
ENDBRANCH   7   9
ENDBRANCH   2   7
TORSDOF 5
ENDMDL
MODEL      288
REMARK 921   NORMALIZED FREE ENERGY PREDICTED BY IDOCK:   -0.97 KCAL/MOL
REMARK 922        TOTAL FREE ENERGY PREDICTED BY IDOCK:   -2.07 KCAL/MOL
REMARK 923 INTER-LIGAND FREE ENERGY PREDICTED BY IDOCK:   -1.64 KCAL/MOL
REMARK 924 INTRA-LIGAND FREE ENERGY PREDICTED BY IDOCK:   -0.43 KCAL/MOL
REMARK 927      BINDING AFFINITY PREDICTED BY RF-SCORE:    0.00 PKD
ROOT
HETATM    1  C   UNL     1      -6.441   9.723  70.609  1.00  0.00    -0.109 C  
HETATM    2  N   UNL     1      -6.579   9.076  69.315  1.00  0.00    -0.048 N  
ENDROOT
BRANCH   2   3
HETATM    3  N   UNL     1      -5.913   7.883  69.024  1.00  0.00    -0.037 NA 
HETATM    4  H   UNL     1      -5.420   7.731  68.144  1.00  0.00     0.000 HD 
HETATM    5  O   UNL     1      -5.966   7.028  69.911  1.00  0.00    -0.023 OA 
HETATM    6  H   UNL     1      -5.513   6.217  69.713  1.00  0.00     0.000 HD 
ENDBRANCH   2   3
BRANCH   2   7
HETATM    7  C   UNL     1      -7.512   9.587  68.413  1.00  0.00    -0.077 C  
HETATM    8  O   UNL     1      -7.355   9.546  67.191  1.00  0.00    -0.087 OA 
BRANCH   7   9
HETATM    9  N   UNL     1      -8.621  10.171  68.974  1.00  0.00    -0.145 N  
HETATM   10  H   UNL     1      -8.510  11.029  69.515  1.00  0.00     0.000 HD 
BRANCH   9  11
HETATM   11  C   UNL     1      -9.966   9.593  68.814  1.00  0.00    -0.173 C  
HETATM   12  C   UNL     1     -10.505   9.176  70.195  1.00  0.00    -0.218 C  
HETATM   13  O   UNL     1     -10.697  10.309  71.041  1.00  0.00    -0.060 OA 
HETATM   14  O   UNL     1      -9.533   8.333  70.816  1.00  0.00    -0.155 OA 
HETATM   15  H   UNL     1      -9.865   8.076  71.668  1.00  0.00     0.000 HD 
HETATM   16  C   UNL     1     -11.635  11.274  70.537  1.00  0.00    -0.133 C  
HETATM   17  C   UNL     1     -11.264  11.753  69.115  1.00  0.00    -0.264 C  
HETATM   18  H   UNL     1     -12.765  10.486  67.430  1.00  0.00     0.000 HD 
HETATM   19  C   UNL     1     -10.953  10.580  68.166  1.00  0.00    -0.277 C  
HETATM   20  O   UNL     1     -10.125  12.624  69.198  1.00  0.00    -0.412 OA 
HETATM   21  O   UNL     1     -12.155   9.877  67.830  1.00  0.00     1.141 OA 
HETATM   22  H   UNL     1      -9.897  12.919  68.324  1.00  0.00     0.000 HD 
BRANCH  16  23
HETATM   23  C   UNL     1     -13.084  10.776  70.670  1.00  0.00    -0.128 C  
HETATM   24  O   UNL     1     -13.405  10.440  72.015  1.00  0.00    -0.437 OA 
HETATM   25  H   UNL     1     -14.300  10.133  72.098  1.00  0.00     0.000 HD 
ENDBRANCH  16  23
ENDBRANCH   9  11
ENDBRANCH   7   9
ENDBRANCH   2   7
TORSDOF 5
ENDMDL
MODEL      289
REMARK 921   NORMALIZED FREE ENERGY PREDICTED BY IDOCK:   -0.78 KCAL/MOL
REMARK 922        TOTAL FREE ENERGY PREDICTED BY IDOCK:   -1.83 KCAL/MOL
REMARK 923 INTER-LIGAND FREE ENERGY PREDICTED BY IDOCK:   -3.45 KCAL/MOL
REMARK 924 INTRA-LIGAND FREE ENERGY PREDICTED BY IDOCK:    1.63 KCAL/MOL
REMARK 927      BINDING AFFINITY PREDICTED BY RF-SCORE:    0.00 PKD
ROOT
HETATM    1  C   UNL     1      -9.791  17.963  68.233  1.00  0.00    -0.348 C  
HETATM    2  N   UNL     1      -9.974  16.576  68.626  1.00  0.00    -0.237 N  
ENDROOT
BRANCH   2   3
HETATM    3  N   UNL     1     -11.247  16.007  68.714  1.00  0.00    -0.340 NA 
HETATM    4  H   UNL     1     -11.536  15.218  68.135  1.00  0.00     0.000 HD 
HETATM    5  O   UNL     1     -11.994  16.529  69.543  1.00  0.00    -0.132 OA 
HETATM    6  H   UNL     1     -12.860  16.143  69.602  1.00  0.00     0.000 HD 
ENDBRANCH   2   3
BRANCH   2   7
HETATM    7  C   UNL     1      -8.844  15.771  68.769  1.00  0.00    -0.207 C  
HETATM    8  O   UNL     1      -7.698  16.185  68.584  1.00  0.00    -0.164 OA 
BRANCH   7   9
HETATM    9  N   UNL     1      -9.087  14.462  69.107  1.00  0.00    -0.392 N  
HETATM   10  H   UNL     1      -8.994  14.175  70.082  1.00  0.00     0.000 HD 
BRANCH   9  11
HETATM   11  C   UNL     1      -9.480  13.462  68.099  1.00  0.00    -0.218 C  
HETATM   12  C   UNL     1      -8.674  13.701  66.809  1.00  0.00    -0.082 C  
HETATM   13  O   UNL     1      -7.280  13.476  67.018  1.00  0.00     0.047 OA 
HETATM   14  O   UNL     1      -8.838  15.068  66.429  1.00  0.00    -0.379 OA 
HETATM   15  H   UNL     1      -8.340  15.216  65.633  1.00  0.00     0.000 HD 
HETATM   16  C   UNL     1      -6.951  12.141  67.436  1.00  0.00    -0.146 C  
HETATM   17  C   UNL     1      -7.733  11.722  68.701  1.00  0.00    -0.126 C  
HETATM   18  H   UNL     1      -9.710  10.226  67.957  1.00  0.00     0.000 HD 
HETATM   19  C   UNL     1      -9.240  12.020  68.582  1.00  0.00    -0.037 C  
HETATM   20  O   UNL     1      -7.191  12.413  69.837  1.00  0.00    -0.128 OA 
HETATM   21  O   UNL     1      -9.858  11.116  67.659  1.00  0.00    -0.171 OA 
HETATM   22  H   UNL     1      -7.671  12.155  70.615  1.00  0.00     0.000 HD 
BRANCH  16  23
HETATM   23  C   UNL     1      -7.062  11.141  66.273  1.00  0.00    -0.049 C  
HETATM   24  O   UNL     1      -8.154  11.449  65.414  1.00  0.00    -0.347 OA 
HETATM   25  H   UNL     1      -8.222  10.832  64.695  1.00  0.00     0.000 HD 
ENDBRANCH  16  23
ENDBRANCH   9  11
ENDBRANCH   7   9
ENDBRANCH   2   7
TORSDOF 5
ENDMDL
MODEL      290
REMARK 921   NORMALIZED FREE ENERGY PREDICTED BY IDOCK:   -0.73 KCAL/MOL
REMARK 922        TOTAL FREE ENERGY PREDICTED BY IDOCK:   -1.76 KCAL/MOL
REMARK 923 INTER-LIGAND FREE ENERGY PREDICTED BY IDOCK:   -1.98 KCAL/MOL
REMARK 924 INTRA-LIGAND FREE ENERGY PREDICTED BY IDOCK:    0.22 KCAL/MOL
REMARK 927      BINDING AFFINITY PREDICTED BY RF-SCORE:    0.00 PKD
ROOT
HETATM    1  C   UNL     1      -8.788  13.637  68.940  1.00  0.00     0.192 C  
HETATM    2  N   UNL     1      -8.436  12.847  67.772  1.00  0.00    -0.171 N  
ENDROOT
BRANCH   2   3
HETATM    3  N   UNL     1      -8.538  13.372  66.482  1.00  0.00    -0.424 NA 
HETATM    4  H   UNL     1      -7.726  13.505  65.879  1.00  0.00     0.000 HD 
HETATM    5  O   UNL     1      -9.682  13.661  66.127  1.00  0.00    -0.302 OA 
HETATM    6  H   UNL     1      -9.751  14.018  65.249  1.00  0.00     0.000 HD 
ENDBRANCH   2   3
BRANCH   2   7
HETATM    7  C   UNL     1      -7.846  11.598  67.968  1.00  0.00    -0.128 C  
HETATM    8  O   UNL     1      -6.787  11.445  68.579  1.00  0.00    -0.064 OA 
BRANCH   7   9
HETATM    9  N   UNL     1      -8.510  10.534  67.408  1.00  0.00    -0.122 N  
HETATM   10  H   UNL     1      -8.989   9.871  68.018  1.00  0.00     0.000 HD 
BRANCH   9  11
HETATM   11  C   UNL     1      -8.550  10.326  65.951  1.00  0.00    -0.152 C  
HETATM   12  C   UNL     1      -7.121  10.068  65.437  1.00  0.00    -0.138 C  
HETATM   13  O   UNL     1      -6.593   8.850  65.962  1.00  0.00    -0.063 OA 
HETATM   14  O   UNL     1      -6.285  11.133  65.894  1.00  0.00    -0.324 OA 
HETATM   15  H   UNL     1      -5.403  10.973  65.578  1.00  0.00     0.000 HD 
HETATM   16  C   UNL     1      -7.346   7.678  65.611  1.00  0.00    -0.073 C  
HETATM   17  C   UNL     1      -8.834   7.805  66.010  1.00  0.00    -0.157 C  
HETATM   18  H   UNL     1     -10.178   8.420  63.886  1.00  0.00     0.000 HD 
HETATM   19  C   UNL     1      -9.448   9.141  65.553  1.00  0.00    -0.206 C  
HETATM   20  O   UNL     1      -8.948   7.682  67.437  1.00  0.00    -0.126 OA 
HETATM   21  O   UNL     1      -9.624   9.152  64.132  1.00  0.00     0.406 OA 
HETATM   22  H   UNL     1      -9.862   7.760  67.682  1.00  0.00     0.000 HD 
BRANCH  16  23
HETATM   23  C   UNL     1      -7.125   7.282  64.142  1.00  0.00    -0.067 C  
HETATM   24  O   UNL     1      -7.477   5.925  63.902  1.00  0.00    -0.063 OA 
HETATM   25  H   UNL     1      -7.340   5.680  62.994  1.00  0.00     0.000 HD 
ENDBRANCH  16  23
ENDBRANCH   9  11
ENDBRANCH   7   9
ENDBRANCH   2   7
TORSDOF 5
ENDMDL
MODEL      291
REMARK 921   NORMALIZED FREE ENERGY PREDICTED BY IDOCK:   -0.11 KCAL/MOL
REMARK 922        TOTAL FREE ENERGY PREDICTED BY IDOCK:   -0.96 KCAL/MOL
REMARK 923 INTER-LIGAND FREE ENERGY PREDICTED BY IDOCK:   -3.34 KCAL/MOL
REMARK 924 INTRA-LIGAND FREE ENERGY PREDICTED BY IDOCK:    2.38 KCAL/MOL
REMARK 927      BINDING AFFINITY PREDICTED BY RF-SCORE:    0.00 PKD
ROOT
HETATM    1  C   UNL     1      -7.646  18.381  65.205  1.00  0.00     0.915 C  
HETATM    2  N   UNL     1      -8.373  19.214  66.148  1.00  0.00    -0.291 N  
ENDROOT
BRANCH   2   3
HETATM    3  N   UNL     1      -9.559  19.858  65.785  1.00  0.00    -0.443 NA 
HETATM    4  H   UNL     1      -9.672  20.334  64.889  1.00  0.00     0.000 HD 
HETATM    5  O   UNL     1     -10.457  19.808  66.627  1.00  0.00    -0.444 OA 
HETATM    6  H   UNL     1     -11.263  20.246  66.379  1.00  0.00     0.000 HD 
ENDBRANCH   2   3
BRANCH   2   7
HETATM    7  C   UNL     1      -7.949  19.241  67.477  1.00  0.00    -0.260 C  
HETATM    8  O   UNL     1      -8.080  20.228  68.203  1.00  0.00    -0.196 OA 
BRANCH   7   9
HETATM    9  N   UNL     1      -7.342  18.095  67.928  1.00  0.00    -0.221 N  
HETATM   10  H   UNL     1      -6.379  17.902  67.654  1.00  0.00     0.000 HD 
BRANCH   9  11
HETATM   11  C   UNL     1      -8.046  17.137  68.798  1.00  0.00    -0.252 C  
HETATM   12  C   UNL     1      -9.525  17.552  68.916  1.00  0.00    -0.189 C  
HETATM   13  O   UNL     1     -10.192  17.456  67.658  1.00  0.00    -0.314 OA 
HETATM   14  O   UNL     1      -9.572  18.920  69.325  1.00  0.00    -0.217 OA 
HETATM   15  H   UNL     1     -10.484  19.176  69.398  1.00  0.00     0.000 HD 
HETATM   16  C   UNL     1     -10.206  16.134  67.094  1.00  0.00    -0.281 C  
HETATM   17  C   UNL     1      -8.784  15.545  66.965  1.00  0.00    -0.231 C  
HETATM   18  H   UNL     1      -8.415  13.914  68.940  1.00  0.00     0.000 HD 
HETATM   19  C   UNL     1      -7.969  15.696  68.263  1.00  0.00    -0.129 C  
HETATM   20  O   UNL     1      -8.101  16.203  65.886  1.00  0.00    -0.074 OA 
HETATM   21  O   UNL     1      -8.462  14.803  69.270  1.00  0.00    -0.136 OA 
HETATM   22  H   UNL     1      -7.226  15.840  65.807  1.00  0.00     0.000 HD 
BRANCH  16  23
HETATM   23  C   UNL     1     -11.199  15.217  67.827  1.00  0.00    -0.326 C  
HETATM   24  O   UNL     1     -10.858  13.844  67.679  1.00  0.00    -0.250 OA 
HETATM   25  H   UNL     1     -11.471  13.277  68.132  1.00  0.00     0.000 HD 
ENDBRANCH  16  23
ENDBRANCH   9  11
ENDBRANCH   7   9
ENDBRANCH   2   7
TORSDOF 5
ENDMDL
MODEL      292
REMARK 921   NORMALIZED FREE ENERGY PREDICTED BY IDOCK:    1.68 KCAL/MOL
REMARK 922        TOTAL FREE ENERGY PREDICTED BY IDOCK:    1.35 KCAL/MOL
REMARK 923 INTER-LIGAND FREE ENERGY PREDICTED BY IDOCK:    1.34 KCAL/MOL
REMARK 924 INTRA-LIGAND FREE ENERGY PREDICTED BY IDOCK:    0.01 KCAL/MOL
REMARK 927      BINDING AFFINITY PREDICTED BY RF-SCORE:    0.00 PKD
ROOT
HETATM    1  C   UNL     1      -6.474   9.668  70.554  1.00  0.00    -0.095 C  
HETATM    2  N   UNL     1      -6.228   9.015  69.280  1.00  0.00    -0.041 N  
ENDROOT
BRANCH   2   3
HETATM    3  N   UNL     1      -5.307   7.971  69.164  1.00  0.00    -0.026 NA 
HETATM    4  H   UNL     1      -4.625   7.922  68.407  1.00  0.00     0.000 HD 
HETATM    5  O   UNL     1      -5.379   7.113  70.047  1.00  0.00    -0.022 OA 
HETATM    6  H   UNL     1      -4.752   6.404  69.968  1.00  0.00     0.000 HD 
ENDBRANCH   2   3
BRANCH   2   7
HETATM    7  C   UNL     1      -7.040   9.345  68.195  1.00  0.00    -0.076 C  
HETATM    8  O   UNL     1      -6.594   9.578  67.070  1.00  0.00    -0.066 OA 
BRANCH   7   9
HETATM    9  N   UNL     1      -8.385   9.425  68.464  1.00  0.00    -0.117 N  
HETATM   10  H   UNL     1      -8.712  10.091  69.164  1.00  0.00     0.000 HD 
BRANCH   9  11
HETATM   11  C   UNL     1      -9.365   8.574  67.769  1.00  0.00    -0.137 C  
HETATM   12  C   UNL     1      -8.980   7.095  67.964  1.00  0.00    -0.127 C  
HETATM   13  O   UNL     1      -9.075   6.711  69.335  1.00  0.00    -0.142 OA 
HETATM   14  O   UNL     1      -7.618   6.934  67.564  1.00  0.00    -0.104 OA 
HETATM   15  H   UNL     1      -7.381   6.022  67.685  1.00  0.00     0.000 HD 
HETATM   16  C   UNL     1     -10.391   6.844  69.899  1.00  0.00    -0.205 C  
HETATM   17  C   UNL     1     -10.951   8.274  69.728  1.00  0.00    -0.129 C  
HETATM   18  H   UNL     1     -12.596   8.251  67.731  1.00  0.00     0.000 HD 
HETATM   19  C   UNL     1     -10.799   8.792  68.285  1.00  0.00     0.032 C  
HETATM   20  O   UNL     1     -10.268   9.155  70.633  1.00  0.00    -0.209 OA 
HETATM   21  O   UNL     1     -11.711   8.117  67.412  1.00  0.00     1.629 OA 
HETATM   22  H   UNL     1     -10.613  10.034  70.528  1.00  0.00     0.000 HD 
BRANCH  16  23
HETATM   23  C   UNL     1     -11.334   5.739  69.398  1.00  0.00     0.184 C  
HETATM   24  O   UNL     1     -10.820   4.441  69.672  1.00  0.00     0.994 OA 
HETATM   25  H   UNL     1     -11.404   3.757  69.363  1.00  0.00     0.000 HD 
ENDBRANCH  16  23
ENDBRANCH   9  11
ENDBRANCH   7   9
ENDBRANCH   2   7
TORSDOF 5
ENDMDL
MODEL      293
REMARK 921   NORMALIZED FREE ENERGY PREDICTED BY IDOCK:    7.55 KCAL/MOL
REMARK 922        TOTAL FREE ENERGY PREDICTED BY IDOCK:    8.94 KCAL/MOL
REMARK 923 INTER-LIGAND FREE ENERGY PREDICTED BY IDOCK:    4.58 KCAL/MOL
REMARK 924 INTRA-LIGAND FREE ENERGY PREDICTED BY IDOCK:    4.36 KCAL/MOL
REMARK 927      BINDING AFFINITY PREDICTED BY RF-SCORE:    0.00 PKD
ROOT
HETATM    1  C   UNL     1      -7.784  18.001  64.534  1.00  0.00     5.495 C  
HETATM    2  N   UNL     1      -8.750  18.015  65.619  1.00  0.00     0.452 N  
ENDROOT
BRANCH   2   3
HETATM    3  N   UNL     1     -10.054  17.549  65.437  1.00  0.00    -0.394 NA 
HETATM    4  H   UNL     1     -10.715  18.003  64.806  1.00  0.00     0.000 HD 
HETATM    5  O   UNL     1     -10.347  16.549  66.095  1.00  0.00    -0.319 OA 
HETATM    6  H   UNL     1     -11.234  16.233  65.971  1.00  0.00     0.000 HD 
ENDBRANCH   2   3
BRANCH   2   7
HETATM    7  C   UNL     1      -8.309  18.360  66.897  1.00  0.00    -0.253 C  
HETATM    8  O   UNL     1      -8.386  19.506  67.345  1.00  0.00    -0.280 OA 
BRANCH   7   9
HETATM    9  N   UNL     1      -7.751  17.340  67.628  1.00  0.00    -0.181 N  
HETATM   10  H   UNL     1      -8.180  16.415  67.596  1.00  0.00     0.000 HD 
BRANCH   9  11
HETATM   11  C   UNL     1      -6.551  17.547  68.455  1.00  0.00    -0.198 C  
HETATM   12  C   UNL     1      -5.796  18.791  67.950  1.00  0.00    -0.197 C  
HETATM   13  O   UNL     1      -6.569  19.977  68.131  1.00  0.00    -0.259 OA 
HETATM   14  O   UNL     1      -5.569  18.634  66.548  1.00  0.00    -0.144 OA 
HETATM   15  H   UNL     1      -5.103  19.401  66.236  1.00  0.00     0.000 HD 
HETATM   16  C   UNL     1      -6.907  20.261  69.499  1.00  0.00    -0.063 C  
HETATM   17  C   UNL     1      -7.626  19.072  70.176  1.00  0.00     1.038 C  
HETATM   18  H   UNL     1      -5.891  17.812  71.624  1.00  0.00     0.000 HD 
HETATM   19  C   UNL     1      -6.893  17.738  69.944  1.00  0.00     0.406 C  
HETATM   20  O   UNL     1      -8.965  18.983  69.665  1.00  0.00     0.278 OA 
HETATM   21  O   UNL     1      -5.680  17.694  70.705  1.00  0.00    -0.128 OA 
HETATM   22  H   UNL     1      -9.408  18.253  70.082  1.00  0.00     0.000 HD 
BRANCH  16  23
HETATM   23  C   UNL     1      -5.694  20.787  70.283  1.00  0.00    -0.135 C  
HETATM   24  O   UNL     1      -5.766  20.440  71.661  1.00  0.00    -0.534 OA 
HETATM   25  H   UNL     1      -5.016  20.765  72.147  1.00  0.00     0.000 HD 
ENDBRANCH  16  23
ENDBRANCH   9  11
ENDBRANCH   7   9
ENDBRANCH   2   7
TORSDOF 5
ENDMDL
MODEL      294
REMARK 921   NORMALIZED FREE ENERGY PREDICTED BY IDOCK:   18.17 KCAL/MOL
REMARK 922        TOTAL FREE ENERGY PREDICTED BY IDOCK:   22.66 KCAL/MOL
REMARK 923 INTER-LIGAND FREE ENERGY PREDICTED BY IDOCK:   17.82 KCAL/MOL
REMARK 924 INTRA-LIGAND FREE ENERGY PREDICTED BY IDOCK:    4.84 KCAL/MOL
REMARK 927      BINDING AFFINITY PREDICTED BY RF-SCORE:    0.00 PKD
ROOT
HETATM    1  C   UNL     1      -7.991  13.932  68.537  1.00  0.00    -0.137 C  
HETATM    2  N   UNL     1      -7.873  14.473  67.193  1.00  0.00    -0.164 N  
ENDROOT
BRANCH   2   3
HETATM    3  N   UNL     1      -7.404  15.770  66.970  1.00  0.00    -0.212 NA 
HETATM    4  H   UNL     1      -6.770  16.000  66.205  1.00  0.00     0.000 HD 
HETATM    5  O   UNL     1      -7.815  16.615  67.768  1.00  0.00    -0.159 OA 
HETATM    6  H   UNL     1      -7.496  17.497  67.616  1.00  0.00     0.000 HD 
ENDBRANCH   2   3
BRANCH   2   7
HETATM    7  C   UNL     1      -8.092  13.620  66.111  1.00  0.00     1.671 C  
HETATM    8  O   UNL     1      -7.846  13.938  64.946  1.00  0.00     6.659 OA 
BRANCH   7   9
HETATM    9  N   UNL     1      -8.632  12.396  66.421  1.00  0.00    -0.411 N  
HETATM   10  H   UNL     1      -9.633  12.326  66.602  1.00  0.00     0.000 HD 
BRANCH   9  11
HETATM   11  C   UNL     1      -7.803  11.181  66.499  1.00  0.00    -0.151 C  
HETATM   12  C   UNL     1      -8.516  10.033  65.760  1.00  0.00    -0.138 C  
HETATM   13  O   UNL     1      -8.629  10.305  64.363  1.00  0.00    -0.171 OA 
HETATM   14  O   UNL     1      -9.839   9.920  66.286  1.00  0.00    -0.212 OA 
HETATM   15  H   UNL     1     -10.280   9.213  65.830  1.00  0.00     0.000 HD 
HETATM   16  C   UNL     1      -7.371  10.475  63.689  1.00  0.00     0.084 C  
HETATM   17  C   UNL     1      -6.500  11.564  64.354  1.00  0.00     2.466 C  
HETATM   18  H   UNL     1      -4.729  10.380  65.823  1.00  0.00     0.000 HD 
HETATM   19  C   UNL     1      -6.407  11.385  65.881  1.00  0.00     0.306 C  
HETATM   20  O   UNL     1      -7.052  12.855  64.051  1.00  0.00     8.586 OA 
HETATM   21  O   UNL     1      -5.590  10.254  66.204  1.00  0.00    -0.053 OA 
HETATM   22  H   UNL     1      -6.516  13.525  64.460  1.00  0.00     0.000 HD 
BRANCH  16  23
HETATM   23  C   UNL     1      -6.650   9.132  63.492  1.00  0.00    -0.090 C  
HETATM   24  O   UNL     1      -5.520   9.008  64.348  1.00  0.00    -0.054 OA 
HETATM   25  H   UNL     1      -5.074   8.178  64.227  1.00  0.00     0.000 HD 
ENDBRANCH  16  23
ENDBRANCH   9  11
ENDBRANCH   7   9
ENDBRANCH   2   7
TORSDOF 5
ENDMDL
