MODEL        1
REMARK 921   NORMALIZED FREE ENERGY PREDICTED BY IDOCK:   -4.30 KCAL/MOL
REMARK 922        TOTAL FREE ENERGY PREDICTED BY IDOCK:   -4.49 KCAL/MOL
REMARK 923 INTER-LIGAND FREE ENERGY PREDICTED BY IDOCK:   -4.55 KCAL/MOL
REMARK 924 INTRA-LIGAND FREE ENERGY PREDICTED BY IDOCK:    0.06 KCAL/MOL
REMARK 927      BINDING AFFINITY PREDICTED BY RF-SCORE:    0.00 PKD
ROOT
HETATM    1  O   UNL     1     -10.737  17.289  66.256  1.00  0.00    -0.221 OA 
HETATM    2  C   UNL     1     -10.773  16.435  65.207  1.00  0.00    -0.295 C  
HETATM    3  C   UNL     1     -10.091  15.093  65.441  1.00  0.00    -0.350 C  
HETATM    4  O   UNL     1     -11.360  16.719  64.175  1.00  0.00    -1.194 OA 
HETATM    5  S   UNL     1      -8.684  15.284  66.626  1.00  0.00    -0.272 SA 
HETATM    6  H   UNL     1      -8.061  14.060  66.838  1.00  0.00     0.000 H  
ENDROOT
BRANCH   3   7
HETATM    7  C   UNL     1     -11.092  14.023  65.897  1.00  0.00    -0.301 C  
HETATM    8  C   UNL     1     -12.115  13.773  64.798  1.00  0.00    -0.410 C  
HETATM    9  S   UNL     1     -11.898  14.361  67.525  1.00  0.00    -0.360 SA 
HETATM   10  O   UNL     1     -13.407  13.966  65.139  1.00  0.00    -0.698 OA 
HETATM   11  O   UNL     1     -11.791  13.398  63.680  1.00  0.00    -0.447 OA 
HETATM   12  H   UNL     1     -12.804  13.391  67.938  1.00  0.00     0.000 H  
ENDBRANCH   3   7
TORSDOF 1
ENDMDL
MODEL        2
REMARK 921   NORMALIZED FREE ENERGY PREDICTED BY IDOCK:   -4.29 KCAL/MOL
REMARK 922        TOTAL FREE ENERGY PREDICTED BY IDOCK:   -4.48 KCAL/MOL
REMARK 923 INTER-LIGAND FREE ENERGY PREDICTED BY IDOCK:   -4.52 KCAL/MOL
REMARK 924 INTRA-LIGAND FREE ENERGY PREDICTED BY IDOCK:    0.04 KCAL/MOL
REMARK 927      BINDING AFFINITY PREDICTED BY RF-SCORE:    0.00 PKD
ROOT
HETATM    1  O   UNL     1     -12.153  11.964  67.115  1.00  0.00    -0.590 OA 
HETATM    2  C   UNL     1     -11.670  13.212  66.918  1.00  0.00    -0.387 C  
HETATM    3  C   UNL     1     -10.446  13.298  66.016  1.00  0.00    -0.286 C  
HETATM    4  O   UNL     1     -12.221  14.191  67.396  1.00  0.00    -0.380 OA 
HETATM    5  S   UNL     1      -9.427  11.762  66.165  1.00  0.00    -0.224 SA 
HETATM    6  H   UNL     1      -8.310  11.840  65.342  1.00  0.00     0.000 H  
ENDROOT
BRANCH   3   7
HETATM    7  C   UNL     1     -10.836  13.597  64.563  1.00  0.00    -0.406 C  
HETATM    8  C   UNL     1     -11.393  15.009  64.458  1.00  0.00    -0.287 C  
HETATM    9  S   UNL     1     -11.963  12.352  63.792  1.00  0.00    -0.560 SA 
HETATM   10  O   UNL     1     -12.644  15.115  63.961  1.00  0.00    -0.791 OA 
HETATM   11  O   UNL     1     -10.743  15.992  64.784  1.00  0.00    -0.611 OA 
HETATM   12  H   UNL     1     -12.316  12.623  62.475  1.00  0.00     0.000 H  
ENDBRANCH   3   7
TORSDOF 1
ENDMDL
MODEL        3
REMARK 921   NORMALIZED FREE ENERGY PREDICTED BY IDOCK:   -4.14 KCAL/MOL
REMARK 922        TOTAL FREE ENERGY PREDICTED BY IDOCK:   -4.32 KCAL/MOL
REMARK 923 INTER-LIGAND FREE ENERGY PREDICTED BY IDOCK:   -4.39 KCAL/MOL
REMARK 924 INTRA-LIGAND FREE ENERGY PREDICTED BY IDOCK:    0.07 KCAL/MOL
REMARK 927      BINDING AFFINITY PREDICTED BY RF-SCORE:    0.00 PKD
ROOT
HETATM    1  O   UNL     1     -13.406  14.342  65.231  1.00  0.00    -0.660 OA 
HETATM    2  C   UNL     1     -12.599  13.279  65.006  1.00  0.00    -0.423 C  
HETATM    3  C   UNL     1     -11.138  13.483  65.384  1.00  0.00    -0.293 C  
HETATM    4  O   UNL     1     -13.041  12.224  64.580  1.00  0.00    -0.791 OA 
HETATM    5  S   UNL     1     -10.662  15.258  65.176  1.00  0.00    -0.444 SA 
HETATM    6  H   UNL     1      -9.328  15.444  65.520  1.00  0.00     0.000 H  
ENDROOT
BRANCH   3   7
HETATM    7  C   UNL     1     -10.843  12.965  66.798  1.00  0.00    -0.267 C  
HETATM    8  C   UNL     1     -11.102  11.467  66.862  1.00  0.00    -0.295 C  
HETATM    9  S   UNL     1     -11.711  13.874  68.152  1.00  0.00    -0.369 SA 
HETATM   10  O   UNL     1     -12.005  11.063  67.782  1.00  0.00    -0.609 OA 
HETATM   11  O   UNL     1     -10.514  10.673  66.143  1.00  0.00    -0.243 OA 
HETATM   12  H   UNL     1     -11.444  13.405  69.433  1.00  0.00     0.000 H  
ENDBRANCH   3   7
TORSDOF 1
ENDMDL
MODEL        4
REMARK 921   NORMALIZED FREE ENERGY PREDICTED BY IDOCK:   -4.10 KCAL/MOL
REMARK 922        TOTAL FREE ENERGY PREDICTED BY IDOCK:   -4.27 KCAL/MOL
REMARK 923 INTER-LIGAND FREE ENERGY PREDICTED BY IDOCK:   -4.35 KCAL/MOL
REMARK 924 INTRA-LIGAND FREE ENERGY PREDICTED BY IDOCK:    0.08 KCAL/MOL
REMARK 927      BINDING AFFINITY PREDICTED BY RF-SCORE:    0.00 PKD
ROOT
HETATM    1  O   UNL     1      -9.779  12.151  67.542  1.00  0.00    -0.181 OA 
HETATM    2  C   UNL     1     -10.958  12.534  67.000  1.00  0.00    -0.267 C  
HETATM    3  C   UNL     1     -10.863  13.641  65.959  1.00  0.00    -0.275 C  
HETATM    4  O   UNL     1     -12.005  11.983  67.300  1.00  0.00    -0.591 OA 
HETATM    5  S   UNL     1      -9.439  14.759  66.337  1.00  0.00    -0.300 SA 
HETATM    6  H   UNL     1      -9.353  15.770  65.387  1.00  0.00     0.000 H  
ENDROOT
BRANCH   3   7
HETATM    7  C   UNL     1     -10.793  13.073  64.536  1.00  0.00    -0.372 C  
HETATM    8  C   UNL     1     -12.121  13.297  63.826  1.00  0.00    -0.482 C  
HETATM    9  S   UNL     1     -10.243  11.313  64.431  1.00  0.00    -0.348 SA 
HETATM   10  O   UNL     1     -12.738  12.187  63.365  1.00  0.00    -0.722 OA 
HETATM   11  O   UNL     1     -12.592  14.412  63.661  1.00  0.00    -0.817 OA 
HETATM   12  H   UNL     1     -10.179  10.798  63.142  1.00  0.00     0.000 H  
ENDBRANCH   3   7
TORSDOF 1
ENDMDL
MODEL        5
REMARK 921   NORMALIZED FREE ENERGY PREDICTED BY IDOCK:   -4.08 KCAL/MOL
REMARK 922        TOTAL FREE ENERGY PREDICTED BY IDOCK:   -4.26 KCAL/MOL
REMARK 923 INTER-LIGAND FREE ENERGY PREDICTED BY IDOCK:   -4.58 KCAL/MOL
REMARK 924 INTRA-LIGAND FREE ENERGY PREDICTED BY IDOCK:    0.32 KCAL/MOL
REMARK 927      BINDING AFFINITY PREDICTED BY RF-SCORE:    0.00 PKD
ROOT
HETATM    1  O   UNL     1     -10.873  16.641  66.191  1.00  0.00    -0.179 OA 
HETATM    2  C   UNL     1     -10.963  16.017  64.994  1.00  0.00    -0.380 C  
HETATM    3  C   UNL     1     -10.655  14.526  65.015  1.00  0.00    -0.437 C  
HETATM    4  O   UNL     1     -11.318  16.614  63.990  1.00  0.00    -1.120 OA 
HETATM    5  S   UNL     1      -9.419  14.143  66.338  1.00  0.00    -0.235 SA 
HETATM    6  H   UNL     1      -9.138  12.782  66.357  1.00  0.00     0.000 H  
ENDROOT
BRANCH   3   7
HETATM    7  C   UNL     1     -11.932  13.687  65.155  1.00  0.00    -0.372 C  
HETATM    8  C   UNL     1     -12.069  13.190  66.587  1.00  0.00    -0.346 C  
HETATM    9  S   UNL     1     -12.094  12.314  63.929  1.00  0.00    -0.531 SA 
HETATM   10  O   UNL     1     -12.145  11.851  66.742  1.00  0.00    -0.593 OA 
HETATM   11  O   UNL     1     -12.127  13.954  67.539  1.00  0.00    -0.389 OA 
HETATM   12  H   UNL     1     -13.251  11.555  64.056  1.00  0.00     0.000 H  
ENDBRANCH   3   7
TORSDOF 1
ENDMDL
MODEL        6
REMARK 921   NORMALIZED FREE ENERGY PREDICTED BY IDOCK:   -4.06 KCAL/MOL
REMARK 922        TOTAL FREE ENERGY PREDICTED BY IDOCK:   -4.24 KCAL/MOL
REMARK 923 INTER-LIGAND FREE ENERGY PREDICTED BY IDOCK:   -4.29 KCAL/MOL
REMARK 924 INTRA-LIGAND FREE ENERGY PREDICTED BY IDOCK:    0.05 KCAL/MOL
REMARK 927      BINDING AFFINITY PREDICTED BY RF-SCORE:    0.00 PKD
ROOT
HETATM    1  O   UNL     1     -12.210  13.400  63.021  1.00  0.00    -0.527 OA 
HETATM    2  C   UNL     1     -12.380  12.506  64.022  1.00  0.00    -0.469 C  
HETATM    3  C   UNL     1     -11.097  11.903  64.578  1.00  0.00    -0.325 C  
HETATM    4  O   UNL     1     -13.488  12.253  64.468  1.00  0.00    -0.686 OA 
HETATM    5  S   UNL     1      -9.806  11.806  63.256  1.00  0.00    -0.283 SA 
HETATM    6  H   UNL     1      -8.635  11.256  63.764  1.00  0.00     0.000 H  
ENDROOT
BRANCH   3   7
HETATM    7  C   UNL     1     -10.604  12.667  65.814  1.00  0.00    -0.272 C  
HETATM    8  C   UNL     1     -11.611  12.519  66.946  1.00  0.00    -0.370 C  
HETATM    9  S   UNL     1     -10.166  14.435  65.508  1.00  0.00    -0.373 SA 
HETATM   10  O   UNL     1     -12.116  13.669  67.442  1.00  0.00    -0.380 OA 
HETATM   11  O   UNL     1     -11.929  11.428  67.397  1.00  0.00    -0.606 OA 
HETATM   12  H   UNL     1      -9.720  15.127  66.628  1.00  0.00     0.000 H  
ENDBRANCH   3   7
TORSDOF 1
ENDMDL
MODEL        7
REMARK 921   NORMALIZED FREE ENERGY PREDICTED BY IDOCK:   -3.97 KCAL/MOL
REMARK 922        TOTAL FREE ENERGY PREDICTED BY IDOCK:   -4.14 KCAL/MOL
REMARK 923 INTER-LIGAND FREE ENERGY PREDICTED BY IDOCK:   -4.15 KCAL/MOL
REMARK 924 INTRA-LIGAND FREE ENERGY PREDICTED BY IDOCK:    0.01 KCAL/MOL
REMARK 927      BINDING AFFINITY PREDICTED BY RF-SCORE:    0.00 PKD
ROOT
HETATM    1  O   UNL     1     -10.066  14.912  65.019  1.00  0.00    -0.360 OA 
HETATM    2  C   UNL     1     -10.702  16.076  65.284  1.00  0.00    -0.399 C  
HETATM    3  C   UNL     1     -10.716  16.487  66.750  1.00  0.00    -0.155 C  
HETATM    4  O   UNL     1     -11.179  16.758  64.391  1.00  0.00    -1.112 OA 
HETATM    5  S   UNL     1     -10.711  14.991  67.838  1.00  0.00    -0.276 SA 
HETATM    6  H   UNL     1     -10.724  15.367  69.176  1.00  0.00     0.000 H  
ENDROOT
BRANCH   3   7
HETATM    7  C   UNL     1      -9.565  17.447  67.078  1.00  0.00    -0.273 C  
HETATM    8  C   UNL     1      -9.964  18.871  66.722  1.00  0.00    -0.360 C  
HETATM    9  S   UNL     1      -7.936  16.982  66.341  1.00  0.00    -0.315 SA 
HETATM   10  O   UNL     1      -9.163  19.506  65.840  1.00  0.00    -0.409 OA 
HETATM   11  O   UNL     1     -10.938  19.419  67.219  1.00  0.00    -0.491 OA 
HETATM   12  H   UNL     1      -6.893  17.852  66.638  1.00  0.00     0.000 H  
ENDBRANCH   3   7
TORSDOF 1
ENDMDL
MODEL        8
REMARK 921   NORMALIZED FREE ENERGY PREDICTED BY IDOCK:   -3.95 KCAL/MOL
REMARK 922        TOTAL FREE ENERGY PREDICTED BY IDOCK:   -4.12 KCAL/MOL
REMARK 923 INTER-LIGAND FREE ENERGY PREDICTED BY IDOCK:   -4.25 KCAL/MOL
REMARK 924 INTRA-LIGAND FREE ENERGY PREDICTED BY IDOCK:    0.13 KCAL/MOL
REMARK 927      BINDING AFFINITY PREDICTED BY RF-SCORE:    0.00 PKD
ROOT
HETATM    1  O   UNL     1      -9.695  14.079  68.255  1.00  0.00    -0.214 OA 
HETATM    2  C   UNL     1     -10.788  14.590  67.642  1.00  0.00    -0.273 C  
HETATM    3  C   UNL     1     -10.499  15.498  66.453  1.00  0.00    -0.306 C  
HETATM    4  O   UNL     1     -11.916  14.291  67.999  1.00  0.00    -0.347 OA 
HETATM    5  S   UNL     1      -8.889  16.377  66.691  1.00  0.00    -0.278 SA 
HETATM    6  H   UNL     1      -8.626  17.205  65.607  1.00  0.00     0.000 H  
ENDROOT
BRANCH   3   7
HETATM    7  C   UNL     1     -10.548  14.725  65.128  1.00  0.00    -0.417 C  
HETATM    8  C   UNL     1     -11.669  15.270  64.255  1.00  0.00    -0.215 C  
HETATM    9  S   UNL     1     -10.641  12.889  65.306  1.00  0.00    -0.304 SA 
HETATM   10  O   UNL     1     -12.606  14.376  63.873  1.00  0.00    -0.814 OA 
HETATM   11  O   UNL     1     -11.711  16.439  63.902  1.00  0.00    -1.085 OA 
HETATM   12  H   UNL     1     -10.685  12.189  64.106  1.00  0.00     0.000 H  
ENDBRANCH   3   7
TORSDOF 1
ENDMDL
MODEL        9
REMARK 921   NORMALIZED FREE ENERGY PREDICTED BY IDOCK:   -3.92 KCAL/MOL
REMARK 922        TOTAL FREE ENERGY PREDICTED BY IDOCK:   -4.09 KCAL/MOL
REMARK 923 INTER-LIGAND FREE ENERGY PREDICTED BY IDOCK:   -4.10 KCAL/MOL
REMARK 924 INTRA-LIGAND FREE ENERGY PREDICTED BY IDOCK:    0.01 KCAL/MOL
REMARK 927      BINDING AFFINITY PREDICTED BY RF-SCORE:    0.00 PKD
ROOT
HETATM    1  O   UNL     1     -11.816  14.518  64.117  1.00  0.00    -0.367 OA 
HETATM    2  C   UNL     1     -12.429  13.730  65.030  1.00  0.00    -0.416 C  
HETATM    3  C   UNL     1     -11.701  12.433  65.359  1.00  0.00    -0.402 C  
HETATM    4  O   UNL     1     -13.464  14.076  65.578  1.00  0.00    -0.677 OA 
HETATM    5  S   UNL     1     -10.752  11.837  63.888  1.00  0.00    -0.442 SA 
HETATM    6  H   UNL     1     -10.088  10.654  64.188  1.00  0.00     0.000 H  
ENDROOT
BRANCH   3   7
HETATM    7  C   UNL     1     -10.813  12.584  66.601  1.00  0.00    -0.246 C  
HETATM    8  C   UNL     1     -11.633  12.322  67.856  1.00  0.00    -0.354 C  
HETATM    9  S   UNL     1      -9.888  14.180  66.702  1.00  0.00    -0.291 SA 
HETATM   10  O   UNL     1     -11.667  13.325  68.759  1.00  0.00    -0.287 OA 
HETATM   11  O   UNL     1     -12.209  11.261  68.048  1.00  0.00    -0.621 OA 
HETATM   12  H   UNL     1      -9.083  14.316  67.827  1.00  0.00     0.000 H  
ENDBRANCH   3   7
TORSDOF 1
ENDMDL
MODEL       10
REMARK 921   NORMALIZED FREE ENERGY PREDICTED BY IDOCK:   -3.87 KCAL/MOL
REMARK 922        TOTAL FREE ENERGY PREDICTED BY IDOCK:   -4.03 KCAL/MOL
REMARK 923 INTER-LIGAND FREE ENERGY PREDICTED BY IDOCK:   -4.37 KCAL/MOL
REMARK 924 INTRA-LIGAND FREE ENERGY PREDICTED BY IDOCK:    0.33 KCAL/MOL
REMARK 927      BINDING AFFINITY PREDICTED BY RF-SCORE:    0.00 PKD
ROOT
HETATM    1  O   UNL     1     -12.148  11.511  67.532  1.00  0.00    -0.614 OA 
HETATM    2  C   UNL     1     -11.726  12.781  67.732  1.00  0.00    -0.359 C  
HETATM    3  C   UNL     1     -10.976  13.406  66.563  1.00  0.00    -0.290 C  
HETATM    4  O   UNL     1     -11.983  13.382  68.763  1.00  0.00    -0.335 OA 
HETATM    5  S   UNL     1     -10.064  12.106  65.614  1.00  0.00    -0.250 SA 
HETATM    6  H   UNL     1      -9.380  12.676  64.548  1.00  0.00     0.000 H  
ENDROOT
BRANCH   3   7
HETATM    7  C   UNL     1     -11.911  14.229  65.668  1.00  0.00    -0.386 C  
HETATM    8  C   UNL     1     -12.522  13.333  64.599  1.00  0.00    -0.349 C  
HETATM    9  S   UNL     1     -11.150  15.747  64.942  1.00  0.00    -0.327 SA 
HETATM   10  O   UNL     1     -12.299  13.704  63.320  1.00  0.00    -0.743 OA 
HETATM   11  O   UNL     1     -13.191  12.349  64.878  1.00  0.00    -0.714 OA 
HETATM   12  H   UNL     1     -11.998  16.493  64.131  1.00  0.00     0.000 H  
ENDBRANCH   3   7
TORSDOF 1
ENDMDL
MODEL       11
REMARK 921   NORMALIZED FREE ENERGY PREDICTED BY IDOCK:   -3.85 KCAL/MOL
REMARK 922        TOTAL FREE ENERGY PREDICTED BY IDOCK:   -4.01 KCAL/MOL
REMARK 923 INTER-LIGAND FREE ENERGY PREDICTED BY IDOCK:   -4.10 KCAL/MOL
REMARK 924 INTRA-LIGAND FREE ENERGY PREDICTED BY IDOCK:    0.09 KCAL/MOL
REMARK 927      BINDING AFFINITY PREDICTED BY RF-SCORE:    0.00 PKD
ROOT
HETATM    1  O   UNL     1      -9.955  16.925  69.243  1.00  0.00    -0.250 OA 
HETATM    2  C   UNL     1     -10.877  16.654  68.291  1.00  0.00    -0.356 C  
HETATM    3  C   UNL     1     -10.658  17.358  66.958  1.00  0.00    -0.238 C  
HETATM    4  O   UNL     1     -11.782  15.860  68.489  1.00  0.00    -0.383 OA 
HETATM    5  S   UNL     1      -9.830  18.991  67.221  1.00  0.00    -0.343 SA 
HETATM    6  H   UNL     1      -9.631  19.633  66.005  1.00  0.00     0.000 H  
ENDROOT
BRANCH   3   7
HETATM    7  C   UNL     1      -9.888  16.470  65.971  1.00  0.00    -0.322 C  
HETATM    8  C   UNL     1     -10.828  15.977  64.880  1.00  0.00    -0.372 C  
HETATM    9  S   UNL     1      -8.947  15.084  66.748  1.00  0.00    -0.273 SA 
HETATM   10  O   UNL     1     -10.929  14.637  64.749  1.00  0.00    -0.392 OA 
HETATM   11  O   UNL     1     -11.440  16.745  64.152  1.00  0.00    -1.171 OA 
HETATM   12  H   UNL     1      -8.250  14.280  65.854  1.00  0.00     0.000 H  
ENDBRANCH   3   7
TORSDOF 1
ENDMDL
MODEL       12
REMARK 921   NORMALIZED FREE ENERGY PREDICTED BY IDOCK:   -3.83 KCAL/MOL
REMARK 922        TOTAL FREE ENERGY PREDICTED BY IDOCK:   -3.99 KCAL/MOL
REMARK 923 INTER-LIGAND FREE ENERGY PREDICTED BY IDOCK:   -4.04 KCAL/MOL
REMARK 924 INTRA-LIGAND FREE ENERGY PREDICTED BY IDOCK:    0.05 KCAL/MOL
REMARK 927      BINDING AFFINITY PREDICTED BY RF-SCORE:    0.00 PKD
ROOT
HETATM    1  O   UNL     1     -10.178  12.366  68.509  1.00  0.00    -0.226 OA 
HETATM    2  C   UNL     1     -11.361  12.536  67.874  1.00  0.00    -0.291 C  
HETATM    3  C   UNL     1     -11.890  13.964  67.862  1.00  0.00    -0.378 C  
HETATM    4  O   UNL     1     -11.921  11.608  67.312  1.00  0.00    -0.627 OA 
HETATM    5  S   UNL     1     -11.347  14.864  69.384  1.00  0.00    -0.308 SA 
HETATM    6  H   UNL     1     -11.830  16.167  69.373  1.00  0.00     0.000 H  
ENDROOT
BRANCH   3   7
HETATM    7  C   UNL     1     -11.492  14.703  66.578  1.00  0.00    -0.351 C  
HETATM    8  C   UNL     1     -12.190  14.070  65.382  1.00  0.00    -0.439 C  
HETATM    9  S   UNL     1      -9.671  14.863  66.309  1.00  0.00    -0.312 SA 
HETATM   10  O   UNL     1     -11.381  13.612  64.402  1.00  0.00    -0.369 OA 
HETATM   11  O   UNL     1     -13.407  13.998  65.301  1.00  0.00    -0.741 OA 
HETATM   12  H   UNL     1      -9.311  15.532  65.146  1.00  0.00     0.000 H  
ENDBRANCH   3   7
TORSDOF 1
ENDMDL
MODEL       13
REMARK 921   NORMALIZED FREE ENERGY PREDICTED BY IDOCK:   -3.77 KCAL/MOL
REMARK 922        TOTAL FREE ENERGY PREDICTED BY IDOCK:   -3.93 KCAL/MOL
REMARK 923 INTER-LIGAND FREE ENERGY PREDICTED BY IDOCK:   -4.05 KCAL/MOL
REMARK 924 INTRA-LIGAND FREE ENERGY PREDICTED BY IDOCK:    0.12 KCAL/MOL
REMARK 927      BINDING AFFINITY PREDICTED BY RF-SCORE:    0.00 PKD
ROOT
HETATM    1  O   UNL     1     -13.087  14.265  65.220  1.00  0.00    -0.707 OA 
HETATM    2  C   UNL     1     -12.175  14.003  64.256  1.00  0.00    -0.418 C  
HETATM    3  C   UNL     1     -10.727  14.265  64.645  1.00  0.00    -0.365 C  
HETATM    4  O   UNL     1     -12.507  13.540  63.175  1.00  0.00    -0.759 OA 
HETATM    5  S   UNL     1     -10.630  15.648  65.870  1.00  0.00    -0.348 SA 
HETATM    6  H   UNL     1      -9.307  15.887  66.225  1.00  0.00     0.000 H  
ENDROOT
BRANCH   3   7
HETATM    7  C   UNL     1     -10.039  12.991  65.153  1.00  0.00    -0.221 C  
HETATM    8  C   UNL     1     -10.094  11.913  64.080  1.00  0.00    -0.334 C  
HETATM    9  S   UNL     1     -10.657  12.375  66.781  1.00  0.00    -0.230 SA 
HETATM   10  O   UNL     1     -10.693  10.756  64.435  1.00  0.00    -0.301 OA 
HETATM   11  O   UNL     1      -9.607  12.073  62.970  1.00  0.00    -0.369 OA 
HETATM   12  H   UNL     1     -10.034  11.221  67.242  1.00  0.00     0.000 H  
ENDBRANCH   3   7
TORSDOF 1
ENDMDL
MODEL       14
REMARK 921   NORMALIZED FREE ENERGY PREDICTED BY IDOCK:   -3.74 KCAL/MOL
REMARK 922        TOTAL FREE ENERGY PREDICTED BY IDOCK:   -3.90 KCAL/MOL
REMARK 923 INTER-LIGAND FREE ENERGY PREDICTED BY IDOCK:   -4.10 KCAL/MOL
REMARK 924 INTRA-LIGAND FREE ENERGY PREDICTED BY IDOCK:    0.21 KCAL/MOL
REMARK 927      BINDING AFFINITY PREDICTED BY RF-SCORE:    0.00 PKD
ROOT
HETATM    1  O   UNL     1     -12.102  12.223  65.819  1.00  0.00    -0.587 OA 
HETATM    2  C   UNL     1     -12.500  13.496  66.046  1.00  0.00    -0.399 C  
HETATM    3  C   UNL     1     -11.931  14.139  67.303  1.00  0.00    -0.414 C  
HETATM    4  O   UNL     1     -13.224  14.086  65.259  1.00  0.00    -0.782 OA 
HETATM    5  S   UNL     1     -11.632  12.857  68.603  1.00  0.00    -0.337 SA 
HETATM    6  H   UNL     1     -11.113  13.444  69.750  1.00  0.00     0.000 H  
ENDROOT
BRANCH   3   7
HETATM    7  C   UNL     1     -10.670  14.958  66.996  1.00  0.00    -0.307 C  
HETATM    8  C   UNL     1     -10.740  16.299  67.713  1.00  0.00    -0.325 C  
HETATM    9  S   UNL     1     -10.294  15.156  65.199  1.00  0.00    -0.355 SA 
HETATM   10  O   UNL     1     -10.658  17.394  66.926  1.00  0.00    -0.303 OA 
HETATM   11  O   UNL     1     -10.843  16.384  68.928  1.00  0.00    -0.293 OA 
HETATM   12  H   UNL     1      -9.152  15.898  64.921  1.00  0.00     0.000 H  
ENDBRANCH   3   7
TORSDOF 1
ENDMDL
MODEL       15
REMARK 921   NORMALIZED FREE ENERGY PREDICTED BY IDOCK:   -3.73 KCAL/MOL
REMARK 922        TOTAL FREE ENERGY PREDICTED BY IDOCK:   -3.88 KCAL/MOL
REMARK 923 INTER-LIGAND FREE ENERGY PREDICTED BY IDOCK:   -3.90 KCAL/MOL
REMARK 924 INTRA-LIGAND FREE ENERGY PREDICTED BY IDOCK:    0.02 KCAL/MOL
REMARK 927      BINDING AFFINITY PREDICTED BY RF-SCORE:    0.00 PKD
ROOT
HETATM    1  O   UNL     1     -12.612  13.864  63.550  1.00  0.00    -0.842 OA 
HETATM    2  C   UNL     1     -12.616  13.583  64.873  1.00  0.00    -0.342 C  
HETATM    3  C   UNL     1     -11.278  13.133  65.444  1.00  0.00    -0.291 C  
HETATM    4  O   UNL     1     -13.618  13.735  65.553  1.00  0.00    -0.511 OA 
HETATM    5  S   UNL     1     -10.298  12.237  64.156  1.00  0.00    -0.380 SA 
HETATM    6  H   UNL     1      -9.077  11.826  64.678  1.00  0.00     0.000 H  
ENDROOT
BRANCH   3   7
HETATM    7  C   UNL     1     -10.500  14.308  66.052  1.00  0.00    -0.301 C  
HETATM    8  C   UNL     1     -10.832  14.435  67.532  1.00  0.00    -0.282 C  
HETATM    9  S   UNL     1     -10.700  15.913  65.159  1.00  0.00    -0.369 SA 
HETATM   10  O   UNL     1     -11.337  15.625  67.923  1.00  0.00    -0.344 OA 
HETATM   11  O   UNL     1     -10.635  13.526  68.324  1.00  0.00    -0.236 OA 
HETATM   12  H   UNL     1      -9.995  16.977  65.710  1.00  0.00     0.000 H  
ENDBRANCH   3   7
TORSDOF 1
ENDMDL
MODEL       16
REMARK 921   NORMALIZED FREE ENERGY PREDICTED BY IDOCK:   -3.68 KCAL/MOL
REMARK 922        TOTAL FREE ENERGY PREDICTED BY IDOCK:   -3.84 KCAL/MOL
REMARK 923 INTER-LIGAND FREE ENERGY PREDICTED BY IDOCK:   -4.13 KCAL/MOL
REMARK 924 INTRA-LIGAND FREE ENERGY PREDICTED BY IDOCK:    0.29 KCAL/MOL
REMARK 927      BINDING AFFINITY PREDICTED BY RF-SCORE:    0.00 PKD
ROOT
HETATM    1  O   UNL     1     -10.831  17.670  65.238  1.00  0.00    -0.600 OA 
HETATM    2  C   UNL     1     -11.186  16.447  64.780  1.00  0.00    -0.212 C  
HETATM    3  C   UNL     1     -10.584  15.271  65.538  1.00  0.00    -0.373 C  
HETATM    4  O   UNL     1     -11.974  16.317  63.856  1.00  0.00    -1.003 OA 
HETATM    5  S   UNL     1      -8.926  15.726  66.219  1.00  0.00    -0.342 SA 
HETATM    6  H   UNL     1      -8.377  14.652  66.911  1.00  0.00     0.000 H  
ENDROOT
BRANCH   3   7
HETATM    7  C   UNL     1     -11.536  14.755  66.625  1.00  0.00    -0.313 C  
HETATM    8  C   UNL     1     -11.209  15.420  67.954  1.00  0.00    -0.329 C  
HETATM    9  S   UNL     1     -11.614  12.915  66.775  1.00  0.00    -0.378 SA 
HETATM   10  O   UNL     1     -10.901  14.586  68.972  1.00  0.00    -0.240 OA 
HETATM   11  O   UNL     1     -11.244  16.633  68.102  1.00  0.00    -0.339 OA 
HETATM   12  H   UNL     1     -12.476  12.447  67.760  1.00  0.00     0.000 H  
ENDBRANCH   3   7
TORSDOF 1
ENDMDL
MODEL       17
REMARK 921   NORMALIZED FREE ENERGY PREDICTED BY IDOCK:   -3.67 KCAL/MOL
REMARK 922        TOTAL FREE ENERGY PREDICTED BY IDOCK:   -3.82 KCAL/MOL
REMARK 923 INTER-LIGAND FREE ENERGY PREDICTED BY IDOCK:   -3.88 KCAL/MOL
REMARK 924 INTRA-LIGAND FREE ENERGY PREDICTED BY IDOCK:    0.05 KCAL/MOL
REMARK 927      BINDING AFFINITY PREDICTED BY RF-SCORE:    0.00 PKD
ROOT
HETATM    1  O   UNL     1      -9.423  12.663  66.945  1.00  0.00    -0.215 OA 
HETATM    2  C   UNL     1     -10.547  12.080  66.467  1.00  0.00    -0.234 C  
HETATM    3  C   UNL     1     -11.830  12.870  66.687  1.00  0.00    -0.395 C  
HETATM    4  O   UNL     1     -10.506  11.022  65.860  1.00  0.00    -0.254 OA 
HETATM    5  S   UNL     1     -11.713  13.868  68.240  1.00  0.00    -0.378 SA 
HETATM    6  H   UNL     1     -12.884  14.588  68.441  1.00  0.00     0.000 H  
ENDROOT
BRANCH   3   7
HETATM    7  C   UNL     1     -12.178  13.733  65.468  1.00  0.00    -0.442 C  
HETATM    8  C   UNL     1     -12.499  12.840  64.278  1.00  0.00    -0.382 C  
HETATM    9  S   UNL     1     -10.920  15.019  65.045  1.00  0.00    -0.430 SA 
HETATM   10  O   UNL     1     -11.741  13.028  63.177  1.00  0.00    -0.438 OA 
HETATM   11  O   UNL     1     -13.401  12.016  64.307  1.00  0.00    -0.709 OA 
HETATM   12  H   UNL     1     -11.235  15.801  63.940  1.00  0.00     0.000 H  
ENDBRANCH   3   7
TORSDOF 1
ENDMDL
MODEL       18
REMARK 921   NORMALIZED FREE ENERGY PREDICTED BY IDOCK:   -3.66 KCAL/MOL
REMARK 922        TOTAL FREE ENERGY PREDICTED BY IDOCK:   -3.81 KCAL/MOL
REMARK 923 INTER-LIGAND FREE ENERGY PREDICTED BY IDOCK:   -4.18 KCAL/MOL
REMARK 924 INTRA-LIGAND FREE ENERGY PREDICTED BY IDOCK:    0.36 KCAL/MOL
REMARK 927      BINDING AFFINITY PREDICTED BY RF-SCORE:    0.00 PKD
ROOT
HETATM    1  O   UNL     1     -11.336  10.885  67.191  1.00  0.00    -0.394 OA 
HETATM    2  C   UNL     1     -10.585  12.008  67.271  1.00  0.00    -0.222 C  
HETATM    3  C   UNL     1     -10.334  12.715  65.946  1.00  0.00    -0.276 C  
HETATM    4  O   UNL     1     -10.190  12.434  68.344  1.00  0.00    -0.220 OA 
HETATM    5  S   UNL     1     -10.295  11.491  64.560  1.00  0.00    -0.325 SA 
HETATM    6  H   UNL     1     -10.066  12.136  63.351  1.00  0.00     0.000 H  
ENDROOT
BRANCH   3   7
HETATM    7  C   UNL     1     -11.355  13.835  65.702  1.00  0.00    -0.305 C  
HETATM    8  C   UNL     1     -12.357  13.396  64.644  1.00  0.00    -0.382 C  
HETATM    9  S   UNL     1     -10.617  15.483  65.312  1.00  0.00    -0.429 SA 
HETATM   10  O   UNL     1     -12.447  14.187  63.552  1.00  0.00    -0.817 OA 
HETATM   11  O   UNL     1     -13.056  12.403  64.780  1.00  0.00    -0.806 OA 
HETATM   12  H   UNL     1     -11.542  16.497  65.091  1.00  0.00     0.000 H  
ENDBRANCH   3   7
TORSDOF 1
ENDMDL
MODEL       19
REMARK 921   NORMALIZED FREE ENERGY PREDICTED BY IDOCK:   -3.58 KCAL/MOL
REMARK 922        TOTAL FREE ENERGY PREDICTED BY IDOCK:   -3.73 KCAL/MOL
REMARK 923 INTER-LIGAND FREE ENERGY PREDICTED BY IDOCK:   -4.04 KCAL/MOL
REMARK 924 INTRA-LIGAND FREE ENERGY PREDICTED BY IDOCK:    0.31 KCAL/MOL
REMARK 927      BINDING AFFINITY PREDICTED BY RF-SCORE:    0.00 PKD
ROOT
HETATM    1  O   UNL     1     -13.038  13.919  65.224  1.00  0.00    -0.777 OA 
HETATM    2  C   UNL     1     -12.267  13.355  64.266  1.00  0.00    -0.392 C  
HETATM    3  C   UNL     1     -10.852  12.997  64.701  1.00  0.00    -0.354 C  
HETATM    4  O   UNL     1     -12.710  13.111  63.155  1.00  0.00    -0.607 OA 
HETATM    5  S   UNL     1     -10.262  14.170  66.003  1.00  0.00    -0.319 SA 
HETATM    6  H   UNL     1      -8.971  13.843  66.399  1.00  0.00     0.000 H  
ENDROOT
BRANCH   3   7
HETATM    7  C   UNL     1     -10.753  11.533  65.151  1.00  0.00    -0.289 C  
HETATM    8  C   UNL     1     -11.026  11.434  66.645  1.00  0.00    -0.285 C  
HETATM    9  S   UNL     1      -9.183  10.682  64.678  1.00  0.00    -0.243 SA 
HETATM   10  O   UNL     1     -10.044  10.880  67.389  1.00  0.00    -0.182 OA 
HETATM   11  O   UNL     1     -12.077  11.812  67.142  1.00  0.00    -0.592 OA 
HETATM   12  H   UNL     1      -9.094   9.356  65.086  1.00  0.00     0.000 H  
ENDBRANCH   3   7
TORSDOF 1
ENDMDL
MODEL       20
REMARK 921   NORMALIZED FREE ENERGY PREDICTED BY IDOCK:   -3.56 KCAL/MOL
REMARK 922        TOTAL FREE ENERGY PREDICTED BY IDOCK:   -3.70 KCAL/MOL
REMARK 923 INTER-LIGAND FREE ENERGY PREDICTED BY IDOCK:   -4.02 KCAL/MOL
REMARK 924 INTRA-LIGAND FREE ENERGY PREDICTED BY IDOCK:    0.32 KCAL/MOL
REMARK 927      BINDING AFFINITY PREDICTED BY RF-SCORE:    0.00 PKD
ROOT
HETATM    1  O   UNL     1     -12.705  14.105  63.656  1.00  0.00    -0.790 OA 
HETATM    2  C   UNL     1     -12.118  12.892  63.763  1.00  0.00    -0.508 C  
HETATM    3  C   UNL     1     -11.035  12.788  64.829  1.00  0.00    -0.305 C  
HETATM    4  O   UNL     1     -12.479  11.947  63.080  1.00  0.00    -0.515 OA 
HETATM    5  S   UNL     1     -10.187  14.417  65.046  1.00  0.00    -0.293 SA 
HETATM    6  H   UNL     1      -9.199  14.322  66.019  1.00  0.00     0.000 H  
ENDROOT
BRANCH   3   7
HETATM    7  C   UNL     1     -11.595  12.245  66.151  1.00  0.00    -0.390 C  
HETATM    8  C   UNL     1     -11.794  13.389  67.135  1.00  0.00    -0.382 C  
HETATM    9  S   UNL     1     -10.624  10.859  66.892  1.00  0.00    -0.258 SA 
HETATM   10  O   UNL     1     -11.136  13.279  68.309  1.00  0.00    -0.243 OA 
HETATM   11  O   UNL     1     -12.522  14.341  66.889  1.00  0.00    -0.338 OA 
HETATM   12  H   UNL     1     -11.132  10.368  68.089  1.00  0.00     0.000 H  
ENDBRANCH   3   7
TORSDOF 1
ENDMDL
MODEL       21
REMARK 921   NORMALIZED FREE ENERGY PREDICTED BY IDOCK:   -3.52 KCAL/MOL
REMARK 922        TOTAL FREE ENERGY PREDICTED BY IDOCK:   -3.66 KCAL/MOL
REMARK 923 INTER-LIGAND FREE ENERGY PREDICTED BY IDOCK:   -3.82 KCAL/MOL
REMARK 924 INTRA-LIGAND FREE ENERGY PREDICTED BY IDOCK:    0.15 KCAL/MOL
REMARK 927      BINDING AFFINITY PREDICTED BY RF-SCORE:    0.00 PKD
ROOT
HETATM    1  O   UNL     1      -8.386  11.040  66.047  1.00  0.00    -0.168 OA 
HETATM    2  C   UNL     1      -9.733  10.913  66.015  1.00  0.00    -0.224 C  
HETATM    3  C   UNL     1     -10.507  12.224  65.978  1.00  0.00    -0.254 C  
HETATM    4  O   UNL     1     -10.268   9.816  65.968  1.00  0.00    -0.259 OA 
HETATM    5  S   UNL     1      -9.572  13.549  66.868  1.00  0.00    -0.264 SA 
HETATM    6  H   UNL     1     -10.279  14.745  66.834  1.00  0.00     0.000 H  
ENDROOT
BRANCH   3   7
HETATM    7  C   UNL     1     -10.861  12.629  64.541  1.00  0.00    -0.336 C  
HETATM    8  C   UNL     1     -12.370  12.774  64.404  1.00  0.00    -0.424 C  
HETATM    9  S   UNL     1     -10.152  11.537  63.231  1.00  0.00    -0.394 SA 
HETATM   10  O   UNL     1     -12.955  12.000  63.464  1.00  0.00    -0.774 OA 
HETATM   11  O   UNL     1     -13.014  13.559  65.085  1.00  0.00    -0.721 OA 
HETATM   12  H   UNL     1     -10.473  11.904  61.929  1.00  0.00     0.000 H  
ENDBRANCH   3   7
TORSDOF 1
ENDMDL
MODEL       22
REMARK 921   NORMALIZED FREE ENERGY PREDICTED BY IDOCK:   -3.52 KCAL/MOL
REMARK 922        TOTAL FREE ENERGY PREDICTED BY IDOCK:   -3.66 KCAL/MOL
REMARK 923 INTER-LIGAND FREE ENERGY PREDICTED BY IDOCK:   -4.14 KCAL/MOL
REMARK 924 INTRA-LIGAND FREE ENERGY PREDICTED BY IDOCK:    0.48 KCAL/MOL
REMARK 927      BINDING AFFINITY PREDICTED BY RF-SCORE:    0.00 PKD
ROOT
HETATM    1  O   UNL     1     -10.489  17.343  66.161  1.00  0.00    -0.347 OA 
HETATM    2  C   UNL     1      -9.603  16.324  66.082  1.00  0.00    -0.331 C  
HETATM    3  C   UNL     1     -10.208  14.930  66.176  1.00  0.00    -0.300 C  
HETATM    4  O   UNL     1      -8.414  16.528  65.895  1.00  0.00    -0.420 OA 
HETATM    5  S   UNL     1     -11.724  14.957  67.236  1.00  0.00    -0.210 SA 
HETATM    6  H   UNL     1     -12.276  13.685  67.322  1.00  0.00     0.000 H  
ENDROOT
BRANCH   3   7
HETATM    7  C   UNL     1     -10.482  14.338  64.787  1.00  0.00    -0.395 C  
HETATM    8  C   UNL     1     -11.772  14.919  64.225  1.00  0.00    -0.247 C  
HETATM    9  S   UNL     1     -10.467  12.492  64.715  1.00  0.00    -0.323 SA 
HETATM   10  O   UNL     1     -12.730  14.023  63.901  1.00  0.00    -0.670 OA 
HETATM   11  O   UNL     1     -11.927  16.119  64.056  1.00  0.00    -0.897 OA 
HETATM   12  H   UNL     1     -10.715  11.957  63.457  1.00  0.00     0.000 H  
ENDBRANCH   3   7
TORSDOF 1
ENDMDL
MODEL       23
REMARK 921   NORMALIZED FREE ENERGY PREDICTED BY IDOCK:   -3.49 KCAL/MOL
REMARK 922        TOTAL FREE ENERGY PREDICTED BY IDOCK:   -3.63 KCAL/MOL
REMARK 923 INTER-LIGAND FREE ENERGY PREDICTED BY IDOCK:   -3.95 KCAL/MOL
REMARK 924 INTRA-LIGAND FREE ENERGY PREDICTED BY IDOCK:    0.31 KCAL/MOL
REMARK 927      BINDING AFFINITY PREDICTED BY RF-SCORE:    0.00 PKD
ROOT
HETATM    1  O   UNL     1     -12.938  12.744  65.003  1.00  0.00    -0.811 OA 
HETATM    2  C   UNL     1     -12.456  14.005  64.917  1.00  0.00    -0.396 C  
HETATM    3  C   UNL     1     -11.541  14.428  66.058  1.00  0.00    -0.363 C  
HETATM    4  O   UNL     1     -12.706  14.717  63.957  1.00  0.00    -0.786 OA 
HETATM    5  S   UNL     1     -12.022  13.565  67.622  1.00  0.00    -0.297 SA 
HETATM    6  H   UNL     1     -11.187  13.952  68.664  1.00  0.00     0.000 H  
ENDROOT
BRANCH   3   7
HETATM    7  C   UNL     1     -10.063  14.212  65.707  1.00  0.00    -0.333 C  
HETATM    8  C   UNL     1      -9.630  12.818  66.137  1.00  0.00    -0.212 C  
HETATM    9  S   UNL     1      -8.918  15.516  66.341  1.00  0.00    -0.329 SA 
HETATM   10  O   UNL     1      -8.593  12.762  67.000  1.00  0.00    -0.199 OA 
HETATM   11  O   UNL     1     -10.172  11.807  65.713  1.00  0.00    -0.223 OA 
HETATM   12  H   UNL     1      -7.579  15.320  66.023  1.00  0.00     0.000 H  
ENDBRANCH   3   7
TORSDOF 1
ENDMDL
MODEL       24
REMARK 921   NORMALIZED FREE ENERGY PREDICTED BY IDOCK:   -3.49 KCAL/MOL
REMARK 922        TOTAL FREE ENERGY PREDICTED BY IDOCK:   -3.63 KCAL/MOL
REMARK 923 INTER-LIGAND FREE ENERGY PREDICTED BY IDOCK:   -3.66 KCAL/MOL
REMARK 924 INTRA-LIGAND FREE ENERGY PREDICTED BY IDOCK:    0.03 KCAL/MOL
REMARK 927      BINDING AFFINITY PREDICTED BY RF-SCORE:    0.00 PKD
ROOT
HETATM    1  O   UNL     1     -10.676  14.403  64.393  1.00  0.00    -0.296 OA 
HETATM    2  C   UNL     1     -11.135  15.541  64.961  1.00  0.00    -0.401 C  
HETATM    3  C   UNL     1     -11.378  15.463  66.463  1.00  0.00    -0.098 C  
HETATM    4  O   UNL     1     -11.287  16.562  64.309  1.00  0.00    -1.020 OA 
HETATM    5  S   UNL     1     -11.867  13.746  66.947  1.00  0.00    -0.424 SA 
HETATM    6  H   UNL     1     -12.089  13.676  68.317  1.00  0.00     0.000 H  
ENDROOT
BRANCH   3   7
HETATM    7  C   UNL     1     -10.167  15.968  67.258  1.00  0.00    -0.277 C  
HETATM    8  C   UNL     1     -10.083  17.485  67.161  1.00  0.00    -0.321 C  
HETATM    9  S   UNL     1      -8.564  15.159  66.823  1.00  0.00    -0.234 SA 
HETATM   10  O   UNL     1      -8.933  17.981  66.657  1.00  0.00    -0.260 OA 
HETATM   11  O   UNL     1     -10.990  18.213  67.537  1.00  0.00    -0.324 OA 
HETATM   12  H   UNL     1      -7.467  15.617  67.543  1.00  0.00     0.000 H  
ENDBRANCH   3   7
TORSDOF 1
ENDMDL
MODEL       25
REMARK 921   NORMALIZED FREE ENERGY PREDICTED BY IDOCK:   -3.44 KCAL/MOL
REMARK 922        TOTAL FREE ENERGY PREDICTED BY IDOCK:   -3.57 KCAL/MOL
REMARK 923 INTER-LIGAND FREE ENERGY PREDICTED BY IDOCK:   -3.76 KCAL/MOL
REMARK 924 INTRA-LIGAND FREE ENERGY PREDICTED BY IDOCK:    0.18 KCAL/MOL
REMARK 927      BINDING AFFINITY PREDICTED BY RF-SCORE:    0.00 PKD
ROOT
HETATM    1  O   UNL     1     -10.438  12.606  67.460  1.00  0.00    -0.218 OA 
HETATM    2  C   UNL     1      -9.854  13.491  66.619  1.00  0.00    -0.279 C  
HETATM    3  C   UNL     1     -10.776  14.091  65.567  1.00  0.00    -0.313 C  
HETATM    4  O   UNL     1      -8.682  13.810  66.745  1.00  0.00    -0.190 OA 
HETATM    5  S   UNL     1     -12.101  12.884  65.108  1.00  0.00    -0.470 SA 
HETATM    6  H   UNL     1     -12.942  13.433  64.148  1.00  0.00     0.000 H  
ENDROOT
BRANCH   3   7
HETATM    7  C   UNL     1     -11.352  15.438  66.024  1.00  0.00    -0.089 C  
HETATM    8  C   UNL     1     -11.142  16.484  64.938  1.00  0.00    -0.190 C  
HETATM    9  S   UNL     1     -10.746  16.021  67.669  1.00  0.00    -0.309 SA 
HETATM   10  O   UNL     1     -10.444  17.581  65.303  1.00  0.00    -0.643 OA 
HETATM   11  O   UNL     1     -11.594  16.352  63.810  1.00  0.00    -1.055 OA 
HETATM   12  H   UNL     1     -11.268  17.241  68.083  1.00  0.00     0.000 H  
ENDBRANCH   3   7
TORSDOF 1
ENDMDL
MODEL       26
REMARK 921   NORMALIZED FREE ENERGY PREDICTED BY IDOCK:   -3.43 KCAL/MOL
REMARK 922        TOTAL FREE ENERGY PREDICTED BY IDOCK:   -3.57 KCAL/MOL
REMARK 923 INTER-LIGAND FREE ENERGY PREDICTED BY IDOCK:   -3.71 KCAL/MOL
REMARK 924 INTRA-LIGAND FREE ENERGY PREDICTED BY IDOCK:    0.15 KCAL/MOL
REMARK 927      BINDING AFFINITY PREDICTED BY RF-SCORE:    0.00 PKD
ROOT
HETATM    1  O   UNL     1     -11.014  13.428  68.250  1.00  0.00    -0.241 OA 
HETATM    2  C   UNL     1     -11.581  14.504  67.658  1.00  0.00    -0.378 C  
HETATM    3  C   UNL     1     -11.221  15.849  68.275  1.00  0.00    -0.354 C  
HETATM    4  O   UNL     1     -12.287  14.388  66.668  1.00  0.00    -0.409 OA 
HETATM    5  S   UNL     1     -10.905  15.660  70.088  1.00  0.00    -0.363 SA 
HETATM    6  H   UNL     1     -10.576  16.887  70.651  1.00  0.00     0.000 H  
ENDROOT
BRANCH   3   7
HETATM    7  C   UNL     1     -10.042  16.507  67.546  1.00  0.00    -0.267 C  
HETATM    8  C   UNL     1     -10.472  17.855  66.984  1.00  0.00    -0.340 C  
HETATM    9  S   UNL     1      -9.238  15.450  66.263  1.00  0.00    -0.322 SA 
HETATM   10  O   UNL     1     -10.330  18.011  65.650  1.00  0.00    -0.611 OA 
HETATM   11  O   UNL     1     -10.900  18.752  67.697  1.00  0.00    -0.426 OA 
HETATM   12  H   UNL     1      -8.170  16.046  65.602  1.00  0.00     0.000 H  
ENDBRANCH   3   7
TORSDOF 1
ENDMDL
MODEL       27
REMARK 921   NORMALIZED FREE ENERGY PREDICTED BY IDOCK:   -3.42 KCAL/MOL
REMARK 922        TOTAL FREE ENERGY PREDICTED BY IDOCK:   -3.56 KCAL/MOL
REMARK 923 INTER-LIGAND FREE ENERGY PREDICTED BY IDOCK:   -3.61 KCAL/MOL
REMARK 924 INTRA-LIGAND FREE ENERGY PREDICTED BY IDOCK:    0.04 KCAL/MOL
REMARK 927      BINDING AFFINITY PREDICTED BY RF-SCORE:    0.00 PKD
ROOT
HETATM    1  O   UNL     1      -8.102  15.454  66.634  1.00  0.00    -0.225 OA 
HETATM    2  C   UNL     1      -8.737  16.575  66.221  1.00  0.00    -0.333 C  
HETATM    3  C   UNL     1     -10.248  16.571  66.411  1.00  0.00    -0.316 C  
HETATM    4  O   UNL     1      -8.119  17.530  65.778  1.00  0.00    -0.551 OA 
HETATM    5  S   UNL     1     -10.909  14.849  66.278  1.00  0.00    -0.336 SA 
HETATM    6  H   UNL     1     -12.288  14.846  66.452  1.00  0.00     0.000 H  
ENDROOT
BRANCH   3   7
HETATM    7  C   UNL     1     -10.653  17.248  67.727  1.00  0.00    -0.367 C  
HETATM    8  C   UNL     1     -10.332  18.734  67.663  1.00  0.00    -0.420 C  
HETATM    9  S   UNL     1      -9.961  16.458  69.248  1.00  0.00    -0.234 SA 
HETATM   10  O   UNL     1      -9.503  19.201  68.621  1.00  0.00    -0.365 OA 
HETATM   11  O   UNL     1     -10.810  19.467  66.810  1.00  0.00    -0.460 OA 
HETATM   12  H   UNL     1     -10.328  17.071  70.440  1.00  0.00     0.000 H  
ENDBRANCH   3   7
TORSDOF 1
ENDMDL
MODEL       28
REMARK 921   NORMALIZED FREE ENERGY PREDICTED BY IDOCK:   -3.41 KCAL/MOL
REMARK 922        TOTAL FREE ENERGY PREDICTED BY IDOCK:   -3.54 KCAL/MOL
REMARK 923 INTER-LIGAND FREE ENERGY PREDICTED BY IDOCK:   -3.59 KCAL/MOL
REMARK 924 INTRA-LIGAND FREE ENERGY PREDICTED BY IDOCK:    0.04 KCAL/MOL
REMARK 927      BINDING AFFINITY PREDICTED BY RF-SCORE:    0.00 PKD
ROOT
HETATM    1  O   UNL     1     -10.856  14.746  65.315  1.00  0.00    -0.333 OA 
HETATM    2  C   UNL     1     -11.675  14.042  66.129  1.00  0.00    -0.384 C  
HETATM    3  C   UNL     1     -11.976  12.621  65.674  1.00  0.00    -0.452 C  
HETATM    4  O   UNL     1     -12.091  14.514  67.176  1.00  0.00    -0.397 OA 
HETATM    5  S   UNL     1     -11.946  12.516  63.828  1.00  0.00    -0.563 SA 
HETATM    6  H   UNL     1     -12.221  11.219  63.413  1.00  0.00     0.000 H  
ENDROOT
BRANCH   3   7
HETATM    7  C   UNL     1     -11.029  11.606  66.328  1.00  0.00    -0.289 C  
HETATM    8  C   UNL     1     -11.303  11.535  67.824  1.00  0.00    -0.296 C  
HETATM    9  S   UNL     1      -9.237  11.876  65.967  1.00  0.00    -0.118 SA 
HETATM   10  O   UNL     1     -10.254  11.809  68.630  1.00  0.00    -0.214 OA 
HETATM   11  O   UNL     1     -12.398  11.228  68.272  1.00  0.00    -0.542 OA 
HETATM   12  H   UNL     1      -8.379  10.957  66.560  1.00  0.00     0.000 H  
ENDBRANCH   3   7
TORSDOF 1
ENDMDL
MODEL       29
REMARK 921   NORMALIZED FREE ENERGY PREDICTED BY IDOCK:   -3.39 KCAL/MOL
REMARK 922        TOTAL FREE ENERGY PREDICTED BY IDOCK:   -3.53 KCAL/MOL
REMARK 923 INTER-LIGAND FREE ENERGY PREDICTED BY IDOCK:   -3.56 KCAL/MOL
REMARK 924 INTRA-LIGAND FREE ENERGY PREDICTED BY IDOCK:    0.03 KCAL/MOL
REMARK 927      BINDING AFFINITY PREDICTED BY RF-SCORE:    0.00 PKD
ROOT
HETATM    1  O   UNL     1     -11.798   6.299  70.914  1.00  0.00    -0.308 OA 
HETATM    2  C   UNL     1     -12.538   7.303  71.437  1.00  0.00    -0.388 C  
HETATM    3  C   UNL     1     -11.778   8.266  72.340  1.00  0.00    -0.397 C  
HETATM    4  O   UNL     1     -13.717   7.440  71.152  1.00  0.00    -0.312 OA 
HETATM    5  S   UNL     1     -10.397   7.387  73.200  1.00  0.00    -0.365 SA 
HETATM    6  H   UNL     1      -9.704   8.266  74.024  1.00  0.00     0.000 H  
ENDROOT
BRANCH   3   7
HETATM    7  C   UNL     1     -11.289   9.498  71.567  1.00  0.00    -0.385 C  
HETATM    8  C   UNL     1     -12.472  10.390  71.218  1.00  0.00    -0.415 C  
HETATM    9  S   UNL     1     -10.250   9.120  70.086  1.00  0.00    -0.221 SA 
HETATM   10  O   UNL     1     -12.652  10.646  69.904  1.00  0.00    -0.277 OA 
HETATM   11  O   UNL     1     -13.203  10.867  72.074  1.00  0.00    -0.492 OA 
HETATM   12  H   UNL     1      -9.807  10.236  69.386  1.00  0.00     0.000 H  
ENDBRANCH   3   7
TORSDOF 1
ENDMDL
MODEL       30
REMARK 921   NORMALIZED FREE ENERGY PREDICTED BY IDOCK:   -3.39 KCAL/MOL
REMARK 922        TOTAL FREE ENERGY PREDICTED BY IDOCK:   -3.53 KCAL/MOL
REMARK 923 INTER-LIGAND FREE ENERGY PREDICTED BY IDOCK:   -3.89 KCAL/MOL
REMARK 924 INTRA-LIGAND FREE ENERGY PREDICTED BY IDOCK:    0.36 KCAL/MOL
REMARK 927      BINDING AFFINITY PREDICTED BY RF-SCORE:    0.00 PKD
ROOT
HETATM    1  O   UNL     1     -11.848  16.068  63.784  1.00  0.00    -0.782 OA 
HETATM    2  C   UNL     1     -11.103  15.938  64.906  1.00  0.00    -0.389 C  
HETATM    3  C   UNL     1     -11.304  14.636  65.670  1.00  0.00    -0.338 C  
HETATM    4  O   UNL     1     -10.297  16.793  65.237  1.00  0.00    -0.622 OA 
HETATM    5  S   UNL     1     -13.034  14.021  65.449  1.00  0.00    -0.121 SA 
HETATM    6  H   UNL     1     -13.217  12.832  66.146  1.00  0.00     0.000 H  
ENDROOT
BRANCH   3   7
HETATM    7  C   UNL     1     -10.259  13.583  65.274  1.00  0.00    -0.306 C  
HETATM    8  C   UNL     1     -10.903  12.526  64.389  1.00  0.00    -0.342 C  
HETATM    9  S   UNL     1      -9.343  12.832  66.691  1.00  0.00    -0.223 SA 
HETATM   10  O   UNL     1     -10.825  11.254  64.837  1.00  0.00    -0.291 OA 
HETATM   11  O   UNL     1     -11.440  12.804  63.326  1.00  0.00    -0.476 OA 
HETATM   12  H   UNL     1      -8.396  11.879  66.333  1.00  0.00     0.000 H  
ENDBRANCH   3   7
TORSDOF 1
ENDMDL
MODEL       31
REMARK 921   NORMALIZED FREE ENERGY PREDICTED BY IDOCK:   -3.39 KCAL/MOL
REMARK 922        TOTAL FREE ENERGY PREDICTED BY IDOCK:   -3.53 KCAL/MOL
REMARK 923 INTER-LIGAND FREE ENERGY PREDICTED BY IDOCK:   -3.85 KCAL/MOL
REMARK 924 INTRA-LIGAND FREE ENERGY PREDICTED BY IDOCK:    0.32 KCAL/MOL
REMARK 927      BINDING AFFINITY PREDICTED BY RF-SCORE:    0.00 PKD
ROOT
HETATM    1  O   UNL     1     -11.334  12.494  63.388  1.00  0.00    -0.466 OA 
HETATM    2  C   UNL     1     -12.206  12.314  64.407  1.00  0.00    -0.402 C  
HETATM    3  C   UNL     1     -11.577  12.236  65.792  1.00  0.00    -0.388 C  
HETATM    4  O   UNL     1     -13.411  12.271  64.214  1.00  0.00    -0.777 OA 
HETATM    5  S   UNL     1      -9.879  11.510  65.688  1.00  0.00    -0.244 SA 
HETATM    6  H   UNL     1      -9.305  11.439  66.951  1.00  0.00     0.000 H  
ENDROOT
BRANCH   3   7
HETATM    7  C   UNL     1     -11.582  13.602  66.491  1.00  0.00    -0.366 C  
HETATM    8  C   UNL     1     -10.311  14.363  66.143  1.00  0.00    -0.298 C  
HETATM    9  S   UNL     1     -11.869  13.536  68.315  1.00  0.00    -0.352 SA 
HETATM   10  O   UNL     1      -9.544  14.740  67.189  1.00  0.00    -0.218 OA 
HETATM   11  O   UNL     1     -10.010  14.638  64.991  1.00  0.00    -0.339 OA 
HETATM   12  H   UNL     1     -11.874  14.774  68.949  1.00  0.00     0.000 H  
ENDBRANCH   3   7
TORSDOF 1
ENDMDL
MODEL       32
REMARK 921   NORMALIZED FREE ENERGY PREDICTED BY IDOCK:   -3.39 KCAL/MOL
REMARK 922        TOTAL FREE ENERGY PREDICTED BY IDOCK:   -3.52 KCAL/MOL
REMARK 923 INTER-LIGAND FREE ENERGY PREDICTED BY IDOCK:   -3.70 KCAL/MOL
REMARK 924 INTRA-LIGAND FREE ENERGY PREDICTED BY IDOCK:    0.18 KCAL/MOL
REMARK 927      BINDING AFFINITY PREDICTED BY RF-SCORE:    0.00 PKD
ROOT
HETATM    1  O   UNL     1      -7.487  20.140  67.684  1.00  0.00    -0.285 OA 
HETATM    2  C   UNL     1      -7.731  19.441  66.552  1.00  0.00    -0.278 C  
HETATM    3  C   UNL     1      -8.351  18.065  66.760  1.00  0.00    -0.253 C  
HETATM    4  O   UNL     1      -7.511  19.918  65.450  1.00  0.00    -0.361 OA 
HETATM    5  S   UNL     1      -7.793  17.345  68.369  1.00  0.00    -0.265 SA 
HETATM    6  H   UNL     1      -8.358  16.090  68.559  1.00  0.00     0.000 H  
ENDROOT
BRANCH   3   7
HETATM    7  C   UNL     1      -9.880  18.112  66.645  1.00  0.00    -0.350 C  
HETATM    8  C   UNL     1     -10.355  17.054  65.659  1.00  0.00    -0.209 C  
HETATM    9  S   UNL     1     -10.577  19.779  66.257  1.00  0.00    -0.405 SA 
HETATM   10  O   UNL     1     -11.075  17.506  64.609  1.00  0.00    -0.978 OA 
HETATM   11  O   UNL     1     -10.120  15.865  65.816  1.00  0.00    -0.314 OA 
HETATM   12  H   UNL     1     -11.962  19.821  66.153  1.00  0.00     0.000 H  
ENDBRANCH   3   7
TORSDOF 1
ENDMDL
MODEL       33
REMARK 921   NORMALIZED FREE ENERGY PREDICTED BY IDOCK:   -3.38 KCAL/MOL
REMARK 922        TOTAL FREE ENERGY PREDICTED BY IDOCK:   -3.52 KCAL/MOL
REMARK 923 INTER-LIGAND FREE ENERGY PREDICTED BY IDOCK:   -3.59 KCAL/MOL
REMARK 924 INTRA-LIGAND FREE ENERGY PREDICTED BY IDOCK:    0.07 KCAL/MOL
REMARK 927      BINDING AFFINITY PREDICTED BY RF-SCORE:    0.00 PKD
ROOT
HETATM    1  O   UNL     1     -13.120  14.148  65.648  1.00  0.00    -0.617 OA 
HETATM    2  C   UNL     1     -12.072  13.330  65.897  1.00  0.00    -0.441 C  
HETATM    3  C   UNL     1     -10.759  14.036  66.207  1.00  0.00    -0.289 C  
HETATM    4  O   UNL     1     -12.203  12.117  65.917  1.00  0.00    -0.604 OA 
HETATM    5  S   UNL     1     -10.672  15.655  65.317  1.00  0.00    -0.428 SA 
HETATM    6  H   UNL     1      -9.474  16.299  65.601  1.00  0.00     0.000 H  
ENDROOT
BRANCH   3   7
HETATM    7  C   UNL     1     -10.546  14.193  67.719  1.00  0.00    -0.243 C  
HETATM    8  C   UNL     1     -10.470  12.821  68.374  1.00  0.00    -0.243 C  
HETATM    9  S   UNL     1     -11.768  15.293  68.562  1.00  0.00    -0.292 SA 
HETATM   10  O   UNL     1     -11.374  12.581  69.348  1.00  0.00    -0.252 OA 
HETATM   11  O   UNL     1      -9.630  11.993  68.055  1.00  0.00    -0.186 OA 
HETATM   12  H   UNL     1     -11.575  15.435  69.931  1.00  0.00     0.000 H  
ENDBRANCH   3   7
TORSDOF 1
ENDMDL
MODEL       34
REMARK 921   NORMALIZED FREE ENERGY PREDICTED BY IDOCK:   -3.38 KCAL/MOL
REMARK 922        TOTAL FREE ENERGY PREDICTED BY IDOCK:   -3.51 KCAL/MOL
REMARK 923 INTER-LIGAND FREE ENERGY PREDICTED BY IDOCK:   -3.87 KCAL/MOL
REMARK 924 INTRA-LIGAND FREE ENERGY PREDICTED BY IDOCK:    0.36 KCAL/MOL
REMARK 927      BINDING AFFINITY PREDICTED BY RF-SCORE:    0.00 PKD
ROOT
HETATM    1  O   UNL     1      -9.609  12.849  68.067  1.00  0.00    -0.208 OA 
HETATM    2  C   UNL     1      -9.241  13.597  67.001  1.00  0.00    -0.250 C  
HETATM    3  C   UNL     1     -10.231  13.608  65.844  1.00  0.00    -0.311 C  
HETATM    4  O   UNL     1      -8.211  14.251  67.009  1.00  0.00    -0.180 OA 
HETATM    5  S   UNL     1     -11.147  12.003  65.766  1.00  0.00    -0.325 SA 
HETATM    6  H   UNL     1     -12.050  12.012  64.710  1.00  0.00     0.000 H  
ENDROOT
BRANCH   3   7
HETATM    7  C   UNL     1     -11.178  14.813  65.922  1.00  0.00    -0.340 C  
HETATM    8  C   UNL     1     -11.602  15.226  64.520  1.00  0.00    -0.312 C  
HETATM    9  S   UNL     1     -10.532  16.242  66.897  1.00  0.00    -0.276 SA 
HETATM   10  O   UNL     1     -11.322  16.500  64.170  1.00  0.00    -1.060 OA 
HETATM   11  O   UNL     1     -12.180  14.461  63.762  1.00  0.00    -0.611 OA 
HETATM   12  H   UNL     1     -11.390  17.334  66.968  1.00  0.00     0.000 H  
ENDBRANCH   3   7
TORSDOF 1
ENDMDL
MODEL       35
REMARK 921   NORMALIZED FREE ENERGY PREDICTED BY IDOCK:   -3.36 KCAL/MOL
REMARK 922        TOTAL FREE ENERGY PREDICTED BY IDOCK:   -3.50 KCAL/MOL
REMARK 923 INTER-LIGAND FREE ENERGY PREDICTED BY IDOCK:   -3.83 KCAL/MOL
REMARK 924 INTRA-LIGAND FREE ENERGY PREDICTED BY IDOCK:    0.33 KCAL/MOL
REMARK 927      BINDING AFFINITY PREDICTED BY RF-SCORE:    0.00 PKD
ROOT
HETATM    1  O   UNL     1      -9.014  13.841  67.064  1.00  0.00    -0.227 OA 
HETATM    2  C   UNL     1      -9.522  12.731  66.480  1.00  0.00    -0.253 C  
HETATM    3  C   UNL     1     -10.986  12.824  66.073  1.00  0.00    -0.278 C  
HETATM    4  O   UNL     1      -8.825  11.753  66.257  1.00  0.00    -0.195 OA 
HETATM    5  S   UNL     1     -11.902  13.951  67.219  1.00  0.00    -0.413 SA 
HETATM    6  H   UNL     1     -13.238  14.037  66.848  1.00  0.00     0.000 H  
ENDROOT
BRANCH   3   7
HETATM    7  C   UNL     1     -11.139  13.242  64.605  1.00  0.00    -0.357 C  
HETATM    8  C   UNL     1     -11.540  14.708  64.525  1.00  0.00    -0.370 C  
HETATM    9  S   UNL     1     -12.259  12.165  63.605  1.00  0.00    -0.549 SA 
HETATM   10  O   UNL     1     -12.693  14.970  63.873  1.00  0.00    -0.775 OA 
HETATM   11  O   UNL     1     -10.852  15.599  65.002  1.00  0.00    -0.412 OA 
HETATM   12  H   UNL     1     -12.396  12.544  62.275  1.00  0.00     0.000 H  
ENDBRANCH   3   7
TORSDOF 1
ENDMDL
MODEL       36
REMARK 921   NORMALIZED FREE ENERGY PREDICTED BY IDOCK:   -3.36 KCAL/MOL
REMARK 922        TOTAL FREE ENERGY PREDICTED BY IDOCK:   -3.49 KCAL/MOL
REMARK 923 INTER-LIGAND FREE ENERGY PREDICTED BY IDOCK:   -3.57 KCAL/MOL
REMARK 924 INTRA-LIGAND FREE ENERGY PREDICTED BY IDOCK:    0.08 KCAL/MOL
REMARK 927      BINDING AFFINITY PREDICTED BY RF-SCORE:    0.00 PKD
ROOT
HETATM    1  O   UNL     1     -10.717  17.653  65.562  1.00  0.00    -0.565 OA 
HETATM    2  C   UNL     1     -10.316  18.802  66.153  1.00  0.00    -0.448 C  
HETATM    3  C   UNL     1      -9.682  18.637  67.528  1.00  0.00    -0.310 C  
HETATM    4  O   UNL     1     -10.417  19.879  65.586  1.00  0.00    -0.477 OA 
HETATM    5  S   UNL     1     -10.407  17.175  68.399  1.00  0.00    -0.384 SA 
HETATM    6  H   UNL     1      -9.828  17.024  69.654  1.00  0.00     0.000 H  
ENDROOT
BRANCH   3   7
HETATM    7  C   UNL     1      -8.152  18.558  67.438  1.00  0.00    -0.240 C  
HETATM    8  C   UNL     1      -7.605  19.844  66.835  1.00  0.00    -0.269 C  
HETATM    9  S   UNL     1      -7.503  17.060  66.574  1.00  0.00    -0.312 SA 
HETATM   10  O   UNL     1      -6.866  19.703  65.714  1.00  0.00    -0.250 OA 
HETATM   11  O   UNL     1      -7.802  20.938  67.344  1.00  0.00    -0.319 OA 
HETATM   12  H   UNL     1      -6.117  16.990  66.493  1.00  0.00     0.000 H  
ENDBRANCH   3   7
TORSDOF 1
ENDMDL
MODEL       37
REMARK 921   NORMALIZED FREE ENERGY PREDICTED BY IDOCK:   -3.34 KCAL/MOL
REMARK 922        TOTAL FREE ENERGY PREDICTED BY IDOCK:   -3.47 KCAL/MOL
REMARK 923 INTER-LIGAND FREE ENERGY PREDICTED BY IDOCK:   -3.49 KCAL/MOL
REMARK 924 INTRA-LIGAND FREE ENERGY PREDICTED BY IDOCK:    0.02 KCAL/MOL
REMARK 927      BINDING AFFINITY PREDICTED BY RF-SCORE:    0.00 PKD
ROOT
HETATM    1  O   UNL     1      -9.490  15.397  65.731  1.00  0.00    -0.333 OA 
HETATM    2  C   UNL     1      -9.510  14.453  66.700  1.00  0.00    -0.283 C  
HETATM    3  C   UNL     1     -10.498  14.706  67.831  1.00  0.00    -0.242 C  
HETATM    4  O   UNL     1      -8.816  13.451  66.628  1.00  0.00    -0.176 OA 
HETATM    5  S   UNL     1     -10.722  16.523  68.095  1.00  0.00    -0.348 SA 
HETATM    6  H   UNL     1     -11.623  16.754  69.127  1.00  0.00     0.000 H  
ENDROOT
BRANCH   3   7
HETATM    7  C   UNL     1     -11.831  13.987  67.589  1.00  0.00    -0.395 C  
HETATM    8  C   UNL     1     -11.812  12.624  68.266  1.00  0.00    -0.306 C  
HETATM    9  S   UNL     1     -12.335  13.868  65.815  1.00  0.00    -0.492 SA 
HETATM   10  O   UNL     1     -12.024  11.561  67.460  1.00  0.00    -0.629 OA 
HETATM   11  O   UNL     1     -11.638  12.497  69.469  1.00  0.00    -0.284 OA 
HETATM   12  H   UNL     1     -13.543  13.216  65.595  1.00  0.00     0.000 H  
ENDBRANCH   3   7
TORSDOF 1
ENDMDL
MODEL       38
REMARK 921   NORMALIZED FREE ENERGY PREDICTED BY IDOCK:   -3.34 KCAL/MOL
REMARK 922        TOTAL FREE ENERGY PREDICTED BY IDOCK:   -3.47 KCAL/MOL
REMARK 923 INTER-LIGAND FREE ENERGY PREDICTED BY IDOCK:   -3.85 KCAL/MOL
REMARK 924 INTRA-LIGAND FREE ENERGY PREDICTED BY IDOCK:    0.38 KCAL/MOL
REMARK 927      BINDING AFFINITY PREDICTED BY RF-SCORE:    0.00 PKD
ROOT
HETATM    1  O   UNL     1     -11.497  15.104  66.839  1.00  0.00    -0.314 OA 
HETATM    2  C   UNL     1     -11.189  15.859  67.919  1.00  0.00    -0.297 C  
HETATM    3  C   UNL     1     -10.111  16.910  67.689  1.00  0.00    -0.278 C  
HETATM    4  O   UNL     1     -11.781  15.726  68.978  1.00  0.00    -0.379 OA 
HETATM    5  S   UNL     1      -8.914  16.333  66.403  1.00  0.00    -0.335 SA 
HETATM    6  H   UNL     1      -7.930  17.292  66.193  1.00  0.00     0.000 H  
ENDROOT
BRANCH   3   7
HETATM    7  C   UNL     1     -10.719  18.276  67.343  1.00  0.00    -0.350 C  
HETATM    8  C   UNL     1     -10.518  18.570  65.863  1.00  0.00    -0.347 C  
HETATM    9  S   UNL     1     -10.145  19.671  68.409  1.00  0.00    -0.448 SA 
HETATM   10  O   UNL     1      -9.846  19.706  65.574  1.00  0.00    -0.313 OA 
HETATM   11  O   UNL     1     -10.954  17.837  64.988  1.00  0.00    -0.784 OA 
HETATM   12  H   UNL     1     -10.696  20.908  68.095  1.00  0.00     0.000 H  
ENDBRANCH   3   7
TORSDOF 1
ENDMDL
MODEL       39
REMARK 921   NORMALIZED FREE ENERGY PREDICTED BY IDOCK:   -3.26 KCAL/MOL
REMARK 922        TOTAL FREE ENERGY PREDICTED BY IDOCK:   -3.39 KCAL/MOL
REMARK 923 INTER-LIGAND FREE ENERGY PREDICTED BY IDOCK:   -3.58 KCAL/MOL
REMARK 924 INTRA-LIGAND FREE ENERGY PREDICTED BY IDOCK:    0.20 KCAL/MOL
REMARK 927      BINDING AFFINITY PREDICTED BY RF-SCORE:    0.00 PKD
ROOT
HETATM    1  O   UNL     1     -10.432  17.021  67.189  1.00  0.00    -0.317 OA 
HETATM    2  C   UNL     1      -9.994  15.782  66.866  1.00  0.00    -0.243 C  
HETATM    3  C   UNL     1     -10.872  14.637  67.353  1.00  0.00    -0.298 C  
HETATM    4  O   UNL     1      -8.994  15.618  66.186  1.00  0.00    -0.323 OA 
HETATM    5  S   UNL     1     -11.717  15.101  68.932  1.00  0.00    -0.321 SA 
HETATM    6  H   UNL     1     -12.518  14.056  69.377  1.00  0.00     0.000 H  
ENDROOT
BRANCH   3   7
HETATM    7  C   UNL     1     -11.865  14.188  66.274  1.00  0.00    -0.411 C  
HETATM    8  C   UNL     1     -11.853  12.670  66.161  1.00  0.00    -0.418 C  
HETATM    9  S   UNL     1     -11.645  15.004  64.631  1.00  0.00    -0.331 SA 
HETATM   10  O   UNL     1     -11.553  12.171  64.942  1.00  0.00    -0.332 OA 
HETATM   11  O   UNL     1     -12.118  11.944  67.108  1.00  0.00    -0.590 OA 
HETATM   12  H   UNL     1     -12.545  14.597  63.653  1.00  0.00     0.000 H  
ENDBRANCH   3   7
TORSDOF 1
ENDMDL
MODEL       40
REMARK 921   NORMALIZED FREE ENERGY PREDICTED BY IDOCK:   -3.25 KCAL/MOL
REMARK 922        TOTAL FREE ENERGY PREDICTED BY IDOCK:   -3.38 KCAL/MOL
REMARK 923 INTER-LIGAND FREE ENERGY PREDICTED BY IDOCK:   -3.54 KCAL/MOL
REMARK 924 INTRA-LIGAND FREE ENERGY PREDICTED BY IDOCK:    0.16 KCAL/MOL
REMARK 927      BINDING AFFINITY PREDICTED BY RF-SCORE:    0.00 PKD
ROOT
HETATM    1  O   UNL     1     -10.853   9.494  67.691  1.00  0.00    -0.279 OA 
HETATM    2  C   UNL     1     -11.189  10.789  67.899  1.00  0.00    -0.318 C  
HETATM    3  C   UNL     1     -10.136  11.806  67.479  1.00  0.00    -0.192 C  
HETATM    4  O   UNL     1     -12.282  11.099  68.344  1.00  0.00    -0.610 OA 
HETATM    5  S   UNL     1      -8.440  11.092  67.664  1.00  0.00    -0.123 SA 
HETATM    6  H   UNL     1      -7.480  12.021  67.282  1.00  0.00     0.000 H  
ENDROOT
BRANCH   3   7
HETATM    7  C   UNL     1     -10.393  12.331  66.061  1.00  0.00    -0.245 C  
HETATM    8  C   UNL     1     -11.796  12.915  65.973  1.00  0.00    -0.430 C  
HETATM    9  S   UNL     1     -10.069  11.110  64.713  1.00  0.00    -0.319 SA 
HETATM   10  O   UNL     1     -12.606  12.368  65.041  1.00  0.00    -0.601 OA 
HETATM   11  O   UNL     1     -12.163  13.838  66.686  1.00  0.00    -0.426 OA 
HETATM   12  H   UNL     1     -10.301  11.586  63.428  1.00  0.00     0.000 H  
ENDBRANCH   3   7
TORSDOF 1
ENDMDL
MODEL       41
REMARK 921   NORMALIZED FREE ENERGY PREDICTED BY IDOCK:   -3.24 KCAL/MOL
REMARK 922        TOTAL FREE ENERGY PREDICTED BY IDOCK:   -3.37 KCAL/MOL
REMARK 923 INTER-LIGAND FREE ENERGY PREDICTED BY IDOCK:   -3.39 KCAL/MOL
REMARK 924 INTRA-LIGAND FREE ENERGY PREDICTED BY IDOCK:    0.02 KCAL/MOL
REMARK 927      BINDING AFFINITY PREDICTED BY RF-SCORE:    0.00 PKD
ROOT
HETATM    1  O   UNL     1     -11.995  12.243  67.150  1.00  0.00    -0.564 OA 
HETATM    2  C   UNL     1     -12.027  13.482  66.608  1.00  0.00    -0.404 C  
HETATM    3  C   UNL     1     -11.636  14.612  67.551  1.00  0.00    -0.375 C  
HETATM    4  O   UNL     1     -12.302  13.655  65.431  1.00  0.00    -0.417 OA 
HETATM    5  S   UNL     1     -12.098  14.186  69.291  1.00  0.00    -0.281 SA 
HETATM    6  H   UNL     1     -11.741  15.217  70.152  1.00  0.00     0.000 H  
ENDROOT
BRANCH   3   7
HETATM    7  C   UNL     1     -10.151  14.971  67.416  1.00  0.00    -0.228 C  
HETATM    8  C   UNL     1      -9.988  16.136  66.450  1.00  0.00    -0.299 C  
HETATM    9  S   UNL     1      -9.048  13.554  66.981  1.00  0.00    -0.237 SA 
HETATM   10  O   UNL     1      -9.194  15.909  65.381  1.00  0.00    -0.271 OA 
HETATM   11  O   UNL     1     -10.524  17.218  66.637  1.00  0.00    -0.313 OA 
HETATM   12  H   UNL     1      -7.702  13.880  66.859  1.00  0.00     0.000 H  
ENDBRANCH   3   7
TORSDOF 1
ENDMDL
MODEL       42
REMARK 921   NORMALIZED FREE ENERGY PREDICTED BY IDOCK:   -3.24 KCAL/MOL
REMARK 922        TOTAL FREE ENERGY PREDICTED BY IDOCK:   -3.37 KCAL/MOL
REMARK 923 INTER-LIGAND FREE ENERGY PREDICTED BY IDOCK:   -3.67 KCAL/MOL
REMARK 924 INTRA-LIGAND FREE ENERGY PREDICTED BY IDOCK:    0.30 KCAL/MOL
REMARK 927      BINDING AFFINITY PREDICTED BY RF-SCORE:    0.00 PKD
ROOT
HETATM    1  O   UNL     1     -11.419  15.133  64.934  1.00  0.00    -0.385 OA 
HETATM    2  C   UNL     1     -12.080  14.176  65.626  1.00  0.00    -0.415 C  
HETATM    3  C   UNL     1     -11.373  13.675  66.878  1.00  0.00    -0.327 C  
HETATM    4  O   UNL     1     -13.187  13.793  65.282  1.00  0.00    -0.755 OA 
HETATM    5  S   UNL     1      -9.538  13.773  66.662  1.00  0.00    -0.289 SA 
HETATM    6  H   UNL     1      -8.893  13.315  67.805  1.00  0.00     0.000 H  
ENDROOT
BRANCH   3   7
HETATM    7  C   UNL     1     -11.850  14.418  68.132  1.00  0.00    -0.327 C  
HETATM    8  C   UNL     1     -10.959  15.625  68.386  1.00  0.00    -0.308 C  
HETATM    9  S   UNL     1     -12.028  13.362  69.637  1.00  0.00    -0.303 SA 
HETATM   10  O   UNL     1     -10.345  15.663  69.588  1.00  0.00    -0.247 OA 
HETATM   11  O   UNL     1     -10.821  16.519  67.563  1.00  0.00    -0.313 OA 
HETATM   12  H   UNL     1     -12.460  14.036  70.774  1.00  0.00     0.000 H  
ENDBRANCH   3   7
TORSDOF 1
ENDMDL
MODEL       43
REMARK 921   NORMALIZED FREE ENERGY PREDICTED BY IDOCK:   -3.24 KCAL/MOL
REMARK 922        TOTAL FREE ENERGY PREDICTED BY IDOCK:   -3.36 KCAL/MOL
REMARK 923 INTER-LIGAND FREE ENERGY PREDICTED BY IDOCK:   -3.41 KCAL/MOL
REMARK 924 INTRA-LIGAND FREE ENERGY PREDICTED BY IDOCK:    0.04 KCAL/MOL
REMARK 927      BINDING AFFINITY PREDICTED BY RF-SCORE:    0.00 PKD
ROOT
HETATM    1  O   UNL     1      -7.702  19.833  66.161  1.00  0.00    -0.305 OA 
HETATM    2  C   UNL     1      -7.872  18.546  66.542  1.00  0.00    -0.258 C  
HETATM    3  C   UNL     1      -8.003  18.328  68.044  1.00  0.00    -0.264 C  
HETATM    4  O   UNL     1      -7.964  17.646  65.723  1.00  0.00    -0.549 OA 
HETATM    5  S   UNL     1      -7.034  19.605  68.967  1.00  0.00    -0.343 SA 
HETATM    6  H   UNL     1      -7.153  19.405  70.337  1.00  0.00     0.000 H  
ENDROOT
BRANCH   3   7
HETATM    7  C   UNL     1      -9.473  18.286  68.482  1.00  0.00    -0.331 C  
HETATM    8  C   UNL     1      -9.919  16.841  68.652  1.00  0.00    -0.276 C  
HETATM    9  S   UNL     1     -10.629  19.243  67.405  1.00  0.00    -0.488 SA 
HETATM   10  O   UNL     1     -10.977  16.458  67.904  1.00  0.00    -0.339 OA 
HETATM   11  O   UNL     1      -9.370  16.077  69.432  1.00  0.00    -0.254 OA 
HETATM   12  H   UNL     1     -11.961  19.206  67.803  1.00  0.00     0.000 H  
ENDBRANCH   3   7
TORSDOF 1
ENDMDL
MODEL       44
REMARK 921   NORMALIZED FREE ENERGY PREDICTED BY IDOCK:   -3.23 KCAL/MOL
REMARK 922        TOTAL FREE ENERGY PREDICTED BY IDOCK:   -3.36 KCAL/MOL
REMARK 923 INTER-LIGAND FREE ENERGY PREDICTED BY IDOCK:   -3.37 KCAL/MOL
REMARK 924 INTRA-LIGAND FREE ENERGY PREDICTED BY IDOCK:    0.01 KCAL/MOL
REMARK 927      BINDING AFFINITY PREDICTED BY RF-SCORE:    0.00 PKD
ROOT
HETATM    1  O   UNL     1      -9.888   5.544  70.673  1.00  0.00    -0.174 OA 
HETATM    2  C   UNL     1     -11.094   6.157  70.700  1.00  0.00    -0.317 C  
HETATM    3  C   UNL     1     -11.689   6.358  72.087  1.00  0.00    -0.321 C  
HETATM    4  O   UNL     1     -11.627   6.559  69.677  1.00  0.00    -0.376 OA 
HETATM    5  S   UNL     1     -11.146   5.002  73.222  1.00  0.00    -0.339 SA 
HETATM    6  H   UNL     1     -11.688   5.185  74.488  1.00  0.00     0.000 H  
ENDROOT
BRANCH   3   7
HETATM    7  C   UNL     1     -11.360   7.748  72.646  1.00  0.00    -0.393 C  
HETATM    8  C   UNL     1     -12.390   8.757  72.157  1.00  0.00    -0.389 C  
HETATM    9  S   UNL     1      -9.632   8.320  72.333  1.00  0.00    -0.307 SA 
HETATM   10  O   UNL     1     -11.902   9.812  71.469  1.00  0.00    -0.379 OA 
HETATM   11  O   UNL     1     -13.584   8.634  72.389  1.00  0.00    -0.373 OA 
HETATM   12  H   UNL     1      -9.334   9.580  72.840  1.00  0.00     0.000 H  
ENDBRANCH   3   7
TORSDOF 1
ENDMDL
MODEL       45
REMARK 921   NORMALIZED FREE ENERGY PREDICTED BY IDOCK:   -3.20 KCAL/MOL
REMARK 922        TOTAL FREE ENERGY PREDICTED BY IDOCK:   -3.33 KCAL/MOL
REMARK 923 INTER-LIGAND FREE ENERGY PREDICTED BY IDOCK:   -4.02 KCAL/MOL
REMARK 924 INTRA-LIGAND FREE ENERGY PREDICTED BY IDOCK:    0.69 KCAL/MOL
REMARK 927      BINDING AFFINITY PREDICTED BY RF-SCORE:    0.00 PKD
ROOT
HETATM    1  O   UNL     1      -9.937  14.259  68.432  1.00  0.00    -0.227 OA 
HETATM    2  C   UNL     1      -9.629  14.195  67.116  1.00  0.00    -0.244 C  
HETATM    3  C   UNL     1     -10.598  13.387  66.263  1.00  0.00    -0.291 C  
HETATM    4  O   UNL     1      -8.669  14.793  66.658  1.00  0.00    -0.249 OA 
HETATM    5  S   UNL     1     -11.349  12.022  67.260  1.00  0.00    -0.336 SA 
HETATM    6  H   UNL     1     -12.232  11.285  66.480  1.00  0.00     0.000 H  
ENDROOT
BRANCH   3   7
HETATM    7  C   UNL     1     -11.660  14.283  65.613  1.00  0.00    -0.346 C  
HETATM    8  C   UNL     1     -12.478  13.474  64.617  1.00  0.00    -0.323 C  
HETATM    9  S   UNL     1     -11.007  15.841  64.865  1.00  0.00    -0.338 SA 
HETATM   10  O   UNL     1     -12.483  13.933  63.346  1.00  0.00    -0.833 OA 
HETATM   11  O   UNL     1     -13.109  12.480  64.946  1.00  0.00    -0.833 OA 
HETATM   12  H   UNL     1     -11.970  16.653  64.276  1.00  0.00     0.000 H  
ENDBRANCH   3   7
TORSDOF 1
ENDMDL
MODEL       46
REMARK 921   NORMALIZED FREE ENERGY PREDICTED BY IDOCK:   -3.16 KCAL/MOL
REMARK 922        TOTAL FREE ENERGY PREDICTED BY IDOCK:   -3.28 KCAL/MOL
REMARK 923 INTER-LIGAND FREE ENERGY PREDICTED BY IDOCK:   -3.57 KCAL/MOL
REMARK 924 INTRA-LIGAND FREE ENERGY PREDICTED BY IDOCK:    0.29 KCAL/MOL
REMARK 927      BINDING AFFINITY PREDICTED BY RF-SCORE:    0.00 PKD
ROOT
HETATM    1  O   UNL     1     -11.167  13.636  69.209  1.00  0.00    -0.255 OA 
HETATM    2  C   UNL     1     -11.387  14.718  68.427  1.00  0.00    -0.299 C  
HETATM    3  C   UNL     1     -10.892  14.593  66.992  1.00  0.00    -0.304 C  
HETATM    4  O   UNL     1     -11.988  15.695  68.847  1.00  0.00    -0.367 OA 
HETATM    5  S   UNL     1      -9.404  13.498  66.919  1.00  0.00    -0.254 SA 
HETATM    6  H   UNL     1      -8.952  13.384  65.609  1.00  0.00     0.000 H  
ENDROOT
BRANCH   3   7
HETATM    7  C   UNL     1     -12.007  14.121  66.050  1.00  0.00    -0.413 C  
HETATM    8  C   UNL     1     -11.960  12.606  65.914  1.00  0.00    -0.438 C  
HETATM    9  S   UNL     1     -12.037  14.961  64.405  1.00  0.00    -0.285 SA 
HETATM   10  O   UNL     1     -11.812  12.131  64.658  1.00  0.00    -0.359 OA 
HETATM   11  O   UNL     1     -12.070  11.862  66.877  1.00  0.00    -0.599 OA 
HETATM   12  H   UNL     1     -13.047  14.534  63.551  1.00  0.00     0.000 H  
ENDBRANCH   3   7
TORSDOF 1
ENDMDL
MODEL       47
REMARK 921   NORMALIZED FREE ENERGY PREDICTED BY IDOCK:   -3.13 KCAL/MOL
REMARK 922        TOTAL FREE ENERGY PREDICTED BY IDOCK:   -3.25 KCAL/MOL
REMARK 923 INTER-LIGAND FREE ENERGY PREDICTED BY IDOCK:   -3.27 KCAL/MOL
REMARK 924 INTRA-LIGAND FREE ENERGY PREDICTED BY IDOCK:    0.02 KCAL/MOL
REMARK 927      BINDING AFFINITY PREDICTED BY RF-SCORE:    0.00 PKD
ROOT
HETATM    1  O   UNL     1      -7.968  18.279  65.940  1.00  0.00    -0.499 OA 
HETATM    2  C   UNL     1      -8.362  18.112  67.223  1.00  0.00    -0.241 C  
HETATM    3  C   UNL     1      -9.848  18.328  67.478  1.00  0.00    -0.317 C  
HETATM    4  O   UNL     1      -7.577  17.764  68.091  1.00  0.00    -0.232 OA 
HETATM    5  S   UNL     1     -10.529  19.578  66.296  1.00  0.00    -0.516 SA 
HETATM    6  H   UNL     1     -11.885  19.775  66.529  1.00  0.00     0.000 H  
ENDROOT
BRANCH   3   7
HETATM    7  C   UNL     1     -10.626  17.006  67.435  1.00  0.00    -0.289 C  
HETATM    8  C   UNL     1     -10.499  16.290  68.772  1.00  0.00    -0.282 C  
HETATM    9  S   UNL     1     -10.197  15.902  66.017  1.00  0.00    -0.355 SA 
HETATM   10  O   UNL     1      -9.977  15.045  68.727  1.00  0.00    -0.214 OA 
HETATM   11  O   UNL     1     -10.865  16.798  69.821  1.00  0.00    -0.325 OA 
HETATM   12  H   UNL     1     -10.901  14.704  65.978  1.00  0.00     0.000 H  
ENDBRANCH   3   7
TORSDOF 1
ENDMDL
MODEL       48
REMARK 921   NORMALIZED FREE ENERGY PREDICTED BY IDOCK:   -3.13 KCAL/MOL
REMARK 922        TOTAL FREE ENERGY PREDICTED BY IDOCK:   -3.25 KCAL/MOL
REMARK 923 INTER-LIGAND FREE ENERGY PREDICTED BY IDOCK:   -3.59 KCAL/MOL
REMARK 924 INTRA-LIGAND FREE ENERGY PREDICTED BY IDOCK:    0.34 KCAL/MOL
REMARK 927      BINDING AFFINITY PREDICTED BY RF-SCORE:    0.00 PKD
ROOT
HETATM    1  O   UNL     1     -10.563  12.597  68.793  1.00  0.00    -0.237 OA 
HETATM    2  C   UNL     1     -11.549  12.454  67.878  1.00  0.00    -0.356 C  
HETATM    3  C   UNL     1     -11.917  13.722  67.118  1.00  0.00    -0.405 C  
HETATM    4  O   UNL     1     -12.058  11.367  67.655  1.00  0.00    -0.630 OA 
HETATM    5  S   UNL     1     -11.643  15.211  68.180  1.00  0.00    -0.304 SA 
HETATM    6  H   UNL     1     -11.979  16.367  67.487  1.00  0.00     0.000 H  
ENDROOT
BRANCH   3   7
HETATM    7  C   UNL     1     -11.168  13.817  65.782  1.00  0.00    -0.297 C  
HETATM    8  C   UNL     1     -10.036  14.828  65.897  1.00  0.00    -0.326 C  
HETATM    9  S   UNL     1     -12.241  14.146  64.315  1.00  0.00    -0.347 SA 
HETATM   10  O   UNL     1     -10.070  15.854  65.020  1.00  0.00    -0.444 OA 
HETATM   11  O   UNL     1      -9.137  14.709  66.716  1.00  0.00    -0.241 OA 
HETATM   12  H   UNL     1     -11.562  14.232  63.105  1.00  0.00     0.000 H  
ENDBRANCH   3   7
TORSDOF 1
ENDMDL
MODEL       49
REMARK 921   NORMALIZED FREE ENERGY PREDICTED BY IDOCK:   -3.12 KCAL/MOL
REMARK 922        TOTAL FREE ENERGY PREDICTED BY IDOCK:   -3.24 KCAL/MOL
REMARK 923 INTER-LIGAND FREE ENERGY PREDICTED BY IDOCK:   -3.47 KCAL/MOL
REMARK 924 INTRA-LIGAND FREE ENERGY PREDICTED BY IDOCK:    0.23 KCAL/MOL
REMARK 927      BINDING AFFINITY PREDICTED BY RF-SCORE:    0.00 PKD
ROOT
HETATM    1  O   UNL     1      -9.200  16.456  66.321  1.00  0.00    -0.269 OA 
HETATM    2  C   UNL     1     -10.165  15.743  66.946  1.00  0.00    -0.280 C  
HETATM    3  C   UNL     1     -11.160  15.052  66.024  1.00  0.00    -0.329 C  
HETATM    4  O   UNL     1     -10.187  15.631  68.162  1.00  0.00    -0.224 OA 
HETATM    5  S   UNL     1     -11.382  16.028  64.469  1.00  0.00    -0.123 SA 
HETATM    6  H   UNL     1     -12.291  15.397  63.628  1.00  0.00     0.000 H  
ENDROOT
BRANCH   3   7
HETATM    7  C   UNL     1     -10.755  13.598  65.744  1.00  0.00    -0.280 C  
HETATM    8  C   UNL     1     -11.985  12.702  65.793  1.00  0.00    -0.446 C  
HETATM    9  S   UNL     1      -9.391  12.956  66.811  1.00  0.00    -0.236 SA 
HETATM   10  O   UNL     1     -11.941  11.688  66.683  1.00  0.00    -0.503 OA 
HETATM   11  O   UNL     1     -12.946  12.874  65.058  1.00  0.00    -0.777 OA 
HETATM   12  H   UNL     1      -9.024  11.639  66.557  1.00  0.00     0.000 H  
ENDBRANCH   3   7
TORSDOF 1
ENDMDL
MODEL       50
REMARK 921   NORMALIZED FREE ENERGY PREDICTED BY IDOCK:   -3.12 KCAL/MOL
REMARK 922        TOTAL FREE ENERGY PREDICTED BY IDOCK:   -3.24 KCAL/MOL
REMARK 923 INTER-LIGAND FREE ENERGY PREDICTED BY IDOCK:   -3.42 KCAL/MOL
REMARK 924 INTRA-LIGAND FREE ENERGY PREDICTED BY IDOCK:    0.18 KCAL/MOL
REMARK 927      BINDING AFFINITY PREDICTED BY RF-SCORE:    0.00 PKD
ROOT
HETATM    1  O   UNL     1     -10.347  17.996  65.601  1.00  0.00    -0.611 OA 
HETATM    2  C   UNL     1     -10.027  19.089  66.331  1.00  0.00    -0.395 C  
HETATM    3  C   UNL     1      -9.193  18.816  67.576  1.00  0.00    -0.283 C  
HETATM    4  O   UNL     1     -10.349  20.211  65.973  1.00  0.00    -0.444 OA 
HETATM    5  S   UNL     1      -9.587  17.143  68.260  1.00  0.00    -0.292 SA 
HETATM    6  H   UNL     1      -8.826  16.894  69.396  1.00  0.00     0.000 H  
ENDROOT
BRANCH   3   7
HETATM    7  C   UNL     1      -7.694  18.991  67.300  1.00  0.00    -0.237 C  
HETATM    8  C   UNL     1      -7.075  19.885  68.365  1.00  0.00    -0.295 C  
HETATM    9  S   UNL     1      -7.282  19.565  65.593  1.00  0.00    -0.194 SA 
HETATM   10  O   UNL     1      -6.459  21.000  67.915  1.00  0.00    -0.332 OA 
HETATM   11  O   UNL     1      -7.112  19.605  69.554  1.00  0.00    -0.343 OA 
HETATM   12  H   UNL     1      -5.924  19.724  65.343  1.00  0.00     0.000 H  
ENDBRANCH   3   7
TORSDOF 1
ENDMDL
MODEL       51
REMARK 921   NORMALIZED FREE ENERGY PREDICTED BY IDOCK:   -3.10 KCAL/MOL
REMARK 922        TOTAL FREE ENERGY PREDICTED BY IDOCK:   -3.22 KCAL/MOL
REMARK 923 INTER-LIGAND FREE ENERGY PREDICTED BY IDOCK:   -3.49 KCAL/MOL
REMARK 924 INTRA-LIGAND FREE ENERGY PREDICTED BY IDOCK:    0.27 KCAL/MOL
REMARK 927      BINDING AFFINITY PREDICTED BY RF-SCORE:    0.00 PKD
ROOT
HETATM    1  O   UNL     1     -11.132   6.694  71.234  1.00  0.00    -0.247 OA 
HETATM    2  C   UNL     1     -11.106   7.820  71.984  1.00  0.00    -0.269 C  
HETATM    3  C   UNL     1     -11.163   9.124  71.198  1.00  0.00    -0.325 C  
HETATM    4  O   UNL     1     -11.089   7.772  73.204  1.00  0.00    -0.409 OA 
HETATM    5  S   UNL     1     -10.362   8.914  69.545  1.00  0.00    -0.215 SA 
HETATM    6  H   UNL     1     -10.415  10.103  68.828  1.00  0.00     0.000 H  
ENDROOT
BRANCH   3   7
HETATM    7  C   UNL     1     -12.599   9.651  71.085  1.00  0.00    -0.322 C  
HETATM    8  C   UNL     1     -12.599  11.171  71.170  1.00  0.00    -0.409 C  
HETATM    9  S   UNL     1     -13.798   8.894  72.269  1.00  0.00    -0.452 SA 
HETATM   10  O   UNL     1     -13.345  11.707  72.159  1.00  0.00    -0.491 OA 
HETATM   11  O   UNL     1     -11.979  11.867  70.380  1.00  0.00    -0.351 OA 
HETATM   12  H   UNL     1     -15.099   9.372  72.166  1.00  0.00     0.000 H  
ENDBRANCH   3   7
TORSDOF 1
ENDMDL
MODEL       52
REMARK 921   NORMALIZED FREE ENERGY PREDICTED BY IDOCK:   -3.09 KCAL/MOL
REMARK 922        TOTAL FREE ENERGY PREDICTED BY IDOCK:   -3.21 KCAL/MOL
REMARK 923 INTER-LIGAND FREE ENERGY PREDICTED BY IDOCK:   -3.27 KCAL/MOL
REMARK 924 INTRA-LIGAND FREE ENERGY PREDICTED BY IDOCK:    0.06 KCAL/MOL
REMARK 927      BINDING AFFINITY PREDICTED BY RF-SCORE:    0.00 PKD
ROOT
HETATM    1  O   UNL     1      -9.105  18.103  66.067  1.00  0.00    -0.513 OA 
HETATM    2  C   UNL     1     -10.224  17.914  66.804  1.00  0.00    -0.360 C  
HETATM    3  C   UNL     1     -10.660  16.463  66.961  1.00  0.00    -0.260 C  
HETATM    4  O   UNL     1     -10.799  18.848  67.340  1.00  0.00    -0.458 OA 
HETATM    5  S   UNL     1     -10.175  15.481  65.470  1.00  0.00    -0.389 SA 
HETATM    6  H   UNL     1     -10.573  14.157  65.613  1.00  0.00     0.000 H  
ENDROOT
BRANCH   3   7
HETATM    7  C   UNL     1     -10.121  15.849  68.260  1.00  0.00    -0.224 C  
HETATM    8  C   UNL     1     -11.226  15.807  69.306  1.00  0.00    -0.324 C  
HETATM    9  S   UNL     1      -8.584  16.640  68.911  1.00  0.00    -0.198 SA 
HETATM   10  O   UNL     1     -10.968  16.456  70.463  1.00  0.00    -0.296 OA 
HETATM   11  O   UNL     1     -12.274  15.207  69.124  1.00  0.00    -0.246 OA 
HETATM   12  H   UNL     1      -8.096  16.083  70.088  1.00  0.00     0.000 H  
ENDBRANCH   3   7
TORSDOF 1
ENDMDL
MODEL       53
REMARK 921   NORMALIZED FREE ENERGY PREDICTED BY IDOCK:   -3.09 KCAL/MOL
REMARK 922        TOTAL FREE ENERGY PREDICTED BY IDOCK:   -3.20 KCAL/MOL
REMARK 923 INTER-LIGAND FREE ENERGY PREDICTED BY IDOCK:   -3.49 KCAL/MOL
REMARK 924 INTRA-LIGAND FREE ENERGY PREDICTED BY IDOCK:    0.29 KCAL/MOL
REMARK 927      BINDING AFFINITY PREDICTED BY RF-SCORE:    0.00 PKD
ROOT
HETATM    1  O   UNL     1      -9.669  15.500  66.494  1.00  0.00    -0.243 OA 
HETATM    2  C   UNL     1     -10.268  16.642  66.086  1.00  0.00    -0.348 C  
HETATM    3  C   UNL     1     -10.397  17.723  67.151  1.00  0.00    -0.353 C  
HETATM    4  O   UNL     1     -10.624  16.796  64.928  1.00  0.00    -0.702 OA 
HETATM    5  S   UNL     1     -10.569  16.957  68.826  1.00  0.00    -0.346 SA 
HETATM    6  H   UNL     1     -10.688  17.943  69.799  1.00  0.00     0.000 H  
ENDROOT
BRANCH   3   7
HETATM    7  C   UNL     1      -9.234  18.721  67.087  1.00  0.00    -0.287 C  
HETATM    8  C   UNL     1      -8.172  18.342  68.110  1.00  0.00    -0.283 C  
HETATM    9  S   UNL     1      -9.727  20.495  67.232  1.00  0.00    -0.393 SA 
HETATM   10  O   UNL     1      -7.866  19.289  69.023  1.00  0.00    -0.342 OA 
HETATM   11  O   UNL     1      -7.612  17.255  68.096  1.00  0.00    -0.197 OA 
HETATM   12  H   UNL     1      -8.673  21.400  67.173  1.00  0.00     0.000 H  
ENDBRANCH   3   7
TORSDOF 1
ENDMDL
MODEL       54
REMARK 921   NORMALIZED FREE ENERGY PREDICTED BY IDOCK:   -3.07 KCAL/MOL
REMARK 922        TOTAL FREE ENERGY PREDICTED BY IDOCK:   -3.19 KCAL/MOL
REMARK 923 INTER-LIGAND FREE ENERGY PREDICTED BY IDOCK:   -3.21 KCAL/MOL
REMARK 924 INTRA-LIGAND FREE ENERGY PREDICTED BY IDOCK:    0.02 KCAL/MOL
REMARK 927      BINDING AFFINITY PREDICTED BY RF-SCORE:    0.00 PKD
ROOT
HETATM    1  O   UNL     1     -10.639   9.657  70.859  1.00  0.00    -0.304 OA 
HETATM    2  C   UNL     1     -10.381   8.886  71.941  1.00  0.00    -0.337 C  
HETATM    3  C   UNL     1     -11.582   8.136  72.503  1.00  0.00    -0.404 C  
HETATM    4  O   UNL     1      -9.250   8.772  72.386  1.00  0.00    -0.361 OA 
HETATM    5  S   UNL     1     -13.135   9.098  72.214  1.00  0.00    -0.435 SA 
HETATM    6  H   UNL     1     -14.230   8.414  72.727  1.00  0.00     0.000 H  
ENDROOT
BRANCH   3   7
HETATM    7  C   UNL     1     -11.670   6.710  71.942  1.00  0.00    -0.313 C  
HETATM    8  C   UNL     1     -10.706   5.801  72.692  1.00  0.00    -0.240 C  
HETATM    9  S   UNL     1     -11.455   6.584  70.112  1.00  0.00    -0.389 SA 
HETATM   10  O   UNL     1      -9.782   5.170  71.937  1.00  0.00    -0.153 OA 
HETATM   11  O   UNL     1     -10.775   5.634  73.901  1.00  0.00    -0.271 OA 
HETATM   12  H   UNL     1     -11.535   5.292  69.604  1.00  0.00     0.000 H  
ENDBRANCH   3   7
TORSDOF 1
ENDMDL
MODEL       55
REMARK 921   NORMALIZED FREE ENERGY PREDICTED BY IDOCK:   -3.07 KCAL/MOL
REMARK 922        TOTAL FREE ENERGY PREDICTED BY IDOCK:   -3.18 KCAL/MOL
REMARK 923 INTER-LIGAND FREE ENERGY PREDICTED BY IDOCK:   -3.35 KCAL/MOL
REMARK 924 INTRA-LIGAND FREE ENERGY PREDICTED BY IDOCK:    0.17 KCAL/MOL
REMARK 927      BINDING AFFINITY PREDICTED BY RF-SCORE:    0.00 PKD
ROOT
HETATM    1  O   UNL     1      -8.493  12.842  68.125  1.00  0.00    -0.164 OA 
HETATM    2  C   UNL     1      -9.052  13.385  67.019  1.00  0.00    -0.243 C  
HETATM    3  C   UNL     1      -9.890  12.429  66.180  1.00  0.00    -0.252 C  
HETATM    4  O   UNL     1      -8.925  14.571  66.758  1.00  0.00    -0.246 OA 
HETATM    5  S   UNL     1      -9.231  10.706  66.317  1.00  0.00    -0.176 SA 
HETATM    6  H   UNL     1      -9.995   9.834  65.552  1.00  0.00     0.000 H  
ENDROOT
BRANCH   3   7
HETATM    7  C   UNL     1     -11.378  12.512  66.547  1.00  0.00    -0.334 C  
HETATM    8  C   UNL     1     -12.202  12.782  65.296  1.00  0.00    -0.483 C  
HETATM    9  S   UNL     1     -11.775  13.699  67.905  1.00  0.00    -0.372 SA 
HETATM   10  O   UNL     1     -12.969  13.894  65.324  1.00  0.00    -0.747 OA 
HETATM   11  O   UNL     1     -12.191  12.030  64.332  1.00  0.00    -0.335 OA 
HETATM   12  H   UNL     1     -13.123  13.774  68.237  1.00  0.00     0.000 H  
ENDBRANCH   3   7
TORSDOF 1
ENDMDL
MODEL       56
REMARK 921   NORMALIZED FREE ENERGY PREDICTED BY IDOCK:   -3.06 KCAL/MOL
REMARK 922        TOTAL FREE ENERGY PREDICTED BY IDOCK:   -3.18 KCAL/MOL
REMARK 923 INTER-LIGAND FREE ENERGY PREDICTED BY IDOCK:   -3.20 KCAL/MOL
REMARK 924 INTRA-LIGAND FREE ENERGY PREDICTED BY IDOCK:    0.02 KCAL/MOL
REMARK 927      BINDING AFFINITY PREDICTED BY RF-SCORE:    0.00 PKD
ROOT
HETATM    1  O   UNL     1     -13.582   9.067  72.826  1.00  0.00    -0.433 OA 
HETATM    2  C   UNL     1     -13.447   8.276  71.736  1.00  0.00    -0.352 C  
HETATM    3  C   UNL     1     -12.265   8.609  70.836  1.00  0.00    -0.100 C  
HETATM    4  O   UNL     1     -14.199   7.336  71.536  1.00  0.00    -0.430 OA 
HETATM    5  S   UNL     1     -11.895  10.420  70.903  1.00  0.00    -0.375 SA 
HETATM    6  H   UNL     1     -10.816  10.724  70.081  1.00  0.00     0.000 H  
ENDROOT
BRANCH   3   7
HETATM    7  C   UNL     1     -11.038   7.754  71.176  1.00  0.00    -0.248 C  
HETATM    8  C   UNL     1     -11.225   6.344  70.633  1.00  0.00    -0.339 C  
HETATM    9  S   UNL     1     -10.570   7.747  72.964  1.00  0.00    -0.346 SA 
HETATM   10  O   UNL     1     -11.160   5.347  71.542  1.00  0.00    -0.159 OA 
HETATM   11  O   UNL     1     -11.403   6.123  69.444  1.00  0.00    -0.420 OA 
HETATM   12  H   UNL     1      -9.458   6.972  73.272  1.00  0.00     0.000 H  
ENDBRANCH   3   7
TORSDOF 1
ENDMDL
MODEL       57
REMARK 921   NORMALIZED FREE ENERGY PREDICTED BY IDOCK:   -3.05 KCAL/MOL
REMARK 922        TOTAL FREE ENERGY PREDICTED BY IDOCK:   -3.17 KCAL/MOL
REMARK 923 INTER-LIGAND FREE ENERGY PREDICTED BY IDOCK:   -3.46 KCAL/MOL
REMARK 924 INTRA-LIGAND FREE ENERGY PREDICTED BY IDOCK:    0.29 KCAL/MOL
REMARK 927      BINDING AFFINITY PREDICTED BY RF-SCORE:    0.00 PKD
ROOT
HETATM    1  O   UNL     1      -7.732  19.772  66.966  1.00  0.00    -0.255 OA 
HETATM    2  C   UNL     1      -8.221  19.364  68.159  1.00  0.00    -0.324 C  
HETATM    3  C   UNL     1      -9.623  18.769  68.116  1.00  0.00    -0.332 C  
HETATM    4  O   UNL     1      -7.551  19.428  69.178  1.00  0.00    -0.354 OA 
HETATM    5  S   UNL     1     -10.609  19.546  66.758  1.00  0.00    -0.477 SA 
HETATM    6  H   UNL     1     -11.888  19.003  66.719  1.00  0.00     0.000 H  
ENDROOT
BRANCH   3   7
HETATM    7  C   UNL     1      -9.584  17.240  68.003  1.00  0.00    -0.274 C  
HETATM    8  C   UNL     1      -9.661  16.829  66.540  1.00  0.00    -0.283 C  
HETATM    9  S   UNL     1     -10.836  16.355  69.035  1.00  0.00    -0.337 SA 
HETATM   10  O   UNL     1     -10.687  16.015  66.209  1.00  0.00    -0.301 OA 
HETATM   11  O   UNL     1      -8.835  17.194  65.716  1.00  0.00    -0.526 OA 
HETATM   12  H   UNL     1     -10.800  14.969  68.933  1.00  0.00     0.000 H  
ENDBRANCH   3   7
TORSDOF 1
ENDMDL
MODEL       58
REMARK 921   NORMALIZED FREE ENERGY PREDICTED BY IDOCK:   -3.04 KCAL/MOL
REMARK 922        TOTAL FREE ENERGY PREDICTED BY IDOCK:   -3.16 KCAL/MOL
REMARK 923 INTER-LIGAND FREE ENERGY PREDICTED BY IDOCK:   -3.54 KCAL/MOL
REMARK 924 INTRA-LIGAND FREE ENERGY PREDICTED BY IDOCK:    0.38 KCAL/MOL
REMARK 927      BINDING AFFINITY PREDICTED BY RF-SCORE:    0.00 PKD
ROOT
HETATM    1  O   UNL     1      -9.965  14.831  65.364  1.00  0.00    -0.357 OA 
HETATM    2  C   UNL     1     -10.476  15.326  66.514  1.00  0.00    -0.298 C  
HETATM    3  C   UNL     1     -11.676  14.571  67.069  1.00  0.00    -0.393 C  
HETATM    4  O   UNL     1      -9.965  16.281  67.079  1.00  0.00    -0.243 OA 
HETATM    5  S   UNL     1     -12.656  13.820  65.691  1.00  0.00    -0.473 SA 
HETATM    6  H   UNL     1     -13.752  13.131  66.197  1.00  0.00     0.000 H  
ENDROOT
BRANCH   3   7
HETATM    7  C   UNL     1     -11.254  13.530  68.114  1.00  0.00    -0.272 C  
HETATM    8  C   UNL     1     -11.376  12.131  67.527  1.00  0.00    -0.326 C  
HETATM    9  S   UNL     1     -12.117  13.672  69.741  1.00  0.00    -0.311 SA 
HETATM   10  O   UNL     1     -12.184  11.279  68.194  1.00  0.00    -0.622 OA 
HETATM   11  O   UNL     1     -10.764  11.789  66.525  1.00  0.00    -0.244 OA 
HETATM   12  H   UNL     1     -11.735  12.729  70.688  1.00  0.00     0.000 H  
ENDBRANCH   3   7
TORSDOF 1
ENDMDL
MODEL       59
REMARK 921   NORMALIZED FREE ENERGY PREDICTED BY IDOCK:   -3.04 KCAL/MOL
REMARK 922        TOTAL FREE ENERGY PREDICTED BY IDOCK:   -3.15 KCAL/MOL
REMARK 923 INTER-LIGAND FREE ENERGY PREDICTED BY IDOCK:   -3.23 KCAL/MOL
REMARK 924 INTRA-LIGAND FREE ENERGY PREDICTED BY IDOCK:    0.08 KCAL/MOL
REMARK 927      BINDING AFFINITY PREDICTED BY RF-SCORE:    0.00 PKD
ROOT
HETATM    1  O   UNL     1     -10.361  19.926  69.239  1.00  0.00    -0.311 OA 
HETATM    2  C   UNL     1     -10.021  19.641  67.961  1.00  0.00    -0.427 C  
HETATM    3  C   UNL     1      -8.730  18.852  67.794  1.00  0.00    -0.292 C  
HETATM    4  O   UNL     1     -10.739  19.959  67.026  1.00  0.00    -0.450 OA 
HETATM    5  S   UNL     1      -7.546  19.258  69.156  1.00  0.00    -0.188 SA 
HETATM    6  H   UNL     1      -6.368  18.538  69.003  1.00  0.00     0.000 H  
ENDROOT
BRANCH   3   7
HETATM    7  C   UNL     1      -8.999  17.345  67.690  1.00  0.00    -0.233 C  
HETATM    8  C   UNL     1      -8.796  16.883  66.254  1.00  0.00    -0.279 C  
HETATM    9  S   UNL     1     -10.631  16.802  68.365  1.00  0.00    -0.370 SA 
HETATM   10  O   UNL     1      -9.858  16.289  65.669  1.00  0.00    -0.450 OA 
HETATM   11  O   UNL     1      -7.731  17.020  65.670  1.00  0.00    -0.234 OA 
HETATM   12  H   UNL     1     -10.875  15.436  68.270  1.00  0.00     0.000 H  
ENDBRANCH   3   7
TORSDOF 1
ENDMDL
MODEL       60
REMARK 921   NORMALIZED FREE ENERGY PREDICTED BY IDOCK:   -3.04 KCAL/MOL
REMARK 922        TOTAL FREE ENERGY PREDICTED BY IDOCK:   -3.15 KCAL/MOL
REMARK 923 INTER-LIGAND FREE ENERGY PREDICTED BY IDOCK:   -3.17 KCAL/MOL
REMARK 924 INTRA-LIGAND FREE ENERGY PREDICTED BY IDOCK:    0.02 KCAL/MOL
REMARK 927      BINDING AFFINITY PREDICTED BY RF-SCORE:    0.00 PKD
ROOT
HETATM    1  O   UNL     1     -12.189  11.290  68.560  1.00  0.00    -0.588 OA 
HETATM    2  C   UNL     1     -11.607  12.227  69.344  1.00  0.00    -0.314 C  
HETATM    3  C   UNL     1     -10.293  12.788  68.816  1.00  0.00    -0.117 C  
HETATM    4  O   UNL     1     -12.139  12.619  70.370  1.00  0.00    -0.364 OA 
HETATM    5  S   UNL     1      -9.399  11.508  67.825  1.00  0.00    -0.173 SA 
HETATM    6  H   UNL     1      -8.200  12.019  67.344  1.00  0.00     0.000 H  
ENDROOT
BRANCH   3   7
HETATM    7  C   UNL     1     -10.510  14.086  68.026  1.00  0.00    -0.241 C  
HETATM    8  C   UNL     1     -10.650  15.257  68.988  1.00  0.00    -0.245 C  
HETATM    9  S   UNL     1     -11.895  14.026  66.805  1.00  0.00    -0.442 SA 
HETATM   10  O   UNL     1     -11.796  15.965  68.893  1.00  0.00    -0.397 OA 
HETATM   11  O   UNL     1      -9.772  15.555  69.785  1.00  0.00    -0.287 OA 
HETATM   12  H   UNL     1     -12.091  15.202  66.090  1.00  0.00     0.000 H  
ENDBRANCH   3   7
TORSDOF 1
ENDMDL
MODEL       61
REMARK 921   NORMALIZED FREE ENERGY PREDICTED BY IDOCK:   -3.03 KCAL/MOL
REMARK 922        TOTAL FREE ENERGY PREDICTED BY IDOCK:   -3.15 KCAL/MOL
REMARK 923 INTER-LIGAND FREE ENERGY PREDICTED BY IDOCK:   -3.17 KCAL/MOL
REMARK 924 INTRA-LIGAND FREE ENERGY PREDICTED BY IDOCK:    0.02 KCAL/MOL
REMARK 927      BINDING AFFINITY PREDICTED BY RF-SCORE:    0.00 PKD
ROOT
HETATM    1  O   UNL     1      -9.182  17.185  65.729  1.00  0.00    -0.524 OA 
HETATM    2  C   UNL     1     -10.201  17.027  66.605  1.00  0.00    -0.310 C  
HETATM    3  C   UNL     1     -10.814  15.634  66.641  1.00  0.00    -0.266 C  
HETATM    4  O   UNL     1     -10.554  17.935  67.340  1.00  0.00    -0.386 OA 
HETATM    5  S   UNL     1     -10.690  14.833  64.979  1.00  0.00    -0.431 SA 
HETATM    6  H   UNL     1     -11.250  13.561  65.013  1.00  0.00     0.000 H  
ENDROOT
BRANCH   3   7
HETATM    7  C   UNL     1     -10.193  14.773  67.748  1.00  0.00    -0.232 C  
HETATM    8  C   UNL     1     -10.750  15.191  69.101  1.00  0.00    -0.253 C  
HETATM    9  S   UNL     1      -8.346  14.726  67.748  1.00  0.00    -0.172 SA 
HETATM   10  O   UNL     1      -9.840  15.584  70.019  1.00  0.00    -0.283 OA 
HETATM   11  O   UNL     1     -11.945  15.155  69.353  1.00  0.00    -0.313 OA 
HETATM   12  H   UNL     1      -7.782  13.946  68.751  1.00  0.00     0.000 H  
ENDBRANCH   3   7
TORSDOF 1
ENDMDL
MODEL       62
REMARK 921   NORMALIZED FREE ENERGY PREDICTED BY IDOCK:   -3.03 KCAL/MOL
REMARK 922        TOTAL FREE ENERGY PREDICTED BY IDOCK:   -3.14 KCAL/MOL
REMARK 923 INTER-LIGAND FREE ENERGY PREDICTED BY IDOCK:   -3.37 KCAL/MOL
REMARK 924 INTRA-LIGAND FREE ENERGY PREDICTED BY IDOCK:    0.23 KCAL/MOL
REMARK 927      BINDING AFFINITY PREDICTED BY RF-SCORE:    0.00 PKD
ROOT
HETATM    1  O   UNL     1     -12.269  13.825  68.670  1.00  0.00    -0.347 OA 
HETATM    2  C   UNL     1     -11.309  13.917  67.721  1.00  0.00    -0.308 C  
HETATM    3  C   UNL     1     -10.995  12.619  66.988  1.00  0.00    -0.265 C  
HETATM    4  O   UNL     1     -10.781  14.984  67.451  1.00  0.00    -0.276 OA 
HETATM    5  S   UNL     1     -11.271  11.169  68.102  1.00  0.00    -0.316 SA 
HETATM    6  H   UNL     1     -10.985   9.985  67.433  1.00  0.00     0.000 H  
ENDROOT
BRANCH   3   7
HETATM    7  C   UNL     1     -11.788  12.505  65.679  1.00  0.00    -0.438 C  
HETATM    8  C   UNL     1     -10.894  11.942  64.584  1.00  0.00    -0.311 C  
HETATM    9  S   UNL     1     -12.635  14.058  65.148  1.00  0.00    -0.379 SA 
HETATM   10  O   UNL     1     -10.754  12.711  63.482  1.00  0.00    -0.417 OA 
HETATM   11  O   UNL     1     -10.351  10.851  64.682  1.00  0.00    -0.319 OA 
HETATM   12  H   UNL     1     -13.353  13.954  63.963  1.00  0.00     0.000 H  
ENDBRANCH   3   7
TORSDOF 1
ENDMDL
MODEL       63
REMARK 921   NORMALIZED FREE ENERGY PREDICTED BY IDOCK:   -3.03 KCAL/MOL
REMARK 922        TOTAL FREE ENERGY PREDICTED BY IDOCK:   -3.14 KCAL/MOL
REMARK 923 INTER-LIGAND FREE ENERGY PREDICTED BY IDOCK:   -3.17 KCAL/MOL
REMARK 924 INTRA-LIGAND FREE ENERGY PREDICTED BY IDOCK:    0.03 KCAL/MOL
REMARK 927      BINDING AFFINITY PREDICTED BY RF-SCORE:    0.00 PKD
ROOT
HETATM    1  O   UNL     1     -12.520   6.270  72.047  1.00  0.00    -0.306 OA 
HETATM    2  C   UNL     1     -12.129   6.998  70.975  1.00  0.00    -0.368 C  
HETATM    3  C   UNL     1     -12.258   8.507  71.135  1.00  0.00    -0.232 C  
HETATM    4  O   UNL     1     -11.661   6.465  69.981  1.00  0.00    -0.429 OA 
HETATM    5  S   UNL     1     -13.670   8.917  72.256  1.00  0.00    -0.466 SA 
HETATM    6  H   UNL     1     -13.787  10.295  72.401  1.00  0.00     0.000 H  
ENDROOT
BRANCH   3   7
HETATM    7  C   UNL     1     -10.941   9.139  71.604  1.00  0.00    -0.374 C  
HETATM    8  C   UNL     1     -10.177   9.686  70.408  1.00  0.00    -0.288 C  
HETATM    9  S   UNL     1      -9.887   8.043  72.654  1.00  0.00    -0.297 SA 
HETATM   10  O   UNL     1      -8.932   9.194  70.227  1.00  0.00    -0.178 OA 
HETATM   11  O   UNL     1     -10.648  10.536  69.666  1.00  0.00    -0.236 OA 
HETATM   12  H   UNL     1      -8.694   8.615  73.079  1.00  0.00     0.000 H  
ENDBRANCH   3   7
TORSDOF 1
ENDMDL
MODEL       64
REMARK 921   NORMALIZED FREE ENERGY PREDICTED BY IDOCK:   -3.02 KCAL/MOL
REMARK 922        TOTAL FREE ENERGY PREDICTED BY IDOCK:   -3.14 KCAL/MOL
REMARK 923 INTER-LIGAND FREE ENERGY PREDICTED BY IDOCK:   -3.44 KCAL/MOL
REMARK 924 INTRA-LIGAND FREE ENERGY PREDICTED BY IDOCK:    0.30 KCAL/MOL
REMARK 927      BINDING AFFINITY PREDICTED BY RF-SCORE:    0.00 PKD
ROOT
HETATM    1  O   UNL     1     -10.719  17.647  65.304  1.00  0.00    -0.649 OA 
HETATM    2  C   UNL     1     -10.449  18.718  66.085  1.00  0.00    -0.446 C  
HETATM    3  C   UNL     1      -9.882  18.391  67.460  1.00  0.00    -0.314 C  
HETATM    4  O   UNL     1     -10.606  19.859  65.678  1.00  0.00    -0.495 OA 
HETATM    5  S   UNL     1     -10.531  16.764  68.053  1.00  0.00    -0.346 SA 
HETATM    6  H   UNL     1     -10.014  16.466  69.308  1.00  0.00     0.000 H  
ENDROOT
BRANCH   3   7
HETATM    7  C   UNL     1      -8.348  18.441  67.465  1.00  0.00    -0.252 C  
HETATM    8  C   UNL     1      -7.787  17.029  67.375  1.00  0.00    -0.171 C  
HETATM    9  S   UNL     1      -7.609  19.389  68.867  1.00  0.00    -0.327 SA 
HETATM   10  O   UNL     1      -6.968  16.655  68.381  1.00  0.00    -0.149 OA 
HETATM   11  O   UNL     1      -8.042  16.285  66.440  1.00  0.00    -0.291 OA 
HETATM   12  H   UNL     1      -6.220  19.434  68.872  1.00  0.00     0.000 H  
ENDBRANCH   3   7
TORSDOF 1
ENDMDL
MODEL       65
REMARK 921   NORMALIZED FREE ENERGY PREDICTED BY IDOCK:   -3.02 KCAL/MOL
REMARK 922        TOTAL FREE ENERGY PREDICTED BY IDOCK:   -3.13 KCAL/MOL
REMARK 923 INTER-LIGAND FREE ENERGY PREDICTED BY IDOCK:   -3.14 KCAL/MOL
REMARK 924 INTRA-LIGAND FREE ENERGY PREDICTED BY IDOCK:    0.01 KCAL/MOL
REMARK 927      BINDING AFFINITY PREDICTED BY RF-SCORE:    0.00 PKD
ROOT
HETATM    1  O   UNL     1      -9.711  13.759  67.311  1.00  0.00    -0.231 OA 
HETATM    2  C   UNL     1      -8.938  14.794  66.908  1.00  0.00    -0.253 C  
HETATM    3  C   UNL     1      -9.631  15.808  66.007  1.00  0.00    -0.353 C  
HETATM    4  O   UNL     1      -7.786  14.916  67.293  1.00  0.00    -0.192 OA 
HETATM    5  S   UNL     1     -10.935  14.979  64.990  1.00  0.00    -0.430 SA 
HETATM    6  H   UNL     1     -11.567  15.903  64.167  1.00  0.00     0.000 H  
ENDROOT
BRANCH   3   7
HETATM    7  C   UNL     1     -10.187  16.991  66.810  1.00  0.00    -0.298 C  
HETATM    8  C   UNL     1      -9.139  18.091  66.899  1.00  0.00    -0.269 C  
HETATM    9  S   UNL     1     -10.865  16.548  68.471  1.00  0.00    -0.351 SA 
HETATM   10  O   UNL     1      -8.778  18.463  68.146  1.00  0.00    -0.285 OA 
HETATM   11  O   UNL     1      -8.665  18.622  65.905  1.00  0.00    -0.481 OA 
HETATM   12  H   UNL     1     -11.368  17.620  69.198  1.00  0.00     0.000 H  
ENDBRANCH   3   7
TORSDOF 1
ENDMDL
MODEL       66
REMARK 921   NORMALIZED FREE ENERGY PREDICTED BY IDOCK:   -2.95 KCAL/MOL
REMARK 922        TOTAL FREE ENERGY PREDICTED BY IDOCK:   -3.06 KCAL/MOL
REMARK 923 INTER-LIGAND FREE ENERGY PREDICTED BY IDOCK:   -3.42 KCAL/MOL
REMARK 924 INTRA-LIGAND FREE ENERGY PREDICTED BY IDOCK:    0.36 KCAL/MOL
REMARK 927      BINDING AFFINITY PREDICTED BY RF-SCORE:    0.00 PKD
ROOT
HETATM    1  O   UNL     1     -12.074  14.665  72.504  1.00  0.00    -0.260 OA 
HETATM    2  C   UNL     1     -12.878  14.114  71.565  1.00  0.00    -0.354 C  
HETATM    3  C   UNL     1     -12.414  14.296  70.126  1.00  0.00    -0.335 C  
HETATM    4  O   UNL     1     -13.872  13.476  71.874  1.00  0.00    -0.404 OA 
HETATM    5  S   UNL     1     -11.483  15.884  69.947  1.00  0.00    -0.343 SA 
HETATM    6  H   UNL     1     -11.060  16.050  68.634  1.00  0.00     0.000 H  
ENDROOT
BRANCH   3   7
HETATM    7  C   UNL     1     -11.602  13.089  69.638  1.00  0.00    -0.253 C  
HETATM    8  C   UNL     1     -11.779  12.924  68.135  1.00  0.00    -0.352 C  
HETATM    9  S   UNL     1     -11.932  11.516  70.548  1.00  0.00    -0.275 SA 
HETATM   10  O   UNL     1     -12.266  11.733  67.725  1.00  0.00    -0.536 OA 
HETATM   11  O   UNL     1     -11.478  13.805  67.343  1.00  0.00    -0.311 OA 
HETATM   12  H   UNL     1     -11.196  10.422  70.105  1.00  0.00     0.000 H  
ENDBRANCH   3   7
TORSDOF 1
ENDMDL
MODEL       67
REMARK 921   NORMALIZED FREE ENERGY PREDICTED BY IDOCK:   -2.95 KCAL/MOL
REMARK 922        TOTAL FREE ENERGY PREDICTED BY IDOCK:   -3.06 KCAL/MOL
REMARK 923 INTER-LIGAND FREE ENERGY PREDICTED BY IDOCK:   -3.14 KCAL/MOL
REMARK 924 INTRA-LIGAND FREE ENERGY PREDICTED BY IDOCK:    0.08 KCAL/MOL
REMARK 927      BINDING AFFINITY PREDICTED BY RF-SCORE:    0.00 PKD
ROOT
HETATM    1  O   UNL     1     -11.946  11.608  66.787  1.00  0.00    -0.536 OA 
HETATM    2  C   UNL     1     -11.320  12.646  67.387  1.00  0.00    -0.313 C  
HETATM    3  C   UNL     1      -9.932  12.966  66.848  1.00  0.00    -0.238 C  
HETATM    4  O   UNL     1     -11.867  13.300  68.261  1.00  0.00    -0.333 OA 
HETATM    5  S   UNL     1      -9.112  11.427  66.229  1.00  0.00    -0.204 SA 
HETATM    6  H   UNL     1      -7.846  11.719  65.737  1.00  0.00     0.000 H  
ENDROOT
BRANCH   3   7
HETATM    7  C   UNL     1      -9.981  14.066  65.780  1.00  0.00    -0.298 C  
HETATM    8  C   UNL     1      -9.430  15.364  66.351  1.00  0.00    -0.296 C  
HETATM    9  S   UNL     1     -11.635  14.307  64.992  1.00  0.00    -0.386 SA 
HETATM   10  O   UNL     1     -10.265  16.425  66.320  1.00  0.00    -0.301 OA 
HETATM   11  O   UNL     1      -8.293  15.451  66.793  1.00  0.00    -0.235 OA 
HETATM   12  H   UNL     1     -11.680  15.304  64.025  1.00  0.00     0.000 H  
ENDBRANCH   3   7
TORSDOF 1
ENDMDL
MODEL       68
REMARK 921   NORMALIZED FREE ENERGY PREDICTED BY IDOCK:   -2.95 KCAL/MOL
REMARK 922        TOTAL FREE ENERGY PREDICTED BY IDOCK:   -3.06 KCAL/MOL
REMARK 923 INTER-LIGAND FREE ENERGY PREDICTED BY IDOCK:   -3.07 KCAL/MOL
REMARK 924 INTRA-LIGAND FREE ENERGY PREDICTED BY IDOCK:    0.01 KCAL/MOL
REMARK 927      BINDING AFFINITY PREDICTED BY RF-SCORE:    0.00 PKD
ROOT
HETATM    1  O   UNL     1     -12.321  13.824  67.144  1.00  0.00    -0.357 OA 
HETATM    2  C   UNL     1     -11.529  14.859  67.508  1.00  0.00    -0.348 C  
HETATM    3  C   UNL     1     -10.125  14.838  66.919  1.00  0.00    -0.246 C  
HETATM    4  O   UNL     1     -11.946  15.761  68.217  1.00  0.00    -0.220 OA 
HETATM    5  S   UNL     1      -9.564  13.095  66.654  1.00  0.00    -0.260 SA 
HETATM    6  H   UNL     1      -8.283  13.076  66.116  1.00  0.00     0.000 H  
ENDROOT
BRANCH   3   7
HETATM    7  C   UNL     1     -10.038  15.677  65.637  1.00  0.00    -0.365 C  
HETATM    8  C   UNL     1      -9.755  17.130  65.991  1.00  0.00    -0.189 C  
HETATM    9  S   UNL     1     -11.488  15.512  64.504  1.00  0.00    -0.209 SA 
HETATM   10  O   UNL     1     -10.659  18.031  65.550  1.00  0.00    -0.639 OA 
HETATM   11  O   UNL     1      -8.760  17.466  66.617  1.00  0.00    -0.237 OA 
HETATM   12  H   UNL     1     -11.409  16.272  63.343  1.00  0.00     0.000 H  
ENDBRANCH   3   7
TORSDOF 1
ENDMDL
MODEL       69
REMARK 921   NORMALIZED FREE ENERGY PREDICTED BY IDOCK:   -2.94 KCAL/MOL
REMARK 922        TOTAL FREE ENERGY PREDICTED BY IDOCK:   -3.05 KCAL/MOL
REMARK 923 INTER-LIGAND FREE ENERGY PREDICTED BY IDOCK:   -3.22 KCAL/MOL
REMARK 924 INTRA-LIGAND FREE ENERGY PREDICTED BY IDOCK:    0.17 KCAL/MOL
REMARK 927      BINDING AFFINITY PREDICTED BY RF-SCORE:    0.00 PKD
ROOT
HETATM    1  O   UNL     1     -10.758  13.292  64.750  1.00  0.00    -0.333 OA 
HETATM    2  C   UNL     1     -11.571  12.415  65.383  1.00  0.00    -0.381 C  
HETATM    3  C   UNL     1     -10.859  11.365  66.227  1.00  0.00    -0.263 C  
HETATM    4  O   UNL     1     -12.786  12.508  65.312  1.00  0.00    -0.654 OA 
HETATM    5  S   UNL     1      -9.206  10.967  65.499  1.00  0.00    -0.214 SA 
HETATM    6  H   UNL     1      -8.557  10.009  66.269  1.00  0.00     0.000 H  
ENDROOT
BRANCH   3   7
HETATM    7  C   UNL     1     -10.758  11.795  67.696  1.00  0.00    -0.214 C  
HETATM    8  C   UNL     1     -11.319  10.701  68.593  1.00  0.00    -0.281 C  
HETATM    9  S   UNL     1     -11.501  13.444  68.073  1.00  0.00    -0.326 SA 
HETATM   10  O   UNL     1     -12.337  11.065  69.402  1.00  0.00    -0.348 OA 
HETATM   11  O   UNL     1     -10.864   9.566  68.599  1.00  0.00    -0.209 OA 
HETATM   12  H   UNL     1     -11.409  13.834  69.404  1.00  0.00     0.000 H  
ENDBRANCH   3   7
TORSDOF 1
ENDMDL
MODEL       70
REMARK 921   NORMALIZED FREE ENERGY PREDICTED BY IDOCK:   -2.94 KCAL/MOL
REMARK 922        TOTAL FREE ENERGY PREDICTED BY IDOCK:   -3.05 KCAL/MOL
REMARK 923 INTER-LIGAND FREE ENERGY PREDICTED BY IDOCK:   -3.34 KCAL/MOL
REMARK 924 INTRA-LIGAND FREE ENERGY PREDICTED BY IDOCK:    0.29 KCAL/MOL
REMARK 927      BINDING AFFINITY PREDICTED BY RF-SCORE:    0.00 PKD
ROOT
HETATM    1  O   UNL     1     -10.351  18.370  68.071  1.00  0.00    -0.366 OA 
HETATM    2  C   UNL     1     -10.097  17.649  66.955  1.00  0.00    -0.331 C  
HETATM    3  C   UNL     1      -9.801  16.174  67.189  1.00  0.00    -0.241 C  
HETATM    4  O   UNL     1     -10.158  18.153  65.844  1.00  0.00    -0.546 OA 
HETATM    5  S   UNL     1      -8.987  15.935  68.833  1.00  0.00    -0.242 SA 
HETATM    6  H   UNL     1      -8.716  14.588  69.047  1.00  0.00     0.000 H  
ENDROOT
BRANCH   3   7
HETATM    7  C   UNL     1     -11.062  15.314  67.037  1.00  0.00    -0.305 C  
HETATM    8  C   UNL     1     -11.668  15.039  68.406  1.00  0.00    -0.317 C  
HETATM    9  S   UNL     1     -10.828  13.761  66.063  1.00  0.00    -0.285 SA 
HETATM   10  O   UNL     1     -11.806  13.738  68.740  1.00  0.00    -0.325 OA 
HETATM   11  O   UNL     1     -12.028  15.938  69.151  1.00  0.00    -0.380 OA 
HETATM   12  H   UNL     1     -11.970  12.982  65.924  1.00  0.00     0.000 H  
ENDBRANCH   3   7
TORSDOF 1
ENDMDL
MODEL       71
REMARK 921   NORMALIZED FREE ENERGY PREDICTED BY IDOCK:   -2.93 KCAL/MOL
REMARK 922        TOTAL FREE ENERGY PREDICTED BY IDOCK:   -3.04 KCAL/MOL
REMARK 923 INTER-LIGAND FREE ENERGY PREDICTED BY IDOCK:   -3.06 KCAL/MOL
REMARK 924 INTRA-LIGAND FREE ENERGY PREDICTED BY IDOCK:    0.02 KCAL/MOL
REMARK 927      BINDING AFFINITY PREDICTED BY RF-SCORE:    0.00 PKD
ROOT
HETATM    1  O   UNL     1     -11.145   9.727  69.805  1.00  0.00    -0.239 OA 
HETATM    2  C   UNL     1     -10.524   9.366  70.951  1.00  0.00    -0.310 C  
HETATM    3  C   UNL     1     -11.439   8.825  72.041  1.00  0.00    -0.371 C  
HETATM    4  O   UNL     1      -9.310   9.428  71.065  1.00  0.00    -0.240 OA 
HETATM    5  S   UNL     1     -13.111   9.607  71.924  1.00  0.00    -0.456 SA 
HETATM    6  H   UNL     1     -13.947   9.113  72.919  1.00  0.00     0.000 H  
ENDROOT
BRANCH   3   7
HETATM    7  C   UNL     1     -11.512   7.292  72.009  1.00  0.00    -0.269 C  
HETATM    8  C   UNL     1     -10.480   6.707  72.961  1.00  0.00    -0.243 C  
HETATM    9  S   UNL     1     -11.394   6.548  70.322  1.00  0.00    -0.415 SA 
HETATM   10  O   UNL     1      -9.578   5.865  72.411  1.00  0.00    -0.156 OA 
HETATM   11  O   UNL     1     -10.476   6.964  74.156  1.00  0.00    -0.357 OA 
HETATM   12  H   UNL     1     -11.460   5.160  70.292  1.00  0.00     0.000 H  
ENDBRANCH   3   7
TORSDOF 1
ENDMDL
MODEL       72
REMARK 921   NORMALIZED FREE ENERGY PREDICTED BY IDOCK:   -2.92 KCAL/MOL
REMARK 922        TOTAL FREE ENERGY PREDICTED BY IDOCK:   -3.03 KCAL/MOL
REMARK 923 INTER-LIGAND FREE ENERGY PREDICTED BY IDOCK:   -3.34 KCAL/MOL
REMARK 924 INTRA-LIGAND FREE ENERGY PREDICTED BY IDOCK:    0.30 KCAL/MOL
REMARK 927      BINDING AFFINITY PREDICTED BY RF-SCORE:    0.00 PKD
ROOT
HETATM    1  O   UNL     1      -9.077  18.571  65.866  1.00  0.00    -0.477 OA 
HETATM    2  C   UNL     1     -10.225  18.511  66.580  1.00  0.00    -0.399 C  
HETATM    3  C   UNL     1     -10.521  17.161  67.219  1.00  0.00    -0.313 C  
HETATM    4  O   UNL     1     -10.931  19.495  66.732  1.00  0.00    -0.436 OA 
HETATM    5  S   UNL     1      -9.825  15.794  66.186  1.00  0.00    -0.343 SA 
HETATM    6  H   UNL     1     -10.096  14.562  66.769  1.00  0.00     0.000 H  
ENDROOT
BRANCH   3   7
HETATM    7  C   UNL     1     -10.026  17.102  68.670  1.00  0.00    -0.313 C  
HETATM    8  C   UNL     1      -8.607  16.552  68.708  1.00  0.00    -0.262 C  
HETATM    9  S   UNL     1     -11.145  16.205  69.834  1.00  0.00    -0.352 SA 
HETATM   10  O   UNL     1      -8.424  15.443  69.457  1.00  0.00    -0.256 OA 
HETATM   11  O   UNL     1      -7.683  17.091  68.116  1.00  0.00    -0.184 OA 
HETATM   12  H   UNL     1     -10.696  16.152  71.149  1.00  0.00     0.000 H  
ENDBRANCH   3   7
TORSDOF 1
ENDMDL
MODEL       73
REMARK 921   NORMALIZED FREE ENERGY PREDICTED BY IDOCK:   -2.89 KCAL/MOL
REMARK 922        TOTAL FREE ENERGY PREDICTED BY IDOCK:   -3.00 KCAL/MOL
REMARK 923 INTER-LIGAND FREE ENERGY PREDICTED BY IDOCK:   -3.02 KCAL/MOL
REMARK 924 INTRA-LIGAND FREE ENERGY PREDICTED BY IDOCK:    0.02 KCAL/MOL
REMARK 927      BINDING AFFINITY PREDICTED BY RF-SCORE:    0.00 PKD
ROOT
HETATM    1  O   UNL     1     -11.441   5.229  72.875  1.00  0.00    -0.307 OA 
HETATM    2  C   UNL     1     -10.863   6.449  72.776  1.00  0.00    -0.248 C  
HETATM    3  C   UNL     1     -10.622   6.939  71.354  1.00  0.00    -0.219 C  
HETATM    4  O   UNL     1     -10.610   7.115  73.767  1.00  0.00    -0.377 OA 
HETATM    5  S   UNL     1     -10.312   5.508  70.224  1.00  0.00    -0.290 SA 
HETATM    6  H   UNL     1     -10.092   5.955  68.927  1.00  0.00     0.000 H  
ENDROOT
BRANCH   3   7
HETATM    7  C   UNL     1     -11.771   7.829  70.862  1.00  0.00    -0.265 C  
HETATM    8  C   UNL     1     -11.447   9.290  71.139  1.00  0.00    -0.333 C  
HETATM    9  S   UNL     1     -13.441   7.360  71.498  1.00  0.00    -0.311 SA 
HETATM   10  O   UNL     1     -12.338   9.958  71.903  1.00  0.00    -0.380 OA 
HETATM   11  O   UNL     1     -10.452   9.834  70.683  1.00  0.00    -0.289 OA 
HETATM   12  H   UNL     1     -14.482   8.166  71.052  1.00  0.00     0.000 H  
ENDBRANCH   3   7
TORSDOF 1
ENDMDL
MODEL       74
REMARK 921   NORMALIZED FREE ENERGY PREDICTED BY IDOCK:   -2.89 KCAL/MOL
REMARK 922        TOTAL FREE ENERGY PREDICTED BY IDOCK:   -2.99 KCAL/MOL
REMARK 923 INTER-LIGAND FREE ENERGY PREDICTED BY IDOCK:   -3.28 KCAL/MOL
REMARK 924 INTRA-LIGAND FREE ENERGY PREDICTED BY IDOCK:    0.29 KCAL/MOL
REMARK 927      BINDING AFFINITY PREDICTED BY RF-SCORE:    0.00 PKD
ROOT
HETATM    1  O   UNL     1     -10.468   7.342  73.605  1.00  0.00    -0.360 OA 
HETATM    2  C   UNL     1      -9.878   8.115  72.664  1.00  0.00    -0.294 C  
HETATM    3  C   UNL     1     -10.689   8.320  71.392  1.00  0.00    -0.227 C  
HETATM    4  O   UNL     1      -8.795   8.643  72.862  1.00  0.00    -0.367 OA 
HETATM    5  S   UNL     1     -11.749   6.841  71.059  1.00  0.00    -0.370 SA 
HETATM    6  H   UNL     1     -12.489   7.028  69.898  1.00  0.00     0.000 H  
ENDROOT
BRANCH   3   7
HETATM    7  C   UNL     1     -11.505   9.618  71.445  1.00  0.00    -0.385 C  
HETATM    8  C   UNL     1     -12.932   9.312  71.880  1.00  0.00    -0.411 C  
HETATM    9  S   UNL     1     -11.457  10.627  69.898  1.00  0.00    -0.342 SA 
HETATM   10  O   UNL     1     -13.904   9.693  71.024  1.00  0.00    -0.219 OA 
HETATM   11  O   UNL     1     -13.186   8.775  72.948  1.00  0.00    -0.307 OA 
HETATM   12  H   UNL     1     -12.197  11.803  69.947  1.00  0.00     0.000 H  
ENDBRANCH   3   7
TORSDOF 1
ENDMDL
MODEL       75
REMARK 921   NORMALIZED FREE ENERGY PREDICTED BY IDOCK:   -2.87 KCAL/MOL
REMARK 922        TOTAL FREE ENERGY PREDICTED BY IDOCK:   -2.98 KCAL/MOL
REMARK 923 INTER-LIGAND FREE ENERGY PREDICTED BY IDOCK:   -3.31 KCAL/MOL
REMARK 924 INTRA-LIGAND FREE ENERGY PREDICTED BY IDOCK:    0.34 KCAL/MOL
REMARK 927      BINDING AFFINITY PREDICTED BY RF-SCORE:    0.00 PKD
ROOT
HETATM    1  O   UNL     1     -13.681   8.623  72.215  1.00  0.00    -0.391 OA 
HETATM    2  C   UNL     1     -12.787   9.594  71.913  1.00  0.00    -0.425 C  
HETATM    3  C   UNL     1     -11.350   9.120  71.738  1.00  0.00    -0.381 C  
HETATM    4  O   UNL     1     -13.136  10.751  71.747  1.00  0.00    -0.458 OA 
HETATM    5  S   UNL     1     -11.022   7.650  72.812  1.00  0.00    -0.401 SA 
HETATM    6  H   UNL     1      -9.711   7.218  72.652  1.00  0.00     0.000 H  
ENDROOT
BRANCH   3   7
HETATM    7  C   UNL     1     -11.022   8.846  70.264  1.00  0.00    -0.241 C  
HETATM    8  C   UNL     1     -11.014   7.345  70.009  1.00  0.00    -0.248 C  
HETATM    9  S   UNL     1      -9.481   9.658  69.650  1.00  0.00    -0.223 SA 
HETATM   10  O   UNL     1      -9.864   6.837  69.516  1.00  0.00    -0.156 OA 
HETATM   11  O   UNL     1     -11.993   6.643  70.215  1.00  0.00    -0.387 OA 
HETATM   12  H   UNL     1      -9.184   9.410  68.315  1.00  0.00     0.000 H  
ENDBRANCH   3   7
TORSDOF 1
ENDMDL
MODEL       76
REMARK 921   NORMALIZED FREE ENERGY PREDICTED BY IDOCK:   -2.87 KCAL/MOL
REMARK 922        TOTAL FREE ENERGY PREDICTED BY IDOCK:   -2.97 KCAL/MOL
REMARK 923 INTER-LIGAND FREE ENERGY PREDICTED BY IDOCK:   -3.20 KCAL/MOL
REMARK 924 INTRA-LIGAND FREE ENERGY PREDICTED BY IDOCK:    0.23 KCAL/MOL
REMARK 927      BINDING AFFINITY PREDICTED BY RF-SCORE:    0.00 PKD
ROOT
HETATM    1  O   UNL     1     -10.969  15.764  67.445  1.00  0.00    -0.320 OA 
HETATM    2  C   UNL     1     -11.576  14.607  67.093  1.00  0.00    -0.378 C  
HETATM    3  C   UNL     1     -11.485  14.251  65.615  1.00  0.00    -0.329 C  
HETATM    4  O   UNL     1     -12.108  13.888  67.925  1.00  0.00    -0.366 OA 
HETATM    5  S   UNL     1     -11.418  15.786  64.587  1.00  0.00    -0.179 SA 
HETATM    6  H   UNL     1     -11.335  15.461  63.238  1.00  0.00     0.000 H  
ENDROOT
BRANCH   3   7
HETATM    7  C   UNL     1     -10.305  13.311  65.333  1.00  0.00    -0.306 C  
HETATM    8  C   UNL     1     -10.733  12.228  64.352  1.00  0.00    -0.331 C  
HETATM    9  S   UNL     1      -9.504  12.601  66.838  1.00  0.00    -0.233 SA 
HETATM   10  O   UNL     1     -10.591  10.955  64.780  1.00  0.00    -0.315 OA 
HETATM   11  O   UNL     1     -11.158  12.490  63.237  1.00  0.00    -0.438 OA 
HETATM   12  H   UNL     1      -8.435  11.749  66.582  1.00  0.00     0.000 H  
ENDBRANCH   3   7
TORSDOF 1
ENDMDL
MODEL       77
REMARK 921   NORMALIZED FREE ENERGY PREDICTED BY IDOCK:   -2.86 KCAL/MOL
REMARK 922        TOTAL FREE ENERGY PREDICTED BY IDOCK:   -2.96 KCAL/MOL
REMARK 923 INTER-LIGAND FREE ENERGY PREDICTED BY IDOCK:   -3.02 KCAL/MOL
REMARK 924 INTRA-LIGAND FREE ENERGY PREDICTED BY IDOCK:    0.06 KCAL/MOL
REMARK 927      BINDING AFFINITY PREDICTED BY RF-SCORE:    0.00 PKD
ROOT
HETATM    1  O   UNL     1     -13.021   8.420  72.174  1.00  0.00    -0.339 OA 
HETATM    2  C   UNL     1     -11.948   9.170  71.832  1.00  0.00    -0.373 C  
HETATM    3  C   UNL     1     -10.602   8.470  71.956  1.00  0.00    -0.338 C  
HETATM    4  O   UNL     1     -12.077  10.307  71.407  1.00  0.00    -0.372 OA 
HETATM    5  S   UNL     1     -10.649   7.219  73.318  1.00  0.00    -0.383 SA 
HETATM    6  H   UNL     1      -9.420   6.581  73.431  1.00  0.00     0.000 H  
ENDROOT
BRANCH   3   7
HETATM    7  C   UNL     1     -10.160   7.856  70.621  1.00  0.00    -0.194 C  
HETATM    8  C   UNL     1      -9.929   8.959  69.598  1.00  0.00    -0.191 C  
HETATM    9  S   UNL     1     -11.274   6.534  69.970  1.00  0.00    -0.415 SA 
HETATM   10  O   UNL     1     -10.659   8.875  68.464  1.00  0.00    -0.204 OA 
HETATM   11  O   UNL     1      -9.119   9.856  69.778  1.00  0.00    -0.212 OA 
HETATM   12  H   UNL     1     -10.873   5.978  68.760  1.00  0.00     0.000 H  
ENDBRANCH   3   7
TORSDOF 1
ENDMDL
MODEL       78
REMARK 921   NORMALIZED FREE ENERGY PREDICTED BY IDOCK:   -2.86 KCAL/MOL
REMARK 922        TOTAL FREE ENERGY PREDICTED BY IDOCK:   -2.96 KCAL/MOL
REMARK 923 INTER-LIGAND FREE ENERGY PREDICTED BY IDOCK:   -3.01 KCAL/MOL
REMARK 924 INTRA-LIGAND FREE ENERGY PREDICTED BY IDOCK:    0.05 KCAL/MOL
REMARK 927      BINDING AFFINITY PREDICTED BY RF-SCORE:    0.00 PKD
ROOT
HETATM    1  O   UNL     1      -8.721  15.702  66.991  1.00  0.00    -0.196 OA 
HETATM    2  C   UNL     1      -9.092  15.555  68.284  1.00  0.00    -0.186 C  
HETATM    3  C   UNL     1     -10.193  16.497  68.753  1.00  0.00    -0.267 C  
HETATM    4  O   UNL     1      -8.603  14.689  68.992  1.00  0.00    -0.164 OA 
HETATM    5  S   UNL     1     -10.103  18.100  67.835  1.00  0.00    -0.376 SA 
HETATM    6  H   UNL     1     -11.108  18.959  68.264  1.00  0.00     0.000 H  
ENDROOT
BRANCH   3   7
HETATM    7  C   UNL     1     -11.577  15.844  68.646  1.00  0.00    -0.380 C  
HETATM    8  C   UNL     1     -12.027  15.361  70.017  1.00  0.00    -0.356 C  
HETATM    9  S   UNL     1     -11.710  14.516  67.368  1.00  0.00    -0.384 SA 
HETATM   10  O   UNL     1     -12.311  14.044  70.115  1.00  0.00    -0.329 OA 
HETATM   11  O   UNL     1     -12.145  16.119  70.969  1.00  0.00    -0.376 OA 
HETATM   12  H   UNL     1     -12.965  13.925  67.271  1.00  0.00     0.000 H  
ENDBRANCH   3   7
TORSDOF 1
ENDMDL
MODEL       79
REMARK 921   NORMALIZED FREE ENERGY PREDICTED BY IDOCK:   -2.85 KCAL/MOL
REMARK 922        TOTAL FREE ENERGY PREDICTED BY IDOCK:   -2.96 KCAL/MOL
REMARK 923 INTER-LIGAND FREE ENERGY PREDICTED BY IDOCK:   -2.99 KCAL/MOL
REMARK 924 INTRA-LIGAND FREE ENERGY PREDICTED BY IDOCK:    0.03 KCAL/MOL
REMARK 927      BINDING AFFINITY PREDICTED BY RF-SCORE:    0.00 PKD
ROOT
HETATM    1  O   UNL     1     -12.278  14.254  66.988  1.00  0.00    -0.424 OA 
HETATM    2  C   UNL     1     -11.955  12.941  66.929  1.00  0.00    -0.335 C  
HETATM    3  C   UNL     1     -11.379  12.474  65.599  1.00  0.00    -0.335 C  
HETATM    4  O   UNL     1     -12.075  12.212  67.901  1.00  0.00    -0.502 OA 
HETATM    5  S   UNL     1     -12.079  13.473  64.208  1.00  0.00    -0.422 SA 
HETATM    6  H   UNL     1     -11.554  13.047  62.994  1.00  0.00     0.000 H  
ENDROOT
BRANCH   3   7
HETATM    7  C   UNL     1      -9.844  12.493  65.610  1.00  0.00    -0.216 C  
HETATM    8  C   UNL     1      -9.314  11.099  65.913  1.00  0.00    -0.212 C  
HETATM    9  S   UNL     1      -9.094  13.771  66.714  1.00  0.00    -0.180 SA 
HETATM   10  O   UNL     1      -8.511  10.994  66.994  1.00  0.00    -0.134 OA 
HETATM   11  O   UNL     1      -9.579  10.134  65.210  1.00  0.00    -0.232 OA 
HETATM   12  H   UNL     1      -7.704  13.788  66.725  1.00  0.00     0.000 H  
ENDBRANCH   3   7
TORSDOF 1
ENDMDL
MODEL       80
REMARK 921   NORMALIZED FREE ENERGY PREDICTED BY IDOCK:   -2.85 KCAL/MOL
REMARK 922        TOTAL FREE ENERGY PREDICTED BY IDOCK:   -2.95 KCAL/MOL
REMARK 923 INTER-LIGAND FREE ENERGY PREDICTED BY IDOCK:   -3.02 KCAL/MOL
REMARK 924 INTRA-LIGAND FREE ENERGY PREDICTED BY IDOCK:    0.06 KCAL/MOL
REMARK 927      BINDING AFFINITY PREDICTED BY RF-SCORE:    0.00 PKD
ROOT
HETATM    1  O   UNL     1     -12.918   7.788  71.270  1.00  0.00    -0.299 OA 
HETATM    2  C   UNL     1     -12.767   9.132  71.234  1.00  0.00    -0.278 C  
HETATM    3  C   UNL     1     -11.332   9.626  71.360  1.00  0.00    -0.374 C  
HETATM    4  O   UNL     1     -13.720   9.875  71.060  1.00  0.00    -0.268 OA 
HETATM    5  S   UNL     1     -10.338   8.459  72.395  1.00  0.00    -0.302 SA 
HETATM    6  H   UNL     1      -9.029   8.910  72.511  1.00  0.00     0.000 H  
ENDROOT
BRANCH   3   7
HETATM    7  C   UNL     1     -10.695   9.868  69.985  1.00  0.00    -0.292 C  
HETATM    8  C   UNL     1     -11.446  10.974  69.257  1.00  0.00    -0.300 C  
HETATM    9  S   UNL     1     -10.512   8.355  68.941  1.00  0.00    -0.148 SA 
HETATM   10  O   UNL     1     -11.965  10.642  68.055  1.00  0.00    -0.457 OA 
HETATM   11  O   UNL     1     -11.556  12.100  69.719  1.00  0.00    -0.297 OA 
HETATM   12  H   UNL     1      -9.935   8.574  67.695  1.00  0.00     0.000 H  
ENDBRANCH   3   7
TORSDOF 1
ENDMDL
MODEL       81
REMARK 921   NORMALIZED FREE ENERGY PREDICTED BY IDOCK:   -2.85 KCAL/MOL
REMARK 922        TOTAL FREE ENERGY PREDICTED BY IDOCK:   -2.95 KCAL/MOL
REMARK 923 INTER-LIGAND FREE ENERGY PREDICTED BY IDOCK:   -3.25 KCAL/MOL
REMARK 924 INTRA-LIGAND FREE ENERGY PREDICTED BY IDOCK:    0.30 KCAL/MOL
REMARK 927      BINDING AFFINITY PREDICTED BY RF-SCORE:    0.00 PKD
ROOT
HETATM    1  O   UNL     1      -7.813  17.125  65.942  1.00  0.00    -0.477 OA 
HETATM    2  C   UNL     1      -7.805  16.070  66.789  1.00  0.00    -0.253 C  
HETATM    3  C   UNL     1      -9.160  15.699  67.375  1.00  0.00    -0.194 C  
HETATM    4  O   UNL     1      -6.782  15.442  67.013  1.00  0.00    -0.261 OA 
HETATM    5  S   UNL     1     -10.223  17.204  67.542  1.00  0.00    -0.333 SA 
HETATM    6  H   UNL     1     -11.459  16.865  68.078  1.00  0.00     0.000 H  
ENDROOT
BRANCH   3   7
HETATM    7  C   UNL     1      -9.844  14.593  66.561  1.00  0.00    -0.275 C  
HETATM    8  C   UNL     1     -10.875  15.206  65.624  1.00  0.00    -0.360 C  
HETATM    9  S   UNL     1     -10.558  13.219  67.568  1.00  0.00    -0.248 SA 
HETATM   10  O   UNL     1     -12.142  14.761  65.768  1.00  0.00    -0.247 OA 
HETATM   11  O   UNL     1     -10.575  16.036  64.778  1.00  0.00    -0.600 OA 
HETATM   12  H   UNL     1     -11.178  12.217  66.830  1.00  0.00     0.000 H  
ENDBRANCH   3   7
TORSDOF 1
ENDMDL
MODEL       82
REMARK 921   NORMALIZED FREE ENERGY PREDICTED BY IDOCK:   -2.83 KCAL/MOL
REMARK 922        TOTAL FREE ENERGY PREDICTED BY IDOCK:   -2.94 KCAL/MOL
REMARK 923 INTER-LIGAND FREE ENERGY PREDICTED BY IDOCK:   -2.95 KCAL/MOL
REMARK 924 INTRA-LIGAND FREE ENERGY PREDICTED BY IDOCK:    0.02 KCAL/MOL
REMARK 927      BINDING AFFINITY PREDICTED BY RF-SCORE:    0.00 PKD
ROOT
HETATM    1  O   UNL     1     -13.169   7.003  71.524  1.00  0.00    -0.375 OA 
HETATM    2  C   UNL     1     -12.271   7.854  72.071  1.00  0.00    -0.317 C  
HETATM    3  C   UNL     1     -10.948   7.224  72.483  1.00  0.00    -0.282 C  
HETATM    4  O   UNL     1     -12.505   9.048  72.170  1.00  0.00    -0.364 OA 
HETATM    5  S   UNL     1     -11.203   5.462  72.985  1.00  0.00    -0.291 SA 
HETATM    6  H   UNL     1      -9.995   4.887  73.361  1.00  0.00     0.000 H  
ENDROOT
BRANCH   3   7
HETATM    7  C   UNL     1      -9.888   7.366  71.383  1.00  0.00    -0.185 C  
HETATM    8  C   UNL     1      -9.065   8.625  71.619  1.00  0.00    -0.247 C  
HETATM    9  S   UNL     1     -10.546   7.285  69.659  1.00  0.00    -0.236 SA 
HETATM   10  O   UNL     1      -9.060   9.524  70.611  1.00  0.00    -0.245 OA 
HETATM   11  O   UNL     1      -8.430   8.805  72.647  1.00  0.00    -0.413 OA 
HETATM   12  H   UNL     1      -9.586   7.414  68.662  1.00  0.00     0.000 H  
ENDBRANCH   3   7
TORSDOF 1
ENDMDL
MODEL       83
REMARK 921   NORMALIZED FREE ENERGY PREDICTED BY IDOCK:   -2.82 KCAL/MOL
REMARK 922        TOTAL FREE ENERGY PREDICTED BY IDOCK:   -2.93 KCAL/MOL
REMARK 923 INTER-LIGAND FREE ENERGY PREDICTED BY IDOCK:   -2.94 KCAL/MOL
REMARK 924 INTRA-LIGAND FREE ENERGY PREDICTED BY IDOCK:    0.01 KCAL/MOL
REMARK 927      BINDING AFFINITY PREDICTED BY RF-SCORE:    0.00 PKD
ROOT
HETATM    1  O   UNL     1      -9.718  19.622  65.886  1.00  0.00    -0.362 OA 
HETATM    2  C   UNL     1      -8.446  19.618  66.348  1.00  0.00    -0.356 C  
HETATM    3  C   UNL     1      -8.262  19.015  67.734  1.00  0.00    -0.276 C  
HETATM    4  O   UNL     1      -7.520  20.026  65.665  1.00  0.00    -0.330 OA 
HETATM    5  S   UNL     1      -9.778  19.283  68.759  1.00  0.00    -0.446 SA 
HETATM    6  H   UNL     1      -9.610  18.732  70.023  1.00  0.00     0.000 H  
ENDROOT
BRANCH   3   7
HETATM    7  C   UNL     1      -7.869  17.534  67.657  1.00  0.00    -0.201 C  
HETATM    8  C   UNL     1      -6.356  17.408  67.551  1.00  0.00    -0.147 C  
HETATM    9  S   UNL     1      -8.735  16.570  66.340  1.00  0.00    -0.343 SA 
HETATM   10  O   UNL     1      -5.893  16.748  66.467  1.00  0.00    -0.319 OA 
HETATM   11  O   UNL     1      -5.603  17.856  68.403  1.00  0.00    -0.160 OA 
HETATM   12  H   UNL     1      -8.378  15.228  66.270  1.00  0.00     0.000 H  
ENDBRANCH   3   7
TORSDOF 1
ENDMDL
MODEL       84
REMARK 921   NORMALIZED FREE ENERGY PREDICTED BY IDOCK:   -2.82 KCAL/MOL
REMARK 922        TOTAL FREE ENERGY PREDICTED BY IDOCK:   -2.92 KCAL/MOL
REMARK 923 INTER-LIGAND FREE ENERGY PREDICTED BY IDOCK:   -3.05 KCAL/MOL
REMARK 924 INTRA-LIGAND FREE ENERGY PREDICTED BY IDOCK:    0.13 KCAL/MOL
REMARK 927      BINDING AFFINITY PREDICTED BY RF-SCORE:    0.00 PKD
ROOT
HETATM    1  O   UNL     1      -9.977  15.627  65.863  1.00  0.00    -0.298 OA 
HETATM    2  C   UNL     1     -10.084  16.205  67.083  1.00  0.00    -0.269 C  
HETATM    3  C   UNL     1      -8.886  17.043  67.510  1.00  0.00    -0.211 C  
HETATM    4  O   UNL     1     -11.097  16.091  67.754  1.00  0.00    -0.327 OA 
HETATM    5  S   UNL     1      -7.331  16.367  66.772  1.00  0.00    -0.203 SA 
HETATM    6  H   UNL     1      -6.239  17.133  67.162  1.00  0.00     0.000 H  
ENDROOT
BRANCH   3   7
HETATM    7  C   UNL     1      -9.089  18.527  67.176  1.00  0.00    -0.277 C  
HETATM    8  C   UNL     1      -9.135  19.343  68.460  1.00  0.00    -0.375 C  
HETATM    9  S   UNL     1     -10.534  18.884  66.080  1.00  0.00    -0.406 SA 
HETATM   10  O   UNL     1     -10.256  20.071  68.657  1.00  0.00    -0.437 OA 
HETATM   11  O   UNL     1      -8.208  19.357  69.257  1.00  0.00    -0.249 OA 
HETATM   12  H   UNL     1     -10.717  20.228  65.778  1.00  0.00     0.000 H  
ENDBRANCH   3   7
TORSDOF 1
ENDMDL
MODEL       85
REMARK 921   NORMALIZED FREE ENERGY PREDICTED BY IDOCK:   -2.82 KCAL/MOL
REMARK 922        TOTAL FREE ENERGY PREDICTED BY IDOCK:   -2.92 KCAL/MOL
REMARK 923 INTER-LIGAND FREE ENERGY PREDICTED BY IDOCK:   -2.94 KCAL/MOL
REMARK 924 INTRA-LIGAND FREE ENERGY PREDICTED BY IDOCK:    0.01 KCAL/MOL
REMARK 927      BINDING AFFINITY PREDICTED BY RF-SCORE:    0.00 PKD
ROOT
HETATM    1  O   UNL     1      -8.111  16.396  69.032  1.00  0.00    -0.225 OA 
HETATM    2  C   UNL     1      -8.604  15.513  68.133  1.00  0.00    -0.152 C  
HETATM    3  C   UNL     1     -10.104  15.265  68.223  1.00  0.00    -0.225 C  
HETATM    4  O   UNL     1      -7.889  15.002  67.285  1.00  0.00    -0.186 OA 
HETATM    5  S   UNL     1     -10.685  15.461  69.968  1.00  0.00    -0.305 SA 
HETATM    6  H   UNL     1     -12.054  15.235  70.049  1.00  0.00     0.000 H  
ENDROOT
BRANCH   3   7
HETATM    7  C   UNL     1     -10.883  16.159  67.248  1.00  0.00    -0.235 C  
HETATM    8  C   UNL     1     -11.017  15.459  65.903  1.00  0.00    -0.293 C  
HETATM    9  S   UNL     1     -10.219  17.873  67.071  1.00  0.00    -0.368 SA 
HETATM   10  O   UNL     1     -10.518  16.125  64.839  1.00  0.00    -0.605 OA 
HETATM   11  O   UNL     1     -11.562  14.371  65.786  1.00  0.00    -0.343 OA 
HETATM   12  H   UNL     1     -10.924  18.683  66.188  1.00  0.00     0.000 H  
ENDBRANCH   3   7
TORSDOF 1
ENDMDL
MODEL       86
REMARK 921   NORMALIZED FREE ENERGY PREDICTED BY IDOCK:   -2.82 KCAL/MOL
REMARK 922        TOTAL FREE ENERGY PREDICTED BY IDOCK:   -2.92 KCAL/MOL
REMARK 923 INTER-LIGAND FREE ENERGY PREDICTED BY IDOCK:   -2.94 KCAL/MOL
REMARK 924 INTRA-LIGAND FREE ENERGY PREDICTED BY IDOCK:    0.02 KCAL/MOL
REMARK 927      BINDING AFFINITY PREDICTED BY RF-SCORE:    0.00 PKD
ROOT
HETATM    1  O   UNL     1     -10.447   8.070  68.380  1.00  0.00    -0.206 OA 
HETATM    2  C   UNL     1     -10.510   7.467  69.590  1.00  0.00    -0.234 C  
HETATM    3  C   UNL     1      -9.710   8.144  70.694  1.00  0.00    -0.170 C  
HETATM    4  O   UNL     1     -11.207   6.482  69.774  1.00  0.00    -0.335 OA 
HETATM    5  S   UNL     1      -8.221   8.984  69.988  1.00  0.00    -0.143 SA 
HETATM    6  H   UNL     1      -7.490   9.601  70.996  1.00  0.00     0.000 H  
ENDROOT
BRANCH   3   7
HETATM    7  C   UNL     1     -10.581   9.104  71.516  1.00  0.00    -0.358 C  
HETATM    8  C   UNL     1     -11.435   8.313  72.497  1.00  0.00    -0.384 C  
HETATM    9  S   UNL     1     -11.593  10.281  70.514  1.00  0.00    -0.358 SA 
HETATM   10  O   UNL     1     -12.770   8.486  72.390  1.00  0.00    -0.369 OA 
HETATM   11  O   UNL     1     -10.945   7.581  73.344  1.00  0.00    -0.380 OA 
HETATM   12  H   UNL     1     -12.383  11.150  71.258  1.00  0.00     0.000 H  
ENDBRANCH   3   7
TORSDOF 1
ENDMDL
MODEL       87
REMARK 921   NORMALIZED FREE ENERGY PREDICTED BY IDOCK:   -2.82 KCAL/MOL
REMARK 922        TOTAL FREE ENERGY PREDICTED BY IDOCK:   -2.92 KCAL/MOL
REMARK 923 INTER-LIGAND FREE ENERGY PREDICTED BY IDOCK:   -2.93 KCAL/MOL
REMARK 924 INTRA-LIGAND FREE ENERGY PREDICTED BY IDOCK:    0.01 KCAL/MOL
REMARK 927      BINDING AFFINITY PREDICTED BY RF-SCORE:    0.00 PKD
ROOT
HETATM    1  O   UNL     1     -10.421  17.665  67.458  1.00  0.00    -0.351 OA 
HETATM    2  C   UNL     1      -9.280  17.414  66.777  1.00  0.00    -0.260 C  
HETATM    3  C   UNL     1      -8.000  17.866  67.467  1.00  0.00    -0.213 C  
HETATM    4  O   UNL     1      -9.293  16.821  65.710  1.00  0.00    -0.515 OA 
HETATM    5  S   UNL     1      -8.324  19.359  68.510  1.00  0.00    -0.351 SA 
HETATM    6  H   UNL     1      -7.156  19.771  69.140  1.00  0.00     0.000 H  
ENDROOT
BRANCH   3   7
HETATM    7  C   UNL     1      -7.359  16.726  68.270  1.00  0.00    -0.183 C  
HETATM    8  C   UNL     1      -6.449  15.907  67.365  1.00  0.00    -0.175 C  
HETATM    9  S   UNL     1      -8.554  15.662  69.192  1.00  0.00    -0.260 SA 
HETATM   10  O   UNL     1      -6.738  14.591  67.273  1.00  0.00    -0.274 OA 
HETATM   11  O   UNL     1      -5.502  16.403  66.772  1.00  0.00    -0.349 OA 
HETATM   12  H   UNL     1      -7.973  14.629  69.919  1.00  0.00     0.000 H  
ENDBRANCH   3   7
TORSDOF 1
ENDMDL
MODEL       88
REMARK 921   NORMALIZED FREE ENERGY PREDICTED BY IDOCK:   -2.80 KCAL/MOL
REMARK 922        TOTAL FREE ENERGY PREDICTED BY IDOCK:   -2.91 KCAL/MOL
REMARK 923 INTER-LIGAND FREE ENERGY PREDICTED BY IDOCK:   -3.33 KCAL/MOL
REMARK 924 INTRA-LIGAND FREE ENERGY PREDICTED BY IDOCK:    0.43 KCAL/MOL
REMARK 927      BINDING AFFINITY PREDICTED BY RF-SCORE:    0.00 PKD
ROOT
HETATM    1  O   UNL     1     -11.266  14.727  64.638  1.00  0.00    -0.377 OA 
HETATM    2  C   UNL     1     -11.695  14.084  65.748  1.00  0.00    -0.363 C  
HETATM    3  C   UNL     1     -11.904  12.584  65.589  1.00  0.00    -0.438 C  
HETATM    4  O   UNL     1     -11.847  14.674  66.806  1.00  0.00    -0.377 OA 
HETATM    5  S   UNL     1     -12.406  12.185  63.854  1.00  0.00    -0.464 SA 
HETATM    6  H   UNL     1     -12.597  10.816  63.709  1.00  0.00     0.000 H  
ENDROOT
BRANCH   3   7
HETATM    7  C   UNL     1     -10.667  11.792  66.032  1.00  0.00    -0.279 C  
HETATM    8  C   UNL     1      -9.980  11.186  64.816  1.00  0.00    -0.287 C  
HETATM    9  S   UNL     1     -10.984  10.531  67.344  1.00  0.00    -0.249 SA 
HETATM   10  O   UNL     1      -9.840   9.843  64.826  1.00  0.00    -0.307 OA 
HETATM   11  O   UNL     1      -9.561  11.872  63.895  1.00  0.00    -0.191 OA 
HETATM   12  H   UNL     1      -9.863   9.813  67.745  1.00  0.00     0.000 H  
ENDBRANCH   3   7
TORSDOF 1
ENDMDL
MODEL       89
REMARK 921   NORMALIZED FREE ENERGY PREDICTED BY IDOCK:   -2.79 KCAL/MOL
REMARK 922        TOTAL FREE ENERGY PREDICTED BY IDOCK:   -2.89 KCAL/MOL
REMARK 923 INTER-LIGAND FREE ENERGY PREDICTED BY IDOCK:   -3.11 KCAL/MOL
REMARK 924 INTRA-LIGAND FREE ENERGY PREDICTED BY IDOCK:    0.22 KCAL/MOL
REMARK 927      BINDING AFFINITY PREDICTED BY RF-SCORE:    0.00 PKD
ROOT
HETATM    1  O   UNL     1     -10.319  16.979  67.016  1.00  0.00    -0.305 OA 
HETATM    2  C   UNL     1     -10.259  16.078  66.008  1.00  0.00    -0.341 C  
HETATM    3  C   UNL     1      -9.417  14.842  66.293  1.00  0.00    -0.303 C  
HETATM    4  O   UNL     1     -10.885  16.240  64.972  1.00  0.00    -0.558 OA 
HETATM    5  S   UNL     1      -8.032  15.258  67.447  1.00  0.00    -0.202 SA 
HETATM    6  H   UNL     1      -7.264  14.129  67.706  1.00  0.00     0.000 H  
ENDROOT
BRANCH   3   7
HETATM    7  C   UNL     1     -10.275  13.681  66.811  1.00  0.00    -0.268 C  
HETATM    8  C   UNL     1      -9.848  12.384  66.140  1.00  0.00    -0.252 C  
HETATM    9  S   UNL     1     -12.099  13.953  66.690  1.00  0.00    -0.433 SA 
HETATM   10  O   UNL     1     -10.813  11.724  65.462  1.00  0.00    -0.284 OA 
HETATM   11  O   UNL     1      -8.708  11.951  66.224  1.00  0.00    -0.167 OA 
HETATM   12  H   UNL     1     -12.877  12.901  67.160  1.00  0.00     0.000 H  
ENDBRANCH   3   7
TORSDOF 1
ENDMDL
MODEL       90
REMARK 921   NORMALIZED FREE ENERGY PREDICTED BY IDOCK:   -2.79 KCAL/MOL
REMARK 922        TOTAL FREE ENERGY PREDICTED BY IDOCK:   -2.89 KCAL/MOL
REMARK 923 INTER-LIGAND FREE ENERGY PREDICTED BY IDOCK:   -3.29 KCAL/MOL
REMARK 924 INTRA-LIGAND FREE ENERGY PREDICTED BY IDOCK:    0.40 KCAL/MOL
REMARK 927      BINDING AFFINITY PREDICTED BY RF-SCORE:    0.00 PKD
ROOT
HETATM    1  O   UNL     1     -10.580  17.860  66.615  1.00  0.00    -0.324 OA 
HETATM    2  C   UNL     1     -10.003  17.590  67.808  1.00  0.00    -0.312 C  
HETATM    3  C   UNL     1      -8.517  17.910  67.896  1.00  0.00    -0.251 C  
HETATM    4  O   UNL     1     -10.656  17.169  68.750  1.00  0.00    -0.343 OA 
HETATM    5  S   UNL     1      -7.715  17.704  66.242  1.00  0.00    -0.273 SA 
HETATM    6  H   UNL     1      -6.358  17.996  66.323  1.00  0.00     0.000 H  
ENDROOT
BRANCH   3   7
HETATM    7  C   UNL     1      -8.273  19.304  68.489  1.00  0.00    -0.366 C  
HETATM    8  C   UNL     1      -8.393  20.357  67.397  1.00  0.00    -0.318 C  
HETATM    9  S   UNL     1      -6.701  19.475  69.444  1.00  0.00    -0.319 SA 
HETATM   10  O   UNL     1      -7.307  21.138  67.209  1.00  0.00    -0.430 OA 
HETATM   11  O   UNL     1      -9.414  20.503  66.741  1.00  0.00    -0.351 OA 
HETATM   12  H   UNL     1      -6.481  20.738  69.981  1.00  0.00     0.000 H  
ENDBRANCH   3   7
TORSDOF 1
ENDMDL
MODEL       91
REMARK 921   NORMALIZED FREE ENERGY PREDICTED BY IDOCK:   -2.78 KCAL/MOL
REMARK 922        TOTAL FREE ENERGY PREDICTED BY IDOCK:   -2.88 KCAL/MOL
REMARK 923 INTER-LIGAND FREE ENERGY PREDICTED BY IDOCK:   -3.03 KCAL/MOL
REMARK 924 INTRA-LIGAND FREE ENERGY PREDICTED BY IDOCK:    0.16 KCAL/MOL
REMARK 927      BINDING AFFINITY PREDICTED BY RF-SCORE:    0.00 PKD
ROOT
HETATM    1  O   UNL     1     -11.592   7.727  72.589  1.00  0.00    -0.354 OA 
HETATM    2  C   UNL     1     -11.791   7.775  71.252  1.00  0.00    -0.295 C  
HETATM    3  C   UNL     1     -12.263   9.119  70.714  1.00  0.00    -0.100 C  
HETATM    4  O   UNL     1     -11.553   6.813  70.538  1.00  0.00    -0.332 OA 
HETATM    5  S   UNL     1     -13.279   9.999  71.985  1.00  0.00    -0.381 SA 
HETATM    6  H   UNL     1     -13.709  11.226  71.494  1.00  0.00     0.000 H  
ENDROOT
BRANCH   3   7
HETATM    7  C   UNL     1     -11.088   9.973  70.218  1.00  0.00    -0.318 C  
HETATM    8  C   UNL     1     -11.305  10.350  68.759  1.00  0.00    -0.214 C  
HETATM    9  S   UNL     1      -9.420   9.231  70.498  1.00  0.00    -0.274 SA 
HETATM   10  O   UNL     1     -10.334   9.970  67.901  1.00  0.00    -0.180 OA 
HETATM   11  O   UNL     1     -12.286  10.976  68.387  1.00  0.00    -0.586 OA 
HETATM   12  H   UNL     1      -8.355  10.004  70.049  1.00  0.00     0.000 H  
ENDBRANCH   3   7
TORSDOF 1
ENDMDL
MODEL       92
REMARK 921   NORMALIZED FREE ENERGY PREDICTED BY IDOCK:   -2.77 KCAL/MOL
REMARK 922        TOTAL FREE ENERGY PREDICTED BY IDOCK:   -2.87 KCAL/MOL
REMARK 923 INTER-LIGAND FREE ENERGY PREDICTED BY IDOCK:   -3.31 KCAL/MOL
REMARK 924 INTRA-LIGAND FREE ENERGY PREDICTED BY IDOCK:    0.43 KCAL/MOL
REMARK 927      BINDING AFFINITY PREDICTED BY RF-SCORE:    0.00 PKD
ROOT
HETATM    1  O   UNL     1      -9.897  11.241  68.886  1.00  0.00    -0.198 OA 
HETATM    2  C   UNL     1     -10.844  10.915  67.976  1.00  0.00    -0.245 C  
HETATM    3  C   UNL     1     -11.696  12.076  67.483  1.00  0.00    -0.280 C  
HETATM    4  O   UNL     1     -10.956   9.774  67.556  1.00  0.00    -0.275 OA 
HETATM    5  S   UNL     1     -11.873  13.353  68.809  1.00  0.00    -0.340 SA 
HETATM    6  H   UNL     1     -12.652  14.413  68.359  1.00  0.00     0.000 H  
ENDROOT
BRANCH   3   7
HETATM    7  C   UNL     1     -11.145  12.667  66.179  1.00  0.00    -0.292 C  
HETATM    8  C   UNL     1     -12.266  13.348  65.407  1.00  0.00    -0.452 C  
HETATM    9  S   UNL     1     -10.208  11.474  65.124  1.00  0.00    -0.287 SA 
HETATM   10  O   UNL     1     -12.484  12.890  64.155  1.00  0.00    -0.557 OA 
HETATM   11  O   UNL     1     -12.918  14.268  65.880  1.00  0.00    -0.380 OA 
HETATM   12  H   UNL     1      -9.709  12.009  63.942  1.00  0.00     0.000 H  
ENDBRANCH   3   7
TORSDOF 1
ENDMDL
MODEL       93
REMARK 921   NORMALIZED FREE ENERGY PREDICTED BY IDOCK:   -2.75 KCAL/MOL
REMARK 922        TOTAL FREE ENERGY PREDICTED BY IDOCK:   -2.85 KCAL/MOL
REMARK 923 INTER-LIGAND FREE ENERGY PREDICTED BY IDOCK:   -3.15 KCAL/MOL
REMARK 924 INTRA-LIGAND FREE ENERGY PREDICTED BY IDOCK:    0.30 KCAL/MOL
REMARK 927      BINDING AFFINITY PREDICTED BY RF-SCORE:    0.00 PKD
ROOT
HETATM    1  O   UNL     1      -9.465   6.949  70.673  1.00  0.00    -0.165 OA 
HETATM    2  C   UNL     1     -10.645   6.287  70.663  1.00  0.00    -0.246 C  
HETATM    3  C   UNL     1     -11.632   6.704  71.745  1.00  0.00    -0.304 C  
HETATM    4  O   UNL     1     -10.900   5.455  69.806  1.00  0.00    -0.297 OA 
HETATM    5  S   UNL     1     -10.728   7.267  73.257  1.00  0.00    -0.355 SA 
HETATM    6  H   UNL     1     -11.629   7.648  74.245  1.00  0.00     0.000 H  
ENDROOT
BRANCH   3   7
HETATM    7  C   UNL     1     -12.620   7.760  71.232  1.00  0.00    -0.264 C  
HETATM    8  C   UNL     1     -12.181   9.142  71.693  1.00  0.00    -0.361 C  
HETATM    9  S   UNL     1     -14.391   7.426  71.639  1.00  0.00    -0.407 SA 
HETATM   10  O   UNL     1     -13.081   9.833  72.426  1.00  0.00    -0.388 OA 
HETATM   11  O   UNL     1     -11.090   9.611  71.402  1.00  0.00    -0.365 OA 
HETATM   12  H   UNL     1     -15.285   8.383  71.174  1.00  0.00     0.000 H  
ENDBRANCH   3   7
TORSDOF 1
ENDMDL
MODEL       94
REMARK 921   NORMALIZED FREE ENERGY PREDICTED BY IDOCK:   -2.75 KCAL/MOL
REMARK 922        TOTAL FREE ENERGY PREDICTED BY IDOCK:   -2.85 KCAL/MOL
REMARK 923 INTER-LIGAND FREE ENERGY PREDICTED BY IDOCK:   -3.16 KCAL/MOL
REMARK 924 INTRA-LIGAND FREE ENERGY PREDICTED BY IDOCK:    0.31 KCAL/MOL
REMARK 927      BINDING AFFINITY PREDICTED BY RF-SCORE:    0.00 PKD
ROOT
HETATM    1  O   UNL     1     -11.689  12.535  67.481  1.00  0.00    -0.355 OA 
HETATM    2  C   UNL     1     -12.026  13.794  67.118  1.00  0.00    -0.405 C  
HETATM    3  C   UNL     1     -11.725  14.870  68.154  1.00  0.00    -0.318 C  
HETATM    4  O   UNL     1     -12.489  14.036  66.015  1.00  0.00    -0.468 OA 
HETATM    5  S   UNL     1     -11.853  14.171  69.862  1.00  0.00    -0.339 SA 
HETATM    6  H   UNL     1     -11.578  15.153  70.806  1.00  0.00     0.000 H  
ENDROOT
BRANCH   3   7
HETATM    7  C   UNL     1     -10.366  15.534  67.898  1.00  0.00    -0.250 C  
HETATM    8  C   UNL     1      -9.276  14.784  68.650  1.00  0.00    -0.194 C  
HETATM    9  S   UNL     1     -10.316  17.349  68.241  1.00  0.00    -0.388 SA 
HETATM   10  O   UNL     1      -8.554  15.514  69.528  1.00  0.00    -0.260 OA 
HETATM   11  O   UNL     1      -9.051  13.598  68.458  1.00  0.00    -0.183 OA 
HETATM   12  H   UNL     1      -9.085  17.951  68.010  1.00  0.00     0.000 H  
ENDBRANCH   3   7
TORSDOF 1
ENDMDL
MODEL       95
REMARK 921   NORMALIZED FREE ENERGY PREDICTED BY IDOCK:   -2.74 KCAL/MOL
REMARK 922        TOTAL FREE ENERGY PREDICTED BY IDOCK:   -2.84 KCAL/MOL
REMARK 923 INTER-LIGAND FREE ENERGY PREDICTED BY IDOCK:   -3.17 KCAL/MOL
REMARK 924 INTRA-LIGAND FREE ENERGY PREDICTED BY IDOCK:    0.34 KCAL/MOL
REMARK 927      BINDING AFFINITY PREDICTED BY RF-SCORE:    0.00 PKD
ROOT
HETATM    1  O   UNL     1     -10.013  19.559  65.922  1.00  0.00    -0.388 OA 
HETATM    2  C   UNL     1      -8.756  19.298  66.350  1.00  0.00    -0.348 C  
HETATM    3  C   UNL     1      -8.648  18.824  67.793  1.00  0.00    -0.283 C  
HETATM    4  O   UNL     1      -7.797  19.391  65.601  1.00  0.00    -0.436 OA 
HETATM    5  S   UNL     1     -10.000  19.563  68.816  1.00  0.00    -0.429 SA 
HETATM    6  H   UNL     1      -9.901  19.131  70.133  1.00  0.00     0.000 H  
ENDROOT
BRANCH   3   7
HETATM    7  C   UNL     1      -8.622  17.293  67.884  1.00  0.00    -0.223 C  
HETATM    8  C   UNL     1      -9.977  16.782  68.353  1.00  0.00    -0.268 C  
HETATM    9  S   UNL     1      -7.238  16.601  68.893  1.00  0.00    -0.227 SA 
HETATM   10  O   UNL     1      -9.970  16.038  69.480  1.00  0.00    -0.256 OA 
HETATM   11  O   UNL     1     -11.008  17.011  67.738  1.00  0.00    -0.316 OA 
HETATM   12  H   UNL     1      -7.215  15.213  68.975  1.00  0.00     0.000 H  
ENDBRANCH   3   7
TORSDOF 1
ENDMDL
MODEL       96
REMARK 921   NORMALIZED FREE ENERGY PREDICTED BY IDOCK:   -2.73 KCAL/MOL
REMARK 922        TOTAL FREE ENERGY PREDICTED BY IDOCK:   -2.83 KCAL/MOL
REMARK 923 INTER-LIGAND FREE ENERGY PREDICTED BY IDOCK:   -3.06 KCAL/MOL
REMARK 924 INTRA-LIGAND FREE ENERGY PREDICTED BY IDOCK:    0.23 KCAL/MOL
REMARK 927      BINDING AFFINITY PREDICTED BY RF-SCORE:    0.00 PKD
ROOT
HETATM    1  O   UNL     1     -11.734  11.296  70.322  1.00  0.00    -0.316 OA 
HETATM    2  C   UNL     1     -12.073  11.874  69.146  1.00  0.00    -0.201 C  
HETATM    3  C   UNL     1     -12.122  13.396  69.163  1.00  0.00    -0.261 C  
HETATM    4  O   UNL     1     -12.271  11.207  68.143  1.00  0.00    -0.612 OA 
HETATM    5  S   UNL     1     -12.606  14.006  70.841  1.00  0.00    -0.365 SA 
HETATM    6  H   UNL     1     -12.650  15.395  70.855  1.00  0.00     0.000 H  
ENDROOT
BRANCH   3   7
HETATM    7  C   UNL     1     -10.800  14.008  68.682  1.00  0.00    -0.258 C  
HETATM    8  C   UNL     1     -11.083  15.198  67.775  1.00  0.00    -0.313 C  
HETATM    9  S   UNL     1      -9.630  12.810  67.902  1.00  0.00    -0.217 SA 
HETATM   10  O   UNL     1     -10.564  15.128  66.530  1.00  0.00    -0.291 OA 
HETATM   11  O   UNL     1     -11.722  16.169  68.154  1.00  0.00    -0.228 OA 
HETATM   12  H   UNL     1      -8.433  13.365  67.466  1.00  0.00     0.000 H  
ENDBRANCH   3   7
TORSDOF 1
ENDMDL
MODEL       97
REMARK 921   NORMALIZED FREE ENERGY PREDICTED BY IDOCK:   -2.70 KCAL/MOL
REMARK 922        TOTAL FREE ENERGY PREDICTED BY IDOCK:   -2.80 KCAL/MOL
REMARK 923 INTER-LIGAND FREE ENERGY PREDICTED BY IDOCK:   -3.09 KCAL/MOL
REMARK 924 INTRA-LIGAND FREE ENERGY PREDICTED BY IDOCK:    0.29 KCAL/MOL
REMARK 927      BINDING AFFINITY PREDICTED BY RF-SCORE:    0.00 PKD
ROOT
HETATM    1  O   UNL     1      -7.229  20.695  67.449  1.00  0.00    -0.306 OA 
HETATM    2  C   UNL     1      -7.448  19.804  66.454  1.00  0.00    -0.284 C  
HETATM    3  C   UNL     1      -7.915  18.428  66.908  1.00  0.00    -0.236 C  
HETATM    4  O   UNL     1      -7.324  20.118  65.281  1.00  0.00    -0.283 OA 
HETATM    5  S   UNL     1      -7.219  18.030  68.575  1.00  0.00    -0.270 SA 
HETATM    6  H   UNL     1      -7.645  16.774  68.989  1.00  0.00     0.000 H  
ENDROOT
BRANCH   3   7
HETATM    7  C   UNL     1      -9.445  18.312  66.876  1.00  0.00    -0.290 C  
HETATM    8  C   UNL     1     -10.009  18.540  68.271  1.00  0.00    -0.376 C  
HETATM    9  S   UNL     1     -10.087  16.754  66.118  1.00  0.00    -0.339 SA 
HETATM   10  O   UNL     1     -10.756  17.535  68.777  1.00  0.00    -0.285 OA 
HETATM   11  O   UNL     1      -9.818  19.577  68.889  1.00  0.00    -0.424 OA 
HETATM   12  H   UNL     1     -11.473  16.649  66.089  1.00  0.00     0.000 H  
ENDBRANCH   3   7
TORSDOF 1
ENDMDL
MODEL       98
REMARK 921   NORMALIZED FREE ENERGY PREDICTED BY IDOCK:   -2.69 KCAL/MOL
REMARK 922        TOTAL FREE ENERGY PREDICTED BY IDOCK:   -2.78 KCAL/MOL
REMARK 923 INTER-LIGAND FREE ENERGY PREDICTED BY IDOCK:   -3.24 KCAL/MOL
REMARK 924 INTRA-LIGAND FREE ENERGY PREDICTED BY IDOCK:    0.46 KCAL/MOL
REMARK 927      BINDING AFFINITY PREDICTED BY RF-SCORE:    0.00 PKD
ROOT
HETATM    1  O   UNL     1     -13.261  14.207  65.810  1.00  0.00    -0.497 OA 
HETATM    2  C   UNL     1     -12.156  13.427  65.821  1.00  0.00    -0.436 C  
HETATM    3  C   UNL     1     -10.832  14.178  65.774  1.00  0.00    -0.297 C  
HETATM    4  O   UNL     1     -12.235  12.213  65.916  1.00  0.00    -0.604 OA 
HETATM    5  S   UNL     1     -11.023  15.760  64.834  1.00  0.00    -0.338 SA 
HETATM    6  H   UNL     1      -9.814  16.445  64.791  1.00  0.00     0.000 H  
ENDROOT
BRANCH   3   7
HETATM    7  C   UNL     1     -10.260  14.405  67.180  1.00  0.00    -0.257 C  
HETATM    8  C   UNL     1     -10.946  15.598  67.829  1.00  0.00    -0.316 C  
HETATM    9  S   UNL     1      -8.420  14.542  67.255  1.00  0.00    -0.218 SA 
HETATM   10  O   UNL     1     -10.135  16.604  68.221  1.00  0.00    -0.248 OA 
HETATM   11  O   UNL     1     -12.155  15.639  68.005  1.00  0.00    -0.028 OA 
HETATM   12  H   UNL     1      -7.902  14.747  68.528  1.00  0.00     0.000 H  
ENDBRANCH   3   7
TORSDOF 1
ENDMDL
MODEL       99
REMARK 921   NORMALIZED FREE ENERGY PREDICTED BY IDOCK:   -2.68 KCAL/MOL
REMARK 922        TOTAL FREE ENERGY PREDICTED BY IDOCK:   -2.78 KCAL/MOL
REMARK 923 INTER-LIGAND FREE ENERGY PREDICTED BY IDOCK:   -2.80 KCAL/MOL
REMARK 924 INTRA-LIGAND FREE ENERGY PREDICTED BY IDOCK:    0.03 KCAL/MOL
REMARK 927      BINDING AFFINITY PREDICTED BY RF-SCORE:    0.00 PKD
ROOT
HETATM    1  O   UNL     1     -12.571  13.944  65.819  1.00  0.00    -0.491 OA 
HETATM    2  C   UNL     1     -11.227  13.911  65.662  1.00  0.00    -0.306 C  
HETATM    3  C   UNL     1     -10.420  14.214  66.917  1.00  0.00    -0.272 C  
HETATM    4  O   UNL     1     -10.719  13.607  64.594  1.00  0.00    -0.382 OA 
HETATM    5  S   UNL     1     -11.346  15.383  68.011  1.00  0.00    -0.323 SA 
HETATM    6  H   UNL     1     -10.609  15.660  69.156  1.00  0.00     0.000 H  
ENDROOT
BRANCH   3   7
HETATM    7  C   UNL     1     -10.015  12.930  67.652  1.00  0.00    -0.218 C  
HETATM    8  C   UNL     1      -8.609  12.520  67.236  1.00  0.00    -0.191 C  
HETATM    9  S   UNL     1     -11.216  11.535  67.491  1.00  0.00    -0.302 SA 
HETATM   10  O   UNL     1      -8.488  11.285  66.702  1.00  0.00    -0.158 OA 
HETATM   11  O   UNL     1      -7.643  13.252  67.394  1.00  0.00    -0.159 OA 
HETATM   12  H   UNL     1     -10.849  10.371  68.157  1.00  0.00     0.000 H  
ENDBRANCH   3   7
TORSDOF 1
ENDMDL
MODEL      100
REMARK 921   NORMALIZED FREE ENERGY PREDICTED BY IDOCK:   -2.68 KCAL/MOL
REMARK 922        TOTAL FREE ENERGY PREDICTED BY IDOCK:   -2.77 KCAL/MOL
REMARK 923 INTER-LIGAND FREE ENERGY PREDICTED BY IDOCK:   -2.80 KCAL/MOL
REMARK 924 INTRA-LIGAND FREE ENERGY PREDICTED BY IDOCK:    0.03 KCAL/MOL
REMARK 927      BINDING AFFINITY PREDICTED BY RF-SCORE:    0.00 PKD
ROOT
HETATM    1  O   UNL     1     -10.795   7.442  73.397  1.00  0.00    -0.388 OA 
HETATM    2  C   UNL     1     -11.226   6.766  72.307  1.00  0.00    -0.259 C  
HETATM    3  C   UNL     1     -11.891   7.620  71.235  1.00  0.00    -0.292 C  
HETATM    4  O   UNL     1     -11.039   5.565  72.188  1.00  0.00    -0.245 OA 
HETATM    5  S   UNL     1     -12.738   9.073  72.004  1.00  0.00    -0.416 SA 
HETATM    6  H   UNL     1     -13.345   9.851  71.025  1.00  0.00     0.000 H  
ENDROOT
BRANCH   3   7
HETATM    7  C   UNL     1     -10.892   8.039  70.148  1.00  0.00    -0.242 C  
HETATM    8  C   UNL     1     -10.551   6.842  69.272  1.00  0.00    -0.231 C  
HETATM    9  S   UNL     1      -9.376   8.888  70.776  1.00  0.00    -0.251 SA 
HETATM   10  O   UNL     1      -9.243   6.513  69.204  1.00  0.00    -0.135 OA 
HETATM   11  O   UNL     1     -11.404   6.226  68.650  1.00  0.00    -0.337 OA 
HETATM   12  H   UNL     1      -8.472   9.268  69.791  1.00  0.00     0.000 H  
ENDBRANCH   3   7
TORSDOF 1
ENDMDL
MODEL      101
REMARK 921   NORMALIZED FREE ENERGY PREDICTED BY IDOCK:   -2.67 KCAL/MOL
REMARK 922        TOTAL FREE ENERGY PREDICTED BY IDOCK:   -2.76 KCAL/MOL
REMARK 923 INTER-LIGAND FREE ENERGY PREDICTED BY IDOCK:   -3.05 KCAL/MOL
REMARK 924 INTRA-LIGAND FREE ENERGY PREDICTED BY IDOCK:    0.29 KCAL/MOL
REMARK 927      BINDING AFFINITY PREDICTED BY RF-SCORE:    0.00 PKD
ROOT
HETATM    1  O   UNL     1      -9.093  17.105  65.830  1.00  0.00    -0.525 OA 
HETATM    2  C   UNL     1     -10.177  17.026  66.635  1.00  0.00    -0.310 C  
HETATM    3  C   UNL     1     -10.775  15.634  66.784  1.00  0.00    -0.300 C  
HETATM    4  O   UNL     1     -10.599  18.005  67.231  1.00  0.00    -0.380 OA 
HETATM    5  S   UNL     1     -10.508  14.651  65.240  1.00  0.00    -0.419 SA 
HETATM    6  H   UNL     1     -11.054  13.380  65.376  1.00  0.00     0.000 H  
ENDROOT
BRANCH   3   7
HETATM    7  C   UNL     1     -10.233  14.917  68.028  1.00  0.00    -0.228 C  
HETATM    8  C   UNL     1      -9.065  14.022  67.640  1.00  0.00    -0.192 C  
HETATM    9  S   UNL     1     -11.504  14.005  69.011  1.00  0.00    -0.317 SA 
HETATM   10  O   UNL     1      -9.198  12.713  67.943  1.00  0.00    -0.186 OA 
HETATM   11  O   UNL     1      -8.057  14.462  67.106  1.00  0.00    -0.193 OA 
HETATM   12  H   UNL     1     -11.013  13.356  70.138  1.00  0.00     0.000 H  
ENDBRANCH   3   7
TORSDOF 1
ENDMDL
MODEL      102
REMARK 921   NORMALIZED FREE ENERGY PREDICTED BY IDOCK:   -2.67 KCAL/MOL
REMARK 922        TOTAL FREE ENERGY PREDICTED BY IDOCK:   -2.76 KCAL/MOL
REMARK 923 INTER-LIGAND FREE ENERGY PREDICTED BY IDOCK:   -3.05 KCAL/MOL
REMARK 924 INTRA-LIGAND FREE ENERGY PREDICTED BY IDOCK:    0.29 KCAL/MOL
REMARK 927      BINDING AFFINITY PREDICTED BY RF-SCORE:    0.00 PKD
ROOT
HETATM    1  O   UNL     1     -10.571  16.632  67.139  1.00  0.00    -0.316 OA 
HETATM    2  C   UNL     1      -9.562  15.781  67.437  1.00  0.00    -0.217 C  
HETATM    3  C   UNL     1      -9.994  14.439  68.010  1.00  0.00    -0.225 C  
HETATM    4  O   UNL     1      -8.398  16.069  67.206  1.00  0.00    -0.161 OA 
HETATM    5  S   UNL     1     -11.563  14.625  68.972  1.00  0.00    -0.317 SA 
HETATM    6  H   UNL     1     -11.957  13.400  69.496  1.00  0.00     0.000 H  
ENDROOT
BRANCH   3   7
HETATM    7  C   UNL     1     -10.108  13.368  66.917  1.00  0.00    -0.255 C  
HETATM    8  C   UNL     1     -11.559  13.231  66.479  1.00  0.00    -0.350 C  
HETATM    9  S   UNL     1      -9.361  11.735  67.352  1.00  0.00    -0.177 SA 
HETATM   10  O   UNL     1     -12.099  11.999  66.605  1.00  0.00    -0.615 OA 
HETATM   11  O   UNL     1     -12.194  14.170  66.022  1.00  0.00    -0.419 OA 
HETATM   12  H   UNL     1      -9.464  10.766  66.361  1.00  0.00     0.000 H  
ENDBRANCH   3   7
TORSDOF 1
ENDMDL
MODEL      103
REMARK 921   NORMALIZED FREE ENERGY PREDICTED BY IDOCK:   -2.67 KCAL/MOL
REMARK 922        TOTAL FREE ENERGY PREDICTED BY IDOCK:   -2.76 KCAL/MOL
REMARK 923 INTER-LIGAND FREE ENERGY PREDICTED BY IDOCK:   -2.77 KCAL/MOL
REMARK 924 INTRA-LIGAND FREE ENERGY PREDICTED BY IDOCK:    0.01 KCAL/MOL
REMARK 927      BINDING AFFINITY PREDICTED BY RF-SCORE:    0.00 PKD
ROOT
HETATM    1  O   UNL     1      -6.186  15.940  67.031  1.00  0.00    -0.319 OA 
HETATM    2  C   UNL     1      -6.745  16.809  67.904  1.00  0.00    -0.141 C  
HETATM    3  C   UNL     1      -7.308  18.080  67.283  1.00  0.00    -0.198 C  
HETATM    4  O   UNL     1      -6.827  16.551  69.095  1.00  0.00    -0.193 OA 
HETATM    5  S   UNL     1      -6.343  18.542  65.774  1.00  0.00    -0.280 SA 
HETATM    6  H   UNL     1      -6.857  19.702  65.208  1.00  0.00     0.000 H  
ENDROOT
BRANCH   3   7
HETATM    7  C   UNL     1      -8.809  17.949  66.993  1.00  0.00    -0.250 C  
HETATM    8  C   UNL     1      -9.608  18.336  68.230  1.00  0.00    -0.318 C  
HETATM    9  S   UNL     1      -9.328  16.308  66.322  1.00  0.00    -0.350 SA 
HETATM   10  O   UNL     1     -10.446  17.392  68.710  1.00  0.00    -0.348 OA 
HETATM   11  O   UNL     1      -9.516  19.440  68.747  1.00  0.00    -0.377 OA 
HETATM   12  H   UNL     1     -10.688  16.189  66.060  1.00  0.00     0.000 H  
ENDBRANCH   3   7
TORSDOF 1
ENDMDL
MODEL      104
REMARK 921   NORMALIZED FREE ENERGY PREDICTED BY IDOCK:   -2.65 KCAL/MOL
REMARK 922        TOTAL FREE ENERGY PREDICTED BY IDOCK:   -2.75 KCAL/MOL
REMARK 923 INTER-LIGAND FREE ENERGY PREDICTED BY IDOCK:   -3.04 KCAL/MOL
REMARK 924 INTRA-LIGAND FREE ENERGY PREDICTED BY IDOCK:    0.29 KCAL/MOL
REMARK 927      BINDING AFFINITY PREDICTED BY RF-SCORE:    0.00 PKD
ROOT
HETATM    1  O   UNL     1      -7.605  16.464  68.962  1.00  0.00    -0.213 OA 
HETATM    2  C   UNL     1      -8.833  17.012  68.808  1.00  0.00    -0.244 C  
HETATM    3  C   UNL     1      -8.842  18.451  68.308  1.00  0.00    -0.305 C  
HETATM    4  O   UNL     1      -9.848  16.366  69.011  1.00  0.00    -0.244 OA 
HETATM    5  S   UNL     1      -7.331  19.344  68.890  1.00  0.00    -0.360 SA 
HETATM    6  H   UNL     1      -7.340  20.657  68.434  1.00  0.00     0.000 H  
ENDROOT
BRANCH   3   7
HETATM    7  C   UNL     1      -9.006  18.518  66.784  1.00  0.00    -0.293 C  
HETATM    8  C   UNL     1      -7.638  18.622  66.124  1.00  0.00    -0.246 C  
HETATM    9  S   UNL     1     -10.162  19.828  66.186  1.00  0.00    -0.511 SA 
HETATM   10  O   UNL     1      -7.444  19.701  65.335  1.00  0.00    -0.407 OA 
HETATM   11  O   UNL     1      -6.774  17.772  66.278  1.00  0.00    -0.213 OA 
HETATM   12  H   UNL     1     -10.310  19.889  64.805  1.00  0.00     0.000 H  
ENDBRANCH   3   7
TORSDOF 1
ENDMDL
MODEL      105
REMARK 921   NORMALIZED FREE ENERGY PREDICTED BY IDOCK:   -2.65 KCAL/MOL
REMARK 922        TOTAL FREE ENERGY PREDICTED BY IDOCK:   -2.74 KCAL/MOL
REMARK 923 INTER-LIGAND FREE ENERGY PREDICTED BY IDOCK:   -2.76 KCAL/MOL
REMARK 924 INTRA-LIGAND FREE ENERGY PREDICTED BY IDOCK:    0.01 KCAL/MOL
REMARK 927      BINDING AFFINITY PREDICTED BY RF-SCORE:    0.00 PKD
ROOT
HETATM    1  O   UNL     1     -12.531  14.367  69.707  1.00  0.00    -0.312 OA 
HETATM    2  C   UNL     1     -11.230  14.348  69.333  1.00  0.00    -0.281 C  
HETATM    3  C   UNL     1     -10.742  13.026  68.756  1.00  0.00    -0.221 C  
HETATM    4  O   UNL     1     -10.531  15.345  69.412  1.00  0.00    -0.227 OA 
HETATM    5  S   UNL     1     -11.664  11.613  69.514  1.00  0.00    -0.365 SA 
HETATM    6  H   UNL     1     -11.217  10.407  68.987  1.00  0.00     0.000 H  
ENDROOT
BRANCH   3   7
HETATM    7  C   UNL     1     -10.821  13.015  67.224  1.00  0.00    -0.252 C  
HETATM    8  C   UNL     1      -9.549  13.611  66.638  1.00  0.00    -0.283 C  
HETATM    9  S   UNL     1     -12.338  13.801  66.521  1.00  0.00    -0.320 SA 
HETATM   10  O   UNL     1      -9.716  14.679  65.828  1.00  0.00    -0.323 OA 
HETATM   11  O   UNL     1      -8.443  13.142  66.867  1.00  0.00    -0.170 OA 
HETATM   12  H   UNL     1     -12.409  13.791  65.133  1.00  0.00     0.000 H  
ENDBRANCH   3   7
TORSDOF 1
ENDMDL
MODEL      106
REMARK 921   NORMALIZED FREE ENERGY PREDICTED BY IDOCK:   -2.65 KCAL/MOL
REMARK 922        TOTAL FREE ENERGY PREDICTED BY IDOCK:   -2.74 KCAL/MOL
REMARK 923 INTER-LIGAND FREE ENERGY PREDICTED BY IDOCK:   -2.82 KCAL/MOL
REMARK 924 INTRA-LIGAND FREE ENERGY PREDICTED BY IDOCK:    0.08 KCAL/MOL
REMARK 927      BINDING AFFINITY PREDICTED BY RF-SCORE:    0.00 PKD
ROOT
HETATM    1  O   UNL     1      -7.534  16.421  69.086  1.00  0.00    -0.222 OA 
HETATM    2  C   UNL     1      -8.749  16.970  68.859  1.00  0.00    -0.202 C  
HETATM    3  C   UNL     1      -8.726  18.357  68.229  1.00  0.00    -0.302 C  
HETATM    4  O   UNL     1      -9.778  16.360  69.100  1.00  0.00    -0.259 OA 
HETATM    5  S   UNL     1      -7.210  19.277  68.756  1.00  0.00    -0.355 SA 
HETATM    6  H   UNL     1      -7.190  20.543  68.181  1.00  0.00     0.000 H  
ENDROOT
BRANCH   3   7
HETATM    7  C   UNL     1      -8.859  18.285  66.702  1.00  0.00    -0.284 C  
HETATM    8  C   UNL     1     -10.243  18.762  66.283  1.00  0.00    -0.424 C  
HETATM    9  S   UNL     1      -8.443  16.644  65.964  1.00  0.00    -0.005 SA 
HETATM   10  O   UNL     1     -10.982  17.880  65.575  1.00  0.00    -0.310 OA 
HETATM   11  O   UNL     1     -10.655  19.881  66.550  1.00  0.00    -0.460 OA 
HETATM   12  H   UNL     1      -8.564  16.579  64.581  1.00  0.00     0.000 H  
ENDBRANCH   3   7
TORSDOF 1
ENDMDL
MODEL      107
REMARK 921   NORMALIZED FREE ENERGY PREDICTED BY IDOCK:   -2.64 KCAL/MOL
REMARK 922        TOTAL FREE ENERGY PREDICTED BY IDOCK:   -2.73 KCAL/MOL
REMARK 923 INTER-LIGAND FREE ENERGY PREDICTED BY IDOCK:   -2.75 KCAL/MOL
REMARK 924 INTRA-LIGAND FREE ENERGY PREDICTED BY IDOCK:    0.02 KCAL/MOL
REMARK 927      BINDING AFFINITY PREDICTED BY RF-SCORE:    0.00 PKD
ROOT
HETATM    1  O   UNL     1     -11.335   6.293  68.988  1.00  0.00    -0.390 OA 
HETATM    2  C   UNL     1     -10.346   6.487  69.889  1.00  0.00    -0.191 C  
HETATM    3  C   UNL     1     -10.069   7.942  70.245  1.00  0.00    -0.196 C  
HETATM    4  O   UNL     1      -9.764   5.548  70.408  1.00  0.00    -0.166 OA 
HETATM    5  S   UNL     1     -10.440   9.039  68.802  1.00  0.00    -0.177 SA 
HETATM    6  H   UNL     1     -10.187  10.366  69.127  1.00  0.00     0.000 H  
ENDROOT
BRANCH   3   7
HETATM    7  C   UNL     1     -10.827   8.369  71.508  1.00  0.00    -0.258 C  
HETATM    8  C   UNL     1      -9.953   8.147  72.734  1.00  0.00    -0.291 C  
HETATM    9  S   UNL     1     -12.497   7.603  71.704  1.00  0.00    -0.344 SA 
HETATM   10  O   UNL     1     -10.465   7.335  73.684  1.00  0.00    -0.365 OA 
HETATM   11  O   UNL     1      -8.864   8.685  72.864  1.00  0.00    -0.367 OA 
HETATM   12  H   UNL     1     -13.185   7.990  72.848  1.00  0.00     0.000 H  
ENDBRANCH   3   7
TORSDOF 1
ENDMDL
MODEL      108
REMARK 921   NORMALIZED FREE ENERGY PREDICTED BY IDOCK:   -2.63 KCAL/MOL
REMARK 922        TOTAL FREE ENERGY PREDICTED BY IDOCK:   -2.73 KCAL/MOL
REMARK 923 INTER-LIGAND FREE ENERGY PREDICTED BY IDOCK:   -3.04 KCAL/MOL
REMARK 924 INTRA-LIGAND FREE ENERGY PREDICTED BY IDOCK:    0.32 KCAL/MOL
REMARK 927      BINDING AFFINITY PREDICTED BY RF-SCORE:    0.00 PKD
ROOT
HETATM    1  O   UNL     1     -12.045  13.515  68.782  1.00  0.00    -0.344 OA 
HETATM    2  C   UNL     1     -11.479  14.695  69.128  1.00  0.00    -0.294 C  
HETATM    3  C   UNL     1     -10.392  15.193  68.185  1.00  0.00    -0.239 C  
HETATM    4  O   UNL     1     -11.863  15.324  70.101  1.00  0.00    -0.276 OA 
HETATM    5  S   UNL     1      -9.512  13.764  67.406  1.00  0.00    -0.232 SA 
HETATM    6  H   UNL     1      -8.520  14.219  66.546  1.00  0.00     0.000 H  
ENDROOT
BRANCH   3   7
HETATM    7  C   UNL     1     -10.953  16.167  67.140  1.00  0.00    -0.144 C  
HETATM    8  C   UNL     1     -11.124  15.452  65.808  1.00  0.00    -0.260 C  
HETATM    9  S   UNL     1     -10.004  17.741  66.962  1.00  0.00    -0.338 SA 
HETATM   10  O   UNL     1     -10.460  15.988  64.761  1.00  0.00    -0.564 OA 
HETATM   11  O   UNL     1     -11.834  14.465  65.684  1.00  0.00    -0.353 OA 
HETATM   12  H   UNL     1     -10.513  18.624  66.016  1.00  0.00     0.000 H  
ENDBRANCH   3   7
TORSDOF 1
ENDMDL
MODEL      109
REMARK 921   NORMALIZED FREE ENERGY PREDICTED BY IDOCK:   -2.63 KCAL/MOL
REMARK 922        TOTAL FREE ENERGY PREDICTED BY IDOCK:   -2.72 KCAL/MOL
REMARK 923 INTER-LIGAND FREE ENERGY PREDICTED BY IDOCK:   -3.05 KCAL/MOL
REMARK 924 INTRA-LIGAND FREE ENERGY PREDICTED BY IDOCK:    0.33 KCAL/MOL
REMARK 927      BINDING AFFINITY PREDICTED BY RF-SCORE:    0.00 PKD
ROOT
HETATM    1  O   UNL     1     -10.591  18.402  66.043  1.00  0.00    -0.427 OA 
HETATM    2  C   UNL     1      -9.415  18.116  66.648  1.00  0.00    -0.302 C  
HETATM    3  C   UNL     1      -9.382  16.799  67.412  1.00  0.00    -0.233 C  
HETATM    4  O   UNL     1      -8.446  18.850  66.535  1.00  0.00    -0.286 OA 
HETATM    5  S   UNL     1     -11.060  16.400  68.080  1.00  0.00    -0.237 SA 
HETATM    6  H   UNL     1     -11.029  15.198  68.776  1.00  0.00     0.000 H  
ENDROOT
BRANCH   3   7
HETATM    7  C   UNL     1      -8.815  15.662  66.552  1.00  0.00    -0.310 C  
HETATM    8  C   UNL     1      -9.938  14.998  65.769  1.00  0.00    -0.346 C  
HETATM    9  S   UNL     1      -7.794  14.429  67.474  1.00  0.00    -0.194 SA 
HETATM   10  O   UNL     1     -10.096  13.672  65.972  1.00  0.00    -0.298 OA 
HETATM   11  O   UNL     1     -10.643  15.619  64.987  1.00  0.00    -0.418 OA 
HETATM   12  H   UNL     1      -7.280  13.399  66.694  1.00  0.00     0.000 H  
ENDBRANCH   3   7
TORSDOF 1
ENDMDL
MODEL      110
REMARK 921   NORMALIZED FREE ENERGY PREDICTED BY IDOCK:   -2.63 KCAL/MOL
REMARK 922        TOTAL FREE ENERGY PREDICTED BY IDOCK:   -2.72 KCAL/MOL
REMARK 923 INTER-LIGAND FREE ENERGY PREDICTED BY IDOCK:   -2.76 KCAL/MOL
REMARK 924 INTRA-LIGAND FREE ENERGY PREDICTED BY IDOCK:    0.04 KCAL/MOL
REMARK 927      BINDING AFFINITY PREDICTED BY RF-SCORE:    0.00 PKD
ROOT
HETATM    1  O   UNL     1     -10.327   7.337  73.734  1.00  0.00    -0.360 OA 
HETATM    2  C   UNL     1      -9.840   7.918  72.613  1.00  0.00    -0.252 C  
HETATM    3  C   UNL     1     -10.421   7.393  71.307  1.00  0.00    -0.208 C  
HETATM    4  O   UNL     1      -9.031   8.831  72.669  1.00  0.00    -0.380 OA 
HETATM    5  S   UNL     1     -10.888   5.612  71.480  1.00  0.00    -0.194 SA 
HETATM    6  H   UNL     1     -11.418   5.134  70.287  1.00  0.00     0.000 H  
ENDROOT
BRANCH   3   7
HETATM    7  C   UNL     1     -11.593   8.257  70.824  1.00  0.00    -0.236 C  
HETATM    8  C   UNL     1     -11.088   9.636  70.424  1.00  0.00    -0.290 C  
HETATM    9  S   UNL     1     -13.016   8.358  71.998  1.00  0.00    -0.352 SA 
HETATM   10  O   UNL     1     -11.645  10.680  71.073  1.00  0.00    -0.299 OA 
HETATM   11  O   UNL     1     -10.244   9.793  69.554  1.00  0.00    -0.193 OA 
HETATM   12  H   UNL     1     -14.078   9.140  71.560  1.00  0.00     0.000 H  
ENDBRANCH   3   7
TORSDOF 1
ENDMDL
MODEL      111
REMARK 921   NORMALIZED FREE ENERGY PREDICTED BY IDOCK:   -2.62 KCAL/MOL
REMARK 922        TOTAL FREE ENERGY PREDICTED BY IDOCK:   -2.71 KCAL/MOL
REMARK 923 INTER-LIGAND FREE ENERGY PREDICTED BY IDOCK:   -2.73 KCAL/MOL
REMARK 924 INTRA-LIGAND FREE ENERGY PREDICTED BY IDOCK:    0.01 KCAL/MOL
REMARK 927      BINDING AFFINITY PREDICTED BY RF-SCORE:    0.00 PKD
ROOT
HETATM    1  O   UNL     1     -11.584   6.450  70.144  1.00  0.00    -0.408 OA 
HETATM    2  C   UNL     1     -10.566   7.155  70.690  1.00  0.00    -0.225 C  
HETATM    3  C   UNL     1     -10.931   7.970  71.923  1.00  0.00    -0.263 C  
HETATM    4  O   UNL     1      -9.433   7.088  70.241  1.00  0.00    -0.165 OA 
HETATM    5  S   UNL     1     -12.695   8.522  71.831  1.00  0.00    -0.380 SA 
HETATM    6  H   UNL     1     -13.027   9.266  72.957  1.00  0.00     0.000 H  
ENDROOT
BRANCH   3   7
HETATM    7  C   UNL     1     -10.631   7.202  73.217  1.00  0.00    -0.364 C  
HETATM    8  C   UNL     1      -9.175   7.406  73.611  1.00  0.00    -0.244 C  
HETATM    9  S   UNL     1     -11.091   5.413  73.179  1.00  0.00    -0.295 SA 
HETATM   10  O   UNL     1      -8.433   6.284  73.733  1.00  0.00    -0.122 OA 
HETATM   11  O   UNL     1      -8.707   8.515  73.826  1.00  0.00    -0.263 OA 
HETATM   12  H   UNL     1     -10.818   4.717  74.352  1.00  0.00     0.000 H  
ENDBRANCH   3   7
TORSDOF 1
ENDMDL
MODEL      112
REMARK 921   NORMALIZED FREE ENERGY PREDICTED BY IDOCK:   -2.62 KCAL/MOL
REMARK 922        TOTAL FREE ENERGY PREDICTED BY IDOCK:   -2.71 KCAL/MOL
REMARK 923 INTER-LIGAND FREE ENERGY PREDICTED BY IDOCK:   -3.03 KCAL/MOL
REMARK 924 INTRA-LIGAND FREE ENERGY PREDICTED BY IDOCK:    0.32 KCAL/MOL
REMARK 927      BINDING AFFINITY PREDICTED BY RF-SCORE:    0.00 PKD
ROOT
HETATM    1  O   UNL     1     -13.411  10.660  69.746  1.00  0.00     0.090 OA 
HETATM    2  C   UNL     1     -12.458  10.942  70.664  1.00  0.00    -0.369 C  
HETATM    3  C   UNL     1     -12.169   9.827  71.661  1.00  0.00    -0.404 C  
HETATM    4  O   UNL     1     -11.850  12.000  70.646  1.00  0.00    -0.260 OA 
HETATM    5  S   UNL     1     -13.692   8.824  71.964  1.00  0.00    -0.463 SA 
HETATM    6  H   UNL     1     -13.428   7.807  72.874  1.00  0.00     0.000 H  
ENDROOT
BRANCH   3   7
HETATM    7  C   UNL     1     -10.984   8.962  71.211  1.00  0.00    -0.293 C  
HETATM    8  C   UNL     1     -10.222   8.459  72.429  1.00  0.00    -0.329 C  
HETATM    9  S   UNL     1      -9.864   9.762  69.979  1.00  0.00    -0.243 SA 
HETATM   10  O   UNL     1      -8.913   8.786  72.483  1.00  0.00    -0.386 OA 
HETATM   11  O   UNL     1     -10.754   7.781  73.296  1.00  0.00    -0.374 OA 
HETATM   12  H   UNL     1      -8.791   8.978  69.572  1.00  0.00     0.000 H  
ENDBRANCH   3   7
TORSDOF 1
ENDMDL
MODEL      113
REMARK 921   NORMALIZED FREE ENERGY PREDICTED BY IDOCK:   -2.62 KCAL/MOL
REMARK 922        TOTAL FREE ENERGY PREDICTED BY IDOCK:   -2.71 KCAL/MOL
REMARK 923 INTER-LIGAND FREE ENERGY PREDICTED BY IDOCK:   -2.95 KCAL/MOL
REMARK 924 INTRA-LIGAND FREE ENERGY PREDICTED BY IDOCK:    0.24 KCAL/MOL
REMARK 927      BINDING AFFINITY PREDICTED BY RF-SCORE:    0.00 PKD
ROOT
HETATM    1  O   UNL     1     -12.183  14.982  68.705  1.00  0.00    -0.208 OA 
HETATM    2  C   UNL     1     -11.012  15.217  68.070  1.00  0.00    -0.299 C  
HETATM    3  C   UNL     1     -10.533  14.096  67.157  1.00  0.00    -0.270 C  
HETATM    4  O   UNL     1     -10.423  16.280  68.193  1.00  0.00    -0.266 OA 
HETATM    5  S   UNL     1     -11.097  12.457  67.802  1.00  0.00    -0.265 SA 
HETATM    6  H   UNL     1     -10.660  11.434  66.969  1.00  0.00     0.000 H  
ENDROOT
BRANCH   3   7
HETATM    7  C   UNL     1     -10.966  14.328  65.704  1.00  0.00    -0.309 C  
HETATM    8  C   UNL     1     -10.537  15.718  65.254  1.00  0.00    -0.423 C  
HETATM    9  S   UNL     1     -12.756  14.017  65.370  1.00  0.00    -0.377 SA 
HETATM   10  O   UNL     1     -11.526  16.530  64.823  1.00  0.00    -0.274 OA 
HETATM   11  O   UNL     1      -9.367  16.073  65.260  1.00  0.00    -0.255 OA 
HETATM   12  H   UNL     1     -13.148  14.227  64.053  1.00  0.00     0.000 H  
ENDBRANCH   3   7
TORSDOF 1
ENDMDL
MODEL      114
REMARK 921   NORMALIZED FREE ENERGY PREDICTED BY IDOCK:   -2.62 KCAL/MOL
REMARK 922        TOTAL FREE ENERGY PREDICTED BY IDOCK:   -2.71 KCAL/MOL
REMARK 923 INTER-LIGAND FREE ENERGY PREDICTED BY IDOCK:   -2.74 KCAL/MOL
REMARK 924 INTRA-LIGAND FREE ENERGY PREDICTED BY IDOCK:    0.04 KCAL/MOL
REMARK 927      BINDING AFFINITY PREDICTED BY RF-SCORE:    0.00 PKD
ROOT
HETATM    1  O   UNL     1      -9.976  14.788  65.611  1.00  0.00    -0.325 OA 
HETATM    2  C   UNL     1     -10.035  13.644  66.332  1.00  0.00    -0.296 C  
HETATM    3  C   UNL     1     -11.275  12.793  66.096  1.00  0.00    -0.298 C  
HETATM    4  O   UNL     1      -9.124  13.312  67.074  1.00  0.00    -0.218 OA 
HETATM    5  S   UNL     1     -12.718  13.864  65.660  1.00  0.00    -0.403 SA 
HETATM    6  H   UNL     1     -13.850  13.086  65.445  1.00  0.00     0.000 H  
ENDROOT
BRANCH   3   7
HETATM    7  C   UNL     1     -11.021  11.705  65.045  1.00  0.00    -0.273 C  
HETATM    8  C   UNL     1     -10.066  10.659  65.605  1.00  0.00    -0.272 C  
HETATM    9  S   UNL     1     -10.466  12.334  63.399  1.00  0.00    -0.249 SA 
HETATM   10  O   UNL     1      -8.930  10.462  64.903  1.00  0.00    -0.175 OA 
HETATM   11  O   UNL     1     -10.320  10.021  66.616  1.00  0.00    -0.234 OA 
HETATM   12  H   UNL     1     -10.236  11.348  62.446  1.00  0.00     0.000 H  
ENDBRANCH   3   7
TORSDOF 1
ENDMDL
MODEL      115
REMARK 921   NORMALIZED FREE ENERGY PREDICTED BY IDOCK:   -2.59 KCAL/MOL
REMARK 922        TOTAL FREE ENERGY PREDICTED BY IDOCK:   -2.68 KCAL/MOL
REMARK 923 INTER-LIGAND FREE ENERGY PREDICTED BY IDOCK:   -3.00 KCAL/MOL
REMARK 924 INTRA-LIGAND FREE ENERGY PREDICTED BY IDOCK:    0.32 KCAL/MOL
REMARK 927      BINDING AFFINITY PREDICTED BY RF-SCORE:    0.00 PKD
ROOT
HETATM    1  O   UNL     1      -6.034  17.646  66.324  1.00  0.00    -0.184 OA 
HETATM    2  C   UNL     1      -6.796  16.804  67.060  1.00  0.00    -0.211 C  
HETATM    3  C   UNL     1      -7.875  17.473  67.901  1.00  0.00    -0.218 C  
HETATM    4  O   UNL     1      -6.647  15.594  67.000  1.00  0.00    -0.283 OA 
HETATM    5  S   UNL     1      -7.330  19.163  68.420  1.00  0.00    -0.311 SA 
HETATM    6  H   UNL     1      -8.315  19.773  69.188  1.00  0.00     0.000 H  
ENDROOT
BRANCH   3   7
HETATM    7  C   UNL     1      -9.225  17.498  67.171  1.00  0.00    -0.243 C  
HETATM    8  C   UNL     1      -9.473  18.884  66.594  1.00  0.00    -0.334 C  
HETATM    9  S   UNL     1     -10.658  16.902  68.174  1.00  0.00    -0.369 SA 
HETATM   10  O   UNL     1     -10.604  19.500  67.003  1.00  0.00    -0.441 OA 
HETATM   11  O   UNL     1      -8.710  19.403  65.792  1.00  0.00    -0.403 OA 
HETATM   12  H   UNL     1     -11.880  16.924  67.513  1.00  0.00     0.000 H  
ENDBRANCH   3   7
TORSDOF 1
ENDMDL
MODEL      116
REMARK 921   NORMALIZED FREE ENERGY PREDICTED BY IDOCK:   -2.58 KCAL/MOL
REMARK 922        TOTAL FREE ENERGY PREDICTED BY IDOCK:   -2.67 KCAL/MOL
REMARK 923 INTER-LIGAND FREE ENERGY PREDICTED BY IDOCK:   -2.84 KCAL/MOL
REMARK 924 INTRA-LIGAND FREE ENERGY PREDICTED BY IDOCK:    0.17 KCAL/MOL
REMARK 927      BINDING AFFINITY PREDICTED BY RF-SCORE:    0.00 PKD
ROOT
HETATM    1  O   UNL     1     -11.024  14.602  70.135  1.00  0.00    -0.188 OA 
HETATM    2  C   UNL     1     -11.551  14.214  68.950  1.00  0.00    -0.310 C  
HETATM    3  C   UNL     1     -11.070  15.001  67.738  1.00  0.00    -0.310 C  
HETATM    4  O   UNL     1     -12.315  13.265  68.874  1.00  0.00    -0.178 OA 
HETATM    5  S   UNL     1     -10.669  16.742  68.219  1.00  0.00    -0.364 SA 
HETATM    6  H   UNL     1     -10.231  17.460  67.113  1.00  0.00     0.000 H  
ENDROOT
BRANCH   3   7
HETATM    7  C   UNL     1      -9.892  14.305  67.044  1.00  0.00    -0.254 C  
HETATM    8  C   UNL     1     -10.214  14.093  65.572  1.00  0.00    -0.351 C  
HETATM    9  S   UNL     1      -9.326  12.746  67.858  1.00  0.00    -0.214 SA 
HETATM   10  O   UNL     1     -10.171  12.815  65.137  1.00  0.00    -0.291 OA 
HETATM   11  O   UNL     1     -10.475  15.022  64.821  1.00  0.00    -0.381 OA 
HETATM   12  H   UNL     1      -8.258  12.116  67.230  1.00  0.00     0.000 H  
ENDBRANCH   3   7
TORSDOF 1
ENDMDL
MODEL      117
REMARK 921   NORMALIZED FREE ENERGY PREDICTED BY IDOCK:   -2.58 KCAL/MOL
REMARK 922        TOTAL FREE ENERGY PREDICTED BY IDOCK:   -2.67 KCAL/MOL
REMARK 923 INTER-LIGAND FREE ENERGY PREDICTED BY IDOCK:   -2.96 KCAL/MOL
REMARK 924 INTRA-LIGAND FREE ENERGY PREDICTED BY IDOCK:    0.29 KCAL/MOL
REMARK 927      BINDING AFFINITY PREDICTED BY RF-SCORE:    0.00 PKD
ROOT
HETATM    1  O   UNL     1     -10.985   9.445  69.208  1.00  0.00    -0.208 OA 
HETATM    2  C   UNL     1     -10.142   9.521  70.264  1.00  0.00    -0.262 C  
HETATM    3  C   UNL     1     -10.732   9.080  71.597  1.00  0.00    -0.371 C  
HETATM    4  O   UNL     1      -8.981   9.872  70.128  1.00  0.00    -0.216 OA 
HETATM    5  S   UNL     1     -12.549   9.425  71.643  1.00  0.00    -0.403 SA 
HETATM    6  H   UNL     1     -13.086   9.023  72.859  1.00  0.00     0.000 H  
ENDROOT
BRANCH   3   7
HETATM    7  C   UNL     1     -10.414   7.609  71.895  1.00  0.00    -0.215 C  
HETATM    8  C   UNL     1     -11.561   6.727  71.422  1.00  0.00    -0.305 C  
HETATM    9  S   UNL     1      -9.951   7.257  73.649  1.00  0.00    -0.325 SA 
HETATM   10  O   UNL     1     -12.136   5.949  72.365  1.00  0.00    -0.270 OA 
HETATM   11  O   UNL     1     -11.929   6.706  70.257  1.00  0.00    -0.387 OA 
HETATM   12  H   UNL     1      -9.663   5.924  73.919  1.00  0.00     0.000 H  
ENDBRANCH   3   7
TORSDOF 1
ENDMDL
MODEL      118
REMARK 921   NORMALIZED FREE ENERGY PREDICTED BY IDOCK:   -2.58 KCAL/MOL
REMARK 922        TOTAL FREE ENERGY PREDICTED BY IDOCK:   -2.67 KCAL/MOL
REMARK 923 INTER-LIGAND FREE ENERGY PREDICTED BY IDOCK:   -2.99 KCAL/MOL
REMARK 924 INTRA-LIGAND FREE ENERGY PREDICTED BY IDOCK:    0.32 KCAL/MOL
REMARK 927      BINDING AFFINITY PREDICTED BY RF-SCORE:    0.00 PKD
ROOT
HETATM    1  O   UNL     1      -9.849  10.921  68.302  1.00  0.00    -0.159 OA 
HETATM    2  C   UNL     1     -10.953  11.704  68.288  1.00  0.00    -0.226 C  
HETATM    3  C   UNL     1     -10.897  12.885  67.328  1.00  0.00    -0.255 C  
HETATM    4  O   UNL     1     -11.932  11.436  68.966  1.00  0.00    -0.329 OA 
HETATM    5  S   UNL     1      -9.156  13.478  67.137  1.00  0.00    -0.238 SA 
HETATM    6  H   UNL     1      -9.106  14.556  66.261  1.00  0.00     0.000 H  
ENDROOT
BRANCH   3   7
HETATM    7  C   UNL     1     -11.547  12.548  65.980  1.00  0.00    -0.406 C  
HETATM    8  C   UNL     1     -10.504  11.964  65.038  1.00  0.00    -0.289 C  
HETATM    9  S   UNL     1     -12.479  13.939  65.199  1.00  0.00    -0.439 SA 
HETATM   10  O   UNL     1     -10.331  12.618  63.869  1.00  0.00    -0.417 OA 
HETATM   11  O   UNL     1      -9.875  10.951  65.309  1.00  0.00    -0.230 OA 
HETATM   12  H   UNL     1     -13.067  13.633  63.978  1.00  0.00     0.000 H  
ENDBRANCH   3   7
TORSDOF 1
ENDMDL
MODEL      119
REMARK 921   NORMALIZED FREE ENERGY PREDICTED BY IDOCK:   -2.57 KCAL/MOL
REMARK 922        TOTAL FREE ENERGY PREDICTED BY IDOCK:   -2.66 KCAL/MOL
REMARK 923 INTER-LIGAND FREE ENERGY PREDICTED BY IDOCK:   -2.88 KCAL/MOL
REMARK 924 INTRA-LIGAND FREE ENERGY PREDICTED BY IDOCK:    0.23 KCAL/MOL
REMARK 927      BINDING AFFINITY PREDICTED BY RF-SCORE:    0.00 PKD
ROOT
HETATM    1  O   UNL     1      -6.750  20.547  68.337  1.00  0.00    -0.283 OA 
HETATM    2  C   UNL     1      -7.374  19.368  68.565  1.00  0.00    -0.333 C  
HETATM    3  C   UNL     1      -8.611  19.114  67.715  1.00  0.00    -0.301 C  
HETATM    4  O   UNL     1      -6.930  18.558  69.364  1.00  0.00    -0.227 OA 
HETATM    5  S   UNL     1      -9.448  20.712  67.303  1.00  0.00    -0.297 SA 
HETATM    6  H   UNL     1     -10.577  20.480  66.527  1.00  0.00     0.000 H  
ENDROOT
BRANCH   3   7
HETATM    7  C   UNL     1      -8.277  18.294  66.462  1.00  0.00    -0.268 C  
HETATM    8  C   UNL     1      -9.357  17.248  66.227  1.00  0.00    -0.223 C  
HETATM    9  S   UNL     1      -6.584  17.554  66.451  1.00  0.00    -0.270 SA 
HETATM   10  O   UNL     1      -8.937  15.965  66.187  1.00  0.00    -0.317 OA 
HETATM   11  O   UNL     1     -10.530  17.548  66.063  1.00  0.00    -0.367 OA 
HETATM   12  H   UNL     1      -6.281  16.811  65.316  1.00  0.00     0.000 H  
ENDBRANCH   3   7
TORSDOF 1
ENDMDL
MODEL      120
REMARK 921   NORMALIZED FREE ENERGY PREDICTED BY IDOCK:   -2.57 KCAL/MOL
REMARK 922        TOTAL FREE ENERGY PREDICTED BY IDOCK:   -2.66 KCAL/MOL
REMARK 923 INTER-LIGAND FREE ENERGY PREDICTED BY IDOCK:   -2.67 KCAL/MOL
REMARK 924 INTRA-LIGAND FREE ENERGY PREDICTED BY IDOCK:    0.01 KCAL/MOL
REMARK 927      BINDING AFFINITY PREDICTED BY RF-SCORE:    0.00 PKD
ROOT
HETATM    1  O   UNL     1      -8.724   7.206  69.676  1.00  0.00    -0.140 OA 
HETATM    2  C   UNL     1     -10.073   7.314  69.643  1.00  0.00    -0.194 C  
HETATM    3  C   UNL     1     -10.821   6.356  70.560  1.00  0.00    -0.279 C  
HETATM    4  O   UNL     1     -10.627   8.160  68.959  1.00  0.00    -0.215 OA 
HETATM    5  S   UNL     1      -9.872   4.781  70.759  1.00  0.00    -0.218 SA 
HETATM    6  H   UNL     1     -10.556   3.907  71.595  1.00  0.00     0.000 H  
ENDROOT
BRANCH   3   7
HETATM    7  C   UNL     1     -11.152   7.008  71.909  1.00  0.00    -0.242 C  
HETATM    8  C   UNL     1     -12.500   7.709  71.826  1.00  0.00    -0.329 C  
HETATM    9  S   UNL     1      -9.835   8.122  72.573  1.00  0.00    -0.306 SA 
HETATM   10  O   UNL     1     -12.497   9.030  72.109  1.00  0.00    -0.364 OA 
HETATM   11  O   UNL     1     -13.528   7.113  71.542  1.00  0.00    -0.383 OA 
HETATM   12  H   UNL     1     -10.135   8.713  73.795  1.00  0.00     0.000 H  
ENDBRANCH   3   7
TORSDOF 1
ENDMDL
MODEL      121
REMARK 921   NORMALIZED FREE ENERGY PREDICTED BY IDOCK:   -2.55 KCAL/MOL
REMARK 922        TOTAL FREE ENERGY PREDICTED BY IDOCK:   -2.64 KCAL/MOL
REMARK 923 INTER-LIGAND FREE ENERGY PREDICTED BY IDOCK:   -2.66 KCAL/MOL
REMARK 924 INTRA-LIGAND FREE ENERGY PREDICTED BY IDOCK:    0.02 KCAL/MOL
REMARK 927      BINDING AFFINITY PREDICTED BY RF-SCORE:    0.00 PKD
ROOT
HETATM    1  O   UNL     1     -10.649  18.072  66.858  1.00  0.00    -0.348 OA 
HETATM    2  C   UNL     1     -10.055  16.909  66.503  1.00  0.00    -0.315 C  
HETATM    3  C   UNL     1      -8.941  16.441  67.429  1.00  0.00    -0.191 C  
HETATM    4  O   UNL     1     -10.435  16.270  65.534  1.00  0.00    -0.392 OA 
HETATM    5  S   UNL     1      -8.091  17.893  68.198  1.00  0.00    -0.275 SA 
HETATM    6  H   UNL     1      -7.074  17.465  69.043  1.00  0.00     0.000 H  
ENDROOT
BRANCH   3   7
HETATM    7  C   UNL     1      -9.460  15.450  68.479  1.00  0.00    -0.202 C  
HETATM    8  C   UNL     1      -9.309  14.026  67.963  1.00  0.00    -0.205 C  
HETATM    9  S   UNL     1     -11.173  15.787  69.082  1.00  0.00    -0.349 SA 
HETATM   10  O   UNL     1     -10.445  13.298  67.898  1.00  0.00    -0.230 OA 
HETATM   11  O   UNL     1      -8.225  13.559  67.646  1.00  0.00    -0.151 OA 
HETATM   12  H   UNL     1     -11.643  14.889  70.034  1.00  0.00     0.000 H  
ENDBRANCH   3   7
TORSDOF 1
ENDMDL
MODEL      122
REMARK 921   NORMALIZED FREE ENERGY PREDICTED BY IDOCK:   -2.54 KCAL/MOL
REMARK 922        TOTAL FREE ENERGY PREDICTED BY IDOCK:   -2.63 KCAL/MOL
REMARK 923 INTER-LIGAND FREE ENERGY PREDICTED BY IDOCK:   -2.75 KCAL/MOL
REMARK 924 INTRA-LIGAND FREE ENERGY PREDICTED BY IDOCK:    0.13 KCAL/MOL
REMARK 927      BINDING AFFINITY PREDICTED BY RF-SCORE:    0.00 PKD
ROOT
HETATM    1  O   UNL     1     -12.144  11.162  68.192  1.00  0.00    -0.633 OA 
HETATM    2  C   UNL     1     -10.935  11.245  68.795  1.00  0.00    -0.220 C  
HETATM    3  C   UNL     1     -10.810  10.477  70.104  1.00  0.00    -0.227 C  
HETATM    4  O   UNL     1     -10.010  11.855  68.283  1.00  0.00    -0.192 OA 
HETATM    5  S   UNL     1     -12.442  10.413  70.971  1.00  0.00    -0.424 SA 
HETATM    6  H   UNL     1     -12.327   9.712  72.166  1.00  0.00     0.000 H  
ENDROOT
BRANCH   3   7
HETATM    7  C   UNL     1     -10.214   9.080  69.884  1.00  0.00    -0.202 C  
HETATM    8  C   UNL     1      -8.869   8.977  70.587  1.00  0.00    -0.219 C  
HETATM    9  S   UNL     1     -10.111   8.553  68.116  1.00  0.00    -0.208 SA 
HETATM   10  O   UNL     1      -7.816   8.660  69.802  1.00  0.00    -0.088 OA 
HETATM   11  O   UNL     1      -8.747   9.148  71.791  1.00  0.00    -0.342 OA 
HETATM   12  H   UNL     1      -9.572   7.287  67.916  1.00  0.00     0.000 H  
ENDBRANCH   3   7
TORSDOF 1
ENDMDL
MODEL      123
REMARK 921   NORMALIZED FREE ENERGY PREDICTED BY IDOCK:   -2.52 KCAL/MOL
REMARK 922        TOTAL FREE ENERGY PREDICTED BY IDOCK:   -2.60 KCAL/MOL
REMARK 923 INTER-LIGAND FREE ENERGY PREDICTED BY IDOCK:   -2.71 KCAL/MOL
REMARK 924 INTRA-LIGAND FREE ENERGY PREDICTED BY IDOCK:    0.11 KCAL/MOL
REMARK 927      BINDING AFFINITY PREDICTED BY RF-SCORE:    0.00 PKD
ROOT
HETATM    1  O   UNL     1     -11.505   5.233  72.632  1.00  0.00    -0.262 OA 
HETATM    2  C   UNL     1     -10.845   5.869  71.638  1.00  0.00    -0.263 C  
HETATM    3  C   UNL     1     -11.367   7.259  71.297  1.00  0.00    -0.264 C  
HETATM    4  O   UNL     1      -9.869   5.369  71.100  1.00  0.00    -0.170 OA 
HETATM    5  S   UNL     1     -13.186   7.358  71.615  1.00  0.00    -0.325 SA 
HETATM    6  H   UNL     1     -13.663   8.626  71.304  1.00  0.00     0.000 H  
ENDROOT
BRANCH   3   7
HETATM    7  C   UNL     1     -10.588   8.352  72.040  1.00  0.00    -0.317 C  
HETATM    8  C   UNL     1      -9.785   9.179  71.046  1.00  0.00    -0.289 C  
HETATM    9  S   UNL     1      -9.542   7.744  73.436  1.00  0.00    -0.260 SA 
HETATM   10  O   UNL     1      -8.451   9.222  71.256  1.00  0.00    -0.314 OA 
HETATM   11  O   UNL     1     -10.313   9.785  70.125  1.00  0.00    -0.247 OA 
HETATM   12  H   UNL     1      -8.836   8.735  74.110  1.00  0.00     0.000 H  
ENDBRANCH   3   7
TORSDOF 1
ENDMDL
MODEL      124
REMARK 921   NORMALIZED FREE ENERGY PREDICTED BY IDOCK:   -2.51 KCAL/MOL
REMARK 922        TOTAL FREE ENERGY PREDICTED BY IDOCK:   -2.60 KCAL/MOL
REMARK 923 INTER-LIGAND FREE ENERGY PREDICTED BY IDOCK:   -2.88 KCAL/MOL
REMARK 924 INTRA-LIGAND FREE ENERGY PREDICTED BY IDOCK:    0.29 KCAL/MOL
REMARK 927      BINDING AFFINITY PREDICTED BY RF-SCORE:    0.00 PKD
ROOT
HETATM    1  O   UNL     1      -8.427   7.575  71.808  1.00  0.00    -0.106 OA 
HETATM    2  C   UNL     1      -8.585   8.721  71.106  1.00  0.00    -0.195 C  
HETATM    3  C   UNL     1      -9.931   8.876  70.412  1.00  0.00    -0.194 C  
HETATM    4  O   UNL     1      -7.717   9.579  71.086  1.00  0.00    -0.325 OA 
HETATM    5  S   UNL     1     -10.603   7.220  69.933  1.00  0.00    -0.235 SA 
HETATM    6  H   UNL     1     -11.832   7.362  69.300  1.00  0.00     0.000 H  
ENDROOT
BRANCH   3   7
HETATM    7  C   UNL     1     -10.920   9.677  71.270  1.00  0.00    -0.329 C  
HETATM    8  C   UNL     1     -11.796   8.724  72.071  1.00  0.00    -0.372 C  
HETATM    9  S   UNL     1     -11.922  10.919  70.340  1.00  0.00    -0.387 SA 
HETATM   10  O   UNL     1     -13.127   8.842  71.876  1.00  0.00    -0.335 OA 
HETATM   11  O   UNL     1     -11.329   7.916  72.859  1.00  0.00    -0.406 OA 
HETATM   12  H   UNL     1     -12.817  11.645  71.117  1.00  0.00     0.000 H  
ENDBRANCH   3   7
TORSDOF 1
ENDMDL
MODEL      125
REMARK 921   NORMALIZED FREE ENERGY PREDICTED BY IDOCK:   -2.49 KCAL/MOL
REMARK 922        TOTAL FREE ENERGY PREDICTED BY IDOCK:   -2.58 KCAL/MOL
REMARK 923 INTER-LIGAND FREE ENERGY PREDICTED BY IDOCK:   -2.90 KCAL/MOL
REMARK 924 INTRA-LIGAND FREE ENERGY PREDICTED BY IDOCK:    0.32 KCAL/MOL
REMARK 927      BINDING AFFINITY PREDICTED BY RF-SCORE:    0.00 PKD
ROOT
HETATM    1  O   UNL     1      -5.744  17.257  67.932  1.00  0.00    -0.113 OA 
HETATM    2  C   UNL     1      -6.793  17.337  68.782  1.00  0.00    -0.219 C  
HETATM    3  C   UNL     1      -7.613  18.617  68.681  1.00  0.00    -0.314 C  
HETATM    4  O   UNL     1      -7.077  16.417  69.533  1.00  0.00    -0.223 OA 
HETATM    5  S   UNL     1      -6.538  20.030  68.162  1.00  0.00    -0.291 SA 
HETATM    6  H   UNL     1      -7.286  21.198  68.069  1.00  0.00     0.000 H  
ENDROOT
BRANCH   3   7
HETATM    7  C   UNL     1      -8.824  18.440  67.756  1.00  0.00    -0.278 C  
HETATM    8  C   UNL     1      -8.434  18.777  66.325  1.00  0.00    -0.241 C  
HETATM    9  S   UNL     1     -10.344  19.346  68.289  1.00  0.00    -0.336 SA 
HETATM   10  O   UNL     1      -9.151  19.757  65.733  1.00  0.00    -0.369 OA 
HETATM   11  O   UNL     1      -7.541  18.186  65.736  1.00  0.00    -0.519 OA 
HETATM   12  H   UNL     1     -11.441  19.185  67.451  1.00  0.00     0.000 H  
ENDBRANCH   3   7
TORSDOF 1
ENDMDL
MODEL      126
REMARK 921   NORMALIZED FREE ENERGY PREDICTED BY IDOCK:   -2.49 KCAL/MOL
REMARK 922        TOTAL FREE ENERGY PREDICTED BY IDOCK:   -2.58 KCAL/MOL
REMARK 923 INTER-LIGAND FREE ENERGY PREDICTED BY IDOCK:   -2.63 KCAL/MOL
REMARK 924 INTRA-LIGAND FREE ENERGY PREDICTED BY IDOCK:    0.05 KCAL/MOL
REMARK 927      BINDING AFFINITY PREDICTED BY RF-SCORE:    0.00 PKD
ROOT
HETATM    1  O   UNL     1     -11.266   6.181  68.642  1.00  0.00    -0.356 OA 
HETATM    2  C   UNL     1     -11.325   6.307  69.988  1.00  0.00    -0.416 C  
HETATM    3  C   UNL     1      -9.981   6.263  70.703  1.00  0.00    -0.186 C  
HETATM    4  O   UNL     1     -12.385   6.493  70.564  1.00  0.00    -0.259 OA 
HETATM    5  S   UNL     1      -8.792   5.193  69.773  1.00  0.00    -0.108 SA 
HETATM    6  H   UNL     1      -7.566   5.153  70.426  1.00  0.00     0.000 H  
ENDROOT
BRANCH   3   7
HETATM    7  C   UNL     1      -9.425   7.672  70.946  1.00  0.00    -0.164 C  
HETATM    8  C   UNL     1     -10.329   8.424  71.912  1.00  0.00    -0.283 C  
HETATM    9  S   UNL     1      -9.091   8.648  69.413  1.00  0.00    -0.150 SA 
HETATM   10  O   UNL     1     -10.843   9.587  71.457  1.00  0.00    -0.355 OA 
HETATM   11  O   UNL     1     -10.562   8.014  73.040  1.00  0.00    -0.353 OA 
HETATM   12  H   UNL     1      -8.588   9.925  69.633  1.00  0.00     0.000 H  
ENDBRANCH   3   7
TORSDOF 1
ENDMDL
MODEL      127
REMARK 921   NORMALIZED FREE ENERGY PREDICTED BY IDOCK:   -2.48 KCAL/MOL
REMARK 922        TOTAL FREE ENERGY PREDICTED BY IDOCK:   -2.57 KCAL/MOL
REMARK 923 INTER-LIGAND FREE ENERGY PREDICTED BY IDOCK:   -2.62 KCAL/MOL
REMARK 924 INTRA-LIGAND FREE ENERGY PREDICTED BY IDOCK:    0.06 KCAL/MOL
REMARK 927      BINDING AFFINITY PREDICTED BY RF-SCORE:    0.00 PKD
ROOT
HETATM    1  O   UNL     1      -8.675   7.885  67.936  1.00  0.00    -0.125 OA 
HETATM    2  C   UNL     1      -9.976   8.220  68.096  1.00  0.00    -0.191 C  
HETATM    3  C   UNL     1     -10.286   9.035  69.345  1.00  0.00    -0.213 C  
HETATM    4  O   UNL     1     -10.817   7.925  67.262  1.00  0.00    -0.272 OA 
HETATM    5  S   UNL     1      -9.112   8.599  70.706  1.00  0.00    -0.197 SA 
HETATM    6  H   UNL     1      -9.395   9.343  71.845  1.00  0.00     0.000 H  
ENDROOT
BRANCH   3   7
HETATM    7  C   UNL     1     -10.297  10.540  69.048  1.00  0.00    -0.213 C  
HETATM    8  C   UNL     1     -11.732  11.034  68.939  1.00  0.00    -0.330 C  
HETATM    9  S   UNL     1      -9.280  11.049  67.592  1.00  0.00    -0.151 SA 
HETATM   10  O   UNL     1     -12.066  11.627  67.772  1.00  0.00    -0.613 OA 
HETATM   11  O   UNL     1     -12.532  10.922  69.857  1.00  0.00    -0.319 OA 
HETATM   12  H   UNL     1      -9.290  12.413  67.323  1.00  0.00     0.000 H  
ENDBRANCH   3   7
TORSDOF 1
ENDMDL
MODEL      128
REMARK 921   NORMALIZED FREE ENERGY PREDICTED BY IDOCK:   -2.47 KCAL/MOL
REMARK 922        TOTAL FREE ENERGY PREDICTED BY IDOCK:   -2.55 KCAL/MOL
REMARK 923 INTER-LIGAND FREE ENERGY PREDICTED BY IDOCK:   -2.60 KCAL/MOL
REMARK 924 INTRA-LIGAND FREE ENERGY PREDICTED BY IDOCK:    0.05 KCAL/MOL
REMARK 927      BINDING AFFINITY PREDICTED BY RF-SCORE:    0.00 PKD
ROOT
HETATM    1  O   UNL     1     -12.272  12.221  66.342  1.00  0.00    -0.613 OA 
HETATM    2  C   UNL     1     -11.050  11.642  66.355  1.00  0.00    -0.291 C  
HETATM    3  C   UNL     1     -10.097  12.162  67.424  1.00  0.00    -0.199 C  
HETATM    4  O   UNL     1     -10.768  10.732  65.591  1.00  0.00    -0.183 OA 
HETATM    5  S   UNL     1     -10.448  13.941  67.788  1.00  0.00    -0.245 SA 
HETATM    6  H   UNL     1      -9.579  14.416  68.762  1.00  0.00     0.000 H  
ENDROOT
BRANCH   3   7
HETATM    7  C   UNL     1     -10.137  11.292  68.687  1.00  0.00    -0.208 C  
HETATM    8  C   UNL     1      -9.601   9.903  68.374  1.00  0.00    -0.148 C  
HETATM    9  S   UNL     1     -11.781  11.224  69.528  1.00  0.00    -0.377 SA 
HETATM   10  O   UNL     1     -10.442   8.876  68.624  1.00  0.00    -0.214 OA 
HETATM   11  O   UNL     1      -8.472   9.722  67.943  1.00  0.00    -0.123 OA 
HETATM   12  H   UNL     1     -11.817  10.437  70.673  1.00  0.00     0.000 H  
ENDBRANCH   3   7
TORSDOF 1
ENDMDL
MODEL      129
REMARK 921   NORMALIZED FREE ENERGY PREDICTED BY IDOCK:   -2.47 KCAL/MOL
REMARK 922        TOTAL FREE ENERGY PREDICTED BY IDOCK:   -2.55 KCAL/MOL
REMARK 923 INTER-LIGAND FREE ENERGY PREDICTED BY IDOCK:   -2.84 KCAL/MOL
REMARK 924 INTRA-LIGAND FREE ENERGY PREDICTED BY IDOCK:    0.29 KCAL/MOL
REMARK 927      BINDING AFFINITY PREDICTED BY RF-SCORE:    0.00 PKD
ROOT
HETATM    1  O   UNL     1     -12.088   6.294  71.240  1.00  0.00    -0.242 OA 
HETATM    2  C   UNL     1     -12.816   7.385  71.570  1.00  0.00    -0.375 C  
HETATM    3  C   UNL     1     -12.015   8.666  71.761  1.00  0.00    -0.336 C  
HETATM    4  O   UNL     1     -14.033   7.336  71.654  1.00  0.00    -0.395 OA 
HETATM    5  S   UNL     1     -10.318   8.276  72.384  1.00  0.00    -0.333 SA 
HETATM    6  H   UNL     1      -9.587   9.445  72.558  1.00  0.00     0.000 H  
ENDROOT
BRANCH   3   7
HETATM    7  C   UNL     1     -11.983   9.508  70.479  1.00  0.00    -0.134 C  
HETATM    8  C   UNL     1     -10.699   9.228  69.711  1.00  0.00    -0.231 C  
HETATM    9  S   UNL     1     -12.254  11.317  70.734  1.00  0.00    -0.355 SA 
HETATM   10  O   UNL     1      -9.913  10.299  69.464  1.00  0.00    -0.223 OA 
HETATM   11  O   UNL     1     -10.404   8.108  69.320  1.00  0.00    -0.211 OA 
HETATM   12  H   UNL     1     -12.225  12.080  69.572  1.00  0.00     0.000 H  
ENDBRANCH   3   7
TORSDOF 1
ENDMDL
MODEL      130
REMARK 921   NORMALIZED FREE ENERGY PREDICTED BY IDOCK:   -2.45 KCAL/MOL
REMARK 922        TOTAL FREE ENERGY PREDICTED BY IDOCK:   -2.53 KCAL/MOL
REMARK 923 INTER-LIGAND FREE ENERGY PREDICTED BY IDOCK:   -2.55 KCAL/MOL
REMARK 924 INTRA-LIGAND FREE ENERGY PREDICTED BY IDOCK:    0.02 KCAL/MOL
REMARK 927      BINDING AFFINITY PREDICTED BY RF-SCORE:    0.00 PKD
ROOT
HETATM    1  O   UNL     1     -11.008  11.820  68.319  1.00  0.00    -0.203 OA 
HETATM    2  C   UNL     1      -9.977  12.485  67.749  1.00  0.00    -0.210 C  
HETATM    3  C   UNL     1     -10.367  13.465  66.650  1.00  0.00    -0.269 C  
HETATM    4  O   UNL     1      -8.830  12.335  68.139  1.00  0.00    -0.178 OA 
HETATM    5  S   UNL     1     -11.884  12.876  65.772  1.00  0.00    -0.440 SA 
HETATM    6  H   UNL     1     -12.239  13.770  64.769  1.00  0.00     0.000 H  
ENDROOT
BRANCH   3   7
HETATM    7  C   UNL     1     -10.528  14.890  67.196  1.00  0.00    -0.271 C  
HETATM    8  C   UNL     1      -9.159  15.501  67.454  1.00  0.00    -0.199 C  
HETATM    9  S   UNL     1     -11.636  15.035  68.667  1.00  0.00    -0.325 SA 
HETATM   10  O   UNL     1      -8.926  15.916  68.718  1.00  0.00    -0.191 OA 
HETATM   11  O   UNL     1      -8.326  15.630  66.568  1.00  0.00    -0.269 OA 
HETATM   12  H   UNL     1     -11.783  16.326  69.161  1.00  0.00     0.000 H  
ENDBRANCH   3   7
TORSDOF 1
ENDMDL
MODEL      131
REMARK 921   NORMALIZED FREE ENERGY PREDICTED BY IDOCK:   -2.44 KCAL/MOL
REMARK 922        TOTAL FREE ENERGY PREDICTED BY IDOCK:   -2.52 KCAL/MOL
REMARK 923 INTER-LIGAND FREE ENERGY PREDICTED BY IDOCK:   -2.54 KCAL/MOL
REMARK 924 INTRA-LIGAND FREE ENERGY PREDICTED BY IDOCK:    0.02 KCAL/MOL
REMARK 927      BINDING AFFINITY PREDICTED BY RF-SCORE:    0.00 PKD
ROOT
HETATM    1  O   UNL     1      -8.486  11.225  67.640  1.00  0.00    -0.120 OA 
HETATM    2  C   UNL     1      -8.907  12.504  67.765  1.00  0.00    -0.178 C  
HETATM    3  C   UNL     1     -10.107  12.878  66.905  1.00  0.00    -0.241 C  
HETATM    4  O   UNL     1      -8.382  13.273  68.554  1.00  0.00    -0.148 OA 
HETATM    5  S   UNL     1     -10.109  11.892  65.340  1.00  0.00    -0.258 SA 
HETATM    6  H   UNL     1     -11.204  12.234  64.555  1.00  0.00     0.000 H  
ENDROOT
BRANCH   3   7
HETATM    7  C   UNL     1     -11.423  12.737  67.681  1.00  0.00    -0.334 C  
HETATM    8  C   UNL     1     -11.779  14.063  68.338  1.00  0.00    -0.354 C  
HETATM    9  S   UNL     1     -11.465  11.337  68.886  1.00  0.00    -0.328 SA 
HETATM   10  O   UNL     1     -11.929  14.036  69.680  1.00  0.00    -0.298 OA 
HETATM   11  O   UNL     1     -11.941  15.088  67.691  1.00  0.00    -0.277 OA 
HETATM   12  H   UNL     1     -12.658  11.209  69.589  1.00  0.00     0.000 H  
ENDBRANCH   3   7
TORSDOF 1
ENDMDL
MODEL      132
REMARK 921   NORMALIZED FREE ENERGY PREDICTED BY IDOCK:   -2.44 KCAL/MOL
REMARK 922        TOTAL FREE ENERGY PREDICTED BY IDOCK:   -2.52 KCAL/MOL
REMARK 923 INTER-LIGAND FREE ENERGY PREDICTED BY IDOCK:   -2.73 KCAL/MOL
REMARK 924 INTRA-LIGAND FREE ENERGY PREDICTED BY IDOCK:    0.21 KCAL/MOL
REMARK 927      BINDING AFFINITY PREDICTED BY RF-SCORE:    0.00 PKD
ROOT
HETATM    1  O   UNL     1      -6.976  17.964  67.431  1.00  0.00    -0.181 OA 
HETATM    2  C   UNL     1      -7.817  17.355  66.563  1.00  0.00    -0.285 C  
HETATM    3  C   UNL     1      -8.192  15.923  66.921  1.00  0.00    -0.248 C  
HETATM    4  O   UNL     1      -8.272  17.947  65.597  1.00  0.00    -0.476 OA 
HETATM    5  S   UNL     1      -6.806  15.103  67.830  1.00  0.00    -0.182 SA 
HETATM    6  H   UNL     1      -7.148  13.796  68.156  1.00  0.00     0.000 H  
ENDROOT
BRANCH   3   7
HETATM    7  C   UNL     1      -9.513  15.863  67.699  1.00  0.00    -0.219 C  
HETATM    8  C   UNL     1     -10.383  14.740  67.153  1.00  0.00    -0.255 C  
HETATM    9  S   UNL     1     -10.430  17.464  67.792  1.00  0.00    -0.373 SA 
HETATM   10  O   UNL     1     -11.604  15.104  66.706  1.00  0.00    -0.270 OA 
HETATM   11  O   UNL     1     -10.011  13.576  67.138  1.00  0.00    -0.239 OA 
HETATM   12  H   UNL     1     -11.627  17.409  68.498  1.00  0.00     0.000 H  
ENDBRANCH   3   7
TORSDOF 1
ENDMDL
MODEL      133
REMARK 921   NORMALIZED FREE ENERGY PREDICTED BY IDOCK:   -2.43 KCAL/MOL
REMARK 922        TOTAL FREE ENERGY PREDICTED BY IDOCK:   -2.51 KCAL/MOL
REMARK 923 INTER-LIGAND FREE ENERGY PREDICTED BY IDOCK:   -2.53 KCAL/MOL
REMARK 924 INTRA-LIGAND FREE ENERGY PREDICTED BY IDOCK:    0.02 KCAL/MOL
REMARK 927      BINDING AFFINITY PREDICTED BY RF-SCORE:    0.00 PKD
ROOT
HETATM    1  O   UNL     1      -6.625  16.138  67.872  1.00  0.00    -0.120 OA 
HETATM    2  C   UNL     1      -7.640  16.110  68.767  1.00  0.00    -0.193 C  
HETATM    3  C   UNL     1      -8.586  17.301  68.712  1.00  0.00    -0.230 C  
HETATM    4  O   UNL     1      -7.796  15.163  69.522  1.00  0.00    -0.210 OA 
HETATM    5  S   UNL     1      -7.682  18.817  68.158  1.00  0.00    -0.295 SA 
HETATM    6  H   UNL     1      -8.546  19.904  68.107  1.00  0.00     0.000 H  
ENDROOT
BRANCH   3   7
HETATM    7  C   UNL     1      -9.813  17.007  67.839  1.00  0.00    -0.269 C  
HETATM    8  C   UNL     1     -10.779  16.106  68.595  1.00  0.00    -0.295 C  
HETATM    9  S   UNL     1      -9.426  16.346  66.157  1.00  0.00    -0.326 SA 
HETATM   10  O   UNL     1     -11.085  14.934  67.996  1.00  0.00    -0.272 OA 
HETATM   11  O   UNL     1     -11.268  16.429  69.668  1.00  0.00    -0.323 OA 
HETATM   12  H   UNL     1     -10.538  16.080  65.366  1.00  0.00     0.000 H  
ENDBRANCH   3   7
TORSDOF 1
ENDMDL
MODEL      134
REMARK 921   NORMALIZED FREE ENERGY PREDICTED BY IDOCK:   -2.43 KCAL/MOL
REMARK 922        TOTAL FREE ENERGY PREDICTED BY IDOCK:   -2.51 KCAL/MOL
REMARK 923 INTER-LIGAND FREE ENERGY PREDICTED BY IDOCK:   -2.80 KCAL/MOL
REMARK 924 INTRA-LIGAND FREE ENERGY PREDICTED BY IDOCK:    0.29 KCAL/MOL
REMARK 927      BINDING AFFINITY PREDICTED BY RF-SCORE:    0.00 PKD
ROOT
HETATM    1  O   UNL     1      -9.486  15.433  66.204  1.00  0.00    -0.286 OA 
HETATM    2  C   UNL     1      -9.303  14.421  67.084  1.00  0.00    -0.220 C  
HETATM    3  C   UNL     1     -10.348  13.315  67.025  1.00  0.00    -0.246 C  
HETATM    4  O   UNL     1      -8.335  14.391  67.826  1.00  0.00    -0.147 OA 
HETATM    5  S   UNL     1     -11.983  14.001  66.500  1.00  0.00    -0.457 SA 
HETATM    6  H   UNL     1     -12.936  12.991  66.446  1.00  0.00     0.000 H  
ENDROOT
BRANCH   3   7
HETATM    7  C   UNL     1      -9.892  12.155  66.131  1.00  0.00    -0.237 C  
HETATM    8  C   UNL     1     -10.466  12.326  64.732  1.00  0.00    -0.296 C  
HETATM    9  S   UNL     1     -10.229  10.472  66.814  1.00  0.00    -0.242 SA 
HETATM   10  O   UNL     1     -11.226  11.306  64.277  1.00  0.00    -0.299 OA 
HETATM   11  O   UNL     1     -10.238  13.314  64.050  1.00  0.00    -0.366 OA 
HETATM   12  H   UNL     1      -9.815   9.421  66.004  1.00  0.00     0.000 H  
ENDBRANCH   3   7
TORSDOF 1
ENDMDL
MODEL      135
REMARK 921   NORMALIZED FREE ENERGY PREDICTED BY IDOCK:   -2.36 KCAL/MOL
REMARK 922        TOTAL FREE ENERGY PREDICTED BY IDOCK:   -2.44 KCAL/MOL
REMARK 923 INTER-LIGAND FREE ENERGY PREDICTED BY IDOCK:   -2.73 KCAL/MOL
REMARK 924 INTRA-LIGAND FREE ENERGY PREDICTED BY IDOCK:    0.29 KCAL/MOL
REMARK 927      BINDING AFFINITY PREDICTED BY RF-SCORE:    0.00 PKD
ROOT
HETATM    1  O   UNL     1     -10.509  11.434  68.261  1.00  0.00    -0.184 OA 
HETATM    2  C   UNL     1      -9.675  12.480  68.059  1.00  0.00    -0.215 C  
HETATM    3  C   UNL     1     -10.359  13.825  67.859  1.00  0.00    -0.244 C  
HETATM    4  O   UNL     1      -8.462  12.342  68.090  1.00  0.00    -0.167 OA 
HETATM    5  S   UNL     1     -12.010  13.595  67.057  1.00  0.00    -0.391 SA 
HETATM    6  H   UNL     1     -12.634  14.823  66.874  1.00  0.00     0.000 H  
ENDROOT
BRANCH   3   7
HETATM    7  C   UNL     1     -10.458  14.609  69.175  1.00  0.00    -0.233 C  
HETATM    8  C   UNL     1     -11.797  14.328  69.842  1.00  0.00    -0.322 C  
HETATM    9  S   UNL     1     -10.129  16.420  69.024  1.00  0.00    -0.277 SA 
HETATM   10  O   UNL     1     -12.573  15.407  70.086  1.00  0.00    -0.364 OA 
HETATM   11  O   UNL     1     -12.144  13.200  70.159  1.00  0.00    -0.338 OA 
HETATM   12  H   UNL     1     -10.219  17.130  70.216  1.00  0.00     0.000 H  
ENDBRANCH   3   7
TORSDOF 1
ENDMDL
MODEL      136
REMARK 921   NORMALIZED FREE ENERGY PREDICTED BY IDOCK:   -2.36 KCAL/MOL
REMARK 922        TOTAL FREE ENERGY PREDICTED BY IDOCK:   -2.44 KCAL/MOL
REMARK 923 INTER-LIGAND FREE ENERGY PREDICTED BY IDOCK:   -2.73 KCAL/MOL
REMARK 924 INTRA-LIGAND FREE ENERGY PREDICTED BY IDOCK:    0.29 KCAL/MOL
REMARK 927      BINDING AFFINITY PREDICTED BY RF-SCORE:    0.00 PKD
ROOT
HETATM    1  O   UNL     1     -11.498   5.369  72.861  1.00  0.00    -0.309 OA 
HETATM    2  C   UNL     1     -10.209   5.627  72.541  1.00  0.00    -0.190 C  
HETATM    3  C   UNL     1     -10.011   6.584  71.373  1.00  0.00    -0.183 C  
HETATM    4  O   UNL     1      -9.287   5.158  73.189  1.00  0.00    -0.131 OA 
HETATM    5  S   UNL     1     -11.407   6.429  70.170  1.00  0.00    -0.415 SA 
HETATM    6  H   UNL     1     -11.225   7.301  69.103  1.00  0.00     0.000 H  
ENDROOT
BRANCH   3   7
HETATM    7  C   UNL     1      -9.816   8.028  71.852  1.00  0.00    -0.191 C  
HETATM    8  C   UNL     1     -11.155   8.751  71.866  1.00  0.00    -0.364 C  
HETATM    9  S   UNL     1      -8.526   8.981  70.935  1.00  0.00    -0.203 SA 
HETATM   10  O   UNL     1     -11.229   9.871  71.114  1.00  0.00    -0.354 OA 
HETATM   11  O   UNL     1     -12.102   8.358  72.532  1.00  0.00    -0.393 OA 
HETATM   12  H   UNL     1      -8.350  10.290  71.370  1.00  0.00     0.000 H  
ENDBRANCH   3   7
TORSDOF 1
ENDMDL
MODEL      137
REMARK 921   NORMALIZED FREE ENERGY PREDICTED BY IDOCK:   -2.36 KCAL/MOL
REMARK 922        TOTAL FREE ENERGY PREDICTED BY IDOCK:   -2.44 KCAL/MOL
REMARK 923 INTER-LIGAND FREE ENERGY PREDICTED BY IDOCK:   -2.49 KCAL/MOL
REMARK 924 INTRA-LIGAND FREE ENERGY PREDICTED BY IDOCK:    0.05 KCAL/MOL
REMARK 927      BINDING AFFINITY PREDICTED BY RF-SCORE:    0.00 PKD
ROOT
HETATM    1  O   UNL     1     -12.250  11.031  68.205  1.00  0.00    -0.582 OA 
HETATM    2  C   UNL     1     -11.062  11.675  68.138  1.00  0.00    -0.242 C  
HETATM    3  C   UNL     1      -9.879  10.913  68.720  1.00  0.00    -0.196 C  
HETATM    4  O   UNL     1     -10.959  12.766  67.600  1.00  0.00    -0.231 OA 
HETATM    5  S   UNL     1     -10.434   9.822  70.106  1.00  0.00    -0.304 SA 
HETATM    6  H   UNL     1      -9.354   9.127  70.637  1.00  0.00     0.000 H  
ENDROOT
BRANCH   3   7
HETATM    7  C   UNL     1      -9.121  10.135  67.637  1.00  0.00    -0.137 C  
HETATM    8  C   UNL     1      -8.478  11.107  66.658  1.00  0.00    -0.164 C  
HETATM    9  S   UNL     1     -10.118   8.843  66.771  1.00  0.00    -0.279 SA 
HETATM   10  O   UNL     1      -8.836  10.965  65.363  1.00  0.00    -0.193 OA 
HETATM   11  O   UNL     1      -7.671  11.953  67.015  1.00  0.00    -0.157 OA 
HETATM   12  H   UNL     1      -9.431   8.138  65.790  1.00  0.00     0.000 H  
ENDBRANCH   3   7
TORSDOF 1
ENDMDL
MODEL      138
REMARK 921   NORMALIZED FREE ENERGY PREDICTED BY IDOCK:   -2.36 KCAL/MOL
REMARK 922        TOTAL FREE ENERGY PREDICTED BY IDOCK:   -2.43 KCAL/MOL
REMARK 923 INTER-LIGAND FREE ENERGY PREDICTED BY IDOCK:   -2.45 KCAL/MOL
REMARK 924 INTRA-LIGAND FREE ENERGY PREDICTED BY IDOCK:    0.02 KCAL/MOL
REMARK 927      BINDING AFFINITY PREDICTED BY RF-SCORE:    0.00 PKD
ROOT
HETATM    1  O   UNL     1      -9.083   7.506  66.214  1.00  0.00    -0.163 OA 
HETATM    2  C   UNL     1     -10.142   7.584  67.053  1.00  0.00    -0.261 C  
HETATM    3  C   UNL     1     -10.665   6.248  67.563  1.00  0.00    -0.319 C  
HETATM    4  O   UNL     1     -10.597   8.661  67.403  1.00  0.00    -0.274 OA 
HETATM    5  S   UNL     1     -10.387   4.924  66.301  1.00  0.00    -0.282 SA 
HETATM    6  H   UNL     1     -10.865   3.705  66.767  1.00  0.00     0.000 H  
ENDROOT
BRANCH   3   7
HETATM    7  C   UNL     1     -10.058   5.887  68.925  1.00  0.00    -0.180 C  
HETATM    8  C   UNL     1     -10.791   6.634  70.030  1.00  0.00    -0.280 C  
HETATM    9  S   UNL     1      -8.227   6.109  69.040  1.00  0.00    -0.113 SA 
HETATM   10  O   UNL     1     -10.028   7.428  70.812  1.00  0.00    -0.183 OA 
HETATM   11  O   UNL     1     -11.993   6.509  70.215  1.00  0.00    -0.394 OA 
HETATM   12  H   UNL     1      -7.677   5.782  70.274  1.00  0.00     0.000 H  
ENDBRANCH   3   7
TORSDOF 1
ENDMDL
MODEL      139
REMARK 921   NORMALIZED FREE ENERGY PREDICTED BY IDOCK:   -2.35 KCAL/MOL
REMARK 922        TOTAL FREE ENERGY PREDICTED BY IDOCK:   -2.43 KCAL/MOL
REMARK 923 INTER-LIGAND FREE ENERGY PREDICTED BY IDOCK:   -2.75 KCAL/MOL
REMARK 924 INTRA-LIGAND FREE ENERGY PREDICTED BY IDOCK:    0.32 KCAL/MOL
REMARK 927      BINDING AFFINITY PREDICTED BY RF-SCORE:    0.00 PKD
ROOT
HETATM    1  O   UNL     1      -8.766  18.741  65.850  1.00  0.00    -0.471 OA 
HETATM    2  C   UNL     1      -7.947  19.642  66.439  1.00  0.00    -0.318 C  
HETATM    3  C   UNL     1      -7.842  19.530  67.955  1.00  0.00    -0.295 C  
HETATM    4  O   UNL     1      -7.306  20.445  65.780  1.00  0.00    -0.236 OA 
HETATM    5  S   UNL     1      -9.428  18.893  68.663  1.00  0.00    -0.376 SA 
HETATM    6  H   UNL     1      -9.332  18.791  70.046  1.00  0.00     0.000 H  
ENDROOT
BRANCH   3   7
HETATM    7  C   UNL     1      -6.636  18.680  68.376  1.00  0.00    -0.233 C  
HETATM    8  C   UNL     1      -7.044  17.217  68.471  1.00  0.00    -0.220 C  
HETATM    9  S   UNL     1      -5.779  19.258  69.907  1.00  0.00    -0.252 SA 
HETATM   10  O   UNL     1      -6.849  16.627  69.670  1.00  0.00    -0.210 OA 
HETATM   11  O   UNL     1      -7.502  16.605  67.517  1.00  0.00    -0.142 OA 
HETATM   12  H   UNL     1      -4.686  18.488  70.288  1.00  0.00     0.000 H  
ENDBRANCH   3   7
TORSDOF 1
ENDMDL
MODEL      140
REMARK 921   NORMALIZED FREE ENERGY PREDICTED BY IDOCK:   -2.35 KCAL/MOL
REMARK 922        TOTAL FREE ENERGY PREDICTED BY IDOCK:   -2.43 KCAL/MOL
REMARK 923 INTER-LIGAND FREE ENERGY PREDICTED BY IDOCK:   -2.45 KCAL/MOL
REMARK 924 INTRA-LIGAND FREE ENERGY PREDICTED BY IDOCK:    0.02 KCAL/MOL
REMARK 927      BINDING AFFINITY PREDICTED BY RF-SCORE:    0.00 PKD
ROOT
HETATM    1  O   UNL     1     -10.045   9.235  71.036  1.00  0.00    -0.270 OA 
HETATM    2  C   UNL     1     -10.957   8.387  71.566  1.00  0.00    -0.262 C  
HETATM    3  C   UNL     1     -10.877   6.952  71.061  1.00  0.00    -0.241 C  
HETATM    4  O   UNL     1     -11.743   8.753  72.424  1.00  0.00    -0.353 OA 
HETATM    5  S   UNL     1     -10.262   6.917  69.318  1.00  0.00    -0.194 SA 
HETATM    6  H   UNL     1     -10.190   5.607  68.857  1.00  0.00     0.000 H  
ENDROOT
BRANCH   3   7
HETATM    7  C   UNL     1     -10.033   6.072  71.993  1.00  0.00    -0.170 C  
HETATM    8  C   UNL     1     -10.858   5.666  73.206  1.00  0.00    -0.282 C  
HETATM    9  S   UNL     1      -8.405   6.797  72.477  1.00  0.00    -0.111 SA 
HETATM   10  O   UNL     1     -10.350   6.014  74.408  1.00  0.00    -0.287 OA 
HETATM   11  O   UNL     1     -11.906   5.045  73.103  1.00  0.00    -0.279 OA 
HETATM   12  H   UNL     1      -7.640   6.000  73.321  1.00  0.00     0.000 H  
ENDBRANCH   3   7
TORSDOF 1
ENDMDL
MODEL      141
REMARK 921   NORMALIZED FREE ENERGY PREDICTED BY IDOCK:   -2.35 KCAL/MOL
REMARK 922        TOTAL FREE ENERGY PREDICTED BY IDOCK:   -2.43 KCAL/MOL
REMARK 923 INTER-LIGAND FREE ENERGY PREDICTED BY IDOCK:   -2.44 KCAL/MOL
REMARK 924 INTRA-LIGAND FREE ENERGY PREDICTED BY IDOCK:    0.02 KCAL/MOL
REMARK 927      BINDING AFFINITY PREDICTED BY RF-SCORE:    0.00 PKD
ROOT
HETATM    1  O   UNL     1      -7.325  10.662  67.661  1.00  0.00    -0.088 OA 
HETATM    2  C   UNL     1      -8.273  11.445  67.096  1.00  0.00    -0.157 C  
HETATM    3  C   UNL     1      -9.426  10.696  66.441  1.00  0.00    -0.171 C  
HETATM    4  O   UNL     1      -8.217  12.663  67.165  1.00  0.00    -0.182 OA 
HETATM    5  S   UNL     1      -8.845   9.068  65.784  1.00  0.00    -0.191 SA 
HETATM    6  H   UNL     1      -9.898   8.385  65.185  1.00  0.00     0.000 H  
ENDROOT
BRANCH   3   7
HETATM    7  C   UNL     1     -10.617  10.545  67.397  1.00  0.00    -0.263 C  
HETATM    8  C   UNL     1     -11.438  11.826  67.404  1.00  0.00    -0.305 C  
HETATM    9  S   UNL     1     -10.173  10.000  69.105  1.00  0.00    -0.225 SA 
HETATM   10  O   UNL     1     -11.593  12.422  68.606  1.00  0.00    -0.273 OA 
HETATM   11  O   UNL     1     -11.947  12.280  66.389  1.00  0.00    -0.589 OA 
HETATM   12  H   UNL     1     -11.252   9.863  69.971  1.00  0.00     0.000 H  
ENDBRANCH   3   7
TORSDOF 1
ENDMDL
MODEL      142
REMARK 921   NORMALIZED FREE ENERGY PREDICTED BY IDOCK:   -2.34 KCAL/MOL
REMARK 922        TOTAL FREE ENERGY PREDICTED BY IDOCK:   -2.42 KCAL/MOL
REMARK 923 INTER-LIGAND FREE ENERGY PREDICTED BY IDOCK:   -2.43 KCAL/MOL
REMARK 924 INTRA-LIGAND FREE ENERGY PREDICTED BY IDOCK:    0.02 KCAL/MOL
REMARK 927      BINDING AFFINITY PREDICTED BY RF-SCORE:    0.00 PKD
ROOT
HETATM    1  O   UNL     1     -10.714  14.873  65.862  1.00  0.00    -0.300 OA 
HETATM    2  C   UNL     1      -9.803  15.759  66.325  1.00  0.00    -0.297 C  
HETATM    3  C   UNL     1      -9.615  15.766  67.836  1.00  0.00    -0.214 C  
HETATM    4  O   UNL     1      -9.150  16.457  65.565  1.00  0.00    -0.390 OA 
HETATM    5  S   UNL     1     -11.194  15.306  68.682  1.00  0.00    -0.315 SA 
HETATM    6  H   UNL     1     -11.022  15.312  70.062  1.00  0.00     0.000 H  
ENDROOT
BRANCH   3   7
HETATM    7  C   UNL     1      -8.445  14.870  68.264  1.00  0.00    -0.151 C  
HETATM    8  C   UNL     1      -7.132  15.621  68.095  1.00  0.00    -0.118 C  
HETATM    9  S   UNL     1      -8.401  13.213  67.448  1.00  0.00    -0.185 SA 
HETATM   10  O   UNL     1      -6.219  15.040  67.286  1.00  0.00    -0.315 OA 
HETATM   11  O   UNL     1      -6.906  16.675  68.671  1.00  0.00    -0.151 OA 
HETATM   12  H   UNL     1      -7.341  12.401  67.836  1.00  0.00     0.000 H  
ENDBRANCH   3   7
TORSDOF 1
ENDMDL
MODEL      143
REMARK 921   NORMALIZED FREE ENERGY PREDICTED BY IDOCK:   -2.33 KCAL/MOL
REMARK 922        TOTAL FREE ENERGY PREDICTED BY IDOCK:   -2.40 KCAL/MOL
REMARK 923 INTER-LIGAND FREE ENERGY PREDICTED BY IDOCK:   -2.72 KCAL/MOL
REMARK 924 INTRA-LIGAND FREE ENERGY PREDICTED BY IDOCK:    0.32 KCAL/MOL
REMARK 927      BINDING AFFINITY PREDICTED BY RF-SCORE:    0.00 PKD
ROOT
HETATM    1  O   UNL     1     -11.439  14.865  71.305  1.00  0.00    -0.325 OA 
HETATM    2  C   UNL     1     -12.162  13.924  70.655  1.00  0.00    -0.373 C  
HETATM    3  C   UNL     1     -12.001  13.914  69.141  1.00  0.00    -0.363 C  
HETATM    4  O   UNL     1     -12.848  13.117  71.262  1.00  0.00    -0.353 OA 
HETATM    5  S   UNL     1     -11.651  15.621  68.520  1.00  0.00    -0.328 SA 
HETATM    6  H   UNL     1     -11.504  15.612  67.138  1.00  0.00     0.000 H  
ENDROOT
BRANCH   3   7
HETATM    7  C   UNL     1     -10.936  12.904  68.693  1.00  0.00    -0.261 C  
HETATM    8  C   UNL     1      -9.645  13.634  68.350  1.00  0.00    -0.203 C  
HETATM    9  S   UNL     1     -11.468  11.769  67.336  1.00  0.00    -0.280 SA 
HETATM   10  O   UNL     1      -9.179  13.452  67.096  1.00  0.00    -0.221 OA 
HETATM   11  O   UNL     1      -9.053  14.327  69.165  1.00  0.00    -0.012 OA 
HETATM   12  H   UNL     1     -10.503  10.854  66.930  1.00  0.00     0.000 H  
ENDBRANCH   3   7
TORSDOF 1
ENDMDL
MODEL      144
REMARK 921   NORMALIZED FREE ENERGY PREDICTED BY IDOCK:   -2.32 KCAL/MOL
REMARK 922        TOTAL FREE ENERGY PREDICTED BY IDOCK:   -2.40 KCAL/MOL
REMARK 923 INTER-LIGAND FREE ENERGY PREDICTED BY IDOCK:   -2.88 KCAL/MOL
REMARK 924 INTRA-LIGAND FREE ENERGY PREDICTED BY IDOCK:    0.48 KCAL/MOL
REMARK 927      BINDING AFFINITY PREDICTED BY RF-SCORE:    0.00 PKD
ROOT
HETATM    1  O   UNL     1     -12.535  13.808  66.505  1.00  0.00    -0.404 OA 
HETATM    2  C   UNL     1     -11.282  14.131  66.899  1.00  0.00    -0.317 C  
HETATM    3  C   UNL     1     -10.441  12.965  67.403  1.00  0.00    -0.233 C  
HETATM    4  O   UNL     1     -10.858  15.271  66.802  1.00  0.00    -0.308 OA 
HETATM    5  S   UNL     1     -11.520  11.686  68.189  1.00  0.00    -0.321 SA 
HETATM    6  H   UNL     1     -10.752  10.622  68.649  1.00  0.00     0.000 H  
ENDROOT
BRANCH   3   7
HETATM    7  C   UNL     1      -9.564  12.380  66.289  1.00  0.00    -0.241 C  
HETATM    8  C   UNL     1     -10.399  11.466  65.402  1.00  0.00    -0.279 C  
HETATM    9  S   UNL     1      -8.020  11.550  66.874  1.00  0.00    -0.157 SA 
HETATM   10  O   UNL     1      -9.968  10.191  65.297  1.00  0.00    -0.300 OA 
HETATM   11  O   UNL     1     -11.387  11.865  64.803  1.00  0.00    -0.316 OA 
HETATM   12  H   UNL     1      -7.226  11.019  65.864  1.00  0.00     0.000 H  
ENDBRANCH   3   7
TORSDOF 1
ENDMDL
MODEL      145
REMARK 921   NORMALIZED FREE ENERGY PREDICTED BY IDOCK:   -2.32 KCAL/MOL
REMARK 922        TOTAL FREE ENERGY PREDICTED BY IDOCK:   -2.39 KCAL/MOL
REMARK 923 INTER-LIGAND FREE ENERGY PREDICTED BY IDOCK:   -2.71 KCAL/MOL
REMARK 924 INTRA-LIGAND FREE ENERGY PREDICTED BY IDOCK:    0.32 KCAL/MOL
REMARK 927      BINDING AFFINITY PREDICTED BY RF-SCORE:    0.00 PKD
ROOT
HETATM    1  O   UNL     1      -8.598  11.446  67.449  1.00  0.00    -0.136 OA 
HETATM    2  C   UNL     1      -9.386  11.377  66.350  1.00  0.00    -0.204 C  
HETATM    3  C   UNL     1     -10.800  11.913  66.532  1.00  0.00    -0.278 C  
HETATM    4  O   UNL     1      -8.958  10.960  65.286  1.00  0.00    -0.194 OA 
HETATM    5  S   UNL     1     -11.362  11.666  68.277  1.00  0.00    -0.314 SA 
HETATM    6  H   UNL     1     -12.653  12.155  68.442  1.00  0.00     0.000 H  
ENDROOT
BRANCH   3   7
HETATM    7  C   UNL     1     -10.909  13.378  66.090  1.00  0.00    -0.281 C  
HETATM    8  C   UNL     1     -10.614  14.296  67.268  1.00  0.00    -0.278 C  
HETATM    9  S   UNL     1     -12.496  13.818  65.253  1.00  0.00    -0.478 SA 
HETATM   10  O   UNL     1     -11.591  15.169  67.594  1.00  0.00    -0.336 OA 
HETATM   11  O   UNL     1      -9.552  14.261  67.871  1.00  0.00    -0.210 OA 
HETATM   12  H   UNL     1     -12.595  15.146  64.852  1.00  0.00     0.000 H  
ENDBRANCH   3   7
TORSDOF 1
ENDMDL
MODEL      146
REMARK 921   NORMALIZED FREE ENERGY PREDICTED BY IDOCK:   -2.30 KCAL/MOL
REMARK 922        TOTAL FREE ENERGY PREDICTED BY IDOCK:   -2.37 KCAL/MOL
REMARK 923 INTER-LIGAND FREE ENERGY PREDICTED BY IDOCK:   -2.41 KCAL/MOL
REMARK 924 INTRA-LIGAND FREE ENERGY PREDICTED BY IDOCK:    0.04 KCAL/MOL
REMARK 927      BINDING AFFINITY PREDICTED BY RF-SCORE:    0.00 PKD
ROOT
HETATM    1  O   UNL     1     -10.970  10.134  67.748  1.00  0.00    -0.280 OA 
HETATM    2  C   UNL     1     -10.436   8.892  67.814  1.00  0.00    -0.239 C  
HETATM    3  C   UNL     1      -9.438   8.675  68.944  1.00  0.00    -0.146 C  
HETATM    4  O   UNL     1     -10.781   8.009  67.046  1.00  0.00    -0.328 OA 
HETATM    5  S   UNL     1      -8.549  10.251  69.329  1.00  0.00    -0.155 SA 
HETATM    6  H   UNL     1      -7.639  10.053  70.360  1.00  0.00     0.000 H  
ENDROOT
BRANCH   3   7
HETATM    7  C   UNL     1     -10.112   8.072  70.184  1.00  0.00    -0.194 C  
HETATM    8  C   UNL     1     -10.549   6.644  69.890  1.00  0.00    -0.226 C  
HETATM    9  S   UNL     1     -11.489   9.084  70.886  1.00  0.00    -0.299 SA 
HETATM   10  O   UNL     1     -11.864   6.384  70.050  1.00  0.00    -0.404 OA 
HETATM   11  O   UNL     1      -9.757   5.777  69.549  1.00  0.00    -0.141 OA 
HETATM   12  H   UNL     1     -12.099   8.537  72.009  1.00  0.00     0.000 H  
ENDBRANCH   3   7
TORSDOF 1
ENDMDL
MODEL      147
REMARK 921   NORMALIZED FREE ENERGY PREDICTED BY IDOCK:   -2.29 KCAL/MOL
REMARK 922        TOTAL FREE ENERGY PREDICTED BY IDOCK:   -2.36 KCAL/MOL
REMARK 923 INTER-LIGAND FREE ENERGY PREDICTED BY IDOCK:   -2.38 KCAL/MOL
REMARK 924 INTRA-LIGAND FREE ENERGY PREDICTED BY IDOCK:    0.01 KCAL/MOL
REMARK 927      BINDING AFFINITY PREDICTED BY RF-SCORE:    0.00 PKD
ROOT
HETATM    1  O   UNL     1     -10.619  10.837  69.588  1.00  0.00    -0.231 OA 
HETATM    2  C   UNL     1     -11.061  10.622  68.327  1.00  0.00    -0.279 C  
HETATM    3  C   UNL     1     -11.220  11.873  67.474  1.00  0.00    -0.296 C  
HETATM    4  O   UNL     1     -11.263   9.494  67.908  1.00  0.00    -0.097 OA 
HETATM    5  S   UNL     1     -11.658  13.324  68.534  1.00  0.00    -0.356 SA 
HETATM    6  H   UNL     1     -11.803  14.466  67.755  1.00  0.00     0.000 H  
ENDROOT
BRANCH   3   7
HETATM    7  C   UNL     1      -9.973  12.135  66.618  1.00  0.00    -0.206 C  
HETATM    8  C   UNL     1     -10.026  11.284  65.358  1.00  0.00    -0.250 C  
HETATM    9  S   UNL     1      -8.368  11.946  67.512  1.00  0.00    -0.168 SA 
HETATM   10  O   UNL     1      -8.983  10.446  65.168  1.00  0.00    -0.170 OA 
HETATM   11  O   UNL     1     -10.942  11.366  64.553  1.00  0.00    -0.326 OA 
HETATM   12  H   UNL     1      -7.238  12.183  66.737  1.00  0.00     0.000 H  
ENDBRANCH   3   7
TORSDOF 1
ENDMDL
MODEL      148
REMARK 921   NORMALIZED FREE ENERGY PREDICTED BY IDOCK:   -2.29 KCAL/MOL
REMARK 922        TOTAL FREE ENERGY PREDICTED BY IDOCK:   -2.36 KCAL/MOL
REMARK 923 INTER-LIGAND FREE ENERGY PREDICTED BY IDOCK:   -2.38 KCAL/MOL
REMARK 924 INTRA-LIGAND FREE ENERGY PREDICTED BY IDOCK:    0.02 KCAL/MOL
REMARK 927      BINDING AFFINITY PREDICTED BY RF-SCORE:    0.00 PKD
ROOT
HETATM    1  O   UNL     1      -7.804   5.298  71.824  1.00  0.00    -0.105 OA 
HETATM    2  C   UNL     1      -8.911   5.756  71.195  1.00  0.00    -0.136 C  
HETATM    3  C   UNL     1     -10.185   4.968  71.469  1.00  0.00    -0.204 C  
HETATM    4  O   UNL     1      -8.880   6.761  70.502  1.00  0.00    -0.149 OA 
HETATM    5  S   UNL     1      -9.786   3.190  71.787  1.00  0.00    -0.156 SA 
HETATM    6  H   UNL     1     -10.949   2.471  72.037  1.00  0.00     0.000 H  
ENDROOT
BRANCH   3   7
HETATM    7  C   UNL     1     -11.000   5.592  72.609  1.00  0.00    -0.270 C  
HETATM    8  C   UNL     1     -11.728   6.830  72.104  1.00  0.00    -0.297 C  
HETATM    9  S   UNL     1     -10.040   5.937  74.149  1.00  0.00    -0.293 SA 
HETATM   10  O   UNL     1     -11.458   7.981  72.757  1.00  0.00    -0.402 OA 
HETATM   11  O   UNL     1     -12.525   6.786  71.178  1.00  0.00    -0.367 OA 
HETATM   12  H   UNL     1     -10.779   6.502  75.182  1.00  0.00     0.000 H  
ENDBRANCH   3   7
TORSDOF 1
ENDMDL
MODEL      149
REMARK 921   NORMALIZED FREE ENERGY PREDICTED BY IDOCK:   -2.29 KCAL/MOL
REMARK 922        TOTAL FREE ENERGY PREDICTED BY IDOCK:   -2.36 KCAL/MOL
REMARK 923 INTER-LIGAND FREE ENERGY PREDICTED BY IDOCK:   -2.53 KCAL/MOL
REMARK 924 INTRA-LIGAND FREE ENERGY PREDICTED BY IDOCK:    0.18 KCAL/MOL
REMARK 927      BINDING AFFINITY PREDICTED BY RF-SCORE:    0.00 PKD
ROOT
HETATM    1  O   UNL     1      -9.940   7.443  73.905  1.00  0.00    -0.301 OA 
HETATM    2  C   UNL     1      -9.355   7.882  72.766  1.00  0.00    -0.234 C  
HETATM    3  C   UNL     1      -9.765   7.142  71.500  1.00  0.00    -0.164 C  
HETATM    4  O   UNL     1      -8.596   8.838  72.768  1.00  0.00    -0.412 OA 
HETATM    5  S   UNL     1     -10.176   5.380  71.889  1.00  0.00    -0.209 SA 
HETATM    6  H   UNL     1     -10.549   4.705  70.733  1.00  0.00     0.000 H  
ENDROOT
BRANCH   3   7
HETATM    7  C   UNL     1     -10.912   7.857  70.774  1.00  0.00    -0.252 C  
HETATM    8  C   UNL     1     -10.543   8.072  69.313  1.00  0.00    -0.184 C  
HETATM    9  S   UNL     1     -11.481   9.420  71.578  1.00  0.00    -0.398 SA 
HETATM   10  O   UNL     1     -10.555   9.352  68.883  1.00  0.00    -0.217 OA 
HETATM   11  O   UNL     1     -10.272   7.142  68.566  1.00  0.00    -0.164 OA 
HETATM   12  H   UNL     1     -12.520  10.069  70.920  1.00  0.00     0.000 H  
ENDBRANCH   3   7
TORSDOF 1
ENDMDL
MODEL      150
REMARK 921   NORMALIZED FREE ENERGY PREDICTED BY IDOCK:   -2.27 KCAL/MOL
REMARK 922        TOTAL FREE ENERGY PREDICTED BY IDOCK:   -2.34 KCAL/MOL
REMARK 923 INTER-LIGAND FREE ENERGY PREDICTED BY IDOCK:   -2.38 KCAL/MOL
REMARK 924 INTRA-LIGAND FREE ENERGY PREDICTED BY IDOCK:    0.04 KCAL/MOL
REMARK 927      BINDING AFFINITY PREDICTED BY RF-SCORE:    0.00 PKD
ROOT
HETATM    1  O   UNL     1     -11.419   8.039  72.936  1.00  0.00    -0.411 OA 
HETATM    2  C   UNL     1     -10.115   7.904  72.603  1.00  0.00    -0.279 C  
HETATM    3  C   UNL     1      -9.666   6.479  72.305  1.00  0.00    -0.153 C  
HETATM    4  O   UNL     1      -9.379   8.873  72.503  1.00  0.00    -0.308 OA 
HETATM    5  S   UNL     1     -10.653   5.273  73.300  1.00  0.00    -0.270 SA 
HETATM    6  H   UNL     1     -10.243   3.973  73.028  1.00  0.00     0.000 H  
ENDROOT
BRANCH   3   7
HETATM    7  C   UNL     1      -9.721   6.174  70.802  1.00  0.00    -0.177 C  
HETATM    8  C   UNL     1      -8.674   7.001  70.069  1.00  0.00    -0.142 C  
HETATM    9  S   UNL     1     -11.394   6.345  70.037  1.00  0.00    -0.417 SA 
HETATM   10  O   UNL     1      -9.139   7.811  69.094  1.00  0.00    -0.145 OA 
HETATM   11  O   UNL     1      -7.482   6.923  70.330  1.00  0.00    -0.082 OA 
HETATM   12  H   UNL     1     -11.443   6.067  68.676  1.00  0.00     0.000 H  
ENDBRANCH   3   7
TORSDOF 1
ENDMDL
MODEL      151
REMARK 921   NORMALIZED FREE ENERGY PREDICTED BY IDOCK:   -2.27 KCAL/MOL
REMARK 922        TOTAL FREE ENERGY PREDICTED BY IDOCK:   -2.34 KCAL/MOL
REMARK 923 INTER-LIGAND FREE ENERGY PREDICTED BY IDOCK:   -2.53 KCAL/MOL
REMARK 924 INTRA-LIGAND FREE ENERGY PREDICTED BY IDOCK:    0.19 KCAL/MOL
REMARK 927      BINDING AFFINITY PREDICTED BY RF-SCORE:    0.00 PKD
ROOT
HETATM    1  O   UNL     1      -9.284   5.986  67.273  1.00  0.00    -0.115 OA 
HETATM    2  C   UNL     1     -10.540   6.251  67.700  1.00  0.00    -0.271 C  
HETATM    3  C   UNL     1     -10.804   5.945  69.168  1.00  0.00    -0.336 C  
HETATM    4  O   UNL     1     -11.372   6.748  66.958  1.00  0.00    -0.337 OA 
HETATM    5  S   UNL     1      -9.754   4.530  69.729  1.00  0.00    -0.221 SA 
HETATM    6  H   UNL     1      -9.995   4.251  71.069  1.00  0.00     0.000 H  
ENDROOT
BRANCH   3   7
HETATM    7  C   UNL     1     -10.618   7.189  70.046  1.00  0.00    -0.232 C  
HETATM    8  C   UNL     1     -11.818   7.353  70.969  1.00  0.00    -0.307 C  
HETATM    9  S   UNL     1     -10.245   8.743  69.118  1.00  0.00    -0.209 SA 
HETATM   10  O   UNL     1     -12.485   8.523  70.867  1.00  0.00    -0.162 OA 
HETATM   11  O   UNL     1     -12.147   6.489  71.769  1.00  0.00    -0.338 OA 
HETATM   12  H   UNL     1     -10.076   9.870  69.914  1.00  0.00     0.000 H  
ENDBRANCH   3   7
TORSDOF 1
ENDMDL
MODEL      152
REMARK 921   NORMALIZED FREE ENERGY PREDICTED BY IDOCK:   -2.26 KCAL/MOL
REMARK 922        TOTAL FREE ENERGY PREDICTED BY IDOCK:   -2.33 KCAL/MOL
REMARK 923 INTER-LIGAND FREE ENERGY PREDICTED BY IDOCK:   -2.62 KCAL/MOL
REMARK 924 INTRA-LIGAND FREE ENERGY PREDICTED BY IDOCK:    0.29 KCAL/MOL
REMARK 927      BINDING AFFINITY PREDICTED BY RF-SCORE:    0.00 PKD
ROOT
HETATM    1  O   UNL     1     -10.273  10.336  68.317  1.00  0.00    -0.149 OA 
HETATM    2  C   UNL     1     -10.290   8.989  68.195  1.00  0.00    -0.214 C  
HETATM    3  C   UNL     1      -9.889   8.219  69.446  1.00  0.00    -0.185 C  
HETATM    4  O   UNL     1     -10.655   8.448  67.163  1.00  0.00    -0.311 OA 
HETATM    5  S   UNL     1      -8.668   9.194  70.437  1.00  0.00    -0.233 SA 
HETATM    6  H   UNL     1      -8.301   8.491  71.578  1.00  0.00     0.000 H  
ENDROOT
BRANCH   3   7
HETATM    7  C   UNL     1     -11.113   7.810  70.275  1.00  0.00    -0.234 C  
HETATM    8  C   UNL     1     -11.328   8.807  71.404  1.00  0.00    -0.294 C  
HETATM    9  S   UNL     1     -11.086   6.068  70.888  1.00  0.00    -0.255 SA 
HETATM   10  O   UNL     1     -11.325   8.293  72.653  1.00  0.00    -0.390 OA 
HETATM   11  O   UNL     1     -11.512   9.998  71.197  1.00  0.00    -0.357 OA 
HETATM   12  H   UNL     1     -12.196   5.697  71.639  1.00  0.00     0.000 H  
ENDBRANCH   3   7
TORSDOF 1
ENDMDL
MODEL      153
REMARK 921   NORMALIZED FREE ENERGY PREDICTED BY IDOCK:   -2.25 KCAL/MOL
REMARK 922        TOTAL FREE ENERGY PREDICTED BY IDOCK:   -2.31 KCAL/MOL
REMARK 923 INTER-LIGAND FREE ENERGY PREDICTED BY IDOCK:   -2.63 KCAL/MOL
REMARK 924 INTRA-LIGAND FREE ENERGY PREDICTED BY IDOCK:    0.32 KCAL/MOL
REMARK 927      BINDING AFFINITY PREDICTED BY RF-SCORE:    0.00 PKD
ROOT
HETATM    1  O   UNL     1     -12.540   8.864  72.298  1.00  0.00    -0.377 OA 
HETATM    2  C   UNL     1     -12.705   7.801  71.478  1.00  0.00    -0.332 C  
HETATM    3  C   UNL     1     -11.468   7.393  70.689  1.00  0.00    -0.282 C  
HETATM    4  O   UNL     1     -13.763   7.194  71.428  1.00  0.00    -0.367 OA 
HETATM    5  S   UNL     1     -10.414   8.871  70.336  1.00  0.00    -0.223 SA 
HETATM    6  H   UNL     1      -9.285   8.499  69.616  1.00  0.00     0.000 H  
ENDROOT
BRANCH   3   7
HETATM    7  C   UNL     1     -10.686   6.281  71.401  1.00  0.00    -0.248 C  
HETATM    8  C   UNL     1      -9.656   6.893  72.338  1.00  0.00    -0.153 C  
HETATM    9  S   UNL     1      -9.934   5.022  70.276  1.00  0.00    -0.269 SA 
HETATM   10  O   UNL     1      -8.372   6.537  72.118  1.00  0.00    -0.108 OA 
HETATM   11  O   UNL     1      -9.969   7.645  73.250  1.00  0.00    -0.273 OA 
HETATM   12  H   UNL     1      -9.226   4.014  70.921  1.00  0.00     0.000 H  
ENDBRANCH   3   7
TORSDOF 1
ENDMDL
MODEL      154
REMARK 921   NORMALIZED FREE ENERGY PREDICTED BY IDOCK:   -2.24 KCAL/MOL
REMARK 922        TOTAL FREE ENERGY PREDICTED BY IDOCK:   -2.31 KCAL/MOL
REMARK 923 INTER-LIGAND FREE ENERGY PREDICTED BY IDOCK:   -2.62 KCAL/MOL
REMARK 924 INTRA-LIGAND FREE ENERGY PREDICTED BY IDOCK:    0.31 KCAL/MOL
REMARK 927      BINDING AFFINITY PREDICTED BY RF-SCORE:    0.00 PKD
ROOT
HETATM    1  O   UNL     1      -9.239   7.682  74.057  1.00  0.00    -0.263 OA 
HETATM    2  C   UNL     1      -8.814   7.195  72.869  1.00  0.00    -0.129 C  
HETATM    3  C   UNL     1      -9.789   6.261  72.165  1.00  0.00    -0.156 C  
HETATM    4  O   UNL     1      -7.743   7.533  72.389  1.00  0.00    -0.087 OA 
HETATM    5  S   UNL     1     -10.805   5.338  73.405  1.00  0.00    -0.313 SA 
HETATM    6  H   UNL     1     -11.695   4.486  72.762  1.00  0.00     0.000 H  
ENDROOT
BRANCH   3   7
HETATM    7  C   UNL     1     -10.658   7.014  71.149  1.00  0.00    -0.217 C  
HETATM    8  C   UNL     1     -11.931   7.506  71.823  1.00  0.00    -0.301 C  
HETATM    9  S   UNL     1     -11.017   6.081  69.595  1.00  0.00    -0.393 SA 
HETATM   10  O   UNL     1     -13.090   7.081  71.277  1.00  0.00    -0.369 OA 
HETATM   11  O   UNL     1     -11.909   8.257  72.788  1.00  0.00    -0.388 OA 
HETATM   12  H   UNL     1     -11.804   6.763  68.675  1.00  0.00     0.000 H  
ENDBRANCH   3   7
TORSDOF 1
ENDMDL
MODEL      155
REMARK 921   NORMALIZED FREE ENERGY PREDICTED BY IDOCK:   -2.22 KCAL/MOL
REMARK 922        TOTAL FREE ENERGY PREDICTED BY IDOCK:   -2.29 KCAL/MOL
REMARK 923 INTER-LIGAND FREE ENERGY PREDICTED BY IDOCK:   -2.58 KCAL/MOL
REMARK 924 INTRA-LIGAND FREE ENERGY PREDICTED BY IDOCK:    0.29 KCAL/MOL
REMARK 927      BINDING AFFINITY PREDICTED BY RF-SCORE:    0.00 PKD
ROOT
HETATM    1  O   UNL     1      -9.464   9.118  68.495  1.00  0.00    -0.145 OA 
HETATM    2  C   UNL     1     -10.404   9.336  67.547  1.00  0.00    -0.262 C  
HETATM    3  C   UNL     1     -11.209  10.618  67.715  1.00  0.00    -0.313 C  
HETATM    4  O   UNL     1     -10.546   8.574  66.604  1.00  0.00    -0.255 OA 
HETATM    5  S   UNL     1     -11.368  11.047  69.507  1.00  0.00    -0.313 SA 
HETATM    6  H   UNL     1     -12.103  12.217  69.661  1.00  0.00     0.000 H  
ENDROOT
BRANCH   3   7
HETATM    7  C   UNL     1     -10.615  11.770  66.893  1.00  0.00    -0.235 C  
HETATM    8  C   UNL     1      -9.726  12.630  67.780  1.00  0.00    -0.206 C  
HETATM    9  S   UNL     1     -11.854  12.781  65.970  1.00  0.00    -0.441 SA 
HETATM   10  O   UNL     1     -10.059  13.937  67.858  1.00  0.00    -0.232 OA 
HETATM   11  O   UNL     1      -8.757  12.175  68.369  1.00  0.00    -0.176 OA 
HETATM   12  H   UNL     1     -11.316  13.824  65.225  1.00  0.00     0.000 H  
ENDBRANCH   3   7
TORSDOF 1
ENDMDL
MODEL      156
REMARK 921   NORMALIZED FREE ENERGY PREDICTED BY IDOCK:   -2.21 KCAL/MOL
REMARK 922        TOTAL FREE ENERGY PREDICTED BY IDOCK:   -2.28 KCAL/MOL
REMARK 923 INTER-LIGAND FREE ENERGY PREDICTED BY IDOCK:   -2.30 KCAL/MOL
REMARK 924 INTRA-LIGAND FREE ENERGY PREDICTED BY IDOCK:    0.02 KCAL/MOL
REMARK 927      BINDING AFFINITY PREDICTED BY RF-SCORE:    0.00 PKD
ROOT
HETATM    1  O   UNL     1     -10.010   8.119  73.236  1.00  0.00    -0.266 OA 
HETATM    2  C   UNL     1      -9.533   8.100  71.970  1.00  0.00    -0.215 C  
HETATM    3  C   UNL     1     -10.507   7.586  70.918  1.00  0.00    -0.213 C  
HETATM    4  O   UNL     1      -8.417   8.517  71.704  1.00  0.00    -0.150 OA 
HETATM    5  S   UNL     1     -11.649   6.332  71.656  1.00  0.00    -0.269 SA 
HETATM    6  H   UNL     1     -12.538   5.864  70.696  1.00  0.00     0.000 H  
ENDROOT
BRANCH   3   7
HETATM    7  C   UNL     1     -11.267   8.736  70.243  1.00  0.00    -0.195 C  
HETATM    8  C   UNL     1     -10.345   9.464  69.275  1.00  0.00    -0.208 C  
HETATM    9  S   UNL     1     -12.103   9.901  71.408  1.00  0.00    -0.420 SA 
HETATM   10  O   UNL     1     -10.179  10.786  69.499  1.00  0.00    -0.202 OA 
HETATM   11  O   UNL     1      -9.803   8.895  68.339  1.00  0.00    -0.164 OA 
HETATM   12  H   UNL     1     -12.791  10.942  70.796  1.00  0.00     0.000 H  
ENDBRANCH   3   7
TORSDOF 1
ENDMDL
MODEL      157
REMARK 921   NORMALIZED FREE ENERGY PREDICTED BY IDOCK:   -2.21 KCAL/MOL
REMARK 922        TOTAL FREE ENERGY PREDICTED BY IDOCK:   -2.28 KCAL/MOL
REMARK 923 INTER-LIGAND FREE ENERGY PREDICTED BY IDOCK:   -2.79 KCAL/MOL
REMARK 924 INTRA-LIGAND FREE ENERGY PREDICTED BY IDOCK:    0.52 KCAL/MOL
REMARK 927      BINDING AFFINITY PREDICTED BY RF-SCORE:    0.00 PKD
ROOT
HETATM    1  O   UNL     1     -12.628  11.038  68.839  1.00  0.00    -0.366 OA 
HETATM    2  C   UNL     1     -11.715  11.809  69.475  1.00  0.00    -0.343 C  
HETATM    3  C   UNL     1     -10.291  11.695  68.948  1.00  0.00    -0.153 C  
HETATM    4  O   UNL     1     -12.041  12.572  70.370  1.00  0.00    -0.362 OA 
HETATM    5  S   UNL     1      -9.986   9.999  68.278  1.00  0.00    -0.158 SA 
HETATM    6  H   UNL     1      -8.686   9.895  67.798  1.00  0.00     0.000 H  
ENDROOT
BRANCH   3   7
HETATM    7  C   UNL     1      -9.981  12.790  67.919  1.00  0.00    -0.229 C  
HETATM    8  C   UNL     1     -10.603  12.428  66.578  1.00  0.00    -0.235 C  
HETATM    9  S   UNL     1      -8.191  13.215  67.756  1.00  0.00    -0.184 SA 
HETATM   10  O   UNL     1      -9.750  12.340  65.535  1.00  0.00    -0.234 OA 
HETATM   11  O   UNL     1     -11.805  12.247  66.445  1.00  0.00    -0.529 OA 
HETATM   12  H   UNL     1      -7.910  14.207  66.823  1.00  0.00     0.000 H  
ENDBRANCH   3   7
TORSDOF 1
ENDMDL
MODEL      158
REMARK 921   NORMALIZED FREE ENERGY PREDICTED BY IDOCK:   -2.20 KCAL/MOL
REMARK 922        TOTAL FREE ENERGY PREDICTED BY IDOCK:   -2.27 KCAL/MOL
REMARK 923 INTER-LIGAND FREE ENERGY PREDICTED BY IDOCK:   -2.29 KCAL/MOL
REMARK 924 INTRA-LIGAND FREE ENERGY PREDICTED BY IDOCK:    0.02 KCAL/MOL
REMARK 927      BINDING AFFINITY PREDICTED BY RF-SCORE:    0.00 PKD
ROOT
HETATM    1  O   UNL     1     -10.044   5.032  68.949  1.00  0.00    -0.178 OA 
HETATM    2  C   UNL     1     -10.860   6.108  68.866  1.00  0.00    -0.340 C  
HETATM    3  C   UNL     1     -11.038   6.888  70.161  1.00  0.00    -0.299 C  
HETATM    4  O   UNL     1     -11.365   6.442  67.806  1.00  0.00    -0.266 OA 
HETATM    5  S   UNL     1     -10.895   5.758  71.618  1.00  0.00    -0.237 SA 
HETATM    6  H   UNL     1     -11.058   6.471  72.800  1.00  0.00     0.000 H  
ENDROOT
BRANCH   3   7
HETATM    7  C   UNL     1     -10.064   8.071  70.246  1.00  0.00    -0.192 C  
HETATM    8  C   UNL     1     -10.741   9.334  69.734  1.00  0.00    -0.231 C  
HETATM    9  S   UNL     1      -8.429   7.787  69.434  1.00  0.00    -0.135 SA 
HETATM   10  O   UNL     1     -10.129   9.955  68.702  1.00  0.00    -0.163 OA 
HETATM   11  O   UNL     1     -11.764   9.775  70.237  1.00  0.00    -0.251 OA 
HETATM   12  H   UNL     1      -7.546   8.858  69.511  1.00  0.00     0.000 H  
ENDBRANCH   3   7
TORSDOF 1
ENDMDL
MODEL      159
REMARK 921   NORMALIZED FREE ENERGY PREDICTED BY IDOCK:   -2.20 KCAL/MOL
REMARK 922        TOTAL FREE ENERGY PREDICTED BY IDOCK:   -2.27 KCAL/MOL
REMARK 923 INTER-LIGAND FREE ENERGY PREDICTED BY IDOCK:   -2.57 KCAL/MOL
REMARK 924 INTRA-LIGAND FREE ENERGY PREDICTED BY IDOCK:    0.30 KCAL/MOL
REMARK 927      BINDING AFFINITY PREDICTED BY RF-SCORE:    0.00 PKD
ROOT
HETATM    1  O   UNL     1     -11.242  16.321  67.550  1.00  0.00    -0.204 OA 
HETATM    2  C   UNL     1     -10.464  17.399  67.801  1.00  0.00    -0.376 C  
HETATM    3  C   UNL     1      -9.130  17.094  68.470  1.00  0.00    -0.265 C  
HETATM    4  O   UNL     1     -10.803  18.522  67.461  1.00  0.00    -0.422 OA 
HETATM    5  S   UNL     1      -9.279  15.599  69.549  1.00  0.00    -0.188 SA 
HETATM    6  H   UNL     1      -8.061  15.321  70.159  1.00  0.00     0.000 H  
ENDROOT
BRANCH   3   7
HETATM    7  C   UNL     1      -8.001  16.956  67.440  1.00  0.00    -0.170 C  
HETATM    8  C   UNL     1      -7.857  15.499  67.026  1.00  0.00    -0.225 C  
HETATM    9  S   UNL     1      -6.387  17.690  67.958  1.00  0.00    -0.168 SA 
HETATM   10  O   UNL     1      -6.641  14.946  67.226  1.00  0.00    -0.297 OA 
HETATM   11  O   UNL     1      -8.776  14.870  66.523  1.00  0.00    -0.254 OA 
HETATM   12  H   UNL     1      -5.364  17.565  67.024  1.00  0.00     0.000 H  
ENDBRANCH   3   7
TORSDOF 1
ENDMDL
MODEL      160
REMARK 921   NORMALIZED FREE ENERGY PREDICTED BY IDOCK:   -2.19 KCAL/MOL
REMARK 922        TOTAL FREE ENERGY PREDICTED BY IDOCK:   -2.26 KCAL/MOL
REMARK 923 INTER-LIGAND FREE ENERGY PREDICTED BY IDOCK:   -2.30 KCAL/MOL
REMARK 924 INTRA-LIGAND FREE ENERGY PREDICTED BY IDOCK:    0.04 KCAL/MOL
REMARK 927      BINDING AFFINITY PREDICTED BY RF-SCORE:    0.00 PKD
ROOT
HETATM    1  O   UNL     1      -8.036  11.230  66.138  1.00  0.00    -0.149 OA 
HETATM    2  C   UNL     1      -8.812  10.963  67.214  1.00  0.00    -0.134 C  
HETATM    3  C   UNL     1      -8.815  12.038  68.293  1.00  0.00    -0.182 C  
HETATM    4  O   UNL     1      -9.493   9.952  67.272  1.00  0.00    -0.149 OA 
HETATM    5  S   UNL     1      -7.187  12.916  68.332  1.00  0.00    -0.120 SA 
HETATM    6  H   UNL     1      -7.190  13.896  69.317  1.00  0.00     0.000 H  
ENDROOT
BRANCH   3   7
HETATM    7  C   UNL     1      -9.992  13.006  68.122  1.00  0.00    -0.231 C  
HETATM    8  C   UNL     1     -11.302  12.276  68.382  1.00  0.00    -0.292 C  
HETATM    9  S   UNL     1     -10.018  13.917  66.515  1.00  0.00    -0.292 SA 
HETATM   10  O   UNL     1     -12.198  12.292  67.371  1.00  0.00    -0.478 OA 
HETATM   11  O   UNL     1     -11.542  11.727  69.447  1.00  0.00    -0.273 OA 
HETATM   12  H   UNL     1     -11.085  14.795  66.359  1.00  0.00     0.000 H  
ENDBRANCH   3   7
TORSDOF 1
ENDMDL
MODEL      161
REMARK 921   NORMALIZED FREE ENERGY PREDICTED BY IDOCK:   -2.17 KCAL/MOL
REMARK 922        TOTAL FREE ENERGY PREDICTED BY IDOCK:   -2.24 KCAL/MOL
REMARK 923 INTER-LIGAND FREE ENERGY PREDICTED BY IDOCK:   -2.55 KCAL/MOL
REMARK 924 INTRA-LIGAND FREE ENERGY PREDICTED BY IDOCK:    0.31 KCAL/MOL
REMARK 927      BINDING AFFINITY PREDICTED BY RF-SCORE:    0.00 PKD
ROOT
HETATM    1  O   UNL     1      -9.950   4.856  69.880  1.00  0.00    -0.211 OA 
HETATM    2  C   UNL     1     -10.711   5.891  69.457  1.00  0.00    -0.343 C  
HETATM    3  C   UNL     1     -11.031   6.937  70.517  1.00  0.00    -0.273 C  
HETATM    4  O   UNL     1     -11.062   5.989  68.292  1.00  0.00    -0.309 OA 
HETATM    5  S   UNL     1     -11.117   6.151  72.189  1.00  0.00    -0.289 SA 
HETATM    6  H   UNL     1     -11.409   7.105  73.157  1.00  0.00     0.000 H  
ENDROOT
BRANCH   3   7
HETATM    7  C   UNL     1     -10.037   8.105  70.476  1.00  0.00    -0.192 C  
HETATM    8  C   UNL     1      -8.864   7.817  71.402  1.00  0.00    -0.132 C  
HETATM    9  S   UNL     1     -10.780   9.765  70.799  1.00  0.00    -0.292 SA 
HETATM   10  O   UNL     1      -8.643   8.727  72.375  1.00  0.00    -0.395 OA 
HETATM   11  O   UNL     1      -8.150   6.834  71.263  1.00  0.00    -0.109 OA 
HETATM   12  H   UNL     1      -9.879  10.823  70.762  1.00  0.00     0.000 H  
ENDBRANCH   3   7
TORSDOF 1
ENDMDL
MODEL      162
REMARK 921   NORMALIZED FREE ENERGY PREDICTED BY IDOCK:   -2.16 KCAL/MOL
REMARK 922        TOTAL FREE ENERGY PREDICTED BY IDOCK:   -2.23 KCAL/MOL
REMARK 923 INTER-LIGAND FREE ENERGY PREDICTED BY IDOCK:   -2.98 KCAL/MOL
REMARK 924 INTRA-LIGAND FREE ENERGY PREDICTED BY IDOCK:    0.75 KCAL/MOL
REMARK 927      BINDING AFFINITY PREDICTED BY RF-SCORE:    0.00 PKD
ROOT
HETATM    1  O   UNL     1     -10.301  19.787  69.204  1.00  0.00    -0.335 OA 
HETATM    2  C   UNL     1     -10.182  19.495  67.888  1.00  0.00    -0.431 C  
HETATM    3  C   UNL     1      -8.920  18.732  67.505  1.00  0.00    -0.274 C  
HETATM    4  O   UNL     1     -11.058  19.786  67.090  1.00  0.00    -0.366 OA 
HETATM    5  S   UNL     1      -7.529  19.180  68.638  1.00  0.00    -0.344 SA 
HETATM    6  H   UNL     1      -6.378  18.484  68.288  1.00  0.00     0.000 H  
ENDROOT
BRANCH   3   7
HETATM    7  C   UNL     1      -9.168  17.219  67.460  1.00  0.00    -0.227 C  
HETATM    8  C   UNL     1      -9.415  16.695  68.868  1.00  0.00    -0.251 C  
HETATM    9  S   UNL     1      -7.865  16.247  66.582  1.00  0.00    -0.262 SA 
HETATM   10  O   UNL     1      -8.576  15.725  69.292  1.00  0.00    -0.240 OA 
HETATM   11  O   UNL     1     -10.328  17.110  69.567  1.00  0.00    -0.250 OA 
HETATM   12  H   UNL     1      -8.089  14.876  66.541  1.00  0.00     0.000 H  
ENDBRANCH   3   7
TORSDOF 1
ENDMDL
MODEL      163
REMARK 921   NORMALIZED FREE ENERGY PREDICTED BY IDOCK:   -2.13 KCAL/MOL
REMARK 922        TOTAL FREE ENERGY PREDICTED BY IDOCK:   -2.20 KCAL/MOL
REMARK 923 INTER-LIGAND FREE ENERGY PREDICTED BY IDOCK:   -2.51 KCAL/MOL
REMARK 924 INTRA-LIGAND FREE ENERGY PREDICTED BY IDOCK:    0.31 KCAL/MOL
REMARK 927      BINDING AFFINITY PREDICTED BY RF-SCORE:    0.00 PKD
ROOT
HETATM    1  O   UNL     1     -10.108  13.903  67.941  1.00  0.00    -0.232 OA 
HETATM    2  C   UNL     1     -10.125  14.982  68.757  1.00  0.00    -0.231 C  
HETATM    3  C   UNL     1      -8.790  15.701  68.908  1.00  0.00    -0.222 C  
HETATM    4  O   UNL     1     -11.157  15.366  69.284  1.00  0.00    -0.247 OA 
HETATM    5  S   UNL     1      -7.391  14.503  68.735  1.00  0.00    -0.135 SA 
HETATM    6  H   UNL     1      -6.174  15.159  68.873  1.00  0.00     0.000 H  
ENDROOT
BRANCH   3   7
HETATM    7  C   UNL     1      -8.670  16.878  67.931  1.00  0.00    -0.213 C  
HETATM    8  C   UNL     1      -7.862  17.998  68.571  1.00  0.00    -0.303 C  
HETATM    9  S   UNL     1     -10.276  17.487  67.252  1.00  0.00    -0.344 SA 
HETATM   10  O   UNL     1      -8.482  19.194  68.664  1.00  0.00    -0.350 OA 
HETATM   11  O   UNL     1      -6.715  17.834  68.959  1.00  0.00    -0.231 OA 
HETATM   12  H   UNL     1     -10.167  18.554  66.367  1.00  0.00     0.000 H  
ENDBRANCH   3   7
TORSDOF 1
ENDMDL
MODEL      164
REMARK 921   NORMALIZED FREE ENERGY PREDICTED BY IDOCK:   -2.13 KCAL/MOL
REMARK 922        TOTAL FREE ENERGY PREDICTED BY IDOCK:   -2.20 KCAL/MOL
REMARK 923 INTER-LIGAND FREE ENERGY PREDICTED BY IDOCK:   -2.48 KCAL/MOL
REMARK 924 INTRA-LIGAND FREE ENERGY PREDICTED BY IDOCK:    0.29 KCAL/MOL
REMARK 927      BINDING AFFINITY PREDICTED BY RF-SCORE:    0.00 PKD
ROOT
HETATM    1  O   UNL     1      -8.373  13.568  68.074  1.00  0.00    -0.146 OA 
HETATM    2  C   UNL     1      -7.655  14.525  67.441  1.00  0.00    -0.184 C  
HETATM    3  C   UNL     1      -8.465  15.706  66.922  1.00  0.00    -0.251 C  
HETATM    4  O   UNL     1      -6.440  14.452  67.349  1.00  0.00    -0.307 OA 
HETATM    5  S   UNL     1     -10.173  15.164  66.465  1.00  0.00    -0.288 SA 
HETATM    6  H   UNL     1     -10.911  16.242  65.991  1.00  0.00     0.000 H  
ENDROOT
BRANCH   3   7
HETATM    7  C   UNL     1      -8.474  16.868  67.924  1.00  0.00    -0.203 C  
HETATM    8  C   UNL     1      -9.729  16.799  68.782  1.00  0.00    -0.261 C  
HETATM    9  S   UNL     1      -8.243  18.540  67.173  1.00  0.00    -0.257 SA 
HETATM   10  O   UNL     1     -10.526  17.889  68.751  1.00  0.00    -0.335 OA 
HETATM   11  O   UNL     1      -9.993  15.826  69.475  1.00  0.00    -0.253 OA 
HETATM   12  H   UNL     1      -8.251  19.592  68.081  1.00  0.00     0.000 H  
ENDBRANCH   3   7
TORSDOF 1
ENDMDL
MODEL      165
REMARK 921   NORMALIZED FREE ENERGY PREDICTED BY IDOCK:   -2.13 KCAL/MOL
REMARK 922        TOTAL FREE ENERGY PREDICTED BY IDOCK:   -2.19 KCAL/MOL
REMARK 923 INTER-LIGAND FREE ENERGY PREDICTED BY IDOCK:   -2.37 KCAL/MOL
REMARK 924 INTRA-LIGAND FREE ENERGY PREDICTED BY IDOCK:    0.18 KCAL/MOL
REMARK 927      BINDING AFFINITY PREDICTED BY RF-SCORE:    0.00 PKD
ROOT
HETATM    1  O   UNL     1      -9.849   4.129  67.785  1.00  0.00    -0.141 OA 
HETATM    2  C   UNL     1     -10.485   5.069  67.048  1.00  0.00    -0.148 C  
HETATM    3  C   UNL     1     -10.663   6.417  67.732  1.00  0.00    -0.303 C  
HETATM    4  O   UNL     1     -10.835   4.847  65.900  1.00  0.00    -0.289 OA 
HETATM    5  S   UNL     1     -10.824   6.195  69.561  1.00  0.00    -0.394 SA 
HETATM    6  H   UNL     1     -10.987   7.426  70.185  1.00  0.00     0.000 H  
ENDROOT
BRANCH   3   7
HETATM    7  C   UNL     1      -9.535   7.391  67.363  1.00  0.00    -0.141 C  
HETATM    8  C   UNL     1     -10.128   8.710  66.889  1.00  0.00    -0.285 C  
HETATM    9  S   UNL     1      -8.296   6.722  66.168  1.00  0.00    -0.136 SA 
HETATM   10  O   UNL     1      -9.773   9.104  65.647  1.00  0.00    -0.270 OA 
HETATM   11  O   UNL     1     -10.864   9.385  67.594  1.00  0.00    -0.267 OA 
HETATM   12  H   UNL     1      -7.274   7.604  65.834  1.00  0.00     0.000 H  
ENDBRANCH   3   7
TORSDOF 1
ENDMDL
MODEL      166
REMARK 921   NORMALIZED FREE ENERGY PREDICTED BY IDOCK:   -2.11 KCAL/MOL
REMARK 922        TOTAL FREE ENERGY PREDICTED BY IDOCK:   -2.17 KCAL/MOL
REMARK 923 INTER-LIGAND FREE ENERGY PREDICTED BY IDOCK:   -2.30 KCAL/MOL
REMARK 924 INTRA-LIGAND FREE ENERGY PREDICTED BY IDOCK:    0.13 KCAL/MOL
REMARK 927      BINDING AFFINITY PREDICTED BY RF-SCORE:    0.00 PKD
ROOT
HETATM    1  O   UNL     1      -8.698   6.309  68.939  1.00  0.00    -0.124 OA 
HETATM    2  C   UNL     1      -8.807   7.239  69.916  1.00  0.00    -0.142 C  
HETATM    3  C   UNL     1      -9.826   8.339  69.653  1.00  0.00    -0.184 C  
HETATM    4  O   UNL     1      -8.162   7.154  70.949  1.00  0.00    -0.113 OA 
HETATM    5  S   UNL     1      -9.968   8.665  67.838  1.00  0.00    -0.199 SA 
HETATM    6  H   UNL     1     -10.898   9.670  67.599  1.00  0.00     0.000 H  
ENDROOT
BRANCH   3   7
HETATM    7  C   UNL     1     -11.183   8.016  70.292  1.00  0.00    -0.190 C  
HETATM    8  C   UNL     1     -11.506   9.045  71.366  1.00  0.00    -0.330 C  
HETATM    9  S   UNL     1     -11.351   6.287  70.921  1.00  0.00    -0.301 SA 
HETATM   10  O   UNL     1     -11.721   8.555  72.607  1.00  0.00    -0.363 OA 
HETATM   11  O   UNL     1     -11.587  10.239  71.121  1.00  0.00    -0.355 OA 
HETATM   12  H   UNL     1     -12.580   5.994  71.499  1.00  0.00     0.000 H  
ENDBRANCH   3   7
TORSDOF 1
ENDMDL
MODEL      167
REMARK 921   NORMALIZED FREE ENERGY PREDICTED BY IDOCK:   -2.11 KCAL/MOL
REMARK 922        TOTAL FREE ENERGY PREDICTED BY IDOCK:   -2.17 KCAL/MOL
REMARK 923 INTER-LIGAND FREE ENERGY PREDICTED BY IDOCK:   -2.18 KCAL/MOL
REMARK 924 INTRA-LIGAND FREE ENERGY PREDICTED BY IDOCK:    0.01 KCAL/MOL
REMARK 927      BINDING AFFINITY PREDICTED BY RF-SCORE:    0.00 PKD
ROOT
HETATM    1  O   UNL     1     -10.054   8.753  70.265  1.00  0.00    -0.181 OA 
HETATM    2  C   UNL     1      -9.619   7.548  70.701  1.00  0.00    -0.171 C  
HETATM    3  C   UNL     1     -10.702   6.493  70.877  1.00  0.00    -0.242 C  
HETATM    4  O   UNL     1      -8.432   7.328  70.884  1.00  0.00    -0.125 OA 
HETATM    5  S   UNL     1     -12.307   7.289  71.339  1.00  0.00    -0.381 SA 
HETATM    6  H   UNL     1     -13.296   6.325  71.499  1.00  0.00     0.000 H  
ENDROOT
BRANCH   3   7
HETATM    7  C   UNL     1     -10.833   5.605  69.632  1.00  0.00    -0.295 C  
HETATM    8  C   UNL     1      -9.773   4.513  69.665  1.00  0.00    -0.218 C  
HETATM    9  S   UNL     1     -10.832   6.518  68.026  1.00  0.00    -0.289 SA 
HETATM   10  O   UNL     1      -8.934   4.473  68.608  1.00  0.00    -0.102 OA 
HETATM   11  O   UNL     1      -9.696   3.706  70.581  1.00  0.00    -0.180 OA 
HETATM   12  H   UNL     1     -10.950   5.713  66.899  1.00  0.00     0.000 H  
ENDBRANCH   3   7
TORSDOF 1
ENDMDL
MODEL      168
REMARK 921   NORMALIZED FREE ENERGY PREDICTED BY IDOCK:   -2.10 KCAL/MOL
REMARK 922        TOTAL FREE ENERGY PREDICTED BY IDOCK:   -2.16 KCAL/MOL
REMARK 923 INTER-LIGAND FREE ENERGY PREDICTED BY IDOCK:   -2.46 KCAL/MOL
REMARK 924 INTRA-LIGAND FREE ENERGY PREDICTED BY IDOCK:    0.29 KCAL/MOL
REMARK 927      BINDING AFFINITY PREDICTED BY RF-SCORE:    0.00 PKD
ROOT
HETATM    1  O   UNL     1     -11.817  11.535  67.450  1.00  0.00    -0.607 OA 
HETATM    2  C   UNL     1     -10.542  11.674  67.882  1.00  0.00    -0.193 C  
HETATM    3  C   UNL     1      -9.568  10.619  67.376  1.00  0.00    -0.158 C  
HETATM    4  O   UNL     1     -10.207  12.614  68.585  1.00  0.00    -0.222 OA 
HETATM    5  S   UNL     1     -10.443   9.012  67.105  1.00  0.00    -0.227 SA 
HETATM    6  H   UNL     1      -9.553   8.049  66.644  1.00  0.00     0.000 H  
ENDROOT
BRANCH   3   7
HETATM    7  C   UNL     1      -8.824  11.093  66.121  1.00  0.00    -0.190 C  
HETATM    8  C   UNL     1      -9.486  10.513  64.880  1.00  0.00    -0.252 C  
HETATM    9  S   UNL     1      -7.002  10.785  66.138  1.00  0.00    -0.097 SA 
HETATM   10  O   UNL     1      -8.693   9.769  64.079  1.00  0.00    -0.183 OA 
HETATM   11  O   UNL     1     -10.660  10.724  64.609  1.00  0.00    -0.328 OA 
HETATM   12  H   UNL     1      -6.328  11.214  65.001  1.00  0.00     0.000 H  
ENDBRANCH   3   7
TORSDOF 1
ENDMDL
MODEL      169
REMARK 921   NORMALIZED FREE ENERGY PREDICTED BY IDOCK:   -2.10 KCAL/MOL
REMARK 922        TOTAL FREE ENERGY PREDICTED BY IDOCK:   -2.16 KCAL/MOL
REMARK 923 INTER-LIGAND FREE ENERGY PREDICTED BY IDOCK:   -3.00 KCAL/MOL
REMARK 924 INTRA-LIGAND FREE ENERGY PREDICTED BY IDOCK:    0.85 KCAL/MOL
REMARK 927      BINDING AFFINITY PREDICTED BY RF-SCORE:    0.00 PKD
ROOT
HETATM    1  O   UNL     1     -12.454  14.305  69.524  1.00  0.00    -0.292 OA 
HETATM    2  C   UNL     1     -11.113  14.162  69.422  1.00  0.00    -0.221 C  
HETATM    3  C   UNL     1     -10.645  12.838  68.832  1.00  0.00    -0.122 C  
HETATM    4  O   UNL     1     -10.351  15.062  69.738  1.00  0.00    -0.222 OA 
HETATM    5  S   UNL     1     -11.842  11.490  69.246  1.00  0.00    -0.348 SA 
HETATM    6  H   UNL     1     -11.415  10.283  68.707  1.00  0.00     0.000 H  
ENDROOT
BRANCH   3   7
HETATM    7  C   UNL     1     -10.396  12.950  67.322  1.00  0.00    -0.234 C  
HETATM    8  C   UNL     1     -11.709  13.228  66.603  1.00  0.00    -0.377 C  
HETATM    9  S   UNL     1      -9.491  11.521  66.579  1.00  0.00    -0.210 SA 
HETATM   10  O   UNL     1     -12.063  12.333  65.656  1.00  0.00    -0.557 OA 
HETATM   11  O   UNL     1     -12.392  14.211  66.850  1.00  0.00    -0.419 OA 
HETATM   12  H   UNL     1      -9.266  11.623  65.211  1.00  0.00     0.000 H  
ENDBRANCH   3   7
TORSDOF 1
ENDMDL
MODEL      170
REMARK 921   NORMALIZED FREE ENERGY PREDICTED BY IDOCK:   -2.08 KCAL/MOL
REMARK 922        TOTAL FREE ENERGY PREDICTED BY IDOCK:   -2.14 KCAL/MOL
REMARK 923 INTER-LIGAND FREE ENERGY PREDICTED BY IDOCK:   -2.56 KCAL/MOL
REMARK 924 INTRA-LIGAND FREE ENERGY PREDICTED BY IDOCK:    0.42 KCAL/MOL
REMARK 927      BINDING AFFINITY PREDICTED BY RF-SCORE:    0.00 PKD
ROOT
HETATM    1  O   UNL     1     -10.975  15.578  66.726  1.00  0.00    -0.314 OA 
HETATM    2  C   UNL     1     -11.671  14.613  67.370  1.00  0.00    -0.390 C  
HETATM    3  C   UNL     1     -11.538  13.215  66.780  1.00  0.00    -0.366 C  
HETATM    4  O   UNL     1     -12.311  14.856  68.380  1.00  0.00    -0.090 OA 
HETATM    5  S   UNL     1     -11.271  13.311  64.952  1.00  0.00    -0.334 SA 
HETATM    6  H   UNL     1     -11.151  12.035  64.413  1.00  0.00     0.000 H  
ENDROOT
BRANCH   3   7
HETATM    7  C   UNL     1     -10.441  12.407  67.484  1.00  0.00    -0.215 C  
HETATM    8  C   UNL     1      -9.081  12.769  66.905  1.00  0.00    -0.221 C  
HETATM    9  S   UNL     1     -10.717  10.580  67.505  1.00  0.00    -0.291 SA 
HETATM   10  O   UNL     1      -8.369  11.746  66.385  1.00  0.00    -0.142 OA 
HETATM   11  O   UNL     1      -8.647  13.912  66.926  1.00  0.00    -0.201 OA 
HETATM   12  H   UNL     1      -9.723   9.848  68.143  1.00  0.00     0.000 H  
ENDBRANCH   3   7
TORSDOF 1
ENDMDL
MODEL      171
REMARK 921   NORMALIZED FREE ENERGY PREDICTED BY IDOCK:   -2.07 KCAL/MOL
REMARK 922        TOTAL FREE ENERGY PREDICTED BY IDOCK:   -2.13 KCAL/MOL
REMARK 923 INTER-LIGAND FREE ENERGY PREDICTED BY IDOCK:   -2.15 KCAL/MOL
REMARK 924 INTRA-LIGAND FREE ENERGY PREDICTED BY IDOCK:    0.02 KCAL/MOL
REMARK 927      BINDING AFFINITY PREDICTED BY RF-SCORE:    0.00 PKD
ROOT
HETATM    1  O   UNL     1     -11.789  10.888  67.804  1.00  0.00    -0.579 OA 
HETATM    2  C   UNL     1     -10.670  10.990  67.050  1.00  0.00    -0.270 C  
HETATM    3  C   UNL     1      -9.692  12.074  67.484  1.00  0.00    -0.187 C  
HETATM    4  O   UNL     1     -10.455  10.224  66.124  1.00  0.00    -0.210 OA 
HETATM    5  S   UNL     1     -10.600  13.487  68.258  1.00  0.00    -0.255 SA 
HETATM    6  H   UNL     1      -9.708  14.476  68.654  1.00  0.00     0.000 H  
ENDROOT
BRANCH   3   7
HETATM    7  C   UNL     1      -8.600  11.513  68.404  1.00  0.00    -0.159 C  
HETATM    8  C   UNL     1      -7.383  11.120  67.579  1.00  0.00    -0.102 C  
HETATM    9  S   UNL     1      -9.151  10.143  69.514  1.00  0.00    -0.164 SA 
HETATM   10  O   UNL     1      -6.992   9.831  67.679  1.00  0.00    -0.084 OA 
HETATM   11  O   UNL     1      -6.780  11.925  66.883  1.00  0.00    -0.138 OA 
HETATM   12  H   UNL     1      -8.162   9.635  70.348  1.00  0.00     0.000 H  
ENDBRANCH   3   7
TORSDOF 1
ENDMDL
MODEL      172
REMARK 921   NORMALIZED FREE ENERGY PREDICTED BY IDOCK:   -2.04 KCAL/MOL
REMARK 922        TOTAL FREE ENERGY PREDICTED BY IDOCK:   -2.09 KCAL/MOL
REMARK 923 INTER-LIGAND FREE ENERGY PREDICTED BY IDOCK:   -2.39 KCAL/MOL
REMARK 924 INTRA-LIGAND FREE ENERGY PREDICTED BY IDOCK:    0.29 KCAL/MOL
REMARK 927      BINDING AFFINITY PREDICTED BY RF-SCORE:    0.00 PKD
ROOT
HETATM    1  O   UNL     1      -9.571   7.077  69.212  1.00  0.00    -0.154 OA 
HETATM    2  C   UNL     1     -10.228   6.317  70.118  1.00  0.00    -0.189 C  
HETATM    3  C   UNL     1      -9.496   6.099  71.435  1.00  0.00    -0.156 C  
HETATM    4  O   UNL     1     -11.350   5.890  69.896  1.00  0.00    -0.364 OA 
HETATM    5  S   UNL     1      -7.666   6.105  71.163  1.00  0.00    -0.107 SA 
HETATM    6  H   UNL     1      -6.998   5.906  72.365  1.00  0.00     0.000 H  
ENDROOT
BRANCH   3   7
HETATM    7  C   UNL     1      -9.927   7.119  72.497  1.00  0.00    -0.168 C  
HETATM    8  C   UNL     1      -8.980   8.310  72.482  1.00  0.00    -0.236 C  
HETATM    9  S   UNL     1     -10.138   6.426  74.196  1.00  0.00    -0.349 SA 
HETATM   10  O   UNL     1      -8.353   8.581  73.648  1.00  0.00    -0.373 OA 
HETATM   11  O   UNL     1      -8.810   8.996  71.485  1.00  0.00    -0.289 OA 
HETATM   12  H   UNL     1     -10.529   7.351  75.158  1.00  0.00     0.000 H  
ENDBRANCH   3   7
TORSDOF 1
ENDMDL
MODEL      173
REMARK 921   NORMALIZED FREE ENERGY PREDICTED BY IDOCK:   -2.03 KCAL/MOL
REMARK 922        TOTAL FREE ENERGY PREDICTED BY IDOCK:   -2.09 KCAL/MOL
REMARK 923 INTER-LIGAND FREE ENERGY PREDICTED BY IDOCK:   -2.98 KCAL/MOL
REMARK 924 INTRA-LIGAND FREE ENERGY PREDICTED BY IDOCK:    0.89 KCAL/MOL
REMARK 927      BINDING AFFINITY PREDICTED BY RF-SCORE:    0.00 PKD
ROOT
HETATM    1  O   UNL     1     -12.619  13.808  65.819  1.00  0.00    -0.484 OA 
HETATM    2  C   UNL     1     -11.496  13.141  66.171  1.00  0.00    -0.330 C  
HETATM    3  C   UNL     1     -11.290  12.964  67.670  1.00  0.00    -0.303 C  
HETATM    4  O   UNL     1     -10.742  12.676  65.331  1.00  0.00    -0.269 OA 
HETATM    5  S   UNL     1     -12.030  14.386  68.593  1.00  0.00    -0.256 SA 
HETATM    6  H   UNL     1     -11.842  14.224  69.960  1.00  0.00     0.000 H  
ENDROOT
BRANCH   3   7
HETATM    7  C   UNL     1     -11.827  11.613  68.158  1.00  0.00    -0.244 C  
HETATM    8  C   UNL     1     -11.781  11.558  69.678  1.00  0.00    -0.351 C  
HETATM    9  S   UNL     1     -11.022  10.137  67.390  1.00  0.00    -0.141 SA 
HETATM   10  O   UNL     1     -11.063  10.546  70.211  1.00  0.00    -0.298 OA 
HETATM   11  O   UNL     1     -12.374  12.367  70.377  1.00  0.00    -0.303 OA 
HETATM   12  H   UNL     1     -11.509   8.912  67.832  1.00  0.00     0.000 H  
ENDBRANCH   3   7
TORSDOF 1
ENDMDL
MODEL      174
REMARK 921   NORMALIZED FREE ENERGY PREDICTED BY IDOCK:   -2.03 KCAL/MOL
REMARK 922        TOTAL FREE ENERGY PREDICTED BY IDOCK:   -2.09 KCAL/MOL
REMARK 923 INTER-LIGAND FREE ENERGY PREDICTED BY IDOCK:   -2.23 KCAL/MOL
REMARK 924 INTRA-LIGAND FREE ENERGY PREDICTED BY IDOCK:    0.15 KCAL/MOL
REMARK 927      BINDING AFFINITY PREDICTED BY RF-SCORE:    0.00 PKD
ROOT
HETATM    1  O   UNL     1      -7.468  10.512  68.433  1.00  0.00    -0.086 OA 
HETATM    2  C   UNL     1      -8.272  10.816  67.388  1.00  0.00    -0.116 C  
HETATM    3  C   UNL     1      -9.728  11.082  67.745  1.00  0.00    -0.170 C  
HETATM    4  O   UNL     1      -7.830  10.915  66.254  1.00  0.00    -0.155 OA 
HETATM    5  S   UNL     1     -10.219  10.089  69.227  1.00  0.00    -0.229 SA 
HETATM    6  H   UNL     1     -11.548  10.332  69.553  1.00  0.00     0.000 H  
ENDROOT
BRANCH   3   7
HETATM    7  C   UNL     1      -9.997  12.581  67.937  1.00  0.00    -0.212 C  
HETATM    8  C   UNL     1     -11.054  13.045  66.945  1.00  0.00    -0.277 C  
HETATM    9  S   UNL     1      -8.490  13.649  67.891  1.00  0.00    -0.192 SA 
HETATM   10  O   UNL     1     -10.686  14.046  66.116  1.00  0.00    -0.285 OA 
HETATM   11  O   UNL     1     -12.175  12.559  66.912  1.00  0.00    -0.511 OA 
HETATM   12  H   UNL     1      -8.734  15.007  68.064  1.00  0.00     0.000 H  
ENDBRANCH   3   7
TORSDOF 1
ENDMDL
MODEL      175
REMARK 921   NORMALIZED FREE ENERGY PREDICTED BY IDOCK:   -2.02 KCAL/MOL
REMARK 922        TOTAL FREE ENERGY PREDICTED BY IDOCK:   -2.08 KCAL/MOL
REMARK 923 INTER-LIGAND FREE ENERGY PREDICTED BY IDOCK:   -2.47 KCAL/MOL
REMARK 924 INTRA-LIGAND FREE ENERGY PREDICTED BY IDOCK:    0.39 KCAL/MOL
REMARK 927      BINDING AFFINITY PREDICTED BY RF-SCORE:    0.00 PKD
ROOT
HETATM    1  O   UNL     1     -11.817   6.202  70.989  1.00  0.00    -0.236 OA 
HETATM    2  C   UNL     1     -11.371   6.783  69.851  1.00  0.00    -0.320 C  
HETATM    3  C   UNL     1     -10.829   8.197  70.013  1.00  0.00    -0.233 C  
HETATM    4  O   UNL     1     -11.365   6.180  68.789  1.00  0.00    -0.344 OA 
HETATM    5  S   UNL     1     -11.701   9.065  71.394  1.00  0.00    -0.347 SA 
HETATM    6  H   UNL     1     -11.206  10.355  71.542  1.00  0.00     0.000 H  
ENDROOT
BRANCH   3   7
HETATM    7  C   UNL     1      -9.306   8.199  70.197  1.00  0.00    -0.159 C  
HETATM    8  C   UNL     1      -8.963   7.959  71.660  1.00  0.00    -0.138 C  
HETATM    9  S   UNL     1      -8.447   9.690  69.523  1.00  0.00    -0.175 SA 
HETATM   10  O   UNL     1      -8.220   8.916  72.257  1.00  0.00    -0.379 OA 
HETATM   11  O   UNL     1      -9.317   6.952  72.256  1.00  0.00    -0.139 OA 
HETATM   12  H   UNL     1      -7.067   9.692  69.689  1.00  0.00     0.000 H  
ENDBRANCH   3   7
TORSDOF 1
ENDMDL
MODEL      176
REMARK 921   NORMALIZED FREE ENERGY PREDICTED BY IDOCK:   -2.02 KCAL/MOL
REMARK 922        TOTAL FREE ENERGY PREDICTED BY IDOCK:   -2.08 KCAL/MOL
REMARK 923 INTER-LIGAND FREE ENERGY PREDICTED BY IDOCK:   -2.37 KCAL/MOL
REMARK 924 INTRA-LIGAND FREE ENERGY PREDICTED BY IDOCK:    0.29 KCAL/MOL
REMARK 927      BINDING AFFINITY PREDICTED BY RF-SCORE:    0.00 PKD
ROOT
HETATM    1  O   UNL     1      -9.510   5.712  68.149  1.00  0.00    -0.107 OA 
HETATM    2  C   UNL     1     -10.601   6.511  68.186  1.00  0.00    -0.251 C  
HETATM    3  C   UNL     1     -10.966   7.046  69.565  1.00  0.00    -0.220 C  
HETATM    4  O   UNL     1     -11.205   6.812  67.169  1.00  0.00    -0.379 OA 
HETATM    5  S   UNL     1     -10.472   5.837  70.875  1.00  0.00    -0.264 SA 
HETATM    6  H   UNL     1     -10.806   6.325  72.133  1.00  0.00     0.000 H  
ENDROOT
BRANCH   3   7
HETATM    7  C   UNL     1     -10.370   8.439  69.806  1.00  0.00    -0.216 C  
HETATM    8  C   UNL     1      -9.062   8.313  70.574  1.00  0.00    -0.147 C  
HETATM    9  S   UNL     1     -11.521   9.647  70.597  1.00  0.00    -0.325 SA 
HETATM   10  O   UNL     1      -9.002   8.976  71.750  1.00  0.00    -0.343 OA 
HETATM   11  O   UNL     1      -8.114   7.671  70.147  1.00  0.00    -0.114 OA 
HETATM   12  H   UNL     1     -10.981  10.909  70.816  1.00  0.00     0.000 H  
ENDBRANCH   3   7
TORSDOF 1
ENDMDL
MODEL      177
REMARK 921   NORMALIZED FREE ENERGY PREDICTED BY IDOCK:   -1.99 KCAL/MOL
REMARK 922        TOTAL FREE ENERGY PREDICTED BY IDOCK:   -2.05 KCAL/MOL
REMARK 923 INTER-LIGAND FREE ENERGY PREDICTED BY IDOCK:   -2.38 KCAL/MOL
REMARK 924 INTRA-LIGAND FREE ENERGY PREDICTED BY IDOCK:    0.34 KCAL/MOL
REMARK 927      BINDING AFFINITY PREDICTED BY RF-SCORE:    0.00 PKD
ROOT
HETATM    1  O   UNL     1      -6.720   9.608  71.691  1.00  0.00    -0.307 OA 
HETATM    2  C   UNL     1      -7.465   8.537  71.333  1.00  0.00    -0.102 C  
HETATM    3  C   UNL     1      -8.301   7.926  72.451  1.00  0.00    -0.138 C  
HETATM    4  O   UNL     1      -7.491   8.136  70.181  1.00  0.00    -0.060 OA 
HETATM    5  S   UNL     1      -7.460   8.156  74.082  1.00  0.00    -0.195 SA 
HETATM    6  H   UNL     1      -8.223   7.599  75.101  1.00  0.00     0.000 H  
ENDROOT
BRANCH   3   7
HETATM    7  C   UNL     1      -9.731   8.481  72.452  1.00  0.00    -0.287 C  
HETATM    8  C   UNL     1     -10.696   7.417  72.957  1.00  0.00    -0.364 C  
HETATM    9  S   UNL     1     -10.282   9.206  70.845  1.00  0.00    -0.306 SA 
HETATM   10  O   UNL     1     -11.696   7.081  72.114  1.00  0.00    -0.276 OA 
HETATM   11  O   UNL     1     -10.588   6.912  74.064  1.00  0.00    -0.349 OA 
HETATM   12  H   UNL     1     -11.579   9.709  70.847  1.00  0.00     0.000 H  
ENDBRANCH   3   7
TORSDOF 1
ENDMDL
MODEL      178
REMARK 921   NORMALIZED FREE ENERGY PREDICTED BY IDOCK:   -1.98 KCAL/MOL
REMARK 922        TOTAL FREE ENERGY PREDICTED BY IDOCK:   -2.03 KCAL/MOL
REMARK 923 INTER-LIGAND FREE ENERGY PREDICTED BY IDOCK:   -2.30 KCAL/MOL
REMARK 924 INTRA-LIGAND FREE ENERGY PREDICTED BY IDOCK:    0.27 KCAL/MOL
REMARK 927      BINDING AFFINITY PREDICTED BY RF-SCORE:    0.00 PKD
ROOT
HETATM    1  O   UNL     1      -7.282  17.267  65.993  1.00  0.00    -0.284 OA 
HETATM    2  C   UNL     1      -6.842  16.604  67.087  1.00  0.00    -0.188 C  
HETATM    3  C   UNL     1      -7.333  17.153  68.420  1.00  0.00    -0.220 C  
HETATM    4  O   UNL     1      -6.143  15.607  66.989  1.00  0.00    -0.299 OA 
HETATM    5  S   UNL     1      -7.598  18.980  68.303  1.00  0.00    -0.309 SA 
HETATM    6  H   UNL     1      -8.046  19.482  69.520  1.00  0.00     0.000 H  
ENDROOT
BRANCH   3   7
HETATM    7  C   UNL     1      -8.586  16.415  68.907  1.00  0.00    -0.250 C  
HETATM    8  C   UNL     1      -8.340  14.913  68.887  1.00  0.00    -0.178 C  
HETATM    9  S   UNL     1     -10.145  16.871  68.027  1.00  0.00    -0.308 SA 
HETATM   10  O   UNL     1      -9.195  14.185  68.136  1.00  0.00    -0.181 OA 
HETATM   11  O   UNL     1      -7.438  14.392  69.527  1.00  0.00    -0.083 OA 
HETATM   12  H   UNL     1     -11.280  16.202  68.469  1.00  0.00     0.000 H  
ENDBRANCH   3   7
TORSDOF 1
ENDMDL
MODEL      179
REMARK 921   NORMALIZED FREE ENERGY PREDICTED BY IDOCK:   -1.98 KCAL/MOL
REMARK 922        TOTAL FREE ENERGY PREDICTED BY IDOCK:   -2.03 KCAL/MOL
REMARK 923 INTER-LIGAND FREE ENERGY PREDICTED BY IDOCK:   -2.24 KCAL/MOL
REMARK 924 INTRA-LIGAND FREE ENERGY PREDICTED BY IDOCK:    0.21 KCAL/MOL
REMARK 927      BINDING AFFINITY PREDICTED BY RF-SCORE:    0.00 PKD
ROOT
HETATM    1  O   UNL     1     -12.326  11.727  68.807  1.00  0.00    -0.314 OA 
HETATM    2  C   UNL     1     -11.519  12.086  67.782  1.00  0.00    -0.325 C  
HETATM    3  C   UNL     1     -10.680  13.334  68.024  1.00  0.00    -0.240 C  
HETATM    4  O   UNL     1     -11.445  11.415  66.765  1.00  0.00    -0.427 OA 
HETATM    5  S   UNL     1     -11.571  14.499  69.152  1.00  0.00    -0.318 SA 
HETATM    6  H   UNL     1     -10.805  15.638  69.372  1.00  0.00     0.000 H  
ENDROOT
BRANCH   3   7
HETATM    7  C   UNL     1      -9.280  12.981  68.543  1.00  0.00    -0.062 C  
HETATM    8  C   UNL     1      -8.235  13.808  67.809  1.00  0.00    -0.174 C  
HETATM    9  S   UNL     1      -8.877  11.178  68.517  1.00  0.00    -0.154 SA 
HETATM   10  O   UNL     1      -7.281  13.109  67.156  1.00  0.00    -0.087 OA 
HETATM   11  O   UNL     1      -8.242  15.030  67.825  1.00  0.00    -0.137 OA 
HETATM   12  H   UNL     1      -7.608  10.858  68.987  1.00  0.00     0.000 H  
ENDBRANCH   3   7
TORSDOF 1
ENDMDL
MODEL      180
REMARK 921   NORMALIZED FREE ENERGY PREDICTED BY IDOCK:   -1.98 KCAL/MOL
REMARK 922        TOTAL FREE ENERGY PREDICTED BY IDOCK:   -2.03 KCAL/MOL
REMARK 923 INTER-LIGAND FREE ENERGY PREDICTED BY IDOCK:   -2.33 KCAL/MOL
REMARK 924 INTRA-LIGAND FREE ENERGY PREDICTED BY IDOCK:    0.30 KCAL/MOL
REMARK 927      BINDING AFFINITY PREDICTED BY RF-SCORE:    0.00 PKD
ROOT
HETATM    1  O   UNL     1     -12.260  11.050  68.188  1.00  0.00    -0.578 OA 
HETATM    2  C   UNL     1     -11.115  11.728  68.434  1.00  0.00    -0.237 C  
HETATM    3  C   UNL     1     -10.055  10.951  69.204  1.00  0.00    -0.177 C  
HETATM    4  O   UNL     1     -10.944  12.862  68.015  1.00  0.00    -0.230 OA 
HETATM    5  S   UNL     1     -10.852   9.735  70.347  1.00  0.00    -0.332 SA 
HETATM    6  H   UNL     1      -9.884   9.027  71.050  1.00  0.00     0.000 H  
ENDROOT
BRANCH   3   7
HETATM    7  C   UNL     1      -9.046  10.285  68.260  1.00  0.00    -0.139 C  
HETATM    8  C   UNL     1      -9.502   8.870  67.933  1.00  0.00    -0.142 C  
HETATM    9  S   UNL     1      -7.294  10.327  68.844  1.00  0.00    -0.098 SA 
HETATM   10  O   UNL     1      -8.633   7.884  68.242  1.00  0.00    -0.124 OA 
HETATM   11  O   UNL     1     -10.579   8.639  67.404  1.00  0.00    -0.274 OA 
HETATM   12  H   UNL     1      -6.380   9.723  67.988  1.00  0.00     0.000 H  
ENDBRANCH   3   7
TORSDOF 1
ENDMDL
MODEL      181
REMARK 921   NORMALIZED FREE ENERGY PREDICTED BY IDOCK:   -1.98 KCAL/MOL
REMARK 922        TOTAL FREE ENERGY PREDICTED BY IDOCK:   -2.03 KCAL/MOL
REMARK 923 INTER-LIGAND FREE ENERGY PREDICTED BY IDOCK:   -2.06 KCAL/MOL
REMARK 924 INTRA-LIGAND FREE ENERGY PREDICTED BY IDOCK:    0.03 KCAL/MOL
REMARK 927      BINDING AFFINITY PREDICTED BY RF-SCORE:    0.00 PKD
ROOT
HETATM    1  O   UNL     1     -11.627   6.150  70.845  1.00  0.00    -0.310 OA 
HETATM    2  C   UNL     1     -10.969   6.741  69.821  1.00  0.00    -0.297 C  
HETATM    3  C   UNL     1     -10.187   7.994  70.190  1.00  0.00    -0.203 C  
HETATM    4  O   UNL     1     -10.973   6.258  68.700  1.00  0.00    -0.300 OA 
HETATM    5  S   UNL     1     -11.010   8.878  71.591  1.00  0.00    -0.367 SA 
HETATM    6  H   UNL     1     -10.296  10.021  71.927  1.00  0.00     0.000 H  
ENDROOT
BRANCH   3   7
HETATM    7  C   UNL     1      -8.716   7.674  70.490  1.00  0.00    -0.138 C  
HETATM    8  C   UNL     1      -7.981   7.365  69.193  1.00  0.00    -0.118 C  
HETATM    9  S   UNL     1      -8.454   6.359  71.760  1.00  0.00    -0.124 SA 
HETATM   10  O   UNL     1      -7.386   6.155  69.125  1.00  0.00    -0.080 OA 
HETATM   11  O   UNL     1      -7.913   8.170  68.275  1.00  0.00    -0.119 OA 
HETATM   12  H   UNL     1      -7.122   6.069  72.032  1.00  0.00     0.000 H  
ENDBRANCH   3   7
TORSDOF 1
ENDMDL
MODEL      182
REMARK 921   NORMALIZED FREE ENERGY PREDICTED BY IDOCK:   -1.95 KCAL/MOL
REMARK 922        TOTAL FREE ENERGY PREDICTED BY IDOCK:   -2.00 KCAL/MOL
REMARK 923 INTER-LIGAND FREE ENERGY PREDICTED BY IDOCK:   -2.03 KCAL/MOL
REMARK 924 INTRA-LIGAND FREE ENERGY PREDICTED BY IDOCK:    0.03 KCAL/MOL
REMARK 927      BINDING AFFINITY PREDICTED BY RF-SCORE:    0.00 PKD
ROOT
HETATM    1  O   UNL     1     -10.395   9.306  71.825  1.00  0.00    -0.328 OA 
HETATM    2  C   UNL     1     -10.840   8.118  71.355  1.00  0.00    -0.234 C  
HETATM    3  C   UNL     1     -10.502   7.830  69.898  1.00  0.00    -0.232 C  
HETATM    4  O   UNL     1     -11.424   7.326  72.077  1.00  0.00    -0.255 OA 
HETATM    5  S   UNL     1     -10.418   9.405  68.933  1.00  0.00    -0.209 SA 
HETATM    6  H   UNL     1     -10.109   9.142  67.604  1.00  0.00     0.000 H  
ENDROOT
BRANCH   3   7
HETATM    7  C   UNL     1      -9.216   7.002  69.771  1.00  0.00    -0.147 C  
HETATM    8  C   UNL     1      -9.480   5.570  70.212  1.00  0.00    -0.165 C  
HETATM    9  S   UNL     1      -7.743   7.725  70.619  1.00  0.00    -0.092 SA 
HETATM   10  O   UNL     1      -8.708   5.112  71.222  1.00  0.00    -0.124 OA 
HETATM   11  O   UNL     1     -10.322   4.866  69.674  1.00  0.00    -0.243 OA 
HETATM   12  H   UNL     1      -6.578   6.975  70.504  1.00  0.00     0.000 H  
ENDBRANCH   3   7
TORSDOF 1
ENDMDL
MODEL      183
REMARK 921   NORMALIZED FREE ENERGY PREDICTED BY IDOCK:   -1.95 KCAL/MOL
REMARK 922        TOTAL FREE ENERGY PREDICTED BY IDOCK:   -2.00 KCAL/MOL
REMARK 923 INTER-LIGAND FREE ENERGY PREDICTED BY IDOCK:   -2.03 KCAL/MOL
REMARK 924 INTRA-LIGAND FREE ENERGY PREDICTED BY IDOCK:    0.03 KCAL/MOL
REMARK 927      BINDING AFFINITY PREDICTED BY RF-SCORE:    0.00 PKD
ROOT
HETATM    1  O   UNL     1      -9.926   4.838  68.789  1.00  0.00    -0.163 OA 
HETATM    2  C   UNL     1      -9.502   4.598  70.051  1.00  0.00    -0.172 C  
HETATM    3  C   UNL     1      -9.048   5.828  70.826  1.00  0.00    -0.148 C  
HETATM    4  O   UNL     1      -9.538   3.477  70.533  1.00  0.00    -0.175 OA 
HETATM    5  S   UNL     1      -8.339   7.089  69.673  1.00  0.00    -0.134 SA 
HETATM    6  H   UNL     1      -7.924   8.211  70.381  1.00  0.00     0.000 H  
ENDROOT
BRANCH   3   7
HETATM    7  C   UNL     1     -10.179   6.402  71.688  1.00  0.00    -0.196 C  
HETATM    8  C   UNL     1     -10.431   5.491  72.881  1.00  0.00    -0.214 C  
HETATM    9  S   UNL     1     -11.737   6.781  70.769  1.00  0.00    -0.392 SA 
HETATM   10  O   UNL     1     -11.685   5.005  72.999  1.00  0.00    -0.297 OA 
HETATM   11  O   UNL     1      -9.559   5.230  73.697  1.00  0.00    -0.136 OA 
HETATM   12  H   UNL     1     -12.762   7.301  71.551  1.00  0.00     0.000 H  
ENDBRANCH   3   7
TORSDOF 1
ENDMDL
MODEL      184
REMARK 921   NORMALIZED FREE ENERGY PREDICTED BY IDOCK:   -1.95 KCAL/MOL
REMARK 922        TOTAL FREE ENERGY PREDICTED BY IDOCK:   -2.00 KCAL/MOL
REMARK 923 INTER-LIGAND FREE ENERGY PREDICTED BY IDOCK:   -2.02 KCAL/MOL
REMARK 924 INTRA-LIGAND FREE ENERGY PREDICTED BY IDOCK:    0.02 KCAL/MOL
REMARK 927      BINDING AFFINITY PREDICTED BY RF-SCORE:    0.00 PKD
ROOT
HETATM    1  O   UNL     1     -11.307   9.356  70.068  1.00  0.00    -0.226 OA 
HETATM    2  C   UNL     1     -10.048   8.890  70.234  1.00  0.00    -0.189 C  
HETATM    3  C   UNL     1      -9.856   7.413  69.914  1.00  0.00    -0.178 C  
HETATM    4  O   UNL     1      -9.135   9.628  70.568  1.00  0.00    -0.242 OA 
HETATM    5  S   UNL     1     -11.408   6.471  70.268  1.00  0.00    -0.415 SA 
HETATM    6  H   UNL     1     -11.232   5.123  69.975  1.00  0.00     0.000 H  
ENDROOT
BRANCH   3   7
HETATM    7  C   UNL     1      -9.368   7.207  68.474  1.00  0.00    -0.136 C  
HETATM    8  C   UNL     1      -7.893   7.570  68.372  1.00  0.00    -0.122 C  
HETATM    9  S   UNL     1     -10.379   8.060  67.184  1.00  0.00    -0.337 SA 
HETATM   10  O   UNL     1      -7.583   8.533  67.477  1.00  0.00    -0.095 OA 
HETATM   11  O   UNL     1      -7.037   7.013  69.043  1.00  0.00    -0.079 OA 
HETATM   12  H   UNL     1      -9.937   7.874  65.879  1.00  0.00     0.000 H  
ENDBRANCH   3   7
TORSDOF 1
ENDMDL
MODEL      185
REMARK 921   NORMALIZED FREE ENERGY PREDICTED BY IDOCK:   -1.94 KCAL/MOL
REMARK 922        TOTAL FREE ENERGY PREDICTED BY IDOCK:   -1.99 KCAL/MOL
REMARK 923 INTER-LIGAND FREE ENERGY PREDICTED BY IDOCK:   -2.05 KCAL/MOL
REMARK 924 INTRA-LIGAND FREE ENERGY PREDICTED BY IDOCK:    0.05 KCAL/MOL
REMARK 927      BINDING AFFINITY PREDICTED BY RF-SCORE:    0.00 PKD
ROOT
HETATM    1  O   UNL     1     -11.623  10.707  67.631  1.00  0.00    -0.492 OA 
HETATM    2  C   UNL     1     -10.861  10.322  68.681  1.00  0.00    -0.234 C  
HETATM    3  C   UNL     1      -9.924   9.153  68.407  1.00  0.00    -0.181 C  
HETATM    4  O   UNL     1     -10.901  10.914  69.748  1.00  0.00    -0.246 OA 
HETATM    5  S   UNL     1     -10.656   8.025  67.137  1.00  0.00    -0.223 SA 
HETATM    6  H   UNL     1      -9.800   6.959  66.887  1.00  0.00     0.000 H  
ENDROOT
BRANCH   3   7
HETATM    7  C   UNL     1      -8.521   9.636  68.015  1.00  0.00    -0.118 C  
HETATM    8  C   UNL     1      -7.874  10.350  69.193  1.00  0.00    -0.134 C  
HETATM    9  S   UNL     1      -8.454  10.649  66.472  1.00  0.00    -0.149 SA 
HETATM   10  O   UNL     1      -7.488  11.625  68.970  1.00  0.00    -0.110 OA 
HETATM   11  O   UNL     1      -7.692   9.800  70.269  1.00  0.00    -0.158 OA 
HETATM   12  H   UNL     1      -7.183  11.086  66.117  1.00  0.00     0.000 H  
ENDBRANCH   3   7
TORSDOF 1
ENDMDL
MODEL      186
REMARK 921   NORMALIZED FREE ENERGY PREDICTED BY IDOCK:   -1.94 KCAL/MOL
REMARK 922        TOTAL FREE ENERGY PREDICTED BY IDOCK:   -1.99 KCAL/MOL
REMARK 923 INTER-LIGAND FREE ENERGY PREDICTED BY IDOCK:   -2.22 KCAL/MOL
REMARK 924 INTRA-LIGAND FREE ENERGY PREDICTED BY IDOCK:    0.23 KCAL/MOL
REMARK 927      BINDING AFFINITY PREDICTED BY RF-SCORE:    0.00 PKD
ROOT
HETATM    1  O   UNL     1      -6.515  13.282  67.155  1.00  0.00    -0.224 OA 
HETATM    2  C   UNL     1      -7.515  13.292  68.066  1.00  0.00    -0.138 C  
HETATM    3  C   UNL     1      -8.643  14.274  67.781  1.00  0.00    -0.177 C  
HETATM    4  O   UNL     1      -7.518  12.523  69.015  1.00  0.00    -0.040 OA 
HETATM    5  S   UNL     1      -7.995  15.753  66.879  1.00  0.00    -0.242 SA 
HETATM    6  H   UNL     1      -9.025  16.649  66.619  1.00  0.00     0.000 H  
ENDROOT
BRANCH   3   7
HETATM    7  C   UNL     1      -9.802  13.600  67.034  1.00  0.00    -0.251 C  
HETATM    8  C   UNL     1     -11.129  14.083  67.600  1.00  0.00    -0.282 C  
HETATM    9  S   UNL     1      -9.711  11.756  66.965  1.00  0.00    -0.187 SA 
HETATM   10  O   UNL     1     -11.952  13.123  68.077  1.00  0.00    -0.351 OA 
HETATM   11  O   UNL     1     -11.445  15.264  67.605  1.00  0.00    -0.331 OA 
HETATM   12  H   UNL     1     -10.760  11.146  66.288  1.00  0.00     0.000 H  
ENDBRANCH   3   7
TORSDOF 1
ENDMDL
MODEL      187
REMARK 921   NORMALIZED FREE ENERGY PREDICTED BY IDOCK:   -1.93 KCAL/MOL
REMARK 922        TOTAL FREE ENERGY PREDICTED BY IDOCK:   -1.98 KCAL/MOL
REMARK 923 INTER-LIGAND FREE ENERGY PREDICTED BY IDOCK:   -2.02 KCAL/MOL
REMARK 924 INTRA-LIGAND FREE ENERGY PREDICTED BY IDOCK:    0.04 KCAL/MOL
REMARK 927      BINDING AFFINITY PREDICTED BY RF-SCORE:    0.00 PKD
ROOT
HETATM    1  O   UNL     1     -10.334  11.666  66.394  1.00  0.00    -0.217 OA 
HETATM    2  C   UNL     1      -9.784  10.540  65.886  1.00  0.00    -0.217 C  
HETATM    3  C   UNL     1      -8.683   9.916  66.733  1.00  0.00    -0.128 C  
HETATM    4  O   UNL     1     -10.192  10.046  64.846  1.00  0.00    -0.261 OA 
HETATM    5  S   UNL     1      -7.777  11.226  67.674  1.00  0.00    -0.121 SA 
HETATM    6  H   UNL     1      -6.772  10.657  68.447  1.00  0.00     0.000 H  
ENDROOT
BRANCH   3   7
HETATM    7  C   UNL     1      -9.231   8.816  67.651  1.00  0.00    -0.134 C  
HETATM    8  C   UNL     1      -9.699   7.633  66.815  1.00  0.00    -0.222 C  
HETATM    9  S   UNL     1     -10.529   9.376  68.841  1.00  0.00    -0.209 SA 
HETATM   10  O   UNL     1     -10.993   7.277  66.969  1.00  0.00    -0.358 OA 
HETATM   11  O   UNL     1      -8.947   7.027  66.066  1.00  0.00    -0.158 OA 
HETATM   12  H   UNL     1     -11.026   8.380  69.672  1.00  0.00     0.000 H  
ENDBRANCH   3   7
TORSDOF 1
ENDMDL
MODEL      188
REMARK 921   NORMALIZED FREE ENERGY PREDICTED BY IDOCK:   -1.93 KCAL/MOL
REMARK 922        TOTAL FREE ENERGY PREDICTED BY IDOCK:   -1.98 KCAL/MOL
REMARK 923 INTER-LIGAND FREE ENERGY PREDICTED BY IDOCK:   -2.01 KCAL/MOL
REMARK 924 INTRA-LIGAND FREE ENERGY PREDICTED BY IDOCK:    0.03 KCAL/MOL
REMARK 927      BINDING AFFINITY PREDICTED BY RF-SCORE:    0.00 PKD
ROOT
HETATM    1  O   UNL     1     -11.141   5.880  69.250  1.00  0.00    -0.360 OA 
HETATM    2  C   UNL     1     -10.884   6.658  68.173  1.00  0.00    -0.263 C  
HETATM    3  C   UNL     1     -10.216   7.991  68.481  1.00  0.00    -0.207 C  
HETATM    4  O   UNL     1     -11.130   6.277  67.039  1.00  0.00    -0.362 OA 
HETATM    5  S   UNL     1     -10.735   8.600  70.149  1.00  0.00    -0.233 SA 
HETATM    6  H   UNL     1     -10.126   9.817  70.430  1.00  0.00     0.000 H  
ENDROOT
BRANCH   3   7
HETATM    7  C   UNL     1      -8.690   7.903  68.345  1.00  0.00    -0.131 C  
HETATM    8  C   UNL     1      -8.310   7.785  66.876  1.00  0.00    -0.124 C  
HETATM    9  S   UNL     1      -7.896   6.588  69.371  1.00  0.00    -0.107 SA 
HETATM   10  O   UNL     1      -7.589   6.695  66.538  1.00  0.00    -0.087 OA 
HETATM   11  O   UNL     1      -8.619   8.635  66.053  1.00  0.00    -0.137 OA 
HETATM   12  H   UNL     1      -6.514   6.509  69.247  1.00  0.00     0.000 H  
ENDBRANCH   3   7
TORSDOF 1
ENDMDL
MODEL      189
REMARK 921   NORMALIZED FREE ENERGY PREDICTED BY IDOCK:   -1.92 KCAL/MOL
REMARK 922        TOTAL FREE ENERGY PREDICTED BY IDOCK:   -1.98 KCAL/MOL
REMARK 923 INTER-LIGAND FREE ENERGY PREDICTED BY IDOCK:   -2.14 KCAL/MOL
REMARK 924 INTRA-LIGAND FREE ENERGY PREDICTED BY IDOCK:    0.16 KCAL/MOL
REMARK 927      BINDING AFFINITY PREDICTED BY RF-SCORE:    0.00 PKD
ROOT
HETATM    1  O   UNL     1      -6.887  13.084  67.016  1.00  0.00    -0.058 OA 
HETATM    2  C   UNL     1      -7.865  12.515  67.758  1.00  0.00    -0.151 C  
HETATM    3  C   UNL     1      -9.285  12.809  67.294  1.00  0.00    -0.203 C  
HETATM    4  O   UNL     1      -7.605  11.780  68.697  1.00  0.00    -0.121 OA 
HETATM    5  S   UNL     1      -9.371  14.477  66.500  1.00  0.00    -0.266 SA 
HETATM    6  H   UNL     1     -10.667  14.745  66.077  1.00  0.00     0.000 H  
ENDROOT
BRANCH   3   7
HETATM    7  C   UNL     1      -9.819  11.702  66.375  1.00  0.00    -0.207 C  
HETATM    8  C   UNL     1     -11.125  11.154  66.933  1.00  0.00    -0.247 C  
HETATM    9  S   UNL     1      -8.610  10.355  66.002  1.00  0.00    -0.156 SA 
HETATM   10  O   UNL     1     -11.147   9.828  67.191  1.00  0.00    -0.139 OA 
HETATM   11  O   UNL     1     -12.103  11.863  67.118  1.00  0.00    -0.590 OA 
HETATM   12  H   UNL     1      -9.094   9.353  65.170  1.00  0.00     0.000 H  
ENDBRANCH   3   7
TORSDOF 1
ENDMDL
MODEL      190
REMARK 921   NORMALIZED FREE ENERGY PREDICTED BY IDOCK:   -1.92 KCAL/MOL
REMARK 922        TOTAL FREE ENERGY PREDICTED BY IDOCK:   -1.97 KCAL/MOL
REMARK 923 INTER-LIGAND FREE ENERGY PREDICTED BY IDOCK:   -2.10 KCAL/MOL
REMARK 924 INTRA-LIGAND FREE ENERGY PREDICTED BY IDOCK:    0.13 KCAL/MOL
REMARK 927      BINDING AFFINITY PREDICTED BY RF-SCORE:    0.00 PKD
ROOT
HETATM    1  O   UNL     1     -10.636   6.672  67.151  1.00  0.00    -0.247 OA 
HETATM    2  C   UNL     1     -10.593   7.897  67.724  1.00  0.00    -0.175 C  
HETATM    3  C   UNL     1     -10.562   7.899  69.246  1.00  0.00    -0.188 C  
HETATM    4  O   UNL     1     -10.530   8.913  67.050  1.00  0.00    -0.274 OA 
HETATM    5  S   UNL     1     -11.473   6.433  69.910  1.00  0.00    -0.329 SA 
HETATM    6  H   UNL     1     -11.445   6.435  71.300  1.00  0.00     0.000 H  
ENDROOT
BRANCH   3   7
HETATM    7  C   UNL     1      -9.127   7.982  69.782  1.00  0.00    -0.149 C  
HETATM    8  C   UNL     1      -8.939   9.280  70.554  1.00  0.00    -0.250 C  
HETATM    9  S   UNL     1      -7.810   7.740  68.509  1.00  0.00    -0.122 SA 
HETATM   10  O   UNL     1      -7.955  10.093  70.112  1.00  0.00    -0.160 OA 
HETATM   11  O   UNL     1      -9.621   9.563  71.529  1.00  0.00    -0.207 OA 
HETATM   12  H   UNL     1      -6.510   7.815  68.994  1.00  0.00     0.000 H  
ENDBRANCH   3   7
TORSDOF 1
ENDMDL
MODEL      191
REMARK 921   NORMALIZED FREE ENERGY PREDICTED BY IDOCK:   -1.92 KCAL/MOL
REMARK 922        TOTAL FREE ENERGY PREDICTED BY IDOCK:   -1.97 KCAL/MOL
REMARK 923 INTER-LIGAND FREE ENERGY PREDICTED BY IDOCK:   -2.17 KCAL/MOL
REMARK 924 INTRA-LIGAND FREE ENERGY PREDICTED BY IDOCK:    0.20 KCAL/MOL
REMARK 927      BINDING AFFINITY PREDICTED BY RF-SCORE:    0.00 PKD
ROOT
HETATM    1  O   UNL     1     -11.682   8.278  70.671  1.00  0.00    -0.254 OA 
HETATM    2  C   UNL     1     -11.224   9.551  70.705  1.00  0.00    -0.302 C  
HETATM    3  C   UNL     1      -9.738   9.713  70.417  1.00  0.00    -0.245 C  
HETATM    4  O   UNL     1     -11.976  10.492  70.902  1.00  0.00    -0.329 OA 
HETATM    5  S   UNL     1      -8.806   8.219  70.985  1.00  0.00    -0.162 SA 
HETATM    6  H   UNL     1      -7.449   8.367  70.722  1.00  0.00     0.000 H  
ENDROOT
BRANCH   3   7
HETATM    7  C   UNL     1      -9.480  10.029  68.938  1.00  0.00    -0.172 C  
HETATM    8  C   UNL     1      -8.486  11.175  68.822  1.00  0.00    -0.134 C  
HETATM    9  S   UNL     1     -11.002  10.331  67.935  1.00  0.00    -0.269 SA 
HETATM   10  O   UNL     1      -8.913  12.260  68.139  1.00  0.00    -0.183 OA 
HETATM   11  O   UNL     1      -7.362  11.114  69.297  1.00  0.00    -0.121 OA 
HETATM   12  H   UNL     1     -10.769  10.618  66.595  1.00  0.00     0.000 H  
ENDBRANCH   3   7
TORSDOF 1
ENDMDL
MODEL      192
REMARK 921   NORMALIZED FREE ENERGY PREDICTED BY IDOCK:   -1.90 KCAL/MOL
REMARK 922        TOTAL FREE ENERGY PREDICTED BY IDOCK:   -1.94 KCAL/MOL
REMARK 923 INTER-LIGAND FREE ENERGY PREDICTED BY IDOCK:   -1.98 KCAL/MOL
REMARK 924 INTRA-LIGAND FREE ENERGY PREDICTED BY IDOCK:    0.03 KCAL/MOL
REMARK 927      BINDING AFFINITY PREDICTED BY RF-SCORE:    0.00 PKD
ROOT
HETATM    1  O   UNL     1     -11.220   8.486  70.269  1.00  0.00    -0.248 OA 
HETATM    2  C   UNL     1     -10.361   9.371  69.712  1.00  0.00    -0.223 C  
HETATM    3  C   UNL     1      -9.058   8.774  69.199  1.00  0.00    -0.141 C  
HETATM    4  O   UNL     1     -10.652  10.551  69.593  1.00  0.00    -0.236 OA 
HETATM    5  S   UNL     1      -8.579   7.304  70.214  1.00  0.00    -0.143 SA 
HETATM    6  H   UNL     1      -7.389   6.760  69.745  1.00  0.00     0.000 H  
ENDROOT
BRANCH   3   7
HETATM    7  C   UNL     1      -9.139   8.445  67.702  1.00  0.00    -0.135 C  
HETATM    8  C   UNL     1      -9.152   9.732  66.891  1.00  0.00    -0.142 C  
HETATM    9  S   UNL     1     -10.526   7.319  67.232  1.00  0.00    -0.335 SA 
HETATM   10  O   UNL     1     -10.218   9.908  66.080  1.00  0.00    -0.254 OA 
HETATM   11  O   UNL     1      -8.245  10.550  66.951  1.00  0.00    -0.120 OA 
HETATM   12  H   UNL     1     -10.600   7.020  65.877  1.00  0.00     0.000 H  
ENDBRANCH   3   7
TORSDOF 1
ENDMDL
MODEL      193
REMARK 921   NORMALIZED FREE ENERGY PREDICTED BY IDOCK:   -1.89 KCAL/MOL
REMARK 922        TOTAL FREE ENERGY PREDICTED BY IDOCK:   -1.94 KCAL/MOL
REMARK 923 INTER-LIGAND FREE ENERGY PREDICTED BY IDOCK:   -2.00 KCAL/MOL
REMARK 924 INTRA-LIGAND FREE ENERGY PREDICTED BY IDOCK:    0.06 KCAL/MOL
REMARK 927      BINDING AFFINITY PREDICTED BY RF-SCORE:    0.00 PKD
ROOT
HETATM    1  O   UNL     1     -10.190   9.876  70.543  1.00  0.00    -0.278 OA 
HETATM    2  C   UNL     1     -10.898   8.925  69.891  1.00  0.00    -0.211 C  
HETATM    3  C   UNL     1     -10.502   8.704  68.437  1.00  0.00    -0.176 C  
HETATM    4  O   UNL     1     -11.754   8.267  70.461  1.00  0.00    -0.205 OA 
HETATM    5  S   UNL     1      -9.877  10.279  67.694  1.00  0.00    -0.176 SA 
HETATM    6  H   UNL     1      -9.516  10.077  66.367  1.00  0.00     0.000 H  
ENDROOT
BRANCH   3   7
HETATM    7  C   UNL     1      -9.495   7.556  68.295  1.00  0.00    -0.144 C  
HETATM    8  C   UNL     1     -10.206   6.306  67.797  1.00  0.00    -0.170 C  
HETATM    9  S   UNL     1      -8.486   7.220  69.805  1.00  0.00    -0.137 SA 
HETATM   10  O   UNL     1     -10.105   5.215  68.587  1.00  0.00    -0.172 OA 
HETATM   11  O   UNL     1     -10.814   6.280  66.737  1.00  0.00    -0.326 OA 
HETATM   12  H   UNL     1      -7.573   6.179  69.677  1.00  0.00     0.000 H  
ENDBRANCH   3   7
TORSDOF 1
ENDMDL
MODEL      194
REMARK 921   NORMALIZED FREE ENERGY PREDICTED BY IDOCK:   -1.89 KCAL/MOL
REMARK 922        TOTAL FREE ENERGY PREDICTED BY IDOCK:   -1.94 KCAL/MOL
REMARK 923 INTER-LIGAND FREE ENERGY PREDICTED BY IDOCK:   -2.00 KCAL/MOL
REMARK 924 INTRA-LIGAND FREE ENERGY PREDICTED BY IDOCK:    0.06 KCAL/MOL
REMARK 927      BINDING AFFINITY PREDICTED BY RF-SCORE:    0.00 PKD
ROOT
HETATM    1  O   UNL     1     -11.836   6.490  69.891  1.00  0.00    -0.381 OA 
HETATM    2  C   UNL     1     -10.668   5.818  69.776  1.00  0.00    -0.348 C  
HETATM    3  C   UNL     1      -9.772   6.267  68.629  1.00  0.00    -0.127 C  
HETATM    4  O   UNL     1     -10.351   4.951  70.575  1.00  0.00    -0.239 OA 
HETATM    5  S   UNL     1     -10.794   6.896  67.222  1.00  0.00    -0.343 SA 
HETATM    6  H   UNL     1      -9.976   7.306  66.176  1.00  0.00     0.000 H  
ENDROOT
BRANCH   3   7
HETATM    7  C   UNL     1      -8.732   7.295  69.095  1.00  0.00    -0.136 C  
HETATM    8  C   UNL     1      -7.802   6.659  70.119  1.00  0.00    -0.107 C  
HETATM    9  S   UNL     1      -9.438   8.890  69.702  1.00  0.00    -0.172 SA 
HETATM   10  O   UNL     1      -7.748   7.266  71.324  1.00  0.00    -0.086 OA 
HETATM   11  O   UNL     1      -7.129   5.671  69.863  1.00  0.00    -0.063 OA 
HETATM   12  H   UNL     1      -8.496   9.821  70.124  1.00  0.00     0.000 H  
ENDBRANCH   3   7
TORSDOF 1
ENDMDL
MODEL      195
REMARK 921   NORMALIZED FREE ENERGY PREDICTED BY IDOCK:   -1.89 KCAL/MOL
REMARK 922        TOTAL FREE ENERGY PREDICTED BY IDOCK:   -1.93 KCAL/MOL
REMARK 923 INTER-LIGAND FREE ENERGY PREDICTED BY IDOCK:   -1.97 KCAL/MOL
REMARK 924 INTRA-LIGAND FREE ENERGY PREDICTED BY IDOCK:    0.04 KCAL/MOL
REMARK 927      BINDING AFFINITY PREDICTED BY RF-SCORE:    0.00 PKD
ROOT
HETATM    1  O   UNL     1     -12.012   5.764  72.571  1.00  0.00    -0.275 OA 
HETATM    2  C   UNL     1     -10.839   5.131  72.339  1.00  0.00    -0.203 C  
HETATM    3  C   UNL     1     -10.069   5.620  71.120  1.00  0.00    -0.204 C  
HETATM    4  O   UNL     1     -10.422   4.268  73.095  1.00  0.00    -0.160 OA 
HETATM    5  S   UNL     1     -11.238   6.229  69.822  1.00  0.00    -0.423 SA 
HETATM    6  H   UNL     1     -10.535   6.675  68.710  1.00  0.00     0.000 H  
ENDROOT
BRANCH   3   7
HETATM    7  C   UNL     1      -9.023   6.676  71.500  1.00  0.00    -0.139 C  
HETATM    8  C   UNL     1      -7.906   6.028  72.305  1.00  0.00    -0.102 C  
HETATM    9  S   UNL     1      -9.703   8.172  72.343  1.00  0.00    -0.296 SA 
HETATM   10  O   UNL     1      -7.687   6.546  73.533  1.00  0.00    -0.092 OA 
HETATM   11  O   UNL     1      -7.232   5.109  71.864  1.00  0.00    -0.078 OA 
HETATM   12  H   UNL     1      -8.755   9.128  72.687  1.00  0.00     0.000 H  
ENDBRANCH   3   7
TORSDOF 1
ENDMDL
MODEL      196
REMARK 921   NORMALIZED FREE ENERGY PREDICTED BY IDOCK:   -1.88 KCAL/MOL
REMARK 922        TOTAL FREE ENERGY PREDICTED BY IDOCK:   -1.93 KCAL/MOL
REMARK 923 INTER-LIGAND FREE ENERGY PREDICTED BY IDOCK:   -1.97 KCAL/MOL
REMARK 924 INTRA-LIGAND FREE ENERGY PREDICTED BY IDOCK:    0.04 KCAL/MOL
REMARK 927      BINDING AFFINITY PREDICTED BY RF-SCORE:    0.00 PKD
ROOT
HETATM    1  O   UNL     1      -8.833   6.844  69.841  1.00  0.00    -0.141 OA 
HETATM    2  C   UNL     1      -8.523   7.542  68.724  1.00  0.00    -0.129 C  
HETATM    3  C   UNL     1      -9.644   7.654  67.699  1.00  0.00    -0.145 C  
HETATM    4  O   UNL     1      -7.435   8.079  68.590  1.00  0.00    -0.093 OA 
HETATM    5  S   UNL     1     -10.730   6.158  67.767  1.00  0.00    -0.318 SA 
HETATM    6  H   UNL     1     -11.753   6.261  66.831  1.00  0.00     0.000 H  
ENDROOT
BRANCH   3   7
HETATM    7  C   UNL     1     -10.438   8.955  67.871  1.00  0.00    -0.223 C  
HETATM    8  C   UNL     1      -9.937   9.999  66.883  1.00  0.00    -0.209 C  
HETATM    9  S   UNL     1     -10.489   9.609  69.598  1.00  0.00    -0.245 SA 
HETATM   10  O   UNL     1      -9.490  11.155  67.421  1.00  0.00    -0.163 OA 
HETATM   11  O   UNL     1      -9.955   9.814  65.674  1.00  0.00    -0.301 OA 
HETATM   12  H   UNL     1     -11.208  10.788  69.753  1.00  0.00     0.000 H  
ENDBRANCH   3   7
TORSDOF 1
ENDMDL
MODEL      197
REMARK 921   NORMALIZED FREE ENERGY PREDICTED BY IDOCK:   -1.88 KCAL/MOL
REMARK 922        TOTAL FREE ENERGY PREDICTED BY IDOCK:   -1.93 KCAL/MOL
REMARK 923 INTER-LIGAND FREE ENERGY PREDICTED BY IDOCK:   -2.30 KCAL/MOL
REMARK 924 INTRA-LIGAND FREE ENERGY PREDICTED BY IDOCK:    0.37 KCAL/MOL
REMARK 927      BINDING AFFINITY PREDICTED BY RF-SCORE:    0.00 PKD
ROOT
HETATM    1  O   UNL     1     -10.181   4.662  69.465  1.00  0.00    -0.203 OA 
HETATM    2  C   UNL     1      -9.801   4.470  70.749  1.00  0.00    -0.210 C  
HETATM    3  C   UNL     1      -9.331   5.721  71.480  1.00  0.00    -0.146 C  
HETATM    4  O   UNL     1      -9.884   3.374  71.280  1.00  0.00    -0.181 OA 
HETATM    5  S   UNL     1      -8.551   6.905  70.292  1.00  0.00    -0.140 SA 
HETATM    6  H   UNL     1      -8.123   8.047  70.960  1.00  0.00     0.000 H  
ENDROOT
BRANCH   3   7
HETATM    7  C   UNL     1     -10.469   6.367  72.281  1.00  0.00    -0.197 C  
HETATM    8  C   UNL     1     -10.938   7.634  71.579  1.00  0.00    -0.233 C  
HETATM    9  S   UNL     1     -10.088   6.666  74.063  1.00  0.00    -0.364 SA 
HETATM   10  O   UNL     1     -10.873   8.770  72.307  1.00  0.00    -0.352 OA 
HETATM   11  O   UNL     1     -11.368   7.624  70.435  1.00  0.00    -0.272 OA 
HETATM   12  H   UNL     1     -11.120   7.252  74.789  1.00  0.00     0.000 H  
ENDBRANCH   3   7
TORSDOF 1
ENDMDL
MODEL      198
REMARK 921   NORMALIZED FREE ENERGY PREDICTED BY IDOCK:   -1.88 KCAL/MOL
REMARK 922        TOTAL FREE ENERGY PREDICTED BY IDOCK:   -1.93 KCAL/MOL
REMARK 923 INTER-LIGAND FREE ENERGY PREDICTED BY IDOCK:   -1.98 KCAL/MOL
REMARK 924 INTRA-LIGAND FREE ENERGY PREDICTED BY IDOCK:    0.05 KCAL/MOL
REMARK 927      BINDING AFFINITY PREDICTED BY RF-SCORE:    0.00 PKD
ROOT
HETATM    1  O   UNL     1     -10.942   9.972  68.408  1.00  0.00    -0.239 OA 
HETATM    2  C   UNL     1     -10.093   9.337  67.568  1.00  0.00    -0.218 C  
HETATM    3  C   UNL     1      -9.076   8.426  68.242  1.00  0.00    -0.139 C  
HETATM    4  O   UNL     1     -10.187   9.458  66.357  1.00  0.00    -0.268 OA 
HETATM    5  S   UNL     1      -8.645   9.073  69.920  1.00  0.00    -0.154 SA 
HETATM    6  H   UNL     1      -7.716   8.242  70.535  1.00  0.00     0.000 H  
ENDROOT
BRANCH   3   7
HETATM    7  C   UNL     1      -9.563   6.972  68.289  1.00  0.00    -0.134 C  
HETATM    8  C   UNL     1      -9.661   6.415  66.875  1.00  0.00    -0.149 C  
HETATM    9  S   UNL     1     -11.123   6.709  69.243  1.00  0.00    -0.270 SA 
HETATM   10  O   UNL     1     -10.876   5.956  66.504  1.00  0.00    -0.269 OA 
HETATM   11  O   UNL     1      -8.696   6.365  66.126  1.00  0.00    -0.138 OA 
HETATM   12  H   UNL     1     -11.565   5.391  69.285  1.00  0.00     0.000 H  
ENDBRANCH   3   7
TORSDOF 1
ENDMDL
MODEL      199
REMARK 921   NORMALIZED FREE ENERGY PREDICTED BY IDOCK:   -1.88 KCAL/MOL
REMARK 922        TOTAL FREE ENERGY PREDICTED BY IDOCK:   -1.92 KCAL/MOL
REMARK 923 INTER-LIGAND FREE ENERGY PREDICTED BY IDOCK:   -1.94 KCAL/MOL
REMARK 924 INTRA-LIGAND FREE ENERGY PREDICTED BY IDOCK:    0.01 KCAL/MOL
REMARK 927      BINDING AFFINITY PREDICTED BY RF-SCORE:    0.00 PKD
ROOT
HETATM    1  O   UNL     1      -8.818   3.962  64.715  1.00  0.00    -0.116 OA 
HETATM    2  C   UNL     1      -9.867   4.279  65.509  1.00  0.00    -0.215 C  
HETATM    3  C   UNL     1      -9.568   4.295  67.002  1.00  0.00    -0.203 C  
HETATM    4  O   UNL     1     -10.953   4.578  65.038  1.00  0.00    -0.207 OA 
HETATM    5  S   UNL     1      -8.246   3.067  67.407  1.00  0.00    -0.084 SA 
HETATM    6  H   UNL     1      -7.974   3.082  68.770  1.00  0.00     0.000 H  
ENDROOT
BRANCH   3   7
HETATM    7  C   UNL     1      -9.219   5.707  67.492  1.00  0.00    -0.109 C  
HETATM    8  C   UNL     1     -10.493   6.455  67.858  1.00  0.00    -0.222 C  
HETATM    9  S   UNL     1      -8.152   6.684  66.344  1.00  0.00    -0.117 SA 
HETATM   10  O   UNL     1     -10.706   7.616  67.202  1.00  0.00    -0.332 OA 
HETATM   11  O   UNL     1     -11.269   6.044  68.710  1.00  0.00    -0.331 OA 
HETATM   12  H   UNL     1      -7.836   7.962  66.788  1.00  0.00     0.000 H  
ENDBRANCH   3   7
TORSDOF 1
ENDMDL
MODEL      200
REMARK 921   NORMALIZED FREE ENERGY PREDICTED BY IDOCK:   -1.87 KCAL/MOL
REMARK 922        TOTAL FREE ENERGY PREDICTED BY IDOCK:   -1.92 KCAL/MOL
REMARK 923 INTER-LIGAND FREE ENERGY PREDICTED BY IDOCK:   -1.94 KCAL/MOL
REMARK 924 INTRA-LIGAND FREE ENERGY PREDICTED BY IDOCK:    0.02 KCAL/MOL
REMARK 927      BINDING AFFINITY PREDICTED BY RF-SCORE:    0.00 PKD
ROOT
HETATM    1  O   UNL     1      -7.515   5.782  71.084  1.00  0.00    -0.086 OA 
HETATM    2  C   UNL     1      -8.561   6.024  71.906  1.00  0.00    -0.137 C  
HETATM    3  C   UNL     1      -9.020   7.475  71.961  1.00  0.00    -0.125 C  
HETATM    4  O   UNL     1      -9.116   5.121  72.513  1.00  0.00    -0.132 OA 
HETATM    5  S   UNL     1      -7.591   8.613  71.675  1.00  0.00    -0.074 SA 
HETATM    6  H   UNL     1      -8.010   9.937  71.726  1.00  0.00     0.000 H  
ENDROOT
BRANCH   3   7
HETATM    7  C   UNL     1     -10.176   7.738  70.987  1.00  0.00    -0.197 C  
HETATM    8  C   UNL     1     -11.506   7.538  71.698  1.00  0.00    -0.261 C  
HETATM    9  S   UNL     1     -10.088   6.785  69.406  1.00  0.00    -0.177 SA 
HETATM   10  O   UNL     1     -12.333   6.619  71.155  1.00  0.00    -0.353 OA 
HETATM   11  O   UNL     1     -11.819   8.183  72.688  1.00  0.00    -0.395 OA 
HETATM   12  H   UNL     1     -11.135   7.024  68.523  1.00  0.00     0.000 H  
ENDBRANCH   3   7
TORSDOF 1
ENDMDL
MODEL      201
REMARK 921   NORMALIZED FREE ENERGY PREDICTED BY IDOCK:   -1.86 KCAL/MOL
REMARK 922        TOTAL FREE ENERGY PREDICTED BY IDOCK:   -1.90 KCAL/MOL
REMARK 923 INTER-LIGAND FREE ENERGY PREDICTED BY IDOCK:   -2.19 KCAL/MOL
REMARK 924 INTRA-LIGAND FREE ENERGY PREDICTED BY IDOCK:    0.29 KCAL/MOL
REMARK 927      BINDING AFFINITY PREDICTED BY RF-SCORE:    0.00 PKD
ROOT
HETATM    1  O   UNL     1     -11.476   6.151  69.116  1.00  0.00    -0.379 OA 
HETATM    2  C   UNL     1     -11.624   6.514  70.411  1.00  0.00    -0.407 C  
HETATM    3  C   UNL     1     -10.384   6.344  71.278  1.00  0.00    -0.207 C  
HETATM    4  O   UNL     1     -12.670   6.991  70.822  1.00  0.00    -0.282 OA 
HETATM    5  S   UNL     1      -9.362   4.928  70.667  1.00  0.00    -0.174 SA 
HETATM    6  H   UNL     1      -8.230   4.772  71.459  1.00  0.00     0.000 H  
ENDROOT
BRANCH   3   7
HETATM    7  C   UNL     1      -9.576   7.645  71.369  1.00  0.00    -0.158 C  
HETATM    8  C   UNL     1      -8.435   7.615  70.362  1.00  0.00    -0.136 C  
HETATM    9  S   UNL     1      -8.986   8.073  73.067  1.00  0.00    -0.263 SA 
HETATM   10  O   UNL     1      -7.193   7.763  70.873  1.00  0.00    -0.053 OA 
HETATM   11  O   UNL     1      -8.628   7.486  69.162  1.00  0.00    -0.134 OA 
HETATM   12  H   UNL     1      -8.255   9.252  73.150  1.00  0.00     0.000 H  
ENDBRANCH   3   7
TORSDOF 1
ENDMDL
MODEL      202
REMARK 921   NORMALIZED FREE ENERGY PREDICTED BY IDOCK:   -1.86 KCAL/MOL
REMARK 922        TOTAL FREE ENERGY PREDICTED BY IDOCK:   -1.90 KCAL/MOL
REMARK 923 INTER-LIGAND FREE ENERGY PREDICTED BY IDOCK:   -2.03 KCAL/MOL
REMARK 924 INTRA-LIGAND FREE ENERGY PREDICTED BY IDOCK:    0.13 KCAL/MOL
REMARK 927      BINDING AFFINITY PREDICTED BY RF-SCORE:    0.00 PKD
ROOT
HETATM    1  O   UNL     1     -11.571  10.500  67.521  1.00  0.00    -0.421 OA 
HETATM    2  C   UNL     1     -10.274  10.173  67.726  1.00  0.00    -0.191 C  
HETATM    3  C   UNL     1     -10.012   9.290  68.939  1.00  0.00    -0.181 C  
HETATM    4  O   UNL     1      -9.398  10.528  66.952  1.00  0.00    -0.157 OA 
HETATM    5  S   UNL     1     -11.258   9.630  70.263  1.00  0.00    -0.275 SA 
HETATM    6  H   UNL     1     -11.018   8.824  71.369  1.00  0.00     0.000 H  
ENDROOT
BRANCH   3   7
HETATM    7  C   UNL     1      -9.962   7.805  68.556  1.00  0.00    -0.182 C  
HETATM    8  C   UNL     1      -8.573   7.248  68.832  1.00  0.00    -0.129 C  
HETATM    9  S   UNL     1     -10.527   7.430  66.837  1.00  0.00    -0.266 SA 
HETATM   10  O   UNL     1      -7.933   6.706  67.773  1.00  0.00    -0.110 OA 
HETATM   11  O   UNL     1      -8.072   7.269  69.947  1.00  0.00    -0.122 OA 
HETATM   12  H   UNL     1     -10.481   6.085  66.490  1.00  0.00     0.000 H  
ENDBRANCH   3   7
TORSDOF 1
ENDMDL
MODEL      203
REMARK 921   NORMALIZED FREE ENERGY PREDICTED BY IDOCK:   -1.83 KCAL/MOL
REMARK 922        TOTAL FREE ENERGY PREDICTED BY IDOCK:   -1.88 KCAL/MOL
REMARK 923 INTER-LIGAND FREE ENERGY PREDICTED BY IDOCK:   -2.20 KCAL/MOL
REMARK 924 INTRA-LIGAND FREE ENERGY PREDICTED BY IDOCK:    0.32 KCAL/MOL
REMARK 927      BINDING AFFINITY PREDICTED BY RF-SCORE:    0.00 PKD
ROOT
HETATM    1  O   UNL     1      -7.762   5.689  72.077  1.00  0.00    -0.098 OA 
HETATM    2  C   UNL     1      -9.041   5.256  71.993  1.00  0.00    -0.137 C  
HETATM    3  C   UNL     1     -10.089   6.218  72.536  1.00  0.00    -0.177 C  
HETATM    4  O   UNL     1      -9.318   4.189  71.468  1.00  0.00    -0.126 OA 
HETATM    5  S   UNL     1      -9.383   7.225  73.918  1.00  0.00    -0.258 SA 
HETATM    6  H   UNL     1     -10.340   8.103  74.413  1.00  0.00     0.000 H  
ENDROOT
BRANCH   3   7
HETATM    7  C   UNL     1     -10.681   7.094  71.424  1.00  0.00    -0.225 C  
HETATM    8  C   UNL     1     -10.070   8.487  71.485  1.00  0.00    -0.245 C  
HETATM    9  S   UNL     1     -12.527   7.151  71.384  1.00  0.00    -0.394 SA 
HETATM   10  O   UNL     1     -10.942   9.507  71.635  1.00  0.00    -0.362 OA 
HETATM   11  O   UNL     1      -8.867   8.676  71.383  1.00  0.00    -0.177 OA 
HETATM   12  H   UNL     1     -13.063   7.945  70.376  1.00  0.00     0.000 H  
ENDBRANCH   3   7
TORSDOF 1
ENDMDL
MODEL      204
REMARK 921   NORMALIZED FREE ENERGY PREDICTED BY IDOCK:   -1.83 KCAL/MOL
REMARK 922        TOTAL FREE ENERGY PREDICTED BY IDOCK:   -1.87 KCAL/MOL
REMARK 923 INTER-LIGAND FREE ENERGY PREDICTED BY IDOCK:   -2.16 KCAL/MOL
REMARK 924 INTRA-LIGAND FREE ENERGY PREDICTED BY IDOCK:    0.29 KCAL/MOL
REMARK 927      BINDING AFFINITY PREDICTED BY RF-SCORE:    0.00 PKD
ROOT
HETATM    1  O   UNL     1     -11.265   9.956  68.093  1.00  0.00    -0.207 OA 
HETATM    2  C   UNL     1     -10.400   9.002  67.678  1.00  0.00    -0.257 C  
HETATM    3  C   UNL     1      -8.983   9.132  68.223  1.00  0.00    -0.129 C  
HETATM    4  O   UNL     1     -10.761   8.083  66.961  1.00  0.00    -0.328 OA 
HETATM    5  S   UNL     1      -8.565  10.910  68.514  1.00  0.00    -0.157 SA 
HETATM    6  H   UNL     1      -7.273  11.027  69.010  1.00  0.00     0.000 H  
ENDROOT
BRANCH   3   7
HETATM    7  C   UNL     1      -8.781   8.275  69.479  1.00  0.00    -0.138 C  
HETATM    8  C   UNL     1      -8.994   9.126  70.723  1.00  0.00    -0.242 C  
HETATM    9  S   UNL     1      -7.180   7.354  69.539  1.00  0.00    -0.084 SA 
HETATM   10  O   UNL     1      -7.955   9.183  71.584  1.00  0.00    -0.342 OA 
HETATM   11  O   UNL     1     -10.047   9.706  70.943  1.00  0.00    -0.279 OA 
HETATM   12  H   UNL     1      -6.997   6.578  70.678  1.00  0.00     0.000 H  
ENDBRANCH   3   7
TORSDOF 1
ENDMDL
MODEL      205
REMARK 921   NORMALIZED FREE ENERGY PREDICTED BY IDOCK:   -1.82 KCAL/MOL
REMARK 922        TOTAL FREE ENERGY PREDICTED BY IDOCK:   -1.86 KCAL/MOL
REMARK 923 INTER-LIGAND FREE ENERGY PREDICTED BY IDOCK:   -2.16 KCAL/MOL
REMARK 924 INTRA-LIGAND FREE ENERGY PREDICTED BY IDOCK:    0.30 KCAL/MOL
REMARK 927      BINDING AFFINITY PREDICTED BY RF-SCORE:    0.00 PKD
ROOT
HETATM    1  O   UNL     1      -7.628  10.097  67.987  1.00  0.00    -0.087 OA 
HETATM    2  C   UNL     1      -8.170  11.181  67.385  1.00  0.00    -0.132 C  
HETATM    3  C   UNL     1      -9.685  11.145  67.228  1.00  0.00    -0.166 C  
HETATM    4  O   UNL     1      -7.483  12.131  67.046  1.00  0.00    -0.146 OA 
HETATM    5  S   UNL     1     -10.271   9.402  67.035  1.00  0.00    -0.256 SA 
HETATM    6  H   UNL     1     -11.653   9.370  66.892  1.00  0.00     0.000 H  
ENDROOT
BRANCH   3   7
HETATM    7  C   UNL     1     -10.389  11.869  68.383  1.00  0.00    -0.209 C  
HETATM    8  C   UNL     1     -10.889  10.853  69.400  1.00  0.00    -0.240 C  
HETATM    9  S   UNL     1     -11.721  13.040  67.866  1.00  0.00    -0.351 SA 
HETATM   10  O   UNL     1     -12.215  10.875  69.653  1.00  0.00    -0.328 OA 
HETATM   11  O   UNL     1     -10.136  10.077  69.970  1.00  0.00    -0.248 OA 
HETATM   12  H   UNL     1     -12.359  13.696  68.913  1.00  0.00     0.000 H  
ENDBRANCH   3   7
TORSDOF 1
ENDMDL
MODEL      206
REMARK 921   NORMALIZED FREE ENERGY PREDICTED BY IDOCK:   -1.81 KCAL/MOL
REMARK 922        TOTAL FREE ENERGY PREDICTED BY IDOCK:   -1.86 KCAL/MOL
REMARK 923 INTER-LIGAND FREE ENERGY PREDICTED BY IDOCK:   -2.15 KCAL/MOL
REMARK 924 INTRA-LIGAND FREE ENERGY PREDICTED BY IDOCK:    0.30 KCAL/MOL
REMARK 927      BINDING AFFINITY PREDICTED BY RF-SCORE:    0.00 PKD
ROOT
HETATM    1  O   UNL     1     -11.557   8.214  71.044  1.00  0.00    -0.278 OA 
HETATM    2  C   UNL     1     -11.256   9.458  70.604  1.00  0.00    -0.284 C  
HETATM    3  C   UNL     1     -10.062   9.541  69.663  1.00  0.00    -0.212 C  
HETATM    4  O   UNL     1     -11.938  10.423  70.909  1.00  0.00    -0.319 OA 
HETATM    5  S   UNL     1      -8.835   8.216  70.061  1.00  0.00    -0.140 SA 
HETATM    6  H   UNL     1      -7.745   8.292  69.203  1.00  0.00     0.000 H  
ENDROOT
BRANCH   3   7
HETATM    7  C   UNL     1     -10.498   9.504  68.192  1.00  0.00    -0.223 C  
HETATM    8  C   UNL     1     -10.474   8.070  67.683  1.00  0.00    -0.232 C  
HETATM    9  S   UNL     1      -9.566  10.646  67.079  1.00  0.00    -0.172 SA 
HETATM   10  O   UNL     1      -9.687   7.837  66.611  1.00  0.00    -0.204 OA 
HETATM   11  O   UNL     1     -11.141   7.184  68.198  1.00  0.00    -0.087 OA 
HETATM   12  H   UNL     1      -9.962  10.613  65.747  1.00  0.00     0.000 H  
ENDBRANCH   3   7
TORSDOF 1
ENDMDL
MODEL      207
REMARK 921   NORMALIZED FREE ENERGY PREDICTED BY IDOCK:   -1.81 KCAL/MOL
REMARK 922        TOTAL FREE ENERGY PREDICTED BY IDOCK:   -1.85 KCAL/MOL
REMARK 923 INTER-LIGAND FREE ENERGY PREDICTED BY IDOCK:   -1.87 KCAL/MOL
REMARK 924 INTRA-LIGAND FREE ENERGY PREDICTED BY IDOCK:    0.01 KCAL/MOL
REMARK 927      BINDING AFFINITY PREDICTED BY RF-SCORE:    0.00 PKD
ROOT
HETATM    1  O   UNL     1     -11.401   6.431  67.189  1.00  0.00    -0.308 OA 
HETATM    2  C   UNL     1     -10.604   7.420  67.654  1.00  0.00    -0.239 C  
HETATM    3  C   UNL     1     -10.087   7.223  69.073  1.00  0.00    -0.186 C  
HETATM    4  O   UNL     1     -10.291   8.369  66.952  1.00  0.00    -0.292 OA 
HETATM    5  S   UNL     1     -11.311   6.267  70.077  1.00  0.00    -0.370 SA 
HETATM    6  H   UNL     1     -10.839   6.087  71.371  1.00  0.00     0.000 H  
ENDROOT
BRANCH   3   7
HETATM    7  C   UNL     1      -8.696   6.574  69.081  1.00  0.00    -0.129 C  
HETATM    8  C   UNL     1      -7.628   7.643  68.903  1.00  0.00    -0.101 C  
HETATM    9  S   UNL     1      -8.485   5.181  67.887  1.00  0.00    -0.103 SA 
HETATM   10  O   UNL     1      -6.802   7.482  67.846  1.00  0.00    -0.066 OA 
HETATM   11  O   UNL     1      -7.507   8.579  69.679  1.00  0.00    -0.072 OA 
HETATM   12  H   UNL     1      -7.225   4.593  67.895  1.00  0.00     0.000 H  
ENDBRANCH   3   7
TORSDOF 1
ENDMDL
MODEL      208
REMARK 921   NORMALIZED FREE ENERGY PREDICTED BY IDOCK:   -1.81 KCAL/MOL
REMARK 922        TOTAL FREE ENERGY PREDICTED BY IDOCK:   -1.85 KCAL/MOL
REMARK 923 INTER-LIGAND FREE ENERGY PREDICTED BY IDOCK:   -2.16 KCAL/MOL
REMARK 924 INTRA-LIGAND FREE ENERGY PREDICTED BY IDOCK:    0.31 KCAL/MOL
REMARK 927      BINDING AFFINITY PREDICTED BY RF-SCORE:    0.00 PKD
ROOT
HETATM    1  O   UNL     1     -10.507   8.856  72.311  1.00  0.00    -0.313 OA 
HETATM    2  C   UNL     1     -11.266   7.994  71.596  1.00  0.00    -0.255 C  
HETATM    3  C   UNL     1     -11.223   8.190  70.087  1.00  0.00    -0.134 C  
HETATM    4  O   UNL     1     -11.894   7.098  72.139  1.00  0.00    -0.284 OA 
HETATM    5  S   UNL     1     -10.942   9.972  69.676  1.00  0.00    -0.274 SA 
HETATM    6  H   UNL     1     -10.902  10.150  68.299  1.00  0.00     0.000 H  
ENDROOT
BRANCH   3   7
HETATM    7  C   UNL     1     -10.183   7.273  69.429  1.00  0.00    -0.192 C  
HETATM    8  C   UNL     1      -8.845   7.991  69.340  1.00  0.00    -0.144 C  
HETATM    9  S   UNL     1     -10.695   6.565  67.801  1.00  0.00    -0.321 SA 
HETATM   10  O   UNL     1      -8.323   8.117  68.100  1.00  0.00    -0.127 OA 
HETATM   11  O   UNL     1      -8.264   8.412  70.330  1.00  0.00    -0.113 OA 
HETATM   12  H   UNL     1      -9.754   5.734  67.205  1.00  0.00     0.000 H  
ENDBRANCH   3   7
TORSDOF 1
ENDMDL
MODEL      209
REMARK 921   NORMALIZED FREE ENERGY PREDICTED BY IDOCK:   -1.79 KCAL/MOL
REMARK 922        TOTAL FREE ENERGY PREDICTED BY IDOCK:   -1.84 KCAL/MOL
REMARK 923 INTER-LIGAND FREE ENERGY PREDICTED BY IDOCK:   -1.96 KCAL/MOL
REMARK 924 INTRA-LIGAND FREE ENERGY PREDICTED BY IDOCK:    0.12 KCAL/MOL
REMARK 927      BINDING AFFINITY PREDICTED BY RF-SCORE:    0.00 PKD
ROOT
HETATM    1  O   UNL     1      -9.084   8.797  68.700  1.00  0.00    -0.141 OA 
HETATM    2  C   UNL     1      -9.361   8.503  67.409  1.00  0.00    -0.148 C  
HETATM    3  C   UNL     1      -9.955   9.647  66.598  1.00  0.00    -0.236 C  
HETATM    4  O   UNL     1      -9.099   7.410  66.934  1.00  0.00    -0.130 OA 
HETATM    5  S   UNL     1     -10.954  10.758  67.688  1.00  0.00    -0.319 SA 
HETATM    6  H   UNL     1     -11.496  11.802  66.947  1.00  0.00     0.000 H  
ENDROOT
BRANCH   3   7
HETATM    7  C   UNL     1      -8.872  10.413  65.826  1.00  0.00    -0.170 C  
HETATM    8  C   UNL     1      -9.091  10.248  64.329  1.00  0.00    -0.243 C  
HETATM    9  S   UNL     1      -7.138  10.007  66.318  1.00  0.00    -0.111 SA 
HETATM   10  O   UNL     1      -8.061   9.716  63.637  1.00  0.00    -0.132 OA 
HETATM   11  O   UNL     1     -10.127  10.594  63.780  1.00  0.00    -0.330 OA 
HETATM   12  H   UNL     1      -6.157  10.701  65.619  1.00  0.00     0.000 H  
ENDBRANCH   3   7
TORSDOF 1
ENDMDL
MODEL      210
REMARK 921   NORMALIZED FREE ENERGY PREDICTED BY IDOCK:   -1.79 KCAL/MOL
REMARK 922        TOTAL FREE ENERGY PREDICTED BY IDOCK:   -1.83 KCAL/MOL
REMARK 923 INTER-LIGAND FREE ENERGY PREDICTED BY IDOCK:   -2.13 KCAL/MOL
REMARK 924 INTRA-LIGAND FREE ENERGY PREDICTED BY IDOCK:    0.30 KCAL/MOL
REMARK 927      BINDING AFFINITY PREDICTED BY RF-SCORE:    0.00 PKD
ROOT
HETATM    1  O   UNL     1     -11.575   6.102  70.711  1.00  0.00    -0.316 OA 
HETATM    2  C   UNL     1     -10.371   5.487  70.673  1.00  0.00    -0.262 C  
HETATM    3  C   UNL     1      -9.168   6.408  70.824  1.00  0.00    -0.158 C  
HETATM    4  O   UNL     1     -10.279   4.273  70.576  1.00  0.00    -0.135 OA 
HETATM    5  S   UNL     1      -9.545   8.079  70.126  1.00  0.00    -0.175 SA 
HETATM    6  H   UNL     1      -8.447   8.919  70.263  1.00  0.00     0.000 H  
ENDROOT
BRANCH   3   7
HETATM    7  C   UNL     1      -8.692   6.482  72.281  1.00  0.00    -0.130 C  
HETATM    8  C   UNL     1      -9.365   7.652  72.984  1.00  0.00    -0.210 C  
HETATM    9  S   UNL     1      -6.858   6.511  72.496  1.00  0.00    -0.069 SA 
HETATM   10  O   UNL     1      -8.537   8.574  73.519  1.00  0.00    -0.341 OA 
HETATM   11  O   UNL     1     -10.581   7.744  73.078  1.00  0.00    -0.336 OA 
HETATM   12  H   UNL     1      -6.427   6.577  73.816  1.00  0.00     0.000 H  
ENDBRANCH   3   7
TORSDOF 1
ENDMDL
MODEL      211
REMARK 921   NORMALIZED FREE ENERGY PREDICTED BY IDOCK:   -1.79 KCAL/MOL
REMARK 922        TOTAL FREE ENERGY PREDICTED BY IDOCK:   -1.83 KCAL/MOL
REMARK 923 INTER-LIGAND FREE ENERGY PREDICTED BY IDOCK:   -2.12 KCAL/MOL
REMARK 924 INTRA-LIGAND FREE ENERGY PREDICTED BY IDOCK:    0.29 KCAL/MOL
REMARK 927      BINDING AFFINITY PREDICTED BY RF-SCORE:    0.00 PKD
ROOT
HETATM    1  O   UNL     1     -10.734   9.143  69.427  1.00  0.00    -0.226 OA 
HETATM    2  C   UNL     1      -9.558   8.505  69.626  1.00  0.00    -0.170 C  
HETATM    3  C   UNL     1      -9.607   6.991  69.470  1.00  0.00    -0.153 C  
HETATM    4  O   UNL     1      -8.531   9.122  69.862  1.00  0.00    -0.122 OA 
HETATM    5  S   UNL     1     -11.273   6.349  69.950  1.00  0.00    -0.437 SA 
HETATM    6  H   UNL     1     -11.318   4.967  69.807  1.00  0.00     0.000 H  
ENDROOT
BRANCH   3   7
HETATM    7  C   UNL     1      -9.202   6.557  68.055  1.00  0.00    -0.111 C  
HETATM    8  C   UNL     1     -10.448   6.315  67.215  1.00  0.00    -0.254 C  
HETATM    9  S   UNL     1      -8.037   5.124  67.989  1.00  0.00    -0.098 SA 
HETATM   10  O   UNL     1     -10.570   5.080  66.681  1.00  0.00    -0.274 OA 
HETATM   11  O   UNL     1     -11.279   7.189  67.015  1.00  0.00    -0.277 OA 
HETATM   12  H   UNL     1      -7.671   4.731  66.707  1.00  0.00     0.000 H  
ENDBRANCH   3   7
TORSDOF 1
ENDMDL
MODEL      212
REMARK 921   NORMALIZED FREE ENERGY PREDICTED BY IDOCK:   -1.79 KCAL/MOL
REMARK 922        TOTAL FREE ENERGY PREDICTED BY IDOCK:   -1.83 KCAL/MOL
REMARK 923 INTER-LIGAND FREE ENERGY PREDICTED BY IDOCK:   -2.27 KCAL/MOL
REMARK 924 INTRA-LIGAND FREE ENERGY PREDICTED BY IDOCK:    0.44 KCAL/MOL
REMARK 927      BINDING AFFINITY PREDICTED BY RF-SCORE:    0.00 PKD
ROOT
HETATM    1  O   UNL     1      -8.494   7.649  69.828  1.00  0.00    -0.131 OA 
HETATM    2  C   UNL     1      -9.611   8.412  69.846  1.00  0.00    -0.171 C  
HETATM    3  C   UNL     1     -10.922   7.640  69.912  1.00  0.00    -0.200 C  
HETATM    4  O   UNL     1      -9.549   9.632  69.859  1.00  0.00    -0.201 OA 
HETATM    5  S   UNL     1     -10.750   6.005  69.066  1.00  0.00    -0.339 SA 
HETATM    6  H   UNL     1     -11.947   5.301  69.127  1.00  0.00     0.000 H  
ENDROOT
BRANCH   3   7
HETATM    7  C   UNL     1     -11.419   7.496  71.357  1.00  0.00    -0.265 C  
HETATM    8  C   UNL     1     -10.692   6.347  72.040  1.00  0.00    -0.227 C  
HETATM    9  S   UNL     1     -13.253   7.355  71.534  1.00  0.00    -0.330 SA 
HETATM   10  O   UNL     1     -11.475   5.363  72.532  1.00  0.00    -0.259 OA 
HETATM   11  O   UNL     1      -9.476   6.322  72.156  1.00  0.00    -0.152 OA 
HETATM   12  H   UNL     1     -13.703   7.225  72.843  1.00  0.00     0.000 H  
ENDBRANCH   3   7
TORSDOF 1
ENDMDL
MODEL      213
REMARK 921   NORMALIZED FREE ENERGY PREDICTED BY IDOCK:   -1.78 KCAL/MOL
REMARK 922        TOTAL FREE ENERGY PREDICTED BY IDOCK:   -1.82 KCAL/MOL
REMARK 923 INTER-LIGAND FREE ENERGY PREDICTED BY IDOCK:   -2.15 KCAL/MOL
REMARK 924 INTRA-LIGAND FREE ENERGY PREDICTED BY IDOCK:    0.33 KCAL/MOL
REMARK 927      BINDING AFFINITY PREDICTED BY RF-SCORE:    0.00 PKD
ROOT
HETATM    1  O   UNL     1     -10.524  11.828  66.381  1.00  0.00    -0.222 OA 
HETATM    2  C   UNL     1      -9.984  10.595  66.248  1.00  0.00    -0.222 C  
HETATM    3  C   UNL     1      -9.231  10.082  67.468  1.00  0.00    -0.137 C  
HETATM    4  O   UNL     1     -10.146   9.935  65.233  1.00  0.00    -0.313 OA 
HETATM    5  S   UNL     1      -8.476  11.491  68.398  1.00  0.00    -0.151 SA 
HETATM    6  H   UNL     1      -7.788  11.023  69.511  1.00  0.00     0.000 H  
ENDROOT
BRANCH   3   7
HETATM    7  C   UNL     1     -10.126   9.212  68.360  1.00  0.00    -0.196 C  
HETATM    8  C   UNL     1     -10.563  10.006  69.583  1.00  0.00    -0.252 C  
HETATM    9  S   UNL     1      -9.403   7.576  68.822  1.00  0.00    -0.147 SA 
HETATM   10  O   UNL     1     -10.239   9.472  70.780  1.00  0.00    -0.275 OA 
HETATM   11  O   UNL     1     -11.187  11.053  69.491  1.00  0.00    -0.239 OA 
HETATM   12  H   UNL     1     -10.214   6.788  69.631  1.00  0.00     0.000 H  
ENDBRANCH   3   7
TORSDOF 1
ENDMDL
MODEL      214
REMARK 921   NORMALIZED FREE ENERGY PREDICTED BY IDOCK:   -1.78 KCAL/MOL
REMARK 922        TOTAL FREE ENERGY PREDICTED BY IDOCK:   -1.82 KCAL/MOL
REMARK 923 INTER-LIGAND FREE ENERGY PREDICTED BY IDOCK:   -1.85 KCAL/MOL
REMARK 924 INTRA-LIGAND FREE ENERGY PREDICTED BY IDOCK:    0.03 KCAL/MOL
REMARK 927      BINDING AFFINITY PREDICTED BY RF-SCORE:    0.00 PKD
ROOT
HETATM    1  O   UNL     1      -7.943   4.887  68.655  1.00  0.00    -0.083 OA 
HETATM    2  C   UNL     1      -9.255   5.207  68.740  1.00  0.00    -0.119 C  
HETATM    3  C   UNL     1      -9.978   4.657  69.963  1.00  0.00    -0.232 C  
HETATM    4  O   UNL     1      -9.789   5.929  67.913  1.00  0.00    -0.115 OA 
HETATM    5  S   UNL     1      -9.226   3.050  70.486  1.00  0.00    -0.152 SA 
HETATM    6  H   UNL     1      -9.886   2.549  71.602  1.00  0.00     0.000 H  
ENDROOT
BRANCH   3   7
HETATM    7  C   UNL     1     -10.013   5.680  71.105  1.00  0.00    -0.190 C  
HETATM    8  C   UNL     1     -10.984   6.801  70.764  1.00  0.00    -0.262 C  
HETATM    9  S   UNL     1      -8.360   6.331  71.613  1.00  0.00    -0.129 SA 
HETATM   10  O   UNL     1     -10.466   8.048  70.750  1.00  0.00    -0.203 OA 
HETATM   11  O   UNL     1     -12.167   6.592  70.536  1.00  0.00    -0.364 OA 
HETATM   12  H   UNL     1      -8.392   7.258  72.648  1.00  0.00     0.000 H  
ENDBRANCH   3   7
TORSDOF 1
ENDMDL
MODEL      215
REMARK 921   NORMALIZED FREE ENERGY PREDICTED BY IDOCK:   -1.78 KCAL/MOL
REMARK 922        TOTAL FREE ENERGY PREDICTED BY IDOCK:   -1.82 KCAL/MOL
REMARK 923 INTER-LIGAND FREE ENERGY PREDICTED BY IDOCK:   -2.35 KCAL/MOL
REMARK 924 INTRA-LIGAND FREE ENERGY PREDICTED BY IDOCK:    0.54 KCAL/MOL
REMARK 927      BINDING AFFINITY PREDICTED BY RF-SCORE:    0.00 PKD
ROOT
HETATM    1  O   UNL     1     -11.917   6.342  70.097  1.00  0.00    -0.354 OA 
HETATM    2  C   UNL     1     -10.598   6.622  69.996  1.00  0.00    -0.224 C  
HETATM    3  C   UNL     1     -10.044   7.540  71.078  1.00  0.00    -0.186 C  
HETATM    4  O   UNL     1      -9.907   6.122  69.122  1.00  0.00    -0.139 OA 
HETATM    5  S   UNL     1     -11.351   8.714  71.655  1.00  0.00    -0.333 SA 
HETATM    6  H   UNL     1     -10.846   9.552  72.643  1.00  0.00     0.000 H  
ENDROOT
BRANCH   3   7
HETATM    7  C   UNL     1      -9.429   6.741  72.235  1.00  0.00    -0.141 C  
HETATM    8  C   UNL     1     -10.534   6.180  73.118  1.00  0.00    -0.236 C  
HETATM    9  S   UNL     1      -8.159   7.655  73.217  1.00  0.00    -0.149 SA 
HETATM   10  O   UNL     1     -10.492   6.541  74.419  1.00  0.00    -0.313 OA 
HETATM   11  O   UNL     1     -11.397   5.430  72.685  1.00  0.00    -0.279 OA 
HETATM   12  H   UNL     1      -7.602   6.932  74.265  1.00  0.00     0.000 H  
ENDBRANCH   3   7
TORSDOF 1
ENDMDL
MODEL      216
REMARK 921   NORMALIZED FREE ENERGY PREDICTED BY IDOCK:   -1.77 KCAL/MOL
REMARK 922        TOTAL FREE ENERGY PREDICTED BY IDOCK:   -1.82 KCAL/MOL
REMARK 923 INTER-LIGAND FREE ENERGY PREDICTED BY IDOCK:   -2.00 KCAL/MOL
REMARK 924 INTRA-LIGAND FREE ENERGY PREDICTED BY IDOCK:    0.19 KCAL/MOL
REMARK 927      BINDING AFFINITY PREDICTED BY RF-SCORE:    0.00 PKD
ROOT
HETATM    1  O   UNL     1     -12.109  13.012  67.993  1.00  0.00    -0.318 OA 
HETATM    2  C   UNL     1     -10.852  12.921  68.485  1.00  0.00    -0.257 C  
HETATM    3  C   UNL     1     -10.591  11.715  69.378  1.00  0.00     0.039 C  
HETATM    4  O   UNL     1      -9.989  13.730  68.182  1.00  0.00    -0.228 OA 
HETATM    5  S   UNL     1     -12.135  11.232  70.274  1.00  0.00    -0.379 SA 
HETATM    6  H   UNL     1     -11.896  10.131  71.089  1.00  0.00     0.000 H  
ENDROOT
BRANCH   3   7
HETATM    7  C   UNL     1      -9.990  10.546  68.586  1.00  0.00    -0.181 C  
HETATM    8  C   UNL     1      -8.770  10.002  69.315  1.00  0.00    -0.177 C  
HETATM    9  S   UNL     1      -9.624  10.919  66.813  1.00  0.00    -0.187 SA 
HETATM   10  O   UNL     1      -7.614  10.007  68.617  1.00  0.00    -0.083 OA 
HETATM   11  O   UNL     1      -8.833   9.567  70.456  1.00  0.00    -0.233 OA 
HETATM   12  H   UNL     1      -9.080   9.860  66.096  1.00  0.00     0.000 H  
ENDBRANCH   3   7
TORSDOF 1
ENDMDL
MODEL      217
REMARK 921   NORMALIZED FREE ENERGY PREDICTED BY IDOCK:   -1.76 KCAL/MOL
REMARK 922        TOTAL FREE ENERGY PREDICTED BY IDOCK:   -1.80 KCAL/MOL
REMARK 923 INTER-LIGAND FREE ENERGY PREDICTED BY IDOCK:   -2.09 KCAL/MOL
REMARK 924 INTRA-LIGAND FREE ENERGY PREDICTED BY IDOCK:    0.29 KCAL/MOL
REMARK 927      BINDING AFFINITY PREDICTED BY RF-SCORE:    0.00 PKD
ROOT
HETATM    1  O   UNL     1      -9.848   4.133  67.770  1.00  0.00    -0.141 OA 
HETATM    2  C   UNL     1     -10.480   5.045  66.996  1.00  0.00    -0.148 C  
HETATM    3  C   UNL     1     -10.724   6.396  67.655  1.00  0.00    -0.311 C  
HETATM    4  O   UNL     1     -10.778   4.800  65.838  1.00  0.00    -0.318 OA 
HETATM    5  S   UNL     1     -10.951   6.191  69.479  1.00  0.00    -0.413 SA 
HETATM    6  H   UNL     1     -11.174   7.424  70.080  1.00  0.00     0.000 H  
ENDROOT
BRANCH   3   7
HETATM    7  C   UNL     1      -9.611   7.397  67.318  1.00  0.00    -0.150 C  
HETATM    8  C   UNL     1      -8.609   7.459  68.462  1.00  0.00    -0.128 C  
HETATM    9  S   UNL     1     -10.203   9.077  66.829  1.00  0.00    -0.252 SA 
HETATM   10  O   UNL     1      -8.420   8.676  69.016  1.00  0.00    -0.122 OA 
HETATM   11  O   UNL     1      -7.996   6.473  68.845  1.00  0.00    -0.108 OA 
HETATM   12  H   UNL     1      -9.195   9.984  66.523  1.00  0.00     0.000 H  
ENDBRANCH   3   7
TORSDOF 1
ENDMDL
MODEL      218
REMARK 921   NORMALIZED FREE ENERGY PREDICTED BY IDOCK:   -1.75 KCAL/MOL
REMARK 922        TOTAL FREE ENERGY PREDICTED BY IDOCK:   -1.79 KCAL/MOL
REMARK 923 INTER-LIGAND FREE ENERGY PREDICTED BY IDOCK:   -1.80 KCAL/MOL
REMARK 924 INTRA-LIGAND FREE ENERGY PREDICTED BY IDOCK:    0.01 KCAL/MOL
REMARK 927      BINDING AFFINITY PREDICTED BY RF-SCORE:    0.00 PKD
ROOT
HETATM    1  O   UNL     1      -7.629   4.596  67.848  1.00  0.00    -0.076 OA 
HETATM    2  C   UNL     1      -7.956   5.829  67.397  1.00  0.00    -0.102 C  
HETATM    3  C   UNL     1      -9.340   5.945  66.772  1.00  0.00    -0.136 C  
HETATM    4  O   UNL     1      -7.202   6.779  67.538  1.00  0.00    -0.085 OA 
HETATM    5  S   UNL     1      -9.823   4.346  65.978  1.00  0.00    -0.239 SA 
HETATM    6  H   UNL     1     -11.086   4.452  65.407  1.00  0.00     0.000 H  
ENDROOT
BRANCH   3   7
HETATM    7  C   UNL     1     -10.381   6.424  67.792  1.00  0.00    -0.193 C  
HETATM    8  C   UNL     1     -10.384   7.945  67.851  1.00  0.00    -0.221 C  
HETATM    9  S   UNL     1     -10.224   5.669  69.471  1.00  0.00    -0.277 SA 
HETATM   10  O   UNL     1     -10.140   8.489  69.062  1.00  0.00    -0.189 OA 
HETATM   11  O   UNL     1     -10.614   8.634  66.868  1.00  0.00    -0.287 OA 
HETATM   12  H   UNL     1     -11.168   6.103  70.395  1.00  0.00     0.000 H  
ENDBRANCH   3   7
TORSDOF 1
ENDMDL
MODEL      219
REMARK 921   NORMALIZED FREE ENERGY PREDICTED BY IDOCK:   -1.75 KCAL/MOL
REMARK 922        TOTAL FREE ENERGY PREDICTED BY IDOCK:   -1.79 KCAL/MOL
REMARK 923 INTER-LIGAND FREE ENERGY PREDICTED BY IDOCK:   -2.09 KCAL/MOL
REMARK 924 INTRA-LIGAND FREE ENERGY PREDICTED BY IDOCK:    0.30 KCAL/MOL
REMARK 927      BINDING AFFINITY PREDICTED BY RF-SCORE:    0.00 PKD
ROOT
HETATM    1  O   UNL     1      -8.540   7.661  71.491  1.00  0.00    -0.113 OA 
HETATM    2  C   UNL     1      -8.351   8.547  70.486  1.00  0.00    -0.135 C  
HETATM    3  C   UNL     1      -8.501   7.977  69.082  1.00  0.00    -0.136 C  
HETATM    4  O   UNL     1      -8.129   9.726  70.711  1.00  0.00    -0.271 OA 
HETATM    5  S   UNL     1      -8.002   6.196  69.054  1.00  0.00    -0.109 SA 
HETATM    6  H   UNL     1      -8.139   5.676  67.772  1.00  0.00     0.000 H  
ENDROOT
BRANCH   3   7
HETATM    7  C   UNL     1      -9.919   8.190  68.535  1.00  0.00    -0.190 C  
HETATM    8  C   UNL     1     -10.732   6.914  68.700  1.00  0.00    -0.216 C  
HETATM    9  S   UNL     1      -9.992   8.836  66.806  1.00  0.00    -0.287 SA 
HETATM   10  O   UNL     1     -11.250   6.393  67.566  1.00  0.00    -0.347 OA 
HETATM   11  O   UNL     1     -10.926   6.401  69.793  1.00  0.00    -0.283 OA 
HETATM   12  H   UNL     1     -11.276   9.029  66.310  1.00  0.00     0.000 H  
ENDBRANCH   3   7
TORSDOF 1
ENDMDL
MODEL      220
REMARK 921   NORMALIZED FREE ENERGY PREDICTED BY IDOCK:   -1.74 KCAL/MOL
REMARK 922        TOTAL FREE ENERGY PREDICTED BY IDOCK:   -1.78 KCAL/MOL
REMARK 923 INTER-LIGAND FREE ENERGY PREDICTED BY IDOCK:   -1.80 KCAL/MOL
REMARK 924 INTRA-LIGAND FREE ENERGY PREDICTED BY IDOCK:    0.02 KCAL/MOL
REMARK 927      BINDING AFFINITY PREDICTED BY RF-SCORE:    0.00 PKD
ROOT
HETATM    1  O   UNL     1     -10.889   6.334  70.657  1.00  0.00    -0.245 OA 
HETATM    2  C   UNL     1     -10.273   7.158  71.536  1.00  0.00    -0.197 C  
HETATM    3  C   UNL     1      -8.897   6.699  72.000  1.00  0.00    -0.135 C  
HETATM    4  O   UNL     1     -10.780   8.214  71.880  1.00  0.00    -0.233 OA 
HETATM    5  S   UNL     1      -8.804   4.852  72.011  1.00  0.00    -0.129 SA 
HETATM    6  H   UNL     1      -7.548   4.434  72.434  1.00  0.00     0.000 H  
ENDROOT
BRANCH   3   7
HETATM    7  C   UNL     1      -7.779   7.332  71.160  1.00  0.00    -0.092 C  
HETATM    8  C   UNL     1      -7.283   8.602  71.836  1.00  0.00    -0.065 C  
HETATM    9  S   UNL     1      -8.210   7.617  69.387  1.00  0.00    -0.131 SA 
HETATM   10  O   UNL     1      -7.364   9.732  71.100  1.00  0.00    -0.316 OA 
HETATM   11  O   UNL     1      -6.820   8.601  72.967  1.00  0.00    -0.258 OA 
HETATM   12  H   UNL     1      -7.197   8.189  68.626  1.00  0.00     0.000 H  
ENDBRANCH   3   7
TORSDOF 1
ENDMDL
MODEL      221
REMARK 921   NORMALIZED FREE ENERGY PREDICTED BY IDOCK:   -1.74 KCAL/MOL
REMARK 922        TOTAL FREE ENERGY PREDICTED BY IDOCK:   -1.78 KCAL/MOL
REMARK 923 INTER-LIGAND FREE ENERGY PREDICTED BY IDOCK:   -2.18 KCAL/MOL
REMARK 924 INTRA-LIGAND FREE ENERGY PREDICTED BY IDOCK:    0.40 KCAL/MOL
REMARK 927      BINDING AFFINITY PREDICTED BY RF-SCORE:    0.00 PKD
ROOT
HETATM    1  O   UNL     1     -10.192   6.808  71.382  1.00  0.00    -0.197 OA 
HETATM    2  C   UNL     1     -10.971   7.007  70.294  1.00  0.00    -0.271 C  
HETATM    3  C   UNL     1     -11.199   8.465  69.917  1.00  0.00    -0.026 C  
HETATM    4  O   UNL     1     -11.407   6.070  69.643  1.00  0.00    -0.411 OA 
HETATM    5  S   UNL     1     -11.169   9.531  71.428  1.00  0.00    -0.358 SA 
HETATM    6  H   UNL     1     -11.378  10.862  71.084  1.00  0.00     0.000 H  
ENDROOT
BRANCH   3   7
HETATM    7  C   UNL     1     -10.198   8.936  68.854  1.00  0.00    -0.206 C  
HETATM    8  C   UNL     1      -8.897   9.356  69.523  1.00  0.00    -0.162 C  
HETATM    9  S   UNL     1     -10.838  10.239  67.712  1.00  0.00    -0.292 SA 
HETATM   10  O   UNL     1      -8.498  10.626  69.293  1.00  0.00    -0.150 OA 
HETATM   11  O   UNL     1      -8.238   8.588  70.209  1.00  0.00    -0.106 OA 
HETATM   12  H   UNL     1      -9.931  10.666  66.749  1.00  0.00     0.000 H  
ENDBRANCH   3   7
TORSDOF 1
ENDMDL
MODEL      222
REMARK 921   NORMALIZED FREE ENERGY PREDICTED BY IDOCK:   -1.74 KCAL/MOL
REMARK 922        TOTAL FREE ENERGY PREDICTED BY IDOCK:   -1.78 KCAL/MOL
REMARK 923 INTER-LIGAND FREE ENERGY PREDICTED BY IDOCK:   -1.87 KCAL/MOL
REMARK 924 INTRA-LIGAND FREE ENERGY PREDICTED BY IDOCK:    0.09 KCAL/MOL
REMARK 927      BINDING AFFINITY PREDICTED BY RF-SCORE:    0.00 PKD
ROOT
HETATM    1  O   UNL     1     -10.315   7.877  69.329  1.00  0.00    -0.213 OA 
HETATM    2  C   UNL     1      -9.497   8.954  69.281  1.00  0.00    -0.161 C  
HETATM    3  C   UNL     1      -9.274   9.538  67.893  1.00  0.00    -0.125 C  
HETATM    4  O   UNL     1      -9.022   9.438  70.297  1.00  0.00    -0.204 OA 
HETATM    5  S   UNL     1      -9.378   8.209  66.611  1.00  0.00    -0.211 SA 
HETATM    6  H   UNL     1      -9.175   8.743  65.344  1.00  0.00     0.000 H  
ENDROOT
BRANCH   3   7
HETATM    7  C   UNL     1     -10.239  10.697  67.607  1.00  0.00    -0.194 C  
HETATM    8  C   UNL     1      -9.475  12.013  67.592  1.00  0.00    -0.185 C  
HETATM    9  S   UNL     1     -11.714  10.768  68.718  1.00  0.00    -0.171 SA 
HETATM   10  O   UNL     1      -9.897  12.950  68.468  1.00  0.00    -0.214 OA 
HETATM   11  O   UNL     1      -8.549  12.220  66.821  1.00  0.00    -0.194 OA 
HETATM   12  H   UNL     1     -12.588  11.817  68.458  1.00  0.00     0.000 H  
ENDBRANCH   3   7
TORSDOF 1
ENDMDL
MODEL      223
REMARK 921   NORMALIZED FREE ENERGY PREDICTED BY IDOCK:   -1.73 KCAL/MOL
REMARK 922        TOTAL FREE ENERGY PREDICTED BY IDOCK:   -1.77 KCAL/MOL
REMARK 923 INTER-LIGAND FREE ENERGY PREDICTED BY IDOCK:   -1.81 KCAL/MOL
REMARK 924 INTRA-LIGAND FREE ENERGY PREDICTED BY IDOCK:    0.04 KCAL/MOL
REMARK 927      BINDING AFFINITY PREDICTED BY RF-SCORE:    0.00 PKD
ROOT
HETATM    1  O   UNL     1     -10.521   7.867  73.195  1.00  0.00    -0.345 OA 
HETATM    2  C   UNL     1     -10.810   6.682  72.609  1.00  0.00    -0.248 C  
HETATM    3  C   UNL     1     -10.189   6.471  71.235  1.00  0.00    -0.198 C  
HETATM    4  O   UNL     1     -11.479   5.836  73.181  1.00  0.00    -0.206 OA 
HETATM    5  S   UNL     1     -10.003   8.088  70.357  1.00  0.00    -0.189 SA 
HETATM    6  H   UNL     1      -9.437   7.895  69.103  1.00  0.00     0.000 H  
ENDROOT
BRANCH   3   7
HETATM    7  C   UNL     1      -8.862   5.705  71.327  1.00  0.00    -0.135 C  
HETATM    8  C   UNL     1      -9.123   4.275  71.778  1.00  0.00    -0.123 C  
HETATM    9  S   UNL     1      -7.564   6.526  72.353  1.00  0.00    -0.096 SA 
HETATM   10  O   UNL     1      -8.488   3.887  72.905  1.00  0.00    -0.093 OA 
HETATM   11  O   UNL     1      -9.844   3.515  71.149  1.00  0.00    -0.179 OA 
HETATM   12  H   UNL     1      -6.362   5.833  72.436  1.00  0.00     0.000 H  
ENDBRANCH   3   7
TORSDOF 1
ENDMDL
MODEL      224
REMARK 921   NORMALIZED FREE ENERGY PREDICTED BY IDOCK:   -1.71 KCAL/MOL
REMARK 922        TOTAL FREE ENERGY PREDICTED BY IDOCK:   -1.75 KCAL/MOL
REMARK 923 INTER-LIGAND FREE ENERGY PREDICTED BY IDOCK:   -1.77 KCAL/MOL
REMARK 924 INTRA-LIGAND FREE ENERGY PREDICTED BY IDOCK:    0.02 KCAL/MOL
REMARK 927      BINDING AFFINITY PREDICTED BY RF-SCORE:    0.00 PKD
ROOT
HETATM    1  O   UNL     1      -7.376   7.201  67.683  1.00  0.00    -0.088 OA 
HETATM    2  C   UNL     1      -7.938   6.651  68.784  1.00  0.00    -0.118 C  
HETATM    3  C   UNL     1      -8.417   7.645  69.833  1.00  0.00    -0.137 C  
HETATM    4  O   UNL     1      -8.088   5.443  68.887  1.00  0.00    -0.092 OA 
HETATM    5  S   UNL     1      -7.362   9.165  69.808  1.00  0.00    -0.071 SA 
HETATM    6  H   UNL     1      -7.800  10.072  70.766  1.00  0.00     0.000 H  
ENDROOT
BRANCH   3   7
HETATM    7  C   UNL     1      -9.907   7.971  69.663  1.00  0.00    -0.184 C  
HETATM    8  C   UNL     1     -10.750   6.833  70.221  1.00  0.00    -0.244 C  
HETATM    9  S   UNL     1     -10.409   8.422  67.943  1.00  0.00    -0.204 SA 
HETATM   10  O   UNL     1     -11.611   6.257  69.355  1.00  0.00    -0.403 OA 
HETATM   11  O   UNL     1     -10.671   6.475  71.387  1.00  0.00    -0.227 OA 
HETATM   12  H   UNL     1     -11.759   8.717  67.789  1.00  0.00     0.000 H  
ENDBRANCH   3   7
TORSDOF 1
ENDMDL
MODEL      225
REMARK 921   NORMALIZED FREE ENERGY PREDICTED BY IDOCK:   -1.71 KCAL/MOL
REMARK 922        TOTAL FREE ENERGY PREDICTED BY IDOCK:   -1.75 KCAL/MOL
REMARK 923 INTER-LIGAND FREE ENERGY PREDICTED BY IDOCK:   -1.76 KCAL/MOL
REMARK 924 INTRA-LIGAND FREE ENERGY PREDICTED BY IDOCK:    0.02 KCAL/MOL
REMARK 927      BINDING AFFINITY PREDICTED BY RF-SCORE:    0.00 PKD
ROOT
HETATM    1  O   UNL     1     -11.336  10.317  68.318  1.00  0.00    -0.266 OA 
HETATM    2  C   UNL     1     -10.377   9.609  67.679  1.00  0.00    -0.237 C  
HETATM    3  C   UNL     1      -8.962  10.152  67.829  1.00  0.00    -0.128 C  
HETATM    4  O   UNL     1     -10.640   8.582  67.074  1.00  0.00    -0.306 OA 
HETATM    5  S   UNL     1      -8.995  11.991  68.018  1.00  0.00    -0.192 SA 
HETATM    6  H   UNL     1      -7.703  12.486  68.155  1.00  0.00     0.000 H  
ENDROOT
BRANCH   3   7
HETATM    7  C   UNL     1      -8.213   9.464  68.979  1.00  0.00    -0.108 C  
HETATM    8  C   UNL     1      -7.723   8.095  68.529  1.00  0.00    -0.112 C  
HETATM    9  S   UNL     1      -9.150   9.373  70.568  1.00  0.00    -0.227 SA 
HETATM   10  O   UNL     1      -8.152   7.045  69.261  1.00  0.00    -0.117 OA 
HETATM   11  O   UNL     1      -6.970   7.953  67.576  1.00  0.00    -0.071 OA 
HETATM   12  H   UNL     1      -8.471   8.751  71.609  1.00  0.00     0.000 H  
ENDBRANCH   3   7
TORSDOF 1
ENDMDL
MODEL      226
REMARK 921   NORMALIZED FREE ENERGY PREDICTED BY IDOCK:   -1.71 KCAL/MOL
REMARK 922        TOTAL FREE ENERGY PREDICTED BY IDOCK:   -1.74 KCAL/MOL
REMARK 923 INTER-LIGAND FREE ENERGY PREDICTED BY IDOCK:   -1.76 KCAL/MOL
REMARK 924 INTRA-LIGAND FREE ENERGY PREDICTED BY IDOCK:    0.01 KCAL/MOL
REMARK 927      BINDING AFFINITY PREDICTED BY RF-SCORE:    0.00 PKD
ROOT
HETATM    1  O   UNL     1      -9.877   8.977  70.821  1.00  0.00    -0.202 OA 
HETATM    2  C   UNL     1      -9.233   7.829  70.512  1.00  0.00    -0.162 C  
HETATM    3  C   UNL     1     -10.129   6.686  70.053  1.00  0.00    -0.177 C  
HETATM    4  O   UNL     1      -8.015   7.750  70.553  1.00  0.00    -0.095 OA 
HETATM    5  S   UNL     1     -11.788   6.804  70.864  1.00  0.00    -0.380 SA 
HETATM    6  H   UNL     1     -12.606   5.762  70.445  1.00  0.00     0.000 H  
ENDROOT
BRANCH   3   7
HETATM    7  C   UNL     1     -10.234   6.630  68.523  1.00  0.00    -0.171 C  
HETATM    8  C   UNL     1      -9.089   5.801  67.958  1.00  0.00    -0.110 C  
HETATM    9  S   UNL     1     -10.368   8.276  67.696  1.00  0.00    -0.243 SA 
HETATM   10  O   UNL     1      -8.290   6.429  67.068  1.00  0.00    -0.112 OA 
HETATM   11  O   UNL     1      -8.913   4.633  68.272  1.00  0.00    -0.106 OA 
HETATM   12  H   UNL     1     -10.464   8.225  66.310  1.00  0.00     0.000 H  
ENDBRANCH   3   7
TORSDOF 1
ENDMDL
MODEL      227
REMARK 921   NORMALIZED FREE ENERGY PREDICTED BY IDOCK:   -1.70 KCAL/MOL
REMARK 922        TOTAL FREE ENERGY PREDICTED BY IDOCK:   -1.74 KCAL/MOL
REMARK 923 INTER-LIGAND FREE ENERGY PREDICTED BY IDOCK:   -1.75 KCAL/MOL
REMARK 924 INTRA-LIGAND FREE ENERGY PREDICTED BY IDOCK:    0.01 KCAL/MOL
REMARK 927      BINDING AFFINITY PREDICTED BY RF-SCORE:    0.00 PKD
ROOT
HETATM    1  O   UNL     1      -9.583   3.677  65.735  1.00  0.00    -0.176 OA 
HETATM    2  C   UNL     1      -9.299   3.740  67.057  1.00  0.00    -0.195 C  
HETATM    3  C   UNL     1      -8.478   4.949  67.486  1.00  0.00    -0.104 C  
HETATM    4  O   UNL     1      -9.723   2.905  67.840  1.00  0.00    -0.129 OA 
HETATM    5  S   UNL     1      -7.355   5.484  66.117  1.00  0.00    -0.079 SA 
HETATM    6  H   UNL     1      -6.607   6.587  66.510  1.00  0.00     0.000 H  
ENDROOT
BRANCH   3   7
HETATM    7  C   UNL     1      -9.375   6.092  67.981  1.00  0.00    -0.114 C  
HETATM    8  C   UNL     1      -9.674   5.909  69.462  1.00  0.00    -0.149 C  
HETATM    9  S   UNL     1     -10.914   6.351  66.993  1.00  0.00    -0.313 SA 
HETATM   10  O   UNL     1     -10.980   5.828  69.794  1.00  0.00    -0.357 OA 
HETATM   11  O   UNL     1      -8.789   5.860  70.304  1.00  0.00    -0.139 OA 
HETATM   12  H   UNL     1     -11.726   7.387  67.441  1.00  0.00     0.000 H  
ENDBRANCH   3   7
TORSDOF 1
ENDMDL
MODEL      228
REMARK 921   NORMALIZED FREE ENERGY PREDICTED BY IDOCK:   -1.70 KCAL/MOL
REMARK 922        TOTAL FREE ENERGY PREDICTED BY IDOCK:   -1.73 KCAL/MOL
REMARK 923 INTER-LIGAND FREE ENERGY PREDICTED BY IDOCK:   -2.02 KCAL/MOL
REMARK 924 INTRA-LIGAND FREE ENERGY PREDICTED BY IDOCK:    0.29 KCAL/MOL
REMARK 927      BINDING AFFINITY PREDICTED BY RF-SCORE:    0.00 PKD
ROOT
HETATM    1  O   UNL     1      -8.742   5.549  65.565  1.00  0.00    -0.149 OA 
HETATM    2  C   UNL     1      -9.257   4.920  66.647  1.00  0.00    -0.126 C  
HETATM    3  C   UNL     1      -9.198   5.711  67.946  1.00  0.00    -0.106 C  
HETATM    4  O   UNL     1      -9.774   3.817  66.556  1.00  0.00    -0.198 OA 
HETATM    5  S   UNL     1      -7.725   6.829  67.953  1.00  0.00    -0.113 SA 
HETATM    6  H   UNL     1      -7.672   7.552  69.139  1.00  0.00     0.000 H  
ENDROOT
BRANCH   3   7
HETATM    7  C   UNL     1     -10.506   6.473  68.203  1.00  0.00    -0.217 C  
HETATM    8  C   UNL     1     -10.355   7.920  67.755  1.00  0.00    -0.226 C  
HETATM    9  S   UNL     1     -11.148   6.348  69.930  1.00  0.00    -0.411 SA 
HETATM   10  O   UNL     1     -10.574   8.856  68.703  1.00  0.00    -0.209 OA 
HETATM   11  O   UNL     1     -10.075   8.220  66.604  1.00  0.00    -0.267 OA 
HETATM   12  H   UNL     1     -12.332   7.038  70.163  1.00  0.00     0.000 H  
ENDBRANCH   3   7
TORSDOF 1
ENDMDL
MODEL      229
REMARK 921   NORMALIZED FREE ENERGY PREDICTED BY IDOCK:   -1.67 KCAL/MOL
REMARK 922        TOTAL FREE ENERGY PREDICTED BY IDOCK:   -1.71 KCAL/MOL
REMARK 923 INTER-LIGAND FREE ENERGY PREDICTED BY IDOCK:   -1.75 KCAL/MOL
REMARK 924 INTRA-LIGAND FREE ENERGY PREDICTED BY IDOCK:    0.04 KCAL/MOL
REMARK 927      BINDING AFFINITY PREDICTED BY RF-SCORE:    0.00 PKD
ROOT
HETATM    1  O   UNL     1      -9.096  14.930  67.798  1.00  0.00    -0.180 OA 
HETATM    2  C   UNL     1      -8.934  14.280  66.622  1.00  0.00    -0.186 C  
HETATM    3  C   UNL     1      -8.576  12.805  66.741  1.00  0.00    -0.078 C  
HETATM    4  O   UNL     1      -9.117  14.842  65.554  1.00  0.00     0.129 OA 
HETATM    5  S   UNL     1      -7.597  12.502  68.281  1.00  0.00    -0.135 SA 
HETATM    6  H   UNL     1      -7.270  11.155  68.389  1.00  0.00     0.000 H  
ENDROOT
BRANCH   3   7
HETATM    7  C   UNL     1      -9.822  11.913  66.661  1.00  0.00    -0.201 C  
HETATM    8  C   UNL     1      -9.968  11.356  65.252  1.00  0.00    -0.258 C  
HETATM    9  S   UNL     1     -11.381  12.708  67.254  1.00  0.00    -0.338 SA 
HETATM   10  O   UNL     1     -11.128  11.641  64.622  1.00  0.00    -0.309 OA 
HETATM   11  O   UNL     1      -9.099  10.674  64.728  1.00  0.00    -0.193 OA 
HETATM   12  H   UNL     1     -12.510  11.900  67.181  1.00  0.00     0.000 H  
ENDBRANCH   3   7
TORSDOF 1
ENDMDL
MODEL      230
REMARK 921   NORMALIZED FREE ENERGY PREDICTED BY IDOCK:   -1.65 KCAL/MOL
REMARK 922        TOTAL FREE ENERGY PREDICTED BY IDOCK:   -1.68 KCAL/MOL
REMARK 923 INTER-LIGAND FREE ENERGY PREDICTED BY IDOCK:   -1.70 KCAL/MOL
REMARK 924 INTRA-LIGAND FREE ENERGY PREDICTED BY IDOCK:    0.01 KCAL/MOL
REMARK 927      BINDING AFFINITY PREDICTED BY RF-SCORE:    0.00 PKD
ROOT
HETATM    1  O   UNL     1     -10.069   4.831  67.599  1.00  0.00    -0.148 OA 
HETATM    2  C   UNL     1      -9.811   5.470  68.763  1.00  0.00    -0.153 C  
HETATM    3  C   UNL     1      -8.524   6.285  68.784  1.00  0.00    -0.119 C  
HETATM    4  O   UNL     1     -10.592   5.426  69.700  1.00  0.00    -0.298 OA 
HETATM    5  S   UNL     1      -7.259   5.518  67.674  1.00  0.00    -0.076 SA 
HETATM    6  H   UNL     1      -6.085   6.262  67.693  1.00  0.00     0.000 H  
ENDROOT
BRANCH   3   7
HETATM    7  C   UNL     1      -8.783   7.757  68.437  1.00  0.00    -0.127 C  
HETATM    8  C   UNL     1      -9.236   8.507  69.682  1.00  0.00    -0.157 C  
HETATM    9  S   UNL     1      -9.930   8.027  67.014  1.00  0.00    -0.282 SA 
HETATM   10  O   UNL     1     -10.437   9.120  69.597  1.00  0.00    -0.210 OA 
HETATM   11  O   UNL     1      -8.549   8.571  70.691  1.00  0.00    -0.129 OA 
HETATM   12  H   UNL     1     -10.164   9.361  66.700  1.00  0.00     0.000 H  
ENDBRANCH   3   7
TORSDOF 1
ENDMDL
MODEL      231
REMARK 921   NORMALIZED FREE ENERGY PREDICTED BY IDOCK:   -1.63 KCAL/MOL
REMARK 922        TOTAL FREE ENERGY PREDICTED BY IDOCK:   -1.66 KCAL/MOL
REMARK 923 INTER-LIGAND FREE ENERGY PREDICTED BY IDOCK:   -1.70 KCAL/MOL
REMARK 924 INTRA-LIGAND FREE ENERGY PREDICTED BY IDOCK:    0.04 KCAL/MOL
REMARK 927      BINDING AFFINITY PREDICTED BY RF-SCORE:    0.00 PKD
ROOT
HETATM    1  O   UNL     1     -10.600   7.952  66.987  1.00  0.00    -0.337 OA 
HETATM    2  C   UNL     1     -10.435   9.131  67.630  1.00  0.00    -0.261 C  
HETATM    3  C   UNL     1      -9.353   9.138  68.703  1.00  0.00    -0.135 C  
HETATM    4  O   UNL     1     -11.081  10.119  67.322  1.00  0.00    -0.244 OA 
HETATM    5  S   UNL     1      -9.197   7.463  69.470  1.00  0.00    -0.145 SA 
HETATM    6  H   UNL     1      -8.210   7.470  70.449  1.00  0.00     0.000 H  
ENDROOT
BRANCH   3   7
HETATM    7  C   UNL     1      -8.016   9.651  68.152  1.00  0.00    -0.100 C  
HETATM    8  C   UNL     1      -8.122  11.138  67.843  1.00  0.00    -0.119 C  
HETATM    9  S   UNL     1      -7.352   8.695  66.717  1.00  0.00    -0.079 SA 
HETATM   10  O   UNL     1      -7.856  11.497  66.569  1.00  0.00    -0.144 OA 
HETATM   11  O   UNL     1      -8.410  11.962  68.699  1.00  0.00    -0.136 OA 
HETATM   12  H   UNL     1      -6.141   9.160  66.219  1.00  0.00     0.000 H  
ENDBRANCH   3   7
TORSDOF 1
ENDMDL
MODEL      232
REMARK 921   NORMALIZED FREE ENERGY PREDICTED BY IDOCK:   -1.63 KCAL/MOL
REMARK 922        TOTAL FREE ENERGY PREDICTED BY IDOCK:   -1.66 KCAL/MOL
REMARK 923 INTER-LIGAND FREE ENERGY PREDICTED BY IDOCK:   -1.95 KCAL/MOL
REMARK 924 INTRA-LIGAND FREE ENERGY PREDICTED BY IDOCK:    0.29 KCAL/MOL
REMARK 927      BINDING AFFINITY PREDICTED BY RF-SCORE:    0.00 PKD
ROOT
HETATM    1  O   UNL     1     -10.233   7.949  69.328  1.00  0.00    -0.205 OA 
HETATM    2  C   UNL     1      -9.091   8.667  69.219  1.00  0.00    -0.149 C  
HETATM    3  C   UNL     1      -9.094   9.728  68.126  1.00  0.00    -0.125 C  
HETATM    4  O   UNL     1      -8.157   8.497  69.987  1.00  0.00    -0.104 OA 
HETATM    5  S   UNL     1     -10.169   9.197  66.718  1.00  0.00    -0.244 SA 
HETATM    6  H   UNL     1     -10.170  10.165  65.720  1.00  0.00     0.000 H  
ENDROOT
BRANCH   3   7
HETATM    7  C   UNL     1      -9.494  11.103  68.676  1.00  0.00    -0.193 C  
HETATM    8  C   UNL     1     -10.980  11.338  68.445  1.00  0.00    -0.219 C  
HETATM    9  S   UNL     1      -8.470  12.511  68.058  1.00  0.00    -0.180 SA 
HETATM   10  O   UNL     1     -11.300  12.435  67.725  1.00  0.00    -0.258 OA 
HETATM   11  O   UNL     1     -11.836  10.592  68.899  1.00  0.00    -0.274 OA 
HETATM   12  H   UNL     1      -8.833  13.758  68.556  1.00  0.00     0.000 H  
ENDBRANCH   3   7
TORSDOF 1
ENDMDL
MODEL      233
REMARK 921   NORMALIZED FREE ENERGY PREDICTED BY IDOCK:   -1.63 KCAL/MOL
REMARK 922        TOTAL FREE ENERGY PREDICTED BY IDOCK:   -1.66 KCAL/MOL
REMARK 923 INTER-LIGAND FREE ENERGY PREDICTED BY IDOCK:   -1.68 KCAL/MOL
REMARK 924 INTRA-LIGAND FREE ENERGY PREDICTED BY IDOCK:    0.02 KCAL/MOL
REMARK 927      BINDING AFFINITY PREDICTED BY RF-SCORE:    0.00 PKD
ROOT
HETATM    1  O   UNL     1     -10.031  12.428  67.281  1.00  0.00    -0.204 OA 
HETATM    2  C   UNL     1     -10.419  11.210  67.724  1.00  0.00    -0.193 C  
HETATM    3  C   UNL     1      -9.769  10.027  67.019  1.00  0.00    -0.181 C  
HETATM    4  O   UNL     1     -11.196  11.090  68.658  1.00  0.00    -0.219 OA 
HETATM    5  S   UNL     1      -9.379  10.459  65.263  1.00  0.00    -0.237 SA 
HETATM    6  H   UNL     1      -8.787   9.379  64.620  1.00  0.00     0.000 H  
ENDROOT
BRANCH   3   7
HETATM    7  C   UNL     1      -8.536   9.524  67.780  1.00  0.00    -0.119 C  
HETATM    8  C   UNL     1      -8.970   8.631  68.933  1.00  0.00    -0.142 C  
HETATM    9  S   UNL     1      -7.374  10.850  68.334  1.00  0.00    -0.100 SA 
HETATM   10  O   UNL     1      -8.565   9.016  70.163  1.00  0.00    -0.131 OA 
HETATM   11  O   UNL     1      -9.628   7.615  68.759  1.00  0.00    -0.151 OA 
HETATM   12  H   UNL     1      -6.257  10.394  69.024  1.00  0.00     0.000 H  
ENDBRANCH   3   7
TORSDOF 1
ENDMDL
MODEL      234
REMARK 921   NORMALIZED FREE ENERGY PREDICTED BY IDOCK:   -1.62 KCAL/MOL
REMARK 922        TOTAL FREE ENERGY PREDICTED BY IDOCK:   -1.65 KCAL/MOL
REMARK 923 INTER-LIGAND FREE ENERGY PREDICTED BY IDOCK:   -1.67 KCAL/MOL
REMARK 924 INTRA-LIGAND FREE ENERGY PREDICTED BY IDOCK:    0.02 KCAL/MOL
REMARK 927      BINDING AFFINITY PREDICTED BY RF-SCORE:    0.00 PKD
ROOT
HETATM    1  O   UNL     1     -10.670   7.911  67.095  1.00  0.00    -0.326 OA 
HETATM    2  C   UNL     1      -9.597   7.646  67.875  1.00  0.00    -0.144 C  
HETATM    3  C   UNL     1      -8.411   8.582  67.686  1.00  0.00    -0.129 C  
HETATM    4  O   UNL     1      -9.618   6.748  68.702  1.00  0.00    -0.133 OA 
HETATM    5  S   UNL     1      -8.348   9.196  65.942  1.00  0.00    -0.128 SA 
HETATM    6  H   UNL     1      -7.265  10.050  65.770  1.00  0.00     0.000 H  
ENDROOT
BRANCH   3   7
HETATM    7  C   UNL     1      -8.429   9.729  68.704  1.00  0.00    -0.116 C  
HETATM    8  C   UNL     1      -7.553   9.374  69.897  1.00  0.00    -0.109 C  
HETATM    9  S   UNL     1     -10.116  10.275  69.225  1.00  0.00    -0.237 SA 
HETATM   10  O   UNL     1      -8.165   9.378  71.101  1.00  0.00    -0.314 OA 
HETATM   11  O   UNL     1      -6.363   9.120  69.779  1.00  0.00    -0.038 OA 
HETATM   12  H   UNL     1     -10.132  11.315  70.148  1.00  0.00     0.000 H  
ENDBRANCH   3   7
TORSDOF 1
ENDMDL
MODEL      235
REMARK 921   NORMALIZED FREE ENERGY PREDICTED BY IDOCK:   -1.61 KCAL/MOL
REMARK 922        TOTAL FREE ENERGY PREDICTED BY IDOCK:   -1.64 KCAL/MOL
REMARK 923 INTER-LIGAND FREE ENERGY PREDICTED BY IDOCK:   -1.66 KCAL/MOL
REMARK 924 INTRA-LIGAND FREE ENERGY PREDICTED BY IDOCK:    0.01 KCAL/MOL
REMARK 927      BINDING AFFINITY PREDICTED BY RF-SCORE:    0.00 PKD
ROOT
HETATM    1  O   UNL     1     -11.449   6.883  70.440  1.00  0.00    -0.308 OA 
HETATM    2  C   UNL     1     -10.143   7.231  70.503  1.00  0.00    -0.191 C  
HETATM    3  C   UNL     1      -9.468   6.974  71.844  1.00  0.00    -0.140 C  
HETATM    4  O   UNL     1      -9.554   7.670  69.528  1.00  0.00    -0.163 OA 
HETATM    5  S   UNL     1     -10.692   7.134  73.221  1.00  0.00    -0.347 SA 
HETATM    6  H   UNL     1     -10.076   6.899  74.445  1.00  0.00     0.000 H  
ENDROOT
BRANCH   3   7
HETATM    7  C   UNL     1      -8.747   5.620  71.862  1.00  0.00    -0.135 C  
HETATM    8  C   UNL     1      -7.322   5.788  71.356  1.00  0.00    -0.083 C  
HETATM    9  S   UNL     1      -9.635   4.258  70.984  1.00  0.00    -0.194 SA 
HETATM   10  O   UNL     1      -6.983   5.036  70.286  1.00  0.00    -0.049 OA 
HETATM   11  O   UNL     1      -6.523   6.540  71.895  1.00  0.00    -0.048 OA 
HETATM   12  H   UNL     1      -8.982   3.031  71.001  1.00  0.00     0.000 H  
ENDBRANCH   3   7
TORSDOF 1
ENDMDL
MODEL      236
REMARK 921   NORMALIZED FREE ENERGY PREDICTED BY IDOCK:   -1.61 KCAL/MOL
REMARK 922        TOTAL FREE ENERGY PREDICTED BY IDOCK:   -1.64 KCAL/MOL
REMARK 923 INTER-LIGAND FREE ENERGY PREDICTED BY IDOCK:   -2.04 KCAL/MOL
REMARK 924 INTRA-LIGAND FREE ENERGY PREDICTED BY IDOCK:    0.40 KCAL/MOL
REMARK 927      BINDING AFFINITY PREDICTED BY RF-SCORE:    0.00 PKD
ROOT
HETATM    1  O   UNL     1      -9.335  14.685  67.776  1.00  0.00    -0.191 OA 
HETATM    2  C   UNL     1      -9.574  13.948  66.667  1.00  0.00    -0.289 C  
HETATM    3  C   UNL     1      -9.237  12.468  66.787  1.00  0.00    -0.217 C  
HETATM    4  O   UNL     1     -10.073  14.443  65.669  1.00  0.00    -0.322 OA 
HETATM    5  S   UNL     1      -7.827  12.222  67.959  1.00  0.00    -0.159 SA 
HETATM    6  H   UNL     1      -7.520  10.871  68.068  1.00  0.00     0.000 H  
ENDROOT
BRANCH   3   7
HETATM    7  C   UNL     1     -10.468  11.639  67.179  1.00  0.00    -0.220 C  
HETATM    8  C   UNL     1     -10.653  11.673  68.689  1.00  0.00    -0.209 C  
HETATM    9  S   UNL     1     -10.479   9.912  66.522  1.00  0.00    -0.093 SA 
HETATM   10  O   UNL     1     -10.657  10.474  69.311  1.00  0.00    -0.208 OA 
HETATM   11  O   UNL     1     -10.810  12.719  69.303  1.00  0.00    -0.133 OA 
HETATM   12  H   UNL     1     -11.594   9.161  66.877  1.00  0.00     0.000 H  
ENDBRANCH   3   7
TORSDOF 1
ENDMDL
MODEL      237
REMARK 921   NORMALIZED FREE ENERGY PREDICTED BY IDOCK:   -1.61 KCAL/MOL
REMARK 922        TOTAL FREE ENERGY PREDICTED BY IDOCK:   -1.64 KCAL/MOL
REMARK 923 INTER-LIGAND FREE ENERGY PREDICTED BY IDOCK:   -1.83 KCAL/MOL
REMARK 924 INTRA-LIGAND FREE ENERGY PREDICTED BY IDOCK:    0.19 KCAL/MOL
REMARK 927      BINDING AFFINITY PREDICTED BY RF-SCORE:    0.00 PKD
ROOT
HETATM    1  O   UNL     1      -7.196   5.710  72.371  1.00  0.00    -0.085 OA 
HETATM    2  C   UNL     1      -7.541   6.018  71.100  1.00  0.00    -0.100 C  
HETATM    3  C   UNL     1      -8.993   5.737  70.735  1.00  0.00    -0.148 C  
HETATM    4  O   UNL     1      -6.744   6.533  70.331  1.00  0.00    -0.050 OA 
HETATM    5  S   UNL     1      -9.632   4.297  71.704  1.00  0.00    -0.170 SA 
HETATM    6  H   UNL     1     -10.957   4.041  71.371  1.00  0.00     0.000 H  
ENDROOT
BRANCH   3   7
HETATM    7  C   UNL     1      -9.869   6.985  70.905  1.00  0.00    -0.185 C  
HETATM    8  C   UNL     1     -10.734   7.180  69.668  1.00  0.00    -0.239 C  
HETATM    9  S   UNL     1      -8.948   8.523  71.351  1.00  0.00    -0.224 SA 
HETATM   10  O   UNL     1     -10.593   8.361  69.029  1.00  0.00    -0.218 OA 
HETATM   11  O   UNL     1     -11.525   6.330  69.285  1.00  0.00    -0.411 OA 
HETATM   12  H   UNL     1      -9.742   9.654  71.505  1.00  0.00     0.000 H  
ENDBRANCH   3   7
TORSDOF 1
ENDMDL
MODEL      238
REMARK 921   NORMALIZED FREE ENERGY PREDICTED BY IDOCK:   -1.59 KCAL/MOL
REMARK 922        TOTAL FREE ENERGY PREDICTED BY IDOCK:   -1.62 KCAL/MOL
REMARK 923 INTER-LIGAND FREE ENERGY PREDICTED BY IDOCK:   -1.77 KCAL/MOL
REMARK 924 INTRA-LIGAND FREE ENERGY PREDICTED BY IDOCK:    0.15 KCAL/MOL
REMARK 927      BINDING AFFINITY PREDICTED BY RF-SCORE:    0.00 PKD
ROOT
HETATM    1  O   UNL     1     -10.635   5.137  70.298  1.00  0.00    -0.262 OA 
HETATM    2  C   UNL     1      -9.615   5.986  70.035  1.00  0.00    -0.163 C  
HETATM    3  C   UNL     1      -9.702   6.707  68.696  1.00  0.00    -0.129 C  
HETATM    4  O   UNL     1      -8.727   6.185  70.848  1.00  0.00    -0.134 OA 
HETATM    5  S   UNL     1     -10.571   5.650  67.451  1.00  0.00    -0.202 SA 
HETATM    6  H   UNL     1     -10.649   6.308  66.230  1.00  0.00     0.000 H  
ENDROOT
BRANCH   3   7
HETATM    7  C   UNL     1     -10.353   8.089  68.840  1.00  0.00    -0.209 C  
HETATM    8  C   UNL     1      -9.398   9.163  68.342  1.00  0.00    -0.135 C  
HETATM    9  S   UNL     1     -10.998   8.468  70.529  1.00  0.00    -0.240 SA 
HETATM   10  O   UNL     1      -9.072  10.123  69.235  1.00  0.00    -0.175 OA 
HETATM   11  O   UNL     1      -8.966   9.173  67.198  1.00  0.00    -0.122 OA 
HETATM   12  H   UNL     1     -11.589   9.720  70.659  1.00  0.00     0.000 H  
ENDBRANCH   3   7
TORSDOF 1
ENDMDL
MODEL      239
REMARK 921   NORMALIZED FREE ENERGY PREDICTED BY IDOCK:   -1.59 KCAL/MOL
REMARK 922        TOTAL FREE ENERGY PREDICTED BY IDOCK:   -1.62 KCAL/MOL
REMARK 923 INTER-LIGAND FREE ENERGY PREDICTED BY IDOCK:   -2.49 KCAL/MOL
REMARK 924 INTRA-LIGAND FREE ENERGY PREDICTED BY IDOCK:    0.88 KCAL/MOL
REMARK 927      BINDING AFFINITY PREDICTED BY RF-SCORE:    0.00 PKD
ROOT
HETATM    1  O   UNL     1      -9.028  13.728  66.485  1.00  0.00    -0.179 OA 
HETATM    2  C   UNL     1      -9.536  14.974  66.337  1.00  0.00    -0.297 C  
HETATM    3  C   UNL     1     -10.777  15.270  67.168  1.00  0.00    -0.316 C  
HETATM    4  O   UNL     1      -8.993  15.802  65.623  1.00  0.00    -0.210 OA 
HETATM    5  S   UNL     1     -11.766  13.727  67.420  1.00  0.00    -0.401 SA 
HETATM    6  H   UNL     1     -12.899  13.997  68.179  1.00  0.00     0.000 H  
ENDROOT
BRANCH   3   7
HETATM    7  C   UNL     1     -10.418  15.952  68.495  1.00  0.00    -0.241 C  
HETATM    8  C   UNL     1     -11.153  15.270  69.640  1.00  0.00    -0.276 C  
HETATM    9  S   UNL     1     -10.660  17.783  68.514  1.00  0.00    -0.161 SA 
HETATM   10  O   UNL     1     -11.953  16.064  70.385  1.00  0.00    -0.340 OA 
HETATM   11  O   UNL     1     -11.015  14.081  69.888  1.00  0.00    -0.070 OA 
HETATM   12  H   UNL     1     -10.334  18.401  69.716  1.00  0.00     0.000 H  
ENDBRANCH   3   7
TORSDOF 1
ENDMDL
MODEL      240
REMARK 921   NORMALIZED FREE ENERGY PREDICTED BY IDOCK:   -1.53 KCAL/MOL
REMARK 922        TOTAL FREE ENERGY PREDICTED BY IDOCK:   -1.56 KCAL/MOL
REMARK 923 INTER-LIGAND FREE ENERGY PREDICTED BY IDOCK:   -1.57 KCAL/MOL
REMARK 924 INTRA-LIGAND FREE ENERGY PREDICTED BY IDOCK:    0.01 KCAL/MOL
REMARK 927      BINDING AFFINITY PREDICTED BY RF-SCORE:    0.00 PKD
ROOT
HETATM    1  O   UNL     1      -8.916   2.434  67.489  1.00  0.00    -0.127 OA 
HETATM    2  C   UNL     1      -9.027   3.662  68.047  1.00  0.00    -0.130 C  
HETATM    3  C   UNL     1      -8.253   4.767  67.340  1.00  0.00    -0.105 C  
HETATM    4  O   UNL     1      -9.742   3.859  69.016  1.00  0.00    -0.164 OA 
HETATM    5  S   UNL     1      -6.730   4.079  66.546  1.00  0.00    -0.051 SA 
HETATM    6  H   UNL     1      -6.024   5.088  65.901  1.00  0.00     0.000 H  
ENDROOT
BRANCH   3   7
HETATM    7  C   UNL     1      -9.136   5.525  66.341  1.00  0.00    -0.144 C  
HETATM    8  C   UNL     1      -9.911   6.618  67.063  1.00  0.00    -0.160 C  
HETATM    9  S   UNL     1     -10.243   4.455  65.320  1.00  0.00    -0.156 SA 
HETATM   10  O   UNL     1     -11.256   6.554  66.961  1.00  0.00    -0.397 OA 
HETATM   11  O   UNL     1      -9.352   7.513  67.682  1.00  0.00    -0.136 OA 
HETATM   12  H   UNL     1     -11.044   5.142  64.414  1.00  0.00     0.000 H  
ENDBRANCH   3   7
TORSDOF 1
ENDMDL
MODEL      241
REMARK 921   NORMALIZED FREE ENERGY PREDICTED BY IDOCK:   -1.52 KCAL/MOL
REMARK 922        TOTAL FREE ENERGY PREDICTED BY IDOCK:   -1.54 KCAL/MOL
REMARK 923 INTER-LIGAND FREE ENERGY PREDICTED BY IDOCK:   -1.83 KCAL/MOL
REMARK 924 INTRA-LIGAND FREE ENERGY PREDICTED BY IDOCK:    0.29 KCAL/MOL
REMARK 927      BINDING AFFINITY PREDICTED BY RF-SCORE:    0.00 PKD
ROOT
HETATM    1  O   UNL     1     -10.989   5.813  69.887  1.00  0.00    -0.344 OA 
HETATM    2  C   UNL     1      -9.654   5.994  70.010  1.00  0.00    -0.163 C  
HETATM    3  C   UNL     1      -9.107   7.255  69.352  1.00  0.00    -0.142 C  
HETATM    4  O   UNL     1      -8.963   5.218  70.651  1.00  0.00    -0.129 OA 
HETATM    5  S   UNL     1     -10.121   7.698  67.870  1.00  0.00    -0.196 SA 
HETATM    6  H   UNL     1      -9.622   8.848  67.270  1.00  0.00     0.000 H  
ENDROOT
BRANCH   3   7
HETATM    7  C   UNL     1      -9.004   8.414  70.352  1.00  0.00    -0.148 C  
HETATM    8  C   UNL     1     -10.246   9.288  70.258  1.00  0.00    -0.227 C  
HETATM    9  S   UNL     1      -7.451   9.406  70.229  1.00  0.00    -0.144 SA 
HETATM   10  O   UNL     1     -10.031  10.590  69.970  1.00  0.00    -0.082 OA 
HETATM   11  O   UNL     1     -11.370   8.847  70.452  1.00  0.00    -0.257 OA 
HETATM   12  H   UNL     1      -7.357  10.456  71.135  1.00  0.00     0.000 H  
ENDBRANCH   3   7
TORSDOF 1
ENDMDL
MODEL      242
REMARK 921   NORMALIZED FREE ENERGY PREDICTED BY IDOCK:   -1.51 KCAL/MOL
REMARK 922        TOTAL FREE ENERGY PREDICTED BY IDOCK:   -1.54 KCAL/MOL
REMARK 923 INTER-LIGAND FREE ENERGY PREDICTED BY IDOCK:   -1.83 KCAL/MOL
REMARK 924 INTRA-LIGAND FREE ENERGY PREDICTED BY IDOCK:    0.29 KCAL/MOL
REMARK 927      BINDING AFFINITY PREDICTED BY RF-SCORE:    0.00 PKD
ROOT
HETATM    1  O   UNL     1      -9.432   4.424  68.339  1.00  0.00    -0.139 OA 
HETATM    2  C   UNL     1      -8.604   4.898  69.299  1.00  0.00    -0.087 C  
HETATM    3  C   UNL     1      -8.674   6.401  69.530  1.00  0.00    -0.133 C  
HETATM    4  O   UNL     1      -7.898   4.149  69.956  1.00  0.00    -0.052 OA 
HETATM    5  S   UNL     1      -9.110   7.275  67.960  1.00  0.00    -0.132 SA 
HETATM    6  H   UNL     1      -9.174   8.647  68.172  1.00  0.00     0.000 H  
ENDROOT
BRANCH   3   7
HETATM    7  C   UNL     1      -9.633   6.752  70.675  1.00  0.00    -0.169 C  
HETATM    8  C   UNL     1     -11.018   7.046  70.116  1.00  0.00    -0.272 C  
HETATM    9  S   UNL     1      -9.042   8.096  71.796  1.00  0.00    -0.194 SA 
HETATM   10  O   UNL     1     -11.524   8.264  70.403  1.00  0.00    -0.232 OA 
HETATM   11  O   UNL     1     -11.645   6.224  69.463  1.00  0.00    -0.423 OA 
HETATM   12  H   UNL     1      -9.912   8.414  72.833  1.00  0.00     0.000 H  
ENDBRANCH   3   7
TORSDOF 1
ENDMDL
MODEL      243
REMARK 921   NORMALIZED FREE ENERGY PREDICTED BY IDOCK:   -1.48 KCAL/MOL
REMARK 922        TOTAL FREE ENERGY PREDICTED BY IDOCK:   -1.51 KCAL/MOL
REMARK 923 INTER-LIGAND FREE ENERGY PREDICTED BY IDOCK:   -1.55 KCAL/MOL
REMARK 924 INTRA-LIGAND FREE ENERGY PREDICTED BY IDOCK:    0.04 KCAL/MOL
REMARK 927      BINDING AFFINITY PREDICTED BY RF-SCORE:    0.00 PKD
ROOT
HETATM    1  O   UNL     1      -7.604   5.840  70.848  1.00  0.00    -0.087 OA 
HETATM    2  C   UNL     1      -7.881   6.301  69.607  1.00  0.00    -0.107 C  
HETATM    3  C   UNL     1      -8.870   5.462  68.809  1.00  0.00    -0.103 C  
HETATM    4  O   UNL     1      -7.401   7.345  69.194  1.00  0.00    -0.085 OA 
HETATM    5  S   UNL     1      -8.738   3.681  69.290  1.00  0.00    -0.092 SA 
HETATM    6  H   UNL     1      -9.641   2.915  68.562  1.00  0.00     0.000 H  
ENDROOT
BRANCH   3   7
HETATM    7  C   UNL     1     -10.302   5.995  68.947  1.00  0.00    -0.218 C  
HETATM    8  C   UNL     1     -10.416   7.350  68.263  1.00  0.00    -0.189 C  
HETATM    9  S   UNL     1     -10.949   6.039  70.677  1.00  0.00    -0.295 SA 
HETATM   10  O   UNL     1     -10.827   8.373  69.044  1.00  0.00    -0.133 OA 
HETATM   11  O   UNL     1     -10.170   7.504  67.075  1.00  0.00    -0.240 OA 
HETATM   12  H   UNL     1     -12.246   6.522  70.801  1.00  0.00     0.000 H  
ENDBRANCH   3   7
TORSDOF 1
ENDMDL
MODEL      244
REMARK 921   NORMALIZED FREE ENERGY PREDICTED BY IDOCK:   -1.47 KCAL/MOL
REMARK 922        TOTAL FREE ENERGY PREDICTED BY IDOCK:   -1.50 KCAL/MOL
REMARK 923 INTER-LIGAND FREE ENERGY PREDICTED BY IDOCK:   -2.31 KCAL/MOL
REMARK 924 INTRA-LIGAND FREE ENERGY PREDICTED BY IDOCK:    0.81 KCAL/MOL
REMARK 927      BINDING AFFINITY PREDICTED BY RF-SCORE:    0.00 PKD
ROOT
HETATM    1  O   UNL     1      -8.342  13.295  68.245  1.00  0.00    -0.152 OA 
HETATM    2  C   UNL     1      -9.061  14.152  67.484  1.00  0.00    -0.195 C  
HETATM    3  C   UNL     1      -9.903  13.501  66.395  1.00  0.00    -0.295 C  
HETATM    4  O   UNL     1      -9.060  15.353  67.703  1.00  0.00    -0.180 OA 
HETATM    5  S   UNL     1      -9.094  11.949  65.797  1.00  0.00     0.048 SA 
HETATM    6  H   UNL     1      -9.863  11.355  64.803  1.00  0.00     0.000 H  
ENDROOT
BRANCH   3   7
HETATM    7  C   UNL     1     -11.344  13.260  66.865  1.00  0.00    -0.318 C  
HETATM    8  C   UNL     1     -11.357  12.220  67.976  1.00  0.00    -0.293 C  
HETATM    9  S   UNL     1     -12.538  12.844  65.518  1.00  0.00    -0.129 SA 
HETATM   10  O   UNL     1     -12.110  11.123  67.749  1.00  0.00    -0.606 OA 
HETATM   11  O   UNL     1     -10.742  12.376  69.021  1.00  0.00    -0.192 OA 
HETATM   12  H   UNL     1     -13.843  12.626  65.943  1.00  0.00     0.000 H  
ENDBRANCH   3   7
TORSDOF 1
ENDMDL
MODEL      245
REMARK 921   NORMALIZED FREE ENERGY PREDICTED BY IDOCK:   -1.45 KCAL/MOL
REMARK 922        TOTAL FREE ENERGY PREDICTED BY IDOCK:   -1.47 KCAL/MOL
REMARK 923 INTER-LIGAND FREE ENERGY PREDICTED BY IDOCK:   -1.53 KCAL/MOL
REMARK 924 INTRA-LIGAND FREE ENERGY PREDICTED BY IDOCK:    0.06 KCAL/MOL
REMARK 927      BINDING AFFINITY PREDICTED BY RF-SCORE:    0.00 PKD
ROOT
HETATM    1  O   UNL     1     -10.263   7.341  73.729  1.00  0.00    -0.343 OA 
HETATM    2  C   UNL     1      -8.984   7.166  74.137  1.00  0.00    -0.219 C  
HETATM    3  C   UNL     1      -8.510   5.719  74.181  1.00  0.00    -0.113 C  
HETATM    4  O   UNL     1      -8.263   8.116  74.396  1.00  0.00    -0.247 OA 
HETATM    5  S   UNL     1      -9.925   4.590  74.562  1.00  0.00    -0.227 SA 
HETATM    6  H   UNL     1      -9.492   3.270  74.602  1.00  0.00     0.000 H  
ENDROOT
BRANCH   3   7
HETATM    7  C   UNL     1      -7.784   5.323  72.889  1.00  0.00    -0.098 C  
HETATM    8  C   UNL     1      -6.524   6.161  72.729  1.00  0.00    -0.064 C  
HETATM    9  S   UNL     1      -8.834   5.360  71.369  1.00  0.00    -0.135 SA 
HETATM   10  O   UNL     1      -6.437   6.887  71.594  1.00  0.00    -0.047 OA 
HETATM   11  O   UNL     1      -5.632   6.162  73.565  1.00  0.00    -0.039 OA 
HETATM   12  H   UNL     1      -8.176   5.001  70.198  1.00  0.00     0.000 H  
ENDBRANCH   3   7
TORSDOF 1
ENDMDL
MODEL      246
REMARK 921   NORMALIZED FREE ENERGY PREDICTED BY IDOCK:   -1.43 KCAL/MOL
REMARK 922        TOTAL FREE ENERGY PREDICTED BY IDOCK:   -1.45 KCAL/MOL
REMARK 923 INTER-LIGAND FREE ENERGY PREDICTED BY IDOCK:   -2.20 KCAL/MOL
REMARK 924 INTRA-LIGAND FREE ENERGY PREDICTED BY IDOCK:    0.75 KCAL/MOL
REMARK 927      BINDING AFFINITY PREDICTED BY RF-SCORE:    0.00 PKD
ROOT
HETATM    1  O   UNL     1     -12.273  13.942  68.844  1.00  0.00    -0.354 OA 
HETATM    2  C   UNL     1     -11.249  14.506  69.525  1.00  0.00    -0.264 C  
HETATM    3  C   UNL     1      -9.953  14.657  68.740  1.00  0.00    -0.235 C  
HETATM    4  O   UNL     1     -11.391  14.907  70.670  1.00  0.00    -0.265 OA 
HETATM    5  S   UNL     1      -9.796  13.301  67.491  1.00  0.00    -0.225 SA 
HETATM    6  H   UNL     1      -8.613  13.439  66.775  1.00  0.00     0.000 H  
ENDROOT
BRANCH   3   7
HETATM    7  C   UNL     1      -9.837  16.048  68.104  1.00  0.00    -0.222 C  
HETATM    8  C   UNL     1      -8.485  16.191  67.420  1.00  0.00    -0.170 C  
HETATM    9  S   UNL     1     -10.182  17.455  69.250  1.00  0.00    -0.095 SA 
HETATM   10  O   UNL     1      -7.713  17.214  67.846  1.00  0.00    -0.177 OA 
HETATM   11  O   UNL     1      -8.124  15.440  66.525  1.00  0.00    -0.189 OA 
HETATM   12  H   UNL     1     -10.077  18.715  68.674  1.00  0.00     0.000 H  
ENDBRANCH   3   7
TORSDOF 1
ENDMDL
MODEL      247
REMARK 921   NORMALIZED FREE ENERGY PREDICTED BY IDOCK:   -1.41 KCAL/MOL
REMARK 922        TOTAL FREE ENERGY PREDICTED BY IDOCK:   -1.43 KCAL/MOL
REMARK 923 INTER-LIGAND FREE ENERGY PREDICTED BY IDOCK:   -1.45 KCAL/MOL
REMARK 924 INTRA-LIGAND FREE ENERGY PREDICTED BY IDOCK:    0.01 KCAL/MOL
REMARK 927      BINDING AFFINITY PREDICTED BY RF-SCORE:    0.00 PKD
ROOT
HETATM    1  O   UNL     1     -10.610   7.348  71.000  1.00  0.00    -0.222 OA 
HETATM    2  C   UNL     1     -10.322   6.314  70.177  1.00  0.00    -0.205 C  
HETATM    3  C   UNL     1      -9.689   6.700  68.847  1.00  0.00    -0.135 C  
HETATM    4  O   UNL     1     -10.516   5.157  70.517  1.00  0.00    -0.258 OA 
HETATM    5  S   UNL     1     -10.285   8.367  68.311  1.00  0.00    -0.200 SA 
HETATM    6  H   UNL     1      -9.707   8.719  67.097  1.00  0.00     0.000 H  
ENDROOT
BRANCH   3   7
HETATM    7  C   UNL     1      -8.157   6.623  68.908  1.00  0.00    -0.116 C  
HETATM    8  C   UNL     1      -7.697   5.217  68.553  1.00  0.00    -0.079 C  
HETATM    9  S   UNL     1      -7.415   7.212  70.494  1.00  0.00    -0.089 SA 
HETATM   10  O   UNL     1      -6.954   4.585  69.488  1.00  0.00    -0.047 OA 
HETATM   11  O   UNL     1      -7.963   4.695  67.480  1.00  0.00    -0.096 OA 
HETATM   12  H   UNL     1      -6.028   7.143  70.549  1.00  0.00     0.000 H  
ENDBRANCH   3   7
TORSDOF 1
ENDMDL
MODEL      248
REMARK 921   NORMALIZED FREE ENERGY PREDICTED BY IDOCK:   -1.39 KCAL/MOL
REMARK 922        TOTAL FREE ENERGY PREDICTED BY IDOCK:   -1.41 KCAL/MOL
REMARK 923 INTER-LIGAND FREE ENERGY PREDICTED BY IDOCK:   -1.45 KCAL/MOL
REMARK 924 INTRA-LIGAND FREE ENERGY PREDICTED BY IDOCK:    0.04 KCAL/MOL
REMARK 927      BINDING AFFINITY PREDICTED BY RF-SCORE:    0.00 PKD
ROOT
HETATM    1  O   UNL     1      -8.939   4.547  71.419  1.00  0.00    -0.121 OA 
HETATM    2  C   UNL     1      -9.290   4.682  70.119  1.00  0.00    -0.144 C  
HETATM    3  C   UNL     1     -10.186   5.874  69.811  1.00  0.00    -0.218 C  
HETATM    4  O   UNL     1      -8.865   3.923  69.262  1.00  0.00    -0.079 OA 
HETATM    5  S   UNL     1     -11.266   6.260  71.263  1.00  0.00    -0.292 SA 
HETATM    6  H   UNL     1     -12.084   7.347  70.982  1.00  0.00     0.000 H  
ENDROOT
BRANCH   3   7
HETATM    7  C   UNL     1      -9.371   7.091  69.356  1.00  0.00    -0.146 C  
HETATM    8  C   UNL     1      -8.743   6.812  67.998  1.00  0.00    -0.118 C  
HETATM    9  S   UNL     1      -8.125   7.691  70.581  1.00  0.00    -0.109 SA 
HETATM   10  O   UNL     1      -7.397   6.908  67.939  1.00  0.00    -0.092 OA 
HETATM   11  O   UNL     1      -9.413   6.537  67.013  1.00  0.00    -0.129 OA 
HETATM   12  H   UNL     1      -7.386   8.794  70.168  1.00  0.00     0.000 H  
ENDBRANCH   3   7
TORSDOF 1
ENDMDL
MODEL      249
REMARK 921   NORMALIZED FREE ENERGY PREDICTED BY IDOCK:   -1.38 KCAL/MOL
REMARK 922        TOTAL FREE ENERGY PREDICTED BY IDOCK:   -1.40 KCAL/MOL
REMARK 923 INTER-LIGAND FREE ENERGY PREDICTED BY IDOCK:   -1.69 KCAL/MOL
REMARK 924 INTRA-LIGAND FREE ENERGY PREDICTED BY IDOCK:    0.29 KCAL/MOL
REMARK 927      BINDING AFFINITY PREDICTED BY RF-SCORE:    0.00 PKD
ROOT
HETATM    1  O   UNL     1     -10.849   7.827  69.884  1.00  0.00    -0.247 OA 
HETATM    2  C   UNL     1     -10.748   7.471  68.582  1.00  0.00    -0.077 C  
HETATM    3  C   UNL     1     -10.300   8.581  67.640  1.00  0.00    -0.253 C  
HETATM    4  O   UNL     1     -10.956   6.325  68.217  1.00  0.00    -0.297 OA 
HETATM    5  S   UNL     1     -10.871  10.225  68.265  1.00  0.00    -0.261 SA 
HETATM    6  H   UNL     1     -10.463  11.238  67.405  1.00  0.00     0.000 H  
ENDROOT
BRANCH   3   7
HETATM    7  C   UNL     1      -8.784   8.544  67.405  1.00  0.00    -0.134 C  
HETATM    8  C   UNL     1      -8.094   9.528  68.340  1.00  0.00    -0.101 C  
HETATM    9  S   UNL     1      -8.267   8.784  65.648  1.00  0.00    -0.128 SA 
HETATM   10  O   UNL     1      -7.344  10.480  67.746  1.00  0.00    -0.085 OA 
HETATM   11  O   UNL     1      -8.194   9.450  69.556  1.00  0.00    -0.106 OA 
HETATM   12  H   UNL     1      -6.893   8.751  65.436  1.00  0.00     0.000 H  
ENDBRANCH   3   7
TORSDOF 1
ENDMDL
MODEL      250
REMARK 921   NORMALIZED FREE ENERGY PREDICTED BY IDOCK:   -1.33 KCAL/MOL
REMARK 922        TOTAL FREE ENERGY PREDICTED BY IDOCK:   -1.34 KCAL/MOL
REMARK 923 INTER-LIGAND FREE ENERGY PREDICTED BY IDOCK:   -1.36 KCAL/MOL
REMARK 924 INTRA-LIGAND FREE ENERGY PREDICTED BY IDOCK:    0.01 KCAL/MOL
REMARK 927      BINDING AFFINITY PREDICTED BY RF-SCORE:    0.00 PKD
ROOT
HETATM    1  O   UNL     1     -10.656   6.288  69.537  1.00  0.00    -0.216 OA 
HETATM    2  C   UNL     1      -9.331   6.248  69.808  1.00  0.00    -0.145 C  
HETATM    3  C   UNL     1      -8.599   7.574  69.656  1.00  0.00    -0.136 C  
HETATM    4  O   UNL     1      -8.791   5.224  70.195  1.00  0.00    -0.120 OA 
HETATM    5  S   UNL     1      -9.399   8.604  68.344  1.00  0.00    -0.138 SA 
HETATM    6  H   UNL     1      -8.730   9.815  68.205  1.00  0.00     0.000 H  
ENDROOT
BRANCH   3   7
HETATM    7  C   UNL     1      -8.494   8.318  70.993  1.00  0.00    -0.133 C  
HETATM    8  C   UNL     1      -7.300   7.798  71.781  1.00  0.00    -0.068 C  
HETATM    9  S   UNL     1     -10.041   8.315  72.004  1.00  0.00    -0.290 SA 
HETATM   10  O   UNL     1      -7.573   7.301  73.007  1.00  0.00    -0.077 OA 
HETATM   11  O   UNL     1      -6.160   7.844  71.342  1.00  0.00    -0.035 OA 
HETATM   12  H   UNL     1      -9.947   8.989  73.216  1.00  0.00     0.000 H  
ENDBRANCH   3   7
TORSDOF 1
ENDMDL
MODEL      251
REMARK 921   NORMALIZED FREE ENERGY PREDICTED BY IDOCK:   -1.33 KCAL/MOL
REMARK 922        TOTAL FREE ENERGY PREDICTED BY IDOCK:   -1.34 KCAL/MOL
REMARK 923 INTER-LIGAND FREE ENERGY PREDICTED BY IDOCK:   -1.36 KCAL/MOL
REMARK 924 INTRA-LIGAND FREE ENERGY PREDICTED BY IDOCK:    0.01 KCAL/MOL
REMARK 927      BINDING AFFINITY PREDICTED BY RF-SCORE:    0.00 PKD
ROOT
HETATM    1  O   UNL     1      -9.975   9.241  67.166  1.00  0.00    -0.186 OA 
HETATM    2  C   UNL     1      -9.579  10.533  67.231  1.00  0.00    -0.163 C  
HETATM    3  C   UNL     1      -9.412  11.090  68.639  1.00  0.00    -0.195 C  
HETATM    4  O   UNL     1      -9.328  11.174  66.223  1.00  0.00    -0.183 OA 
HETATM    5  S   UNL     1     -10.593  10.267  69.801  1.00  0.00    -0.268 SA 
HETATM    6  H   UNL     1     -10.440  10.775  71.085  1.00  0.00     0.000 H  
ENDROOT
BRANCH   3   7
HETATM    7  C   UNL     1      -7.958  10.984  69.118  1.00  0.00    -0.078 C  
HETATM    8  C   UNL     1      -7.175  12.207  68.664  1.00  0.00    -0.109 C  
HETATM    9  S   UNL     1      -7.105   9.410  68.662  1.00  0.00    -0.070 SA 
HETATM   10  O   UNL     1      -6.087  11.962  67.902  1.00  0.00    -0.048 OA 
HETATM   11  O   UNL     1      -7.496  13.343  68.984  1.00  0.00    -0.055 OA 
HETATM   12  H   UNL     1      -5.788   9.315  69.097  1.00  0.00     0.000 H  
ENDBRANCH   3   7
TORSDOF 1
ENDMDL
MODEL      252
REMARK 921   NORMALIZED FREE ENERGY PREDICTED BY IDOCK:   -1.31 KCAL/MOL
REMARK 922        TOTAL FREE ENERGY PREDICTED BY IDOCK:   -1.32 KCAL/MOL
REMARK 923 INTER-LIGAND FREE ENERGY PREDICTED BY IDOCK:   -1.39 KCAL/MOL
REMARK 924 INTRA-LIGAND FREE ENERGY PREDICTED BY IDOCK:    0.06 KCAL/MOL
REMARK 927      BINDING AFFINITY PREDICTED BY RF-SCORE:    0.00 PKD
ROOT
HETATM    1  O   UNL     1     -11.250   6.751  69.618  1.00  0.00    -0.295 OA 
HETATM    2  C   UNL     1     -10.060   6.801  70.259  1.00  0.00    -0.179 C  
HETATM    3  C   UNL     1      -8.929   6.035  69.586  1.00  0.00    -0.132 C  
HETATM    4  O   UNL     1      -9.911   7.461  71.275  1.00  0.00    -0.187 OA 
HETATM    5  S   UNL     1      -9.597   4.574  68.670  1.00  0.00    -0.140 SA 
HETATM    6  H   UNL     1      -8.565   3.875  68.056  1.00  0.00     0.000 H  
ENDROOT
BRANCH   3   7
HETATM    7  C   UNL     1      -8.087   6.948  68.685  1.00  0.00    -0.121 C  
HETATM    8  C   UNL     1      -7.412   8.022  69.527  1.00  0.00    -0.092 C  
HETATM    9  S   UNL     1      -8.995   7.668  67.247  1.00  0.00    -0.129 SA 
HETATM   10  O   UNL     1      -7.687   9.299  69.185  1.00  0.00    -0.075 OA 
HETATM   11  O   UNL     1      -6.650   7.749  70.443  1.00  0.00    -0.038 OA 
HETATM   12  H   UNL     1      -8.232   8.496  66.431  1.00  0.00     0.000 H  
ENDBRANCH   3   7
TORSDOF 1
ENDMDL
MODEL      253
REMARK 921   NORMALIZED FREE ENERGY PREDICTED BY IDOCK:   -1.29 KCAL/MOL
REMARK 922        TOTAL FREE ENERGY PREDICTED BY IDOCK:   -1.30 KCAL/MOL
REMARK 923 INTER-LIGAND FREE ENERGY PREDICTED BY IDOCK:   -1.59 KCAL/MOL
REMARK 924 INTRA-LIGAND FREE ENERGY PREDICTED BY IDOCK:    0.29 KCAL/MOL
REMARK 927      BINDING AFFINITY PREDICTED BY RF-SCORE:    0.00 PKD
ROOT
HETATM    1  O   UNL     1      -7.934   5.291  69.455  1.00  0.00    -0.086 OA 
HETATM    2  C   UNL     1      -7.732   6.516  68.917  1.00  0.00    -0.109 C  
HETATM    3  C   UNL     1      -8.996   7.255  68.496  1.00  0.00    -0.130 C  
HETATM    4  O   UNL     1      -6.614   6.998  68.833  1.00  0.00    -0.044 OA 
HETATM    5  S   UNL     1     -10.300   6.052  67.974  1.00  0.00    -0.228 SA 
HETATM    6  H   UNL     1     -11.453   6.726  67.590  1.00  0.00     0.000 H  
ENDROOT
BRANCH   3   7
HETATM    7  C   UNL     1      -9.489   8.203  69.597  1.00  0.00    -0.159 C  
HETATM    8  C   UNL     1     -10.540   7.504  70.447  1.00  0.00    -0.229 C  
HETATM    9  S   UNL     1     -10.070   9.850  68.996  1.00  0.00    -0.202 SA 
HETATM   10  O   UNL     1     -11.745   8.112  70.513  1.00  0.00    -0.201 OA 
HETATM   11  O   UNL     1     -10.306   6.468  71.051  1.00  0.00    -0.201 OA 
HETATM   12  H   UNL     1     -10.517  10.710  69.994  1.00  0.00     0.000 H  
ENDBRANCH   3   7
TORSDOF 1
ENDMDL
MODEL      254
REMARK 921   NORMALIZED FREE ENERGY PREDICTED BY IDOCK:   -1.28 KCAL/MOL
REMARK 922        TOTAL FREE ENERGY PREDICTED BY IDOCK:   -1.29 KCAL/MOL
REMARK 923 INTER-LIGAND FREE ENERGY PREDICTED BY IDOCK:   -1.37 KCAL/MOL
REMARK 924 INTRA-LIGAND FREE ENERGY PREDICTED BY IDOCK:    0.08 KCAL/MOL
REMARK 927      BINDING AFFINITY PREDICTED BY RF-SCORE:    0.00 PKD
ROOT
HETATM    1  O   UNL     1      -9.773   3.690  67.002  1.00  0.00    -0.197 OA 
HETATM    2  C   UNL     1      -9.759   4.662  66.062  1.00  0.00    -0.202 C  
HETATM    3  C   UNL     1      -9.489   6.067  66.587  1.00  0.00    -0.149 C  
HETATM    4  O   UNL     1      -9.902   4.405  64.877  1.00  0.00    -0.173 OA 
HETATM    5  S   UNL     1     -10.138   6.245  68.310  1.00  0.00    -0.169 SA 
HETATM    6  H   UNL     1      -9.892   7.527  68.788  1.00  0.00     0.000 H  
ENDROOT
BRANCH   3   7
HETATM    7  C   UNL     1      -8.002   6.431  66.486  1.00  0.00    -0.109 C  
HETATM    8  C   UNL     1      -7.791   7.427  65.354  1.00  0.00    -0.118 C  
HETATM    9  S   UNL     1      -6.858   4.986  66.356  1.00  0.00    -0.063 SA 
HETATM   10  O   UNL     1      -6.928   7.047  64.387  1.00  0.00    -0.051 OA 
HETATM   11  O   UNL     1      -8.350   8.513  65.330  1.00  0.00    -0.143 OA 
HETATM   12  H   UNL     1      -5.511   5.316  66.264  1.00  0.00     0.000 H  
ENDBRANCH   3   7
TORSDOF 1
ENDMDL
MODEL      255
REMARK 921   NORMALIZED FREE ENERGY PREDICTED BY IDOCK:   -1.27 KCAL/MOL
REMARK 922        TOTAL FREE ENERGY PREDICTED BY IDOCK:   -1.28 KCAL/MOL
REMARK 923 INTER-LIGAND FREE ENERGY PREDICTED BY IDOCK:   -1.29 KCAL/MOL
REMARK 924 INTRA-LIGAND FREE ENERGY PREDICTED BY IDOCK:    0.02 KCAL/MOL
REMARK 927      BINDING AFFINITY PREDICTED BY RF-SCORE:    0.00 PKD
ROOT
HETATM    1  O   UNL     1      -7.702   7.489  68.815  1.00  0.00    -0.113 OA 
HETATM    2  C   UNL     1      -8.730   7.431  69.693  1.00  0.00    -0.137 C  
HETATM    3  C   UNL     1      -9.275   6.035  69.961  1.00  0.00    -0.149 C  
HETATM    4  O   UNL     1      -9.142   8.432  70.257  1.00  0.00    -0.143 OA 
HETATM    5  S   UNL     1      -9.078   4.968  68.462  1.00  0.00    -0.116 SA 
HETATM    6  H   UNL     1      -9.575   3.694  68.707  1.00  0.00     0.000 H  
ENDROOT
BRANCH   3   7
HETATM    7  C   UNL     1      -8.635   5.408  71.207  1.00  0.00    -0.126 C  
HETATM    8  C   UNL     1      -9.284   5.976  72.460  1.00  0.00    -0.141 C  
HETATM    9  S   UNL     1      -6.792   5.525  71.271  1.00  0.00    -0.059 SA 
HETATM   10  O   UNL     1      -8.451   6.582  73.334  1.00  0.00    -0.119 OA 
HETATM   11  O   UNL     1     -10.483   5.873  72.677  1.00  0.00    -0.191 OA 
HETATM   12  H   UNL     1      -6.212   4.958  72.400  1.00  0.00     0.000 H  
ENDBRANCH   3   7
TORSDOF 1
ENDMDL
MODEL      256
REMARK 921   NORMALIZED FREE ENERGY PREDICTED BY IDOCK:   -1.22 KCAL/MOL
REMARK 922        TOTAL FREE ENERGY PREDICTED BY IDOCK:   -1.22 KCAL/MOL
REMARK 923 INTER-LIGAND FREE ENERGY PREDICTED BY IDOCK:   -1.52 KCAL/MOL
REMARK 924 INTRA-LIGAND FREE ENERGY PREDICTED BY IDOCK:    0.30 KCAL/MOL
REMARK 927      BINDING AFFINITY PREDICTED BY RF-SCORE:    0.00 PKD
ROOT
HETATM    1  O   UNL     1     -11.575   6.070  70.249  1.00  0.00    -0.294 OA 
HETATM    2  C   UNL     1     -10.753   6.802  71.036  1.00  0.00    -0.231 C  
HETATM    3  C   UNL     1      -9.412   6.152  71.354  1.00  0.00    -0.156 C  
HETATM    4  O   UNL     1     -11.061   7.922  71.411  1.00  0.00    -0.237 OA 
HETATM    5  S   UNL     1      -9.583   4.311  71.394  1.00  0.00    -0.179 SA 
HETATM    6  H   UNL     1      -8.360   3.718  71.684  1.00  0.00     0.000 H  
ENDROOT
BRANCH   3   7
HETATM    7  C   UNL     1      -8.318   6.612  70.381  1.00  0.00    -0.127 C  
HETATM    8  C   UNL     1      -8.107   5.556  69.306  1.00  0.00    -0.095 C  
HETATM    9  S   UNL     1      -6.729   7.106  71.183  1.00  0.00    -0.052 SA 
HETATM   10  O   UNL     1      -6.856   5.060  69.202  1.00  0.00    -0.051 OA 
HETATM   11  O   UNL     1      -9.009   5.192  68.564  1.00  0.00    -0.103 OA 
HETATM   12  H   UNL     1      -5.737   7.523  70.302  1.00  0.00     0.000 H  
ENDBRANCH   3   7
TORSDOF 1
ENDMDL
MODEL      257
REMARK 921   NORMALIZED FREE ENERGY PREDICTED BY IDOCK:   -1.20 KCAL/MOL
REMARK 922        TOTAL FREE ENERGY PREDICTED BY IDOCK:   -1.20 KCAL/MOL
REMARK 923 INTER-LIGAND FREE ENERGY PREDICTED BY IDOCK:   -1.37 KCAL/MOL
REMARK 924 INTRA-LIGAND FREE ENERGY PREDICTED BY IDOCK:    0.16 KCAL/MOL
REMARK 927      BINDING AFFINITY PREDICTED BY RF-SCORE:    0.00 PKD
ROOT
HETATM    1  O   UNL     1      -8.551   5.303  63.721  1.00  0.00    -0.127 OA 
HETATM    2  C   UNL     1      -8.021   5.419  64.960  1.00  0.00    -0.110 C  
HETATM    3  C   UNL     1      -8.100   6.813  65.570  1.00  0.00    -0.128 C  
HETATM    4  O   UNL     1      -7.565   4.454  65.551  1.00  0.00    -0.083 OA 
HETATM    5  S   UNL     1      -8.029   8.100  64.244  1.00  0.00    -0.126 SA 
HETATM    6  H   UNL     1      -8.100   9.372  64.800  1.00  0.00     0.000 H  
ENDROOT
BRANCH   3   7
HETATM    7  C   UNL     1      -9.337   6.969  66.464  1.00  0.00    -0.159 C  
HETATM    8  C   UNL     1      -8.913   7.416  67.856  1.00  0.00    -0.131 C  
HETATM    9  S   UNL     1     -10.442   5.490  66.521  1.00  0.00    -0.246 SA 
HETATM   10  O   UNL     1      -9.284   6.608  68.873  1.00  0.00    -0.132 OA 
HETATM   11  O   UNL     1      -8.294   8.452  68.048  1.00  0.00    -0.125 OA 
HETATM   12  H   UNL     1     -11.563   5.631  67.331  1.00  0.00     0.000 H  
ENDBRANCH   3   7
TORSDOF 1
ENDMDL
MODEL      258
REMARK 921   NORMALIZED FREE ENERGY PREDICTED BY IDOCK:   -1.20 KCAL/MOL
REMARK 922        TOTAL FREE ENERGY PREDICTED BY IDOCK:   -1.20 KCAL/MOL
REMARK 923 INTER-LIGAND FREE ENERGY PREDICTED BY IDOCK:   -1.47 KCAL/MOL
REMARK 924 INTRA-LIGAND FREE ENERGY PREDICTED BY IDOCK:    0.27 KCAL/MOL
REMARK 927      BINDING AFFINITY PREDICTED BY RF-SCORE:    0.00 PKD
ROOT
HETATM    1  O   UNL     1      -9.393   6.949  66.039  1.00  0.00    -0.104 OA 
HETATM    2  C   UNL     1     -10.084   6.596  67.148  1.00  0.00    -0.174 C  
HETATM    3  C   UNL     1      -9.301   5.774  68.164  1.00  0.00    -0.109 C  
HETATM    4  O   UNL     1     -11.234   6.964  67.325  1.00  0.00    -0.317 OA 
HETATM    5  S   UNL     1      -8.032   4.735  67.310  1.00  0.00    -0.102 SA 
HETATM    6  H   UNL     1      -7.318   3.985  68.237  1.00  0.00     0.000 H  
ENDROOT
BRANCH   3   7
HETATM    7  C   UNL     1      -8.687   6.661  69.254  1.00  0.00    -0.131 C  
HETATM    8  C   UNL     1      -8.749   5.946  70.596  1.00  0.00    -0.137 C  
HETATM    9  S   UNL     1      -9.386   8.368  69.349  1.00  0.00    -0.154 SA 
HETATM   10  O   UNL     1      -9.409   6.595  71.580  1.00  0.00    -0.150 OA 
HETATM   11  O   UNL     1      -8.218   4.861  70.782  1.00  0.00    -0.090 OA 
HETATM   12  H   UNL     1      -8.829   9.172  70.337  1.00  0.00     0.000 H  
ENDBRANCH   3   7
TORSDOF 1
ENDMDL
MODEL      259
REMARK 921   NORMALIZED FREE ENERGY PREDICTED BY IDOCK:   -1.14 KCAL/MOL
REMARK 922        TOTAL FREE ENERGY PREDICTED BY IDOCK:   -1.14 KCAL/MOL
REMARK 923 INTER-LIGAND FREE ENERGY PREDICTED BY IDOCK:   -1.29 KCAL/MOL
REMARK 924 INTRA-LIGAND FREE ENERGY PREDICTED BY IDOCK:    0.14 KCAL/MOL
REMARK 927      BINDING AFFINITY PREDICTED BY RF-SCORE:    0.00 PKD
ROOT
HETATM    1  O   UNL     1     -10.907   6.951  69.739  1.00  0.00    -0.234 OA 
HETATM    2  C   UNL     1      -9.757   6.990  69.028  1.00  0.00    -0.145 C  
HETATM    3  C   UNL     1      -8.896   5.737  69.120  1.00  0.00    -0.112 C  
HETATM    4  O   UNL     1      -9.472   7.950  68.329  1.00  0.00    -0.143 OA 
HETATM    5  S   UNL     1      -9.117   4.923  70.766  1.00  0.00    -0.142 SA 
HETATM    6  H   UNL     1      -8.331   3.780  70.849  1.00  0.00     0.000 H  
ENDROOT
BRANCH   3   7
HETATM    7  C   UNL     1      -9.173   4.776  67.956  1.00  0.00    -0.123 C  
HETATM    8  C   UNL     1      -7.901   4.568  67.146  1.00  0.00    -0.097 C  
HETATM    9  S   UNL     1     -10.603   5.248  66.886  1.00  0.00    -0.135 SA 
HETATM   10  O   UNL     1      -7.978   4.885  65.835  1.00  0.00    -0.104 OA 
HETATM   11  O   UNL     1      -6.878   4.122  67.642  1.00  0.00    -0.050 OA 
HETATM   12  H   UNL     1     -10.854   4.378  65.831  1.00  0.00     0.000 H  
ENDBRANCH   3   7
TORSDOF 1
ENDMDL
MODEL      260
REMARK 921   NORMALIZED FREE ENERGY PREDICTED BY IDOCK:   -1.13 KCAL/MOL
REMARK 922        TOTAL FREE ENERGY PREDICTED BY IDOCK:   -1.13 KCAL/MOL
REMARK 923 INTER-LIGAND FREE ENERGY PREDICTED BY IDOCK:   -1.16 KCAL/MOL
REMARK 924 INTRA-LIGAND FREE ENERGY PREDICTED BY IDOCK:    0.03 KCAL/MOL
REMARK 927      BINDING AFFINITY PREDICTED BY RF-SCORE:    0.00 PKD
ROOT
HETATM    1  O   UNL     1      -8.586   3.013  64.848  1.00  0.00    -0.097 OA 
HETATM    2  C   UNL     1      -8.964   3.883  65.813  1.00  0.00    -0.131 C  
HETATM    3  C   UNL     1      -7.824   4.605  66.519  1.00  0.00    -0.099 C  
HETATM    4  O   UNL     1     -10.142   4.098  66.049  1.00  0.00    -0.207 OA 
HETATM    5  S   UNL     1      -6.317   3.534  66.567  1.00  0.00    -0.037 SA 
HETATM    6  H   UNL     1      -5.276   4.192  67.211  1.00  0.00     0.000 H  
ENDROOT
BRANCH   3   7
HETATM    7  C   UNL     1      -7.543   5.973  65.884  1.00  0.00    -0.087 C  
HETATM    8  C   UNL     1      -8.278   7.060  66.655  1.00  0.00    -0.112 C  
HETATM    9  S   UNL     1      -7.878   6.068  64.069  1.00  0.00    -0.115 SA 
HETATM   10  O   UNL     1      -9.141   7.812  65.938  1.00  0.00    -0.156 OA 
HETATM   11  O   UNL     1      -8.087   7.257  67.846  1.00  0.00    -0.117 OA 
HETATM   12  H   UNL     1      -7.624   7.308  63.494  1.00  0.00     0.000 H  
ENDBRANCH   3   7
TORSDOF 1
ENDMDL
MODEL      261
REMARK 921   NORMALIZED FREE ENERGY PREDICTED BY IDOCK:   -1.11 KCAL/MOL
REMARK 922        TOTAL FREE ENERGY PREDICTED BY IDOCK:   -1.11 KCAL/MOL
REMARK 923 INTER-LIGAND FREE ENERGY PREDICTED BY IDOCK:   -1.40 KCAL/MOL
REMARK 924 INTRA-LIGAND FREE ENERGY PREDICTED BY IDOCK:    0.29 KCAL/MOL
REMARK 927      BINDING AFFINITY PREDICTED BY RF-SCORE:    0.00 PKD
ROOT
HETATM    1  O   UNL     1      -9.144   6.696  73.572  1.00  0.00    -0.124 OA 
HETATM    2  C   UNL     1      -8.164   7.544  73.184  1.00  0.00    -0.122 C  
HETATM    3  C   UNL     1      -7.365   7.097  71.967  1.00  0.00    -0.081 C  
HETATM    4  O   UNL     1      -7.983   8.610  73.750  1.00  0.00    -0.407 OA 
HETATM    5  S   UNL     1      -7.281   5.251  71.894  1.00  0.00    -0.087 SA 
HETATM    6  H   UNL     1      -6.552   4.843  70.784  1.00  0.00     0.000 H  
ENDROOT
BRANCH   3   7
HETATM    7  C   UNL     1      -7.922   7.703  70.672  1.00  0.00    -0.099 C  
HETATM    8  C   UNL     1      -8.896   6.730  70.024  1.00  0.00    -0.142 C  
HETATM    9  S   UNL     1      -6.640   8.293  69.479  1.00  0.00    -0.038 SA 
HETATM   10  O   UNL     1      -8.602   6.353  68.761  1.00  0.00    -0.123 OA 
HETATM   11  O   UNL     1      -9.896   6.328  70.601  1.00  0.00    -0.181 OA 
HETATM   12  H   UNL     1      -7.145   8.843  68.306  1.00  0.00     0.000 H  
ENDBRANCH   3   7
TORSDOF 1
ENDMDL
MODEL      262
REMARK 921   NORMALIZED FREE ENERGY PREDICTED BY IDOCK:   -1.09 KCAL/MOL
REMARK 922        TOTAL FREE ENERGY PREDICTED BY IDOCK:   -1.09 KCAL/MOL
REMARK 923 INTER-LIGAND FREE ENERGY PREDICTED BY IDOCK:   -1.11 KCAL/MOL
REMARK 924 INTRA-LIGAND FREE ENERGY PREDICTED BY IDOCK:    0.01 KCAL/MOL
REMARK 927      BINDING AFFINITY PREDICTED BY RF-SCORE:    0.00 PKD
ROOT
HETATM    1  O   UNL     1      -9.905   4.122  71.983  1.00  0.00    -0.158 OA 
HETATM    2  C   UNL     1      -9.591   5.112  72.850  1.00  0.00    -0.144 C  
HETATM    3  C   UNL     1      -8.209   5.007  73.481  1.00  0.00    -0.107 C  
HETATM    4  O   UNL     1     -10.355   6.042  73.058  1.00  0.00    -0.186 OA 
HETATM    5  S   UNL     1      -7.711   3.234  73.648  1.00  0.00    -0.066 SA 
HETATM    6  H   UNL     1      -6.450   3.138  74.224  1.00  0.00     0.000 H  
ENDROOT
BRANCH   3   7
HETATM    7  C   UNL     1      -7.172   5.831  72.708  1.00  0.00    -0.090 C  
HETATM    8  C   UNL     1      -7.118   7.246  73.265  1.00  0.00    -0.072 C  
HETATM    9  S   UNL     1      -7.386   5.820  70.873  1.00  0.00    -0.087 SA 
HETATM   10  O   UNL     1      -7.366   8.238  72.382  1.00  0.00    -0.103 OA 
HETATM   11  O   UNL     1      -6.846   7.477  74.435  1.00  0.00    -0.094 OA 
HETATM   12  H   UNL     1      -6.446   6.566  70.172  1.00  0.00     0.000 H  
ENDBRANCH   3   7
TORSDOF 1
ENDMDL
MODEL      263
REMARK 921   NORMALIZED FREE ENERGY PREDICTED BY IDOCK:   -1.07 KCAL/MOL
REMARK 922        TOTAL FREE ENERGY PREDICTED BY IDOCK:   -1.07 KCAL/MOL
REMARK 923 INTER-LIGAND FREE ENERGY PREDICTED BY IDOCK:   -1.36 KCAL/MOL
REMARK 924 INTRA-LIGAND FREE ENERGY PREDICTED BY IDOCK:    0.30 KCAL/MOL
REMARK 927      BINDING AFFINITY PREDICTED BY RF-SCORE:    0.00 PKD
ROOT
HETATM    1  O   UNL     1      -9.118   3.284  63.569  1.00  0.00    -0.092 OA 
HETATM    2  C   UNL     1     -10.028   3.726  64.468  1.00  0.00    -0.201 C  
HETATM    3  C   UNL     1      -9.467   4.068  65.843  1.00  0.00    -0.180 C  
HETATM    4  O   UNL     1     -11.200   3.882  64.164  1.00  0.00    -0.328 OA 
HETATM    5  S   UNL     1      -8.007   2.999  66.226  1.00  0.00    -0.082 SA 
HETATM    6  H   UNL     1      -7.497   3.311  67.480  1.00  0.00     0.000 H  
ENDROOT
BRANCH   3   7
HETATM    7  C   UNL     1      -9.140   5.562  65.963  1.00  0.00    -0.156 C  
HETATM    8  C   UNL     1      -7.686   5.803  65.583  1.00  0.00    -0.093 C  
HETATM    9  S   UNL     1      -9.561   6.318  67.595  1.00  0.00    -0.116 SA 
HETATM   10  O   UNL     1      -6.919   6.391  66.527  1.00  0.00    -0.063 OA 
HETATM   11  O   UNL     1      -7.241   5.505  64.484  1.00  0.00    -0.052 OA 
HETATM   12  H   UNL     1      -9.264   7.672  67.704  1.00  0.00     0.000 H  
ENDBRANCH   3   7
TORSDOF 1
ENDMDL
MODEL      264
REMARK 921   NORMALIZED FREE ENERGY PREDICTED BY IDOCK:   -1.04 KCAL/MOL
REMARK 922        TOTAL FREE ENERGY PREDICTED BY IDOCK:   -1.04 KCAL/MOL
REMARK 923 INTER-LIGAND FREE ENERGY PREDICTED BY IDOCK:   -1.06 KCAL/MOL
REMARK 924 INTRA-LIGAND FREE ENERGY PREDICTED BY IDOCK:    0.02 KCAL/MOL
REMARK 927      BINDING AFFINITY PREDICTED BY RF-SCORE:    0.00 PKD
ROOT
HETATM    1  O   UNL     1      -7.676   4.753  63.867  1.00  0.00    -0.069 OA 
HETATM    2  C   UNL     1      -7.420   4.626  65.190  1.00  0.00    -0.076 C  
HETATM    3  C   UNL     1      -8.006   5.721  66.071  1.00  0.00    -0.103 C  
HETATM    4  O   UNL     1      -6.805   3.668  65.630  1.00  0.00    -0.053 OA 
HETATM    5  S   UNL     1      -8.096   7.317  65.140  1.00  0.00    -0.111 SA 
HETATM    6  H   UNL     1      -8.631   8.316  65.945  1.00  0.00     0.000 H  
ENDROOT
BRANCH   3   7
HETATM    7  C   UNL     1      -9.366   5.311  66.651  1.00  0.00    -0.138 C  
HETATM    8  C   UNL     1      -9.174   4.697  68.030  1.00  0.00    -0.127 C  
HETATM    9  S   UNL     1     -10.383   4.231  65.551  1.00  0.00    -0.118 SA 
HETATM   10  O   UNL     1      -9.641   3.440  68.187  1.00  0.00    -0.177 OA 
HETATM   11  O   UNL     1      -8.648   5.309  68.949  1.00  0.00    -0.091 OA 
HETATM   12  H   UNL     1     -11.615   3.859  66.077  1.00  0.00     0.000 H  
ENDBRANCH   3   7
TORSDOF 1
ENDMDL
MODEL      265
REMARK 921   NORMALIZED FREE ENERGY PREDICTED BY IDOCK:   -1.03 KCAL/MOL
REMARK 922        TOTAL FREE ENERGY PREDICTED BY IDOCK:   -1.03 KCAL/MOL
REMARK 923 INTER-LIGAND FREE ENERGY PREDICTED BY IDOCK:   -1.99 KCAL/MOL
REMARK 924 INTRA-LIGAND FREE ENERGY PREDICTED BY IDOCK:    0.96 KCAL/MOL
REMARK 927      BINDING AFFINITY PREDICTED BY RF-SCORE:    0.00 PKD
ROOT
HETATM    1  O   UNL     1     -11.836   6.490  69.891  1.00  0.00    -0.381 OA 
HETATM    2  C   UNL     1     -10.668   5.818  69.776  1.00  0.00    -0.348 C  
HETATM    3  C   UNL     1      -9.772   6.267  68.629  1.00  0.00    -0.127 C  
HETATM    4  O   UNL     1     -10.351   4.951  70.575  1.00  0.00    -0.239 OA 
HETATM    5  S   UNL     1     -10.794   6.896  67.222  1.00  0.00    -0.343 SA 
HETATM    6  H   UNL     1      -9.976   7.306  66.176  1.00  0.00     0.000 H  
ENDROOT
BRANCH   3   7
HETATM    7  C   UNL     1      -8.732   7.295  69.095  1.00  0.00    -0.136 C  
HETATM    8  C   UNL     1      -8.150   8.021  67.891  1.00  0.00    -0.129 C  
HETATM    9  S   UNL     1      -7.412   6.616  70.195  1.00  0.00    -0.096 SA 
HETATM   10  O   UNL     1      -6.810   7.941  67.744  1.00  0.00    -0.066 OA 
HETATM   11  O   UNL     1      -8.847   8.658  67.115  1.00  0.00    -0.126 OA 
HETATM   12  H   UNL     1      -6.470   7.546  70.618  1.00  0.00     0.000 H  
ENDBRANCH   3   7
TORSDOF 1
ENDMDL
MODEL      266
REMARK 921   NORMALIZED FREE ENERGY PREDICTED BY IDOCK:   -0.99 KCAL/MOL
REMARK 922        TOTAL FREE ENERGY PREDICTED BY IDOCK:   -0.98 KCAL/MOL
REMARK 923 INTER-LIGAND FREE ENERGY PREDICTED BY IDOCK:   -1.19 KCAL/MOL
REMARK 924 INTRA-LIGAND FREE ENERGY PREDICTED BY IDOCK:    0.21 KCAL/MOL
REMARK 927      BINDING AFFINITY PREDICTED BY RF-SCORE:    0.00 PKD
ROOT
HETATM    1  O   UNL     1      -7.433   7.641  70.435  1.00  0.00    -0.076 OA 
HETATM    2  C   UNL     1      -7.341   6.558  69.629  1.00  0.00    -0.084 C  
HETATM    3  C   UNL     1      -8.641   6.138  68.956  1.00  0.00    -0.121 C  
HETATM    4  O   UNL     1      -6.273   6.003  69.429  1.00  0.00    -0.027 OA 
HETATM    5  S   UNL     1     -10.087   6.561  70.029  1.00  0.00    -0.178 SA 
HETATM    6  H   UNL     1     -11.273   6.178  69.415  1.00  0.00     0.000 H  
ENDROOT
BRANCH   3   7
HETATM    7  C   UNL     1      -8.768   6.739  67.550  1.00  0.00    -0.119 C  
HETATM    8  C   UNL     1      -9.264   5.677  66.579  1.00  0.00    -0.144 C  
HETATM    9  S   UNL     1      -7.247   7.585  66.929  1.00  0.00    -0.086 SA 
HETATM   10  O   UNL     1      -8.466   5.429  65.517  1.00  0.00    -0.130 OA 
HETATM   11  O   UNL     1     -10.329   5.097  66.735  1.00  0.00    -0.229 OA 
HETATM   12  H   UNL     1      -7.362   8.129  65.655  1.00  0.00     0.000 H  
ENDBRANCH   3   7
TORSDOF 1
ENDMDL
MODEL      267
REMARK 921   NORMALIZED FREE ENERGY PREDICTED BY IDOCK:   -0.96 KCAL/MOL
REMARK 922        TOTAL FREE ENERGY PREDICTED BY IDOCK:   -0.95 KCAL/MOL
REMARK 923 INTER-LIGAND FREE ENERGY PREDICTED BY IDOCK:   -0.99 KCAL/MOL
REMARK 924 INTRA-LIGAND FREE ENERGY PREDICTED BY IDOCK:    0.04 KCAL/MOL
REMARK 927      BINDING AFFINITY PREDICTED BY RF-SCORE:    0.00 PKD
ROOT
HETATM    1  O   UNL     1      -8.263   6.156  63.627  1.00  0.00    -0.098 OA 
HETATM    2  C   UNL     1      -7.570   5.136  64.183  1.00  0.00    -0.069 C  
HETATM    3  C   UNL     1      -7.533   5.131  65.705  1.00  0.00    -0.082 C  
HETATM    4  O   UNL     1      -7.062   4.263  63.496  1.00  0.00    -0.044 OA 
HETATM    5  S   UNL     1      -7.609   6.861  66.356  1.00  0.00    -0.090 SA 
HETATM    6  H   UNL     1      -7.576   6.856  67.745  1.00  0.00     0.000 H  
ENDROOT
BRANCH   3   7
HETATM    7  C   UNL     1      -8.636   4.241  66.293  1.00  0.00    -0.113 C  
HETATM    8  C   UNL     1      -8.356   2.783  65.956  1.00  0.00    -0.094 C  
HETATM    9  S   UNL     1     -10.356   4.736  65.837  1.00  0.00    -0.231 SA 
HETATM   10  O   UNL     1      -9.327   2.138  65.273  1.00  0.00    -0.111 OA 
HETATM   11  O   UNL     1      -7.327   2.221  66.300  1.00  0.00    -0.063 OA 
HETATM   12  H   UNL     1     -11.355   3.930  66.370  1.00  0.00     0.000 H  
ENDBRANCH   3   7
TORSDOF 1
ENDMDL
MODEL      268
REMARK 921   NORMALIZED FREE ENERGY PREDICTED BY IDOCK:   -0.92 KCAL/MOL
REMARK 922        TOTAL FREE ENERGY PREDICTED BY IDOCK:   -0.91 KCAL/MOL
REMARK 923 INTER-LIGAND FREE ENERGY PREDICTED BY IDOCK:   -1.19 KCAL/MOL
REMARK 924 INTRA-LIGAND FREE ENERGY PREDICTED BY IDOCK:    0.29 KCAL/MOL
REMARK 927      BINDING AFFINITY PREDICTED BY RF-SCORE:    0.00 PKD
ROOT
HETATM    1  O   UNL     1     -10.440   6.770  70.420  1.00  0.00    -0.199 OA 
HETATM    2  C   UNL     1      -9.290   7.379  70.046  1.00  0.00    -0.151 C  
HETATM    3  C   UNL     1      -8.130   6.440  69.741  1.00  0.00    -0.121 C  
HETATM    4  O   UNL     1      -9.224   8.591  69.919  1.00  0.00    -0.151 OA 
HETATM    5  S   UNL     1      -8.251   4.910  70.773  1.00  0.00    -0.096 SA 
HETATM    6  H   UNL     1      -7.192   4.055  70.495  1.00  0.00     0.000 H  
ENDROOT
BRANCH   3   7
HETATM    7  C   UNL     1      -8.039   6.124  68.243  1.00  0.00    -0.111 C  
HETATM    8  C   UNL     1      -8.743   4.806  67.951  1.00  0.00    -0.103 C  
HETATM    9  S   UNL     1      -6.329   6.161  67.546  1.00  0.00    -0.039 SA 
HETATM   10  O   UNL     1      -7.988   3.849  67.370  1.00  0.00    -0.089 OA 
HETATM   11  O   UNL     1      -9.925   4.628  68.206  1.00  0.00    -0.136 OA 
HETATM   12  H   UNL     1      -6.247   5.874  66.188  1.00  0.00     0.000 H  
ENDBRANCH   3   7
TORSDOF 1
ENDMDL
MODEL      269
REMARK 921   NORMALIZED FREE ENERGY PREDICTED BY IDOCK:   -0.91 KCAL/MOL
REMARK 922        TOTAL FREE ENERGY PREDICTED BY IDOCK:   -0.90 KCAL/MOL
REMARK 923 INTER-LIGAND FREE ENERGY PREDICTED BY IDOCK:   -0.97 KCAL/MOL
REMARK 924 INTRA-LIGAND FREE ENERGY PREDICTED BY IDOCK:    0.07 KCAL/MOL
REMARK 927      BINDING AFFINITY PREDICTED BY RF-SCORE:    0.00 PKD
ROOT
HETATM    1  O   UNL     1      -6.751   6.014  62.834  1.00  0.00    -0.038 OA 
HETATM    2  C   UNL     1      -6.344   6.898  63.774  1.00  0.00    -0.043 C  
HETATM    3  C   UNL     1      -7.303   8.051  64.038  1.00  0.00    -0.097 C  
HETATM    4  O   UNL     1      -5.304   6.736  64.392  1.00  0.00    -0.026 OA 
HETATM    5  S   UNL     1      -8.242   8.471  62.500  1.00  0.00    -0.178 SA 
HETATM    6  H   UNL     1      -9.118   9.523  62.741  1.00  0.00     0.000 H  
ENDROOT
BRANCH   3   7
HETATM    7  C   UNL     1      -8.233   7.752  65.222  1.00  0.00    -0.140 C  
HETATM    8  C   UNL     1      -7.787   8.547  66.440  1.00  0.00    -0.099 C  
HETATM    9  S   UNL     1      -8.442   5.958  65.608  1.00  0.00    -0.155 SA 
HETATM   10  O   UNL     1      -7.489   7.823  67.541  1.00  0.00    -0.092 OA 
HETATM   11  O   UNL     1      -7.721   9.768  66.434  1.00  0.00    -0.100 OA 
HETATM   12  H   UNL     1      -9.284   5.687  66.680  1.00  0.00     0.000 H  
ENDBRANCH   3   7
TORSDOF 1
ENDMDL
MODEL      270
REMARK 921   NORMALIZED FREE ENERGY PREDICTED BY IDOCK:   -0.87 KCAL/MOL
REMARK 922        TOTAL FREE ENERGY PREDICTED BY IDOCK:   -0.86 KCAL/MOL
REMARK 923 INTER-LIGAND FREE ENERGY PREDICTED BY IDOCK:   -0.88 KCAL/MOL
REMARK 924 INTRA-LIGAND FREE ENERGY PREDICTED BY IDOCK:    0.02 KCAL/MOL
REMARK 927      BINDING AFFINITY PREDICTED BY RF-SCORE:    0.00 PKD
ROOT
HETATM    1  O   UNL     1      -9.760   3.604  66.919  1.00  0.00    -0.196 OA 
HETATM    2  C   UNL     1      -9.208   3.993  65.746  1.00  0.00    -0.151 C  
HETATM    3  C   UNL     1      -8.318   5.226  65.826  1.00  0.00    -0.123 C  
HETATM    4  O   UNL     1      -9.383   3.357  64.719  1.00  0.00    -0.136 OA 
HETATM    5  S   UNL     1      -8.905   6.357  67.167  1.00  0.00    -0.113 SA 
HETATM    6  H   UNL     1      -8.093   7.482  67.239  1.00  0.00     0.000 H  
ENDROOT
BRANCH   3   7
HETATM    7  C   UNL     1      -6.841   4.846  65.993  1.00  0.00    -0.058 C  
HETATM    8  C   UNL     1      -6.257   4.445  64.645  1.00  0.00    -0.030 C  
HETATM    9  S   UNL     1      -6.511   3.576  67.293  1.00  0.00    -0.038 SA 
HETATM   10  O   UNL     1      -5.727   3.205  64.577  1.00  0.00    -0.010 OA 
HETATM   11  O   UNL     1      -6.247   5.205  63.688  1.00  0.00    -0.021 OA 
HETATM   12  H   UNL     1      -5.172   3.231  67.444  1.00  0.00     0.000 H  
ENDBRANCH   3   7
TORSDOF 1
ENDMDL
MODEL      271
REMARK 921   NORMALIZED FREE ENERGY PREDICTED BY IDOCK:   -0.86 KCAL/MOL
REMARK 922        TOTAL FREE ENERGY PREDICTED BY IDOCK:   -0.85 KCAL/MOL
REMARK 923 INTER-LIGAND FREE ENERGY PREDICTED BY IDOCK:   -0.88 KCAL/MOL
REMARK 924 INTRA-LIGAND FREE ENERGY PREDICTED BY IDOCK:    0.03 KCAL/MOL
REMARK 927      BINDING AFFINITY PREDICTED BY RF-SCORE:    0.00 PKD
ROOT
HETATM    1  O   UNL     1      -6.132   4.533  69.986  1.00  0.00    -0.017 OA 
HETATM    2  C   UNL     1      -6.511   5.013  68.778  1.00  0.00    -0.036 C  
HETATM    3  C   UNL     1      -7.546   4.172  68.043  1.00  0.00    -0.068 C  
HETATM    4  O   UNL     1      -6.080   6.072  68.351  1.00  0.00    -0.019 OA 
HETATM    5  S   UNL     1      -7.350   2.385  68.478  1.00  0.00    -0.047 SA 
HETATM    6  H   UNL     1      -8.295   1.618  67.807  1.00  0.00     0.000 H  
ENDROOT
BRANCH   3   7
HETATM    7  C   UNL     1      -8.971   4.679  68.301  1.00  0.00    -0.114 C  
HETATM    8  C   UNL     1      -9.175   6.019  67.609  1.00  0.00    -0.107 C  
HETATM    9  S   UNL     1      -9.460   4.742  70.082  1.00  0.00    -0.195 SA 
HETATM   10  O   UNL     1      -9.536   7.047  68.407  1.00  0.00    -0.136 OA 
HETATM   11  O   UNL     1      -9.041   6.156  66.401  1.00  0.00    -0.142 OA 
HETATM   12  H   UNL     1     -10.751   5.201  70.316  1.00  0.00     0.000 H  
ENDBRANCH   3   7
TORSDOF 1
ENDMDL
MODEL      272
REMARK 921   NORMALIZED FREE ENERGY PREDICTED BY IDOCK:   -0.85 KCAL/MOL
REMARK 922        TOTAL FREE ENERGY PREDICTED BY IDOCK:   -0.84 KCAL/MOL
REMARK 923 INTER-LIGAND FREE ENERGY PREDICTED BY IDOCK:   -1.13 KCAL/MOL
REMARK 924 INTRA-LIGAND FREE ENERGY PREDICTED BY IDOCK:    0.29 KCAL/MOL
REMARK 927      BINDING AFFINITY PREDICTED BY RF-SCORE:    0.00 PKD
ROOT
HETATM    1  O   UNL     1      -7.305   4.379  67.981  1.00  0.00    -0.064 OA 
HETATM    2  C   UNL     1      -6.799   5.516  67.451  1.00  0.00    -0.060 C  
HETATM    3  C   UNL     1      -7.831   6.484  66.889  1.00  0.00    -0.107 C  
HETATM    4  O   UNL     1      -5.602   5.754  67.479  1.00  0.00    -0.011 OA 
HETATM    5  S   UNL     1      -9.299   5.559  66.248  1.00  0.00    -0.156 SA 
HETATM    6  H   UNL     1     -10.241   6.442  65.734  1.00  0.00     0.000 H  
ENDROOT
BRANCH   3   7
HETATM    7  C   UNL     1      -8.223   7.552  67.918  1.00  0.00    -0.123 C  
HETATM    8  C   UNL     1      -9.501   7.135  68.632  1.00  0.00    -0.140 C  
HETATM    9  S   UNL     1      -8.338   9.270  67.246  1.00  0.00    -0.125 SA 
HETATM   10  O   UNL     1     -10.534   8.001  68.547  1.00  0.00    -0.206 OA 
HETATM   11  O   UNL     1      -9.584   6.091  69.263  1.00  0.00    -0.133 OA 
HETATM   12  H   UNL     1      -8.693  10.237  68.179  1.00  0.00     0.000 H  
ENDBRANCH   3   7
TORSDOF 1
ENDMDL
MODEL      273
REMARK 921   NORMALIZED FREE ENERGY PREDICTED BY IDOCK:   -0.82 KCAL/MOL
REMARK 922        TOTAL FREE ENERGY PREDICTED BY IDOCK:   -0.81 KCAL/MOL
REMARK 923 INTER-LIGAND FREE ENERGY PREDICTED BY IDOCK:   -0.83 KCAL/MOL
REMARK 924 INTRA-LIGAND FREE ENERGY PREDICTED BY IDOCK:    0.02 KCAL/MOL
REMARK 927      BINDING AFFINITY PREDICTED BY RF-SCORE:    0.00 PKD
ROOT
HETATM    1  O   UNL     1      -8.523   4.872  69.947  1.00  0.00    -0.078 OA 
HETATM    2  C   UNL     1      -7.453   5.042  70.758  1.00  0.00    -0.069 C  
HETATM    3  C   UNL     1      -7.578   6.176  71.768  1.00  0.00    -0.096 C  
HETATM    4  O   UNL     1      -6.487   4.297  70.702  1.00  0.00    -0.028 OA 
HETATM    5  S   UNL     1      -8.638   7.530  71.087  1.00  0.00    -0.122 SA 
HETATM    6  H   UNL     1      -8.752   8.564  72.008  1.00  0.00     0.000 H  
ENDROOT
BRANCH   3   7
HETATM    7  C   UNL     1      -8.085   5.669  73.124  1.00  0.00    -0.118 C  
HETATM    8  C   UNL     1      -6.940   5.026  73.894  1.00  0.00    -0.081 C  
HETATM    9  S   UNL     1      -9.563   4.564  73.035  1.00  0.00    -0.131 SA 
HETATM   10  O   UNL     1      -7.125   3.739  74.261  1.00  0.00    -0.050 OA 
HETATM   11  O   UNL     1      -5.924   5.640  74.184  1.00  0.00    -0.054 OA 
HETATM   12  H   UNL     1     -10.022   4.105  74.264  1.00  0.00     0.000 H  
ENDBRANCH   3   7
TORSDOF 1
ENDMDL
MODEL      274
REMARK 921   NORMALIZED FREE ENERGY PREDICTED BY IDOCK:   -0.82 KCAL/MOL
REMARK 922        TOTAL FREE ENERGY PREDICTED BY IDOCK:   -0.80 KCAL/MOL
REMARK 923 INTER-LIGAND FREE ENERGY PREDICTED BY IDOCK:   -1.77 KCAL/MOL
REMARK 924 INTRA-LIGAND FREE ENERGY PREDICTED BY IDOCK:    0.97 KCAL/MOL
REMARK 927      BINDING AFFINITY PREDICTED BY RF-SCORE:    0.00 PKD
ROOT
HETATM    1  O   UNL     1      -8.497  18.449  67.008  1.00  0.00    -0.242 OA 
HETATM    2  C   UNL     1      -7.632  17.550  66.485  1.00  0.00    -0.276 C  
HETATM    3  C   UNL     1      -7.097  16.517  67.468  1.00  0.00    -0.143 C  
HETATM    4  O   UNL     1      -7.354  17.551  65.296  1.00  0.00     0.042 OA 
HETATM    5  S   UNL     1      -7.003  17.237  69.170  1.00  0.00    -0.175 SA 
HETATM    6  H   UNL     1      -6.515  16.294  70.067  1.00  0.00     0.000 H  
ENDROOT
BRANCH   3   7
HETATM    7  C   UNL     1      -7.921  15.223  67.431  1.00  0.00    -0.186 C  
HETATM    8  C   UNL     1      -9.362  15.517  67.824  1.00  0.00    -0.195 C  
HETATM    9  S   UNL     1      -7.212  13.825  68.409  1.00  0.00    -0.119 SA 
HETATM   10  O   UNL     1      -9.837  14.829  68.884  1.00  0.00    -0.220 OA 
HETATM   11  O   UNL     1     -10.056  16.312  67.206  1.00  0.00    -0.253 OA 
HETATM   12  H   UNL     1      -7.958  12.653  68.376  1.00  0.00     0.000 H  
ENDBRANCH   3   7
TORSDOF 1
ENDMDL
MODEL      275
REMARK 921   NORMALIZED FREE ENERGY PREDICTED BY IDOCK:   -0.82 KCAL/MOL
REMARK 922        TOTAL FREE ENERGY PREDICTED BY IDOCK:   -0.80 KCAL/MOL
REMARK 923 INTER-LIGAND FREE ENERGY PREDICTED BY IDOCK:   -0.85 KCAL/MOL
REMARK 924 INTRA-LIGAND FREE ENERGY PREDICTED BY IDOCK:    0.05 KCAL/MOL
REMARK 927      BINDING AFFINITY PREDICTED BY RF-SCORE:    0.00 PKD
ROOT
HETATM    1  O   UNL     1     -13.777  10.258  69.680  1.00  0.00     0.708 OA 
HETATM    2  C   UNL     1     -12.510  10.607  69.358  1.00  0.00     0.133 C  
HETATM    3  C   UNL     1     -11.637  11.033  70.530  1.00  0.00    -0.245 C  
HETATM    4  O   UNL     1     -12.102  10.529  68.210  1.00  0.00    -0.319 OA 
HETATM    5  S   UNL     1     -12.668  11.822  71.847  1.00  0.00     0.039 SA 
HETATM    6  H   UNL     1     -11.870  12.211  72.917  1.00  0.00     0.000 H  
ENDROOT
BRANCH   3   7
HETATM    7  C   UNL     1     -10.805   9.861  71.069  1.00  0.00    -0.230 C  
HETATM    8  C   UNL     1      -9.790   9.425  70.021  1.00  0.00    -0.221 C  
HETATM    9  S   UNL     1     -11.795   8.437  71.705  1.00  0.00    -0.341 SA 
HETATM   10  O   UNL     1      -9.862   8.134  69.631  1.00  0.00    -0.179 OA 
HETATM   11  O   UNL     1      -8.947  10.188  69.574  1.00  0.00    -0.192 OA 
HETATM   12  H   UNL     1     -11.041   7.376  72.193  1.00  0.00     0.000 H  
ENDBRANCH   3   7
TORSDOF 1
ENDMDL
MODEL      276
REMARK 921   NORMALIZED FREE ENERGY PREDICTED BY IDOCK:   -0.76 KCAL/MOL
REMARK 922        TOTAL FREE ENERGY PREDICTED BY IDOCK:   -0.74 KCAL/MOL
REMARK 923 INTER-LIGAND FREE ENERGY PREDICTED BY IDOCK:   -1.05 KCAL/MOL
REMARK 924 INTRA-LIGAND FREE ENERGY PREDICTED BY IDOCK:    0.31 KCAL/MOL
REMARK 927      BINDING AFFINITY PREDICTED BY RF-SCORE:    0.00 PKD
ROOT
HETATM    1  O   UNL     1      -9.329   5.974  66.011  1.00  0.00    -0.151 OA 
HETATM    2  C   UNL     1      -9.592   6.389  67.272  1.00  0.00    -0.125 C  
HETATM    3  C   UNL     1      -9.171   5.424  68.372  1.00  0.00    -0.111 C  
HETATM    4  O   UNL     1     -10.085   7.484  67.492  1.00  0.00    -0.168 OA 
HETATM    5  S   UNL     1      -9.272   3.678  67.771  1.00  0.00    -0.196 SA 
HETATM    6  H   UNL     1      -8.888   2.798  68.775  1.00  0.00     0.000 H  
ENDROOT
BRANCH   3   7
HETATM    7  C   UNL     1      -7.781   5.769  68.923  1.00  0.00    -0.090 C  
HETATM    8  C   UNL     1      -6.743   4.830  68.325  1.00  0.00    -0.050 C  
HETATM    9  S   UNL     1      -7.672   5.833  70.766  1.00  0.00    -0.095 SA 
HETATM   10  O   UNL     1      -6.020   4.108  69.209  1.00  0.00    -0.021 OA 
HETATM   11  O   UNL     1      -6.556   4.747  67.120  1.00  0.00    -0.047 OA 
HETATM   12  H   UNL     1      -6.413   6.145  71.265  1.00  0.00     0.000 H  
ENDBRANCH   3   7
TORSDOF 1
ENDMDL
MODEL      277
REMARK 921   NORMALIZED FREE ENERGY PREDICTED BY IDOCK:   -0.70 KCAL/MOL
REMARK 922        TOTAL FREE ENERGY PREDICTED BY IDOCK:   -0.68 KCAL/MOL
REMARK 923 INTER-LIGAND FREE ENERGY PREDICTED BY IDOCK:   -1.64 KCAL/MOL
REMARK 924 INTRA-LIGAND FREE ENERGY PREDICTED BY IDOCK:    0.96 KCAL/MOL
REMARK 927      BINDING AFFINITY PREDICTED BY RF-SCORE:    0.00 PKD
ROOT
HETATM    1  O   UNL     1     -11.706   8.041  71.056  1.00  0.00    -0.286 OA 
HETATM    2  C   UNL     1     -10.562   8.758  71.137  1.00  0.00    -0.241 C  
HETATM    3  C   UNL     1      -9.363   8.005  71.696  1.00  0.00    -0.160 C  
HETATM    4  O   UNL     1     -10.503   9.910  70.735  1.00  0.00    -0.290 OA 
HETATM    5  S   UNL     1      -9.917   6.724  72.910  1.00  0.00    -0.184 SA 
HETATM    6  H   UNL     1      -8.822   6.037  73.421  1.00  0.00     0.000 H  
ENDROOT
BRANCH   3   7
HETATM    7  C   UNL     1      -8.499   7.408  70.577  1.00  0.00    -0.137 C  
HETATM    8  C   UNL     1      -8.006   6.028  70.987  1.00  0.00    -0.116 C  
HETATM    9  S   UNL     1      -7.116   8.492  70.005  1.00  0.00    -0.048 SA 
HETATM   10  O   UNL     1      -6.667   5.859  71.001  1.00  0.00    -0.056 OA 
HETATM   11  O   UNL     1      -8.774   5.118  71.266  1.00  0.00    -0.124 OA 
HETATM   12  H   UNL     1      -6.334   7.951  68.991  1.00  0.00     0.000 H  
ENDBRANCH   3   7
TORSDOF 1
ENDMDL
MODEL      278
REMARK 921   NORMALIZED FREE ENERGY PREDICTED BY IDOCK:   -0.68 KCAL/MOL
REMARK 922        TOTAL FREE ENERGY PREDICTED BY IDOCK:   -0.65 KCAL/MOL
REMARK 923 INTER-LIGAND FREE ENERGY PREDICTED BY IDOCK:   -1.28 KCAL/MOL
REMARK 924 INTRA-LIGAND FREE ENERGY PREDICTED BY IDOCK:    0.63 KCAL/MOL
REMARK 927      BINDING AFFINITY PREDICTED BY RF-SCORE:    0.00 PKD
ROOT
HETATM    1  O   UNL     1      -7.223  10.350  70.767  1.00  0.00    -0.199 OA 
HETATM    2  C   UNL     1      -7.078   9.447  69.770  1.00  0.00    -0.068 C  
HETATM    3  C   UNL     1      -7.501   8.026  70.117  1.00  0.00    -0.073 C  
HETATM    4  O   UNL     1      -6.684   9.779  68.663  1.00  0.00    -0.051 OA 
HETATM    5  S   UNL     1      -7.229   7.694  71.916  1.00  0.00    -0.069 SA 
HETATM    6  H   UNL     1      -7.615   6.397  72.232  1.00  0.00     0.000 H  
ENDROOT
BRANCH   3   7
HETATM    7  C   UNL     1      -8.947   7.746  69.687  1.00  0.00    -0.143 C  
HETATM    8  C   UNL     1      -9.789   7.400  70.907  1.00  0.00    -0.177 C  
HETATM    9  S   UNL     1      -9.127   6.489  68.345  1.00  0.00    -0.122 SA 
HETATM   10  O   UNL     1     -10.407   6.200  70.876  1.00  0.00    -0.201 OA 
HETATM   11  O   UNL     1      -9.918   8.168  71.849  1.00  0.00    -0.180 OA 
HETATM   12  H   UNL     1     -10.437   6.236  67.956  1.00  0.00     0.000 H  
ENDBRANCH   3   7
TORSDOF 1
ENDMDL
MODEL      279
REMARK 921   NORMALIZED FREE ENERGY PREDICTED BY IDOCK:   -0.65 KCAL/MOL
REMARK 922        TOTAL FREE ENERGY PREDICTED BY IDOCK:   -0.63 KCAL/MOL
REMARK 923 INTER-LIGAND FREE ENERGY PREDICTED BY IDOCK:   -0.92 KCAL/MOL
REMARK 924 INTRA-LIGAND FREE ENERGY PREDICTED BY IDOCK:    0.29 KCAL/MOL
REMARK 927      BINDING AFFINITY PREDICTED BY RF-SCORE:    0.00 PKD
ROOT
HETATM    1  O   UNL     1      -9.066   7.094  68.671  1.00  0.00    -0.134 OA 
HETATM    2  C   UNL     1      -7.794   6.857  68.275  1.00  0.00    -0.118 C  
HETATM    3  C   UNL     1      -7.232   5.500  68.679  1.00  0.00    -0.074 C  
HETATM    4  O   UNL     1      -7.178   7.664  67.598  1.00  0.00    -0.082 OA 
HETATM    5  S   UNL     1      -7.984   4.941  70.273  1.00  0.00    -0.070 SA 
HETATM    6  H   UNL     1      -7.470   3.703  70.642  1.00  0.00     0.000 H  
ENDROOT
BRANCH   3   7
HETATM    7  C   UNL     1      -7.403   4.463  67.561  1.00  0.00    -0.069 C  
HETATM    8  C   UNL     1      -8.694   3.686  67.773  1.00  0.00    -0.106 C  
HETATM    9  S   UNL     1      -5.955   3.342  67.318  1.00  0.00    -0.024 SA 
HETATM   10  O   UNL     1      -8.565   2.346  67.885  1.00  0.00    -0.076 OA 
HETATM   11  O   UNL     1      -9.785   4.235  67.818  1.00  0.00    -0.165 OA 
HETATM   12  H   UNL     1      -6.110   2.402  66.305  1.00  0.00     0.000 H  
ENDBRANCH   3   7
TORSDOF 1
ENDMDL
MODEL      280
REMARK 921   NORMALIZED FREE ENERGY PREDICTED BY IDOCK:    0.17 KCAL/MOL
REMARK 922        TOTAL FREE ENERGY PREDICTED BY IDOCK:    0.24 KCAL/MOL
REMARK 923 INTER-LIGAND FREE ENERGY PREDICTED BY IDOCK:   -0.89 KCAL/MOL
REMARK 924 INTRA-LIGAND FREE ENERGY PREDICTED BY IDOCK:    1.13 KCAL/MOL
REMARK 927      BINDING AFFINITY PREDICTED BY RF-SCORE:    0.00 PKD
ROOT
HETATM    1  O   UNL     1      -8.444   4.825  69.950  1.00  0.00    -0.074 OA 
HETATM    2  C   UNL     1      -7.258   4.836  70.601  1.00  0.00    -0.049 C  
HETATM    3  C   UNL     1      -7.141   5.863  71.719  1.00  0.00    -0.085 C  
HETATM    4  O   UNL     1      -6.376   4.036  70.330  1.00  0.00    -0.025 OA 
HETATM    5  S   UNL     1      -8.172   7.350  71.337  1.00  0.00    -0.105 SA 
HETATM    6  H   UNL     1      -8.066   8.288  72.357  1.00  0.00     0.000 H  
ENDROOT
BRANCH   3   7
HETATM    7  C   UNL     1      -7.487   5.253  73.084  1.00  0.00    -0.092 C  
HETATM    8  C   UNL     1      -8.870   4.619  73.030  1.00  0.00    -0.112 C  
HETATM    9  S   UNL     1      -7.314   6.409  74.515  1.00  0.00    -0.099 SA 
HETATM   10  O   UNL     1      -9.770   5.088  73.921  1.00  0.00    -0.135 OA 
HETATM   11  O   UNL     1      -9.147   3.726  72.243  1.00  0.00    -0.109 OA 
HETATM   12  H   UNL     1      -7.628   5.857  75.751  1.00  0.00     0.000 H  
ENDBRANCH   3   7
TORSDOF 1
ENDMDL
MODEL      281
REMARK 921   NORMALIZED FREE ENERGY PREDICTED BY IDOCK:    0.31 KCAL/MOL
REMARK 922        TOTAL FREE ENERGY PREDICTED BY IDOCK:    0.39 KCAL/MOL
REMARK 923 INTER-LIGAND FREE ENERGY PREDICTED BY IDOCK:   -1.10 KCAL/MOL
REMARK 924 INTRA-LIGAND FREE ENERGY PREDICTED BY IDOCK:    1.49 KCAL/MOL
REMARK 927      BINDING AFFINITY PREDICTED BY RF-SCORE:    0.00 PKD
ROOT
HETATM    1  O   UNL     1      -9.025   3.024  70.799  1.00  0.00    -0.080 OA 
HETATM    2  C   UNL     1      -8.182   3.061  71.857  1.00  0.00    -0.058 C  
HETATM    3  C   UNL     1      -8.192   4.362  72.649  1.00  0.00    -0.105 C  
HETATM    4  O   UNL     1      -7.509   2.091  72.169  1.00  0.00    -0.038 OA 
HETATM    5  S   UNL     1      -8.588   5.787  71.538  1.00  0.00    -0.133 SA 
HETATM    6  H   UNL     1      -8.597   6.975  72.260  1.00  0.00     0.000 H  
ENDROOT
BRANCH   3   7
HETATM    7  C   UNL     1      -9.141   4.284  73.852  1.00  0.00    -0.097 C  
HETATM    8  C   UNL     1      -9.456   2.828  74.166  1.00  0.00    -0.085 C  
HETATM    9  S   UNL     1     -10.674   5.303  73.697  1.00  0.00    -0.291 SA 
HETATM   10  O   UNL     1     -10.763   2.489  74.145  1.00  0.00    -0.157 OA 
HETATM   11  O   UNL     1      -8.583   2.017  74.441  1.00  0.00    -0.057 OA 
HETATM   12  H   UNL     1     -11.534   5.231  74.787  1.00  0.00     0.000 H  
ENDBRANCH   3   7
TORSDOF 1
ENDMDL
MODEL      282
REMARK 921   NORMALIZED FREE ENERGY PREDICTED BY IDOCK:    2.32 KCAL/MOL
REMARK 922        TOTAL FREE ENERGY PREDICTED BY IDOCK:    2.52 KCAL/MOL
REMARK 923 INTER-LIGAND FREE ENERGY PREDICTED BY IDOCK:    2.44 KCAL/MOL
REMARK 924 INTRA-LIGAND FREE ENERGY PREDICTED BY IDOCK:    0.08 KCAL/MOL
REMARK 927      BINDING AFFINITY PREDICTED BY RF-SCORE:    0.00 PKD
ROOT
HETATM    1  O   UNL     1      -8.137  19.452  67.360  1.00  0.00    -0.271 OA 
HETATM    2  C   UNL     1      -7.578  20.210  68.332  1.00  0.00    -0.135 C  
HETATM    3  C   UNL     1      -8.187  20.041  69.717  1.00  0.00     0.770 C  
HETATM    4  O   UNL     1      -6.620  20.932  68.104  1.00  0.00    -0.295 OA 
HETATM    5  S   UNL     1      -9.983  19.617  69.582  1.00  0.00     0.338 SA 
HETATM    6  H   UNL     1     -10.539  19.463  70.846  1.00  0.00     0.000 H  
ENDROOT
BRANCH   3   7
HETATM    7  C   UNL     1      -7.411  19.016  70.554  1.00  0.00     1.537 C  
HETATM    8  C   UNL     1      -6.584  19.734  71.611  1.00  0.00     0.479 C  
HETATM    9  S   UNL     1      -6.392  17.827  69.573  1.00  0.00    -0.172 SA 
HETATM   10  O   UNL     1      -5.254  19.503  71.578  1.00  0.00    -0.302 OA 
HETATM   11  O   UNL     1      -7.092  20.460  72.454  1.00  0.00     0.494 OA 
HETATM   12  H   UNL     1      -5.689  16.899  70.331  1.00  0.00     0.000 H  
ENDBRANCH   3   7
TORSDOF 1
ENDMDL
