MODEL        1
REMARK 921   NORMALIZED FREE ENERGY PREDICTED BY IDOCK:   -4.75 KCAL/MOL
REMARK 922        TOTAL FREE ENERGY PREDICTED BY IDOCK:   -8.56 KCAL/MOL
REMARK 923 INTER-LIGAND FREE ENERGY PREDICTED BY IDOCK:   -7.80 KCAL/MOL
REMARK 924 INTRA-LIGAND FREE ENERGY PREDICTED BY IDOCK:   -0.75 KCAL/MOL
REMARK 927      BINDING AFFINITY PREDICTED BY RF-SCORE:    0.00 PKD
ROOT
HETATM    1  C   UNL     1     -12.461  14.941  73.358  1.00  0.00    -0.446 C  
HETATM    2  N   UNL     1     -12.967  14.486  71.983  1.00  0.00    -0.324 N  
HETATM    3  C   UNL     1     -13.306  13.000  72.080  1.00  0.00    -0.524 C  
HETATM    4  C   UNL     1     -14.223  15.284  71.652  1.00  0.00    -0.552 C  
ENDROOT
BRANCH   2   5
HETATM    5  C   UNL     1     -11.841  14.737  70.951  1.00  0.00    -0.322 C  
BRANCH   5   6
HETATM    6  C   UNL     1     -11.805  13.711  69.804  1.00  0.00    -0.327 C  
BRANCH   6   7
HETATM    7  O   UNL     1     -12.408  14.186  68.586  1.00  0.00    -0.257 OA 
BRANCH   7   8
HETATM    8  C   UNL     1     -11.789  13.769  67.446  1.00  0.00    -0.396 C  
HETATM    9  O   UNL     1     -10.929  12.900  67.422  1.00  0.00    -0.249 OA 
BRANCH   8  10
HETATM   10  C   UNL     1     -12.401  14.403  66.224  1.00  0.00    -0.325 C  
BRANCH  10  11
HETATM   11  C   UNL     1     -11.424  14.493  65.066  1.00  0.00    -0.382 C  
BRANCH  11  12
HETATM   12  C   UNL     1     -10.805  15.860  64.937  1.00  0.00    -0.400 C  
HETATM   13  O   UNL     1     -11.361  16.831  64.442  1.00  0.00    -1.089 OA 
BRANCH  12  14
HETATM   14  O   UNL     1      -9.499  15.855  65.321  1.00  0.00    -0.306 OA 
BRANCH  14  15
HETATM   15  C   UNL     1      -9.276  16.213  66.698  1.00  0.00    -0.246 C  
BRANCH  15  16
HETATM   16  C   UNL     1      -8.437  17.491  66.875  1.00  0.00    -0.239 C  
BRANCH  16  17
HETATM   17  N   UNL     1      -9.180  18.631  67.616  1.00  0.00    -0.279 N  
HETATM   18  C   UNL     1      -8.243  19.414  68.529  1.00  0.00    -0.357 C  
HETATM   19  C   UNL     1     -10.276  18.001  68.484  1.00  0.00    -0.385 C  
HETATM   20  C   UNL     1      -9.855  19.582  66.630  1.00  0.00    -0.394 C  
ENDBRANCH  16  17
ENDBRANCH  15  16
ENDBRANCH  14  15
ENDBRANCH  12  14
ENDBRANCH  11  12
ENDBRANCH  10  11
ENDBRANCH   8  10
ENDBRANCH   7   8
ENDBRANCH   6   7
ENDBRANCH   5   6
ENDBRANCH   2   5
TORSDOF 11
ENDMDL
MODEL        2
REMARK 921   NORMALIZED FREE ENERGY PREDICTED BY IDOCK:   -4.64 KCAL/MOL
REMARK 922        TOTAL FREE ENERGY PREDICTED BY IDOCK:   -8.37 KCAL/MOL
REMARK 923 INTER-LIGAND FREE ENERGY PREDICTED BY IDOCK:   -7.72 KCAL/MOL
REMARK 924 INTRA-LIGAND FREE ENERGY PREDICTED BY IDOCK:   -0.65 KCAL/MOL
REMARK 927      BINDING AFFINITY PREDICTED BY RF-SCORE:    0.00 PKD
ROOT
HETATM    1  C   UNL     1     -10.099  19.837  68.839  1.00  0.00    -0.384 C  
HETATM    2  N   UNL     1      -9.353  18.929  67.854  1.00  0.00    -0.293 N  
HETATM    3  C   UNL     1      -9.124  19.725  66.569  1.00  0.00    -0.376 C  
HETATM    4  C   UNL     1      -8.013  18.553  68.476  1.00  0.00    -0.323 C  
ENDROOT
BRANCH   2   5
HETATM    5  C   UNL     1     -10.232  17.683  67.590  1.00  0.00    -0.351 C  
BRANCH   5   6
HETATM    6  C   UNL     1      -9.897  16.948  66.279  1.00  0.00    -0.302 C  
BRANCH   6   7
HETATM    7  O   UNL     1     -10.806  17.247  65.203  1.00  0.00    -0.640 OA 
BRANCH   7   8
HETATM    8  C   UNL     1     -11.397  16.156  64.641  1.00  0.00    -0.282 C  
HETATM    9  O   UNL     1     -12.196  16.219  63.718  1.00  0.00    -0.923 OA 
BRANCH   8  10
HETATM   10  C   UNL     1     -10.832  14.875  65.199  1.00  0.00    -0.428 C  
BRANCH  10  11
HETATM   11  C   UNL     1     -11.914  13.891  65.605  1.00  0.00    -0.409 C  
BRANCH  11  12
HETATM   12  C   UNL     1     -11.747  13.399  67.018  1.00  0.00    -0.381 C  
HETATM   13  O   UNL     1     -11.302  12.301  67.324  1.00  0.00    -0.286 OA 
BRANCH  12  14
HETATM   14  O   UNL     1     -12.275  14.275  67.917  1.00  0.00    -0.311 OA 
BRANCH  14  15
HETATM   15  C   UNL     1     -11.596  14.312  69.188  1.00  0.00    -0.305 C  
BRANCH  15  16
HETATM   16  C   UNL     1     -12.338  13.558  70.305  1.00  0.00    -0.300 C  
BRANCH  16  17
HETATM   17  N   UNL     1     -12.856  14.474  71.443  1.00  0.00    -0.316 N  
HETATM   18  C   UNL     1     -13.496  13.669  72.568  1.00  0.00    -0.570 C  
HETATM   19  C   UNL     1     -13.922  15.406  70.856  1.00  0.00    -0.084 C  
HETATM   20  C   UNL     1     -11.733  15.343  72.004  1.00  0.00    -0.455 C  
ENDBRANCH  16  17
ENDBRANCH  15  16
ENDBRANCH  14  15
ENDBRANCH  12  14
ENDBRANCH  11  12
ENDBRANCH  10  11
ENDBRANCH   8  10
ENDBRANCH   7   8
ENDBRANCH   6   7
ENDBRANCH   5   6
ENDBRANCH   2   5
TORSDOF 11
ENDMDL
MODEL        3
REMARK 921   NORMALIZED FREE ENERGY PREDICTED BY IDOCK:   -4.57 KCAL/MOL
REMARK 922        TOTAL FREE ENERGY PREDICTED BY IDOCK:   -8.27 KCAL/MOL
REMARK 923 INTER-LIGAND FREE ENERGY PREDICTED BY IDOCK:   -7.70 KCAL/MOL
REMARK 924 INTRA-LIGAND FREE ENERGY PREDICTED BY IDOCK:   -0.57 KCAL/MOL
REMARK 927      BINDING AFFINITY PREDICTED BY RF-SCORE:    0.00 PKD
ROOT
HETATM    1  C   UNL     1     -14.273  15.297  71.679  1.00  0.00    -0.552 C  
HETATM    2  N   UNL     1     -13.114  14.388  72.109  1.00  0.00    -0.342 N  
HETATM    3  C   UNL     1     -12.630  14.866  73.477  1.00  0.00    -0.493 C  
HETATM    4  C   UNL     1     -13.642  12.963  72.214  1.00  0.00    -0.515 C  
ENDROOT
BRANCH   2   5
HETATM    5  C   UNL     1     -11.993  14.506  71.048  1.00  0.00    -0.332 C  
BRANCH   5   6
HETATM    6  C   UNL     1     -11.415  15.926  70.904  1.00  0.00    -0.409 C  
BRANCH   6   7
HETATM    7  O   UNL     1     -11.103  16.287  69.546  1.00  0.00    -0.316 OA 
BRANCH   7   8
HETATM    8  C   UNL     1      -9.789  16.572  69.322  1.00  0.00    -0.218 C  
HETATM    9  O   UNL     1      -8.873  15.819  69.617  1.00  0.00    -0.232 OA 
BRANCH   8  10
HETATM   10  C   UNL     1      -9.629  17.852  68.543  1.00  0.00    -0.327 C  
BRANCH  10  11
HETATM   11  C   UNL     1     -10.716  18.036  67.499  1.00  0.00    -0.352 C  
BRANCH  11  12
HETATM   12  C   UNL     1     -10.169  18.466  66.164  1.00  0.00    -0.389 C  
HETATM   13  O   UNL     1      -9.448  19.439  65.989  1.00  0.00    -0.386 OA 
BRANCH  12  14
HETATM   14  O   UNL     1     -10.678  17.714  65.150  1.00  0.00    -0.658 OA 
BRANCH  14  15
HETATM   15  C   UNL     1     -10.795  16.309  65.444  1.00  0.00    -0.273 C  
BRANCH  15  16
HETATM   16  C   UNL     1     -11.508  15.505  64.342  1.00  0.00    -0.259 C  
BRANCH  16  17
HETATM   17  N   UNL     1     -11.636  13.992  64.653  1.00  0.00    -0.374 N  
HETATM   18  C   UNL     1     -12.093  13.203  63.431  1.00  0.00    -0.486 C  
HETATM   19  C   UNL     1     -12.688  13.819  65.755  1.00  0.00    -0.446 C  
HETATM   20  C   UNL     1     -10.317  13.423  65.173  1.00  0.00    -0.336 C  
ENDBRANCH  16  17
ENDBRANCH  15  16
ENDBRANCH  14  15
ENDBRANCH  12  14
ENDBRANCH  11  12
ENDBRANCH  10  11
ENDBRANCH   8  10
ENDBRANCH   7   8
ENDBRANCH   6   7
ENDBRANCH   5   6
ENDBRANCH   2   5
TORSDOF 11
ENDMDL
MODEL        4
REMARK 921   NORMALIZED FREE ENERGY PREDICTED BY IDOCK:   -4.55 KCAL/MOL
REMARK 922        TOTAL FREE ENERGY PREDICTED BY IDOCK:   -8.23 KCAL/MOL
REMARK 923 INTER-LIGAND FREE ENERGY PREDICTED BY IDOCK:   -7.64 KCAL/MOL
REMARK 924 INTRA-LIGAND FREE ENERGY PREDICTED BY IDOCK:   -0.59 KCAL/MOL
REMARK 927      BINDING AFFINITY PREDICTED BY RF-SCORE:    0.00 PKD
ROOT
HETATM    1  C   UNL     1     -11.344   7.452  70.380  1.00  0.00    -0.249 C  
HETATM    2  N   UNL     1     -11.917   8.309  71.516  1.00  0.00    -0.286 N  
HETATM    3  C   UNL     1     -13.419   8.036  71.593  1.00  0.00    -0.337 C  
HETATM    4  C   UNL     1     -11.246   7.885  72.816  1.00  0.00    -0.405 C  
ENDROOT
BRANCH   2   5
HETATM    5  C   UNL     1     -11.635   9.794  71.185  1.00  0.00    -0.392 C  
BRANCH   5   6
HETATM    6  C   UNL     1     -12.905  10.651  71.024  1.00  0.00    -0.402 C  
BRANCH   6   7
HETATM    7  O   UNL     1     -13.244  11.405  72.203  1.00  0.00    -0.490 OA 
BRANCH   7   8
HETATM    8  C   UNL     1     -13.478  12.729  71.981  1.00  0.00    -0.444 C  
HETATM    9  O   UNL     1     -14.328  13.375  72.576  1.00  0.00    -0.692 OA 
BRANCH   8  10
HETATM   10  C   UNL     1     -12.466  13.315  71.030  1.00  0.00    -0.422 C  
BRANCH  10  11
HETATM   11  C   UNL     1     -12.822  14.726  70.600  1.00  0.00    -0.398 C  
BRANCH  11  12
HETATM   12  C   UNL     1     -11.819  15.744  71.072  1.00  0.00    -0.420 C  
HETATM   13  O   UNL     1     -11.713  16.135  72.227  1.00  0.00    -0.480 OA 
BRANCH  12  14
HETATM   14  O   UNL     1     -11.123  16.279  70.031  1.00  0.00    -0.341 OA 
BRANCH  14  15
HETATM   15  C   UNL     1     -11.645  15.953  68.728  1.00  0.00    -0.386 C  
BRANCH  15  16
HETATM   16  C   UNL     1     -10.587  15.991  67.612  1.00  0.00    -0.309 C  
BRANCH  16  17
HETATM   17  N   UNL     1     -10.474  14.669  66.810  1.00  0.00    -0.274 N  
HETATM   18  C   UNL     1     -10.913  14.849  65.362  1.00  0.00    -0.364 C  
HETATM   19  C   UNL     1     -11.398  13.635  67.465  1.00  0.00    -0.308 C  
HETATM   20  C   UNL     1      -9.051  14.118  66.855  1.00  0.00    -0.245 C  
ENDBRANCH  16  17
ENDBRANCH  15  16
ENDBRANCH  14  15
ENDBRANCH  12  14
ENDBRANCH  11  12
ENDBRANCH  10  11
ENDBRANCH   8  10
ENDBRANCH   7   8
ENDBRANCH   6   7
ENDBRANCH   5   6
ENDBRANCH   2   5
TORSDOF 11
ENDMDL
MODEL        5
REMARK 921   NORMALIZED FREE ENERGY PREDICTED BY IDOCK:   -4.51 KCAL/MOL
REMARK 922        TOTAL FREE ENERGY PREDICTED BY IDOCK:   -8.17 KCAL/MOL
REMARK 923 INTER-LIGAND FREE ENERGY PREDICTED BY IDOCK:   -7.56 KCAL/MOL
REMARK 924 INTRA-LIGAND FREE ENERGY PREDICTED BY IDOCK:   -0.60 KCAL/MOL
REMARK 927      BINDING AFFINITY PREDICTED BY RF-SCORE:    0.00 PKD
ROOT
HETATM    1  C   UNL     1      -9.908  19.542  68.760  1.00  0.00    -0.451 C  
HETATM    2  N   UNL     1      -9.275  18.658  67.678  1.00  0.00    -0.279 N  
HETATM    3  C   UNL     1      -9.027  19.531  66.449  1.00  0.00    -0.370 C  
HETATM    4  C   UNL     1      -7.950  18.128  68.213  1.00  0.00    -0.295 C  
ENDROOT
BRANCH   2   5
HETATM    5  C   UNL     1     -10.264  17.511  67.359  1.00  0.00    -0.337 C  
BRANCH   5   6
HETATM    6  C   UNL     1      -9.897  16.702  66.101  1.00  0.00    -0.318 C  
BRANCH   6   7
HETATM    7  O   UNL     1     -10.749  16.974  64.972  1.00  0.00    -0.713 OA 
BRANCH   7   8
HETATM    8  C   UNL     1     -11.441  15.894  64.511  1.00  0.00    -0.283 C  
HETATM    9  O   UNL     1     -12.387  15.976  63.742  1.00  0.00    -0.858 OA 
BRANCH   8  10
HETATM   10  C   UNL     1     -10.802  14.602  64.950  1.00  0.00    -0.436 C  
BRANCH  10  11
HETATM   11  C   UNL     1     -11.823  13.515  65.231  1.00  0.00    -0.373 C  
BRANCH  11  12
HETATM   12  C   UNL     1     -12.003  13.257  66.703  1.00  0.00    -0.388 C  
HETATM   13  O   UNL     1     -12.038  14.127  67.563  1.00  0.00    -0.395 OA 
BRANCH  12  14
HETATM   14  O   UNL     1     -11.993  11.924  66.982  1.00  0.00    -0.615 OA 
BRANCH  14  15
HETATM   15  C   UNL     1     -10.769  11.443  67.570  1.00  0.00    -0.222 C  
BRANCH  15  16
HETATM   16  C   UNL     1     -10.806   9.948  67.932  1.00  0.00    -0.258 C  
BRANCH  16  17
HETATM   17  N   UNL     1     -10.418   9.648  69.402  1.00  0.00    -0.209 N  
HETATM   18  C   UNL     1      -8.959   9.988  69.681  1.00  0.00    -0.202 C  
HETATM   19  C   UNL     1     -10.616   8.148  69.651  1.00  0.00    -0.223 C  
HETATM   20  C   UNL     1     -11.321  10.405  70.374  1.00  0.00    -0.337 C  
ENDBRANCH  16  17
ENDBRANCH  15  16
ENDBRANCH  14  15
ENDBRANCH  12  14
ENDBRANCH  11  12
ENDBRANCH  10  11
ENDBRANCH   8  10
ENDBRANCH   7   8
ENDBRANCH   6   7
ENDBRANCH   5   6
ENDBRANCH   2   5
TORSDOF 11
ENDMDL
MODEL        6
REMARK 921   NORMALIZED FREE ENERGY PREDICTED BY IDOCK:   -4.51 KCAL/MOL
REMARK 922        TOTAL FREE ENERGY PREDICTED BY IDOCK:   -8.16 KCAL/MOL
REMARK 923 INTER-LIGAND FREE ENERGY PREDICTED BY IDOCK:   -7.60 KCAL/MOL
REMARK 924 INTRA-LIGAND FREE ENERGY PREDICTED BY IDOCK:   -0.56 KCAL/MOL
REMARK 927      BINDING AFFINITY PREDICTED BY RF-SCORE:    0.00 PKD
ROOT
HETATM    1  C   UNL     1      -8.766   9.361  64.699  1.00  0.00    -0.200 C  
HETATM    2  N   UNL     1      -8.180   9.735  63.332  1.00  0.00    -0.145 N  
HETATM    3  C   UNL     1      -6.718  10.127  63.543  1.00  0.00    -0.124 C  
HETATM    4  C   UNL     1      -8.263   8.510  62.428  1.00  0.00    -0.184 C  
ENDROOT
BRANCH   2   5
HETATM    5  C   UNL     1      -9.001  10.919  62.767  1.00  0.00    -0.305 C  
BRANCH   5   6
HETATM    6  C   UNL     1     -10.404  11.058  63.384  1.00  0.00    -0.312 C  
BRANCH   6   7
HETATM    7  O   UNL     1     -10.933  12.396  63.318  1.00  0.00    -0.438 OA 
BRANCH   7   8
HETATM    8  C   UNL     1     -12.206  12.526  63.784  1.00  0.00    -0.525 C  
HETATM    9  O   UNL     1     -13.149  11.866  63.372  1.00  0.00    -0.710 OA 
BRANCH   8  10
HETATM   10  C   UNL     1     -12.269  13.469  64.958  1.00  0.00    -0.453 C  
BRANCH  10  11
HETATM   11  C   UNL     1     -11.105  14.442  64.984  1.00  0.00    -0.385 C  
BRANCH  11  12
HETATM   12  C   UNL     1     -11.479  15.806  64.466  1.00  0.00    -0.289 C  
HETATM   13  O   UNL     1     -12.446  16.038  63.752  1.00  0.00    -0.784 OA 
BRANCH  12  14
HETATM   14  O   UNL     1     -10.537  16.737  64.782  1.00  0.00    -0.674 OA 
BRANCH  14  15
HETATM   15  C   UNL     1      -9.799  16.458  65.987  1.00  0.00    -0.335 C  
BRANCH  15  16
HETATM   16  C   UNL     1      -8.952  17.645  66.479  1.00  0.00    -0.262 C  
BRANCH  16  17
HETATM   17  N   UNL     1      -9.607  18.447  67.633  1.00  0.00    -0.275 N  
HETATM   18  C   UNL     1     -10.551  19.521  67.107  1.00  0.00    -0.487 C  
HETATM   19  C   UNL     1      -8.491  19.138  68.426  1.00  0.00    -0.349 C  
HETATM   20  C   UNL     1     -10.356  17.523  68.590  1.00  0.00    -0.369 C  
ENDBRANCH  16  17
ENDBRANCH  15  16
ENDBRANCH  14  15
ENDBRANCH  12  14
ENDBRANCH  11  12
ENDBRANCH  10  11
ENDBRANCH   8  10
ENDBRANCH   7   8
ENDBRANCH   6   7
ENDBRANCH   5   6
ENDBRANCH   2   5
TORSDOF 11
ENDMDL
MODEL        7
REMARK 921   NORMALIZED FREE ENERGY PREDICTED BY IDOCK:   -4.51 KCAL/MOL
REMARK 922        TOTAL FREE ENERGY PREDICTED BY IDOCK:   -8.16 KCAL/MOL
REMARK 923 INTER-LIGAND FREE ENERGY PREDICTED BY IDOCK:   -7.33 KCAL/MOL
REMARK 924 INTRA-LIGAND FREE ENERGY PREDICTED BY IDOCK:   -0.83 KCAL/MOL
REMARK 927      BINDING AFFINITY PREDICTED BY RF-SCORE:    0.00 PKD
ROOT
HETATM    1  C   UNL     1      -8.438  10.863  66.442  1.00  0.00    -0.163 C  
HETATM    2  N   UNL     1      -8.590  11.703  67.717  1.00  0.00    -0.139 N  
HETATM    3  C   UNL     1      -7.440  11.339  68.655  1.00  0.00    -0.118 C  
HETATM    4  C   UNL     1      -8.497  13.174  67.329  1.00  0.00    -0.198 C  
ENDROOT
BRANCH   2   5
HETATM    5  C   UNL     1      -9.960  11.365  68.353  1.00  0.00    -0.204 C  
BRANCH   5   6
HETATM    6  C   UNL     1     -11.019  10.892  67.342  1.00  0.00    -0.293 C  
BRANCH   6   7
HETATM    7  O   UNL     1     -12.006  11.893  67.030  1.00  0.00    -0.615 OA 
BRANCH   7   8
HETATM    8  C   UNL     1     -11.838  12.499  65.822  1.00  0.00    -0.437 C  
HETATM    9  O   UNL     1     -11.552  11.898  64.797  1.00  0.00    -0.307 OA 
BRANCH   8  10
HETATM   10  C   UNL     1     -12.193  13.962  65.886  1.00  0.00    -0.497 C  
BRANCH  10  11
HETATM   11  C   UNL     1     -11.850  14.700  64.605  1.00  0.00    -0.459 C  
BRANCH  11  12
HETATM   12  C   UNL     1     -11.155  16.011  64.860  1.00  0.00    -0.370 C  
HETATM   13  O   UNL     1     -11.287  17.013  64.171  1.00  0.00    -1.164 OA 
BRANCH  12  14
HETATM   14  O   UNL     1     -10.259  15.911  65.880  1.00  0.00    -0.306 OA 
BRANCH  14  15
HETATM   15  C   UNL     1     -10.338  16.970  66.855  1.00  0.00    -0.303 C  
BRANCH  15  16
HETATM   16  C   UNL     1      -9.090  17.869  66.890  1.00  0.00    -0.260 C  
BRANCH  16  17
HETATM   17  N   UNL     1      -9.373  19.315  67.370  1.00  0.00    -0.302 N  
HETATM   18  C   UNL     1      -9.657  19.367  68.866  1.00  0.00    -0.415 C  
HETATM   19  C   UNL     1     -10.613  19.829  66.629  1.00  0.00    -0.462 C  
HETATM   20  C   UNL     1      -8.209  20.245  67.032  1.00  0.00    -0.318 C  
ENDBRANCH  16  17
ENDBRANCH  15  16
ENDBRANCH  14  15
ENDBRANCH  12  14
ENDBRANCH  11  12
ENDBRANCH  10  11
ENDBRANCH   8  10
ENDBRANCH   7   8
ENDBRANCH   6   7
ENDBRANCH   5   6
ENDBRANCH   2   5
TORSDOF 11
ENDMDL
MODEL        8
REMARK 921   NORMALIZED FREE ENERGY PREDICTED BY IDOCK:   -4.50 KCAL/MOL
REMARK 922        TOTAL FREE ENERGY PREDICTED BY IDOCK:   -8.15 KCAL/MOL
REMARK 923 INTER-LIGAND FREE ENERGY PREDICTED BY IDOCK:   -7.34 KCAL/MOL
REMARK 924 INTRA-LIGAND FREE ENERGY PREDICTED BY IDOCK:   -0.82 KCAL/MOL
REMARK 927      BINDING AFFINITY PREDICTED BY RF-SCORE:    0.00 PKD
ROOT
HETATM    1  C   UNL     1     -10.411  19.601  66.128  1.00  0.00    -0.524 C  
HETATM    2  N   UNL     1      -9.684  18.933  67.302  1.00  0.00    -0.304 N  
HETATM    3  C   UNL     1      -8.183  19.033  67.038  1.00  0.00    -0.270 C  
HETATM    4  C   UNL     1     -10.039  19.692  68.575  1.00  0.00    -0.453 C  
ENDROOT
BRANCH   2   5
HETATM    5  C   UNL     1     -10.142  17.456  67.371  1.00  0.00    -0.321 C  
BRANCH   5   6
HETATM    6  C   UNL     1     -10.372  16.939  68.803  1.00  0.00    -0.324 C  
BRANCH   6   7
HETATM    7  O   UNL     1     -11.553  16.126  68.940  1.00  0.00    -0.357 OA 
BRANCH   7   8
HETATM    8  C   UNL     1     -11.706  15.550  70.165  1.00  0.00    -0.347 C  
HETATM    9  O   UNL     1     -11.712  16.178  71.213  1.00  0.00    -0.434 OA 
BRANCH   8  10
HETATM   10  C   UNL     1     -12.012  14.079  70.046  1.00  0.00    -0.404 C  
BRANCH  10  11
HETATM   11  C   UNL     1     -11.909  13.578  68.617  1.00  0.00    -0.404 C  
BRANCH  11  12
HETATM   12  C   UNL     1     -11.491  12.134  68.539  1.00  0.00    -0.300 C  
HETATM   13  O   UNL     1     -12.244  11.182  68.696  1.00  0.00    -0.582 OA 
BRANCH  12  14
HETATM   14  O   UNL     1     -10.142  12.011  68.401  1.00  0.00    -0.204 OA 
BRANCH  14  15
HETATM   15  C   UNL     1      -9.623  12.477  67.140  1.00  0.00    -0.208 C  
BRANCH  15  16
HETATM   16  C   UNL     1     -10.204  11.736  65.923  1.00  0.00    -0.237 C  
BRANCH  16  17
HETATM   17  N   UNL     1     -10.892  12.667  64.892  1.00  0.00    -0.287 N  
HETATM   18  C   UNL     1     -12.411  12.609  65.006  1.00  0.00    -0.497 C  
HETATM   19  C   UNL     1     -10.499  12.195  63.487  1.00  0.00    -0.454 C  
HETATM   20  C   UNL     1     -10.416  14.110  65.050  1.00  0.00    -0.425 C  
ENDBRANCH  16  17
ENDBRANCH  15  16
ENDBRANCH  14  15
ENDBRANCH  12  14
ENDBRANCH  11  12
ENDBRANCH  10  11
ENDBRANCH   8  10
ENDBRANCH   7   8
ENDBRANCH   6   7
ENDBRANCH   5   6
ENDBRANCH   2   5
TORSDOF 11
ENDMDL
MODEL        9
REMARK 921   NORMALIZED FREE ENERGY PREDICTED BY IDOCK:   -4.48 KCAL/MOL
REMARK 922        TOTAL FREE ENERGY PREDICTED BY IDOCK:   -8.12 KCAL/MOL
REMARK 923 INTER-LIGAND FREE ENERGY PREDICTED BY IDOCK:   -7.49 KCAL/MOL
REMARK 924 INTRA-LIGAND FREE ENERGY PREDICTED BY IDOCK:   -0.62 KCAL/MOL
REMARK 927      BINDING AFFINITY PREDICTED BY RF-SCORE:    0.00 PKD
ROOT
HETATM    1  C   UNL     1     -10.394  17.499  67.781  1.00  0.00    -0.367 C  
HETATM    2  N   UNL     1     -10.619  15.993  67.959  1.00  0.00    -0.285 N  
HETATM    3  C   UNL     1     -10.866  15.392  66.576  1.00  0.00    -0.298 C  
HETATM    4  C   UNL     1      -9.357  15.392  68.567  1.00  0.00    -0.198 C  
ENDROOT
BRANCH   2   5
HETATM    5  C   UNL     1     -11.847  15.797  68.880  1.00  0.00    -0.341 C  
BRANCH   5   6
HETATM    6  C   UNL     1     -11.550  16.022  70.374  1.00  0.00    -0.348 C  
BRANCH   6   7
HETATM    7  O   UNL     1     -12.712  15.906  71.217  1.00  0.00    -0.467 OA 
BRANCH   7   8
HETATM    8  C   UNL     1     -12.438  15.758  72.543  1.00  0.00    -0.450 C  
HETATM    9  O   UNL     1     -11.928  16.631  73.230  1.00  0.00    -0.475 OA 
BRANCH   8  10
HETATM   10  C   UNL     1     -12.974  14.454  73.074  1.00  0.00    -0.571 C  
BRANCH  10  11
HETATM   11  C   UNL     1     -13.777  13.691  72.037  1.00  0.00    -0.583 C  
BRANCH  11  12
HETATM   12  C   UNL     1     -13.030  12.507  71.484  1.00  0.00    -0.280 C  
HETATM   13  O   UNL     1     -12.165  12.572  70.621  1.00  0.00    -0.369 OA 
BRANCH  12  14
HETATM   14  O   UNL     1     -13.524  11.333  71.967  1.00  0.00    -0.389 OA 
BRANCH  14  15
HETATM   15  C   UNL     1     -12.926  10.152  71.401  1.00  0.00    -0.429 C  
BRANCH  15  16
HETATM   16  C   UNL     1     -12.543   9.092  72.449  1.00  0.00    -0.311 C  
BRANCH  16  17
HETATM   17  N   UNL     1     -11.311   8.238  72.056  1.00  0.00    -0.301 N  
HETATM   18  C   UNL     1     -10.703   7.535  73.264  1.00  0.00    -0.382 C  
HETATM   19  C   UNL     1     -10.251   9.174  71.464  1.00  0.00    -0.333 C  
HETATM   20  C   UNL     1     -11.673   7.209  70.987  1.00  0.00    -0.320 C  
ENDBRANCH  16  17
ENDBRANCH  15  16
ENDBRANCH  14  15
ENDBRANCH  12  14
ENDBRANCH  11  12
ENDBRANCH  10  11
ENDBRANCH   8  10
ENDBRANCH   7   8
ENDBRANCH   6   7
ENDBRANCH   5   6
ENDBRANCH   2   5
TORSDOF 11
ENDMDL
MODEL       10
REMARK 921   NORMALIZED FREE ENERGY PREDICTED BY IDOCK:   -4.48 KCAL/MOL
REMARK 922        TOTAL FREE ENERGY PREDICTED BY IDOCK:   -8.12 KCAL/MOL
REMARK 923 INTER-LIGAND FREE ENERGY PREDICTED BY IDOCK:   -7.36 KCAL/MOL
REMARK 924 INTRA-LIGAND FREE ENERGY PREDICTED BY IDOCK:   -0.76 KCAL/MOL
REMARK 927      BINDING AFFINITY PREDICTED BY RF-SCORE:    0.00 PKD
ROOT
HETATM    1  C   UNL     1     -13.490  13.020  72.183  1.00  0.00    -0.542 C  
HETATM    2  N   UNL     1     -13.140  14.504  72.015  1.00  0.00    -0.324 N  
HETATM    3  C   UNL     1     -14.343  15.197  71.375  1.00  0.00    -0.499 C  
HETATM    4  C   UNL     1     -12.879  15.090  73.397  1.00  0.00    -0.528 C  
ENDROOT
BRANCH   2   5
HETATM    5  C   UNL     1     -11.891  14.602  71.106  1.00  0.00    -0.323 C  
BRANCH   5   6
HETATM    6  C   UNL     1     -12.013  15.650  69.985  1.00  0.00    -0.368 C  
BRANCH   6   7
HETATM    7  O   UNL     1     -10.929  16.597  69.961  1.00  0.00    -0.333 OA 
BRANCH   7   8
HETATM    8  C   UNL     1     -10.069  16.448  68.914  1.00  0.00    -0.255 C  
HETATM    9  O   UNL     1      -9.198  15.592  68.871  1.00  0.00    -0.188 OA 
BRANCH   8  10
HETATM   10  C   UNL     1     -10.426  17.366  67.774  1.00  0.00    -0.376 C  
BRANCH  10  11
HETATM   11  C   UNL     1      -9.844  16.903  66.452  1.00  0.00    -0.319 C  
BRANCH  11  12
HETATM   12  C   UNL     1     -10.897  16.400  65.500  1.00  0.00    -0.215 C  
HETATM   13  O   UNL     1     -11.123  16.879  64.397  1.00  0.00    -1.128 OA 
BRANCH  12  14
HETATM   14  O   UNL     1     -11.659  15.425  66.068  1.00  0.00    -0.102 OA 
BRANCH  14  15
HETATM   15  C   UNL     1     -11.921  14.295  65.214  1.00  0.00    -0.389 C  
BRANCH  15  16
HETATM   16  C   UNL     1     -10.650  13.560  64.756  1.00  0.00    -0.417 C  
BRANCH  16  17
HETATM   17  N   UNL     1     -10.222  12.402  65.694  1.00  0.00    -0.258 N  
HETATM   18  C   UNL     1     -11.397  11.870  66.505  1.00  0.00    -0.341 C  
HETATM   19  C   UNL     1      -9.173  12.944  66.672  1.00  0.00    -0.221 C  
HETATM   20  C   UNL     1      -9.580  11.263  64.905  1.00  0.00    -0.232 C  
ENDBRANCH  16  17
ENDBRANCH  15  16
ENDBRANCH  14  15
ENDBRANCH  12  14
ENDBRANCH  11  12
ENDBRANCH  10  11
ENDBRANCH   8  10
ENDBRANCH   7   8
ENDBRANCH   6   7
ENDBRANCH   5   6
ENDBRANCH   2   5
TORSDOF 11
ENDMDL
MODEL       11
REMARK 921   NORMALIZED FREE ENERGY PREDICTED BY IDOCK:   -4.46 KCAL/MOL
REMARK 922        TOTAL FREE ENERGY PREDICTED BY IDOCK:   -8.08 KCAL/MOL
REMARK 923 INTER-LIGAND FREE ENERGY PREDICTED BY IDOCK:   -7.38 KCAL/MOL
REMARK 924 INTRA-LIGAND FREE ENERGY PREDICTED BY IDOCK:   -0.70 KCAL/MOL
REMARK 927      BINDING AFFINITY PREDICTED BY RF-SCORE:    0.00 PKD
ROOT
HETATM    1  C   UNL     1     -11.025   7.877  72.856  1.00  0.00    -0.388 C  
HETATM    2  N   UNL     1     -11.550   8.369  71.501  1.00  0.00    -0.270 N  
HETATM    3  C   UNL     1     -10.482   9.272  70.887  1.00  0.00    -0.302 C  
HETATM    4  C   UNL     1     -11.778   7.154  70.610  1.00  0.00    -0.307 C  
ENDROOT
BRANCH   2   5
HETATM    5  C   UNL     1     -12.864   9.149  71.751  1.00  0.00    -0.377 C  
BRANCH   5   6
HETATM    6  C   UNL     1     -12.787  10.640  71.377  1.00  0.00    -0.451 C  
BRANCH   6   7
HETATM    7  O   UNL     1     -13.523  11.497  72.270  1.00  0.00    -0.368 OA 
BRANCH   7   8
HETATM    8  C   UNL     1     -13.445  12.825  71.974  1.00  0.00    -0.444 C  
HETATM    9  O   UNL     1     -14.053  13.691  72.586  1.00  0.00    -0.746 OA 
BRANCH   8  10
HETATM   10  C   UNL     1     -12.414  13.092  70.908  1.00  0.00    -0.407 C  
BRANCH  10  11
HETATM   11  C   UNL     1     -12.144  14.573  70.719  1.00  0.00    -0.398 C  
BRANCH  11  12
HETATM   12  C   UNL     1     -11.872  14.933  69.283  1.00  0.00    -0.318 C  
HETATM   13  O   UNL     1     -11.502  16.035  68.900  1.00  0.00    -0.348 OA 
BRANCH  12  14
HETATM   14  O   UNL     1     -12.211  13.918  68.440  1.00  0.00    -0.339 OA 
BRANCH  14  15
HETATM   15  C   UNL     1     -11.790  14.106  67.075  1.00  0.00    -0.429 C  
BRANCH  15  16
HETATM   16  C   UNL     1     -12.036  12.878  66.181  1.00  0.00    -0.429 C  
BRANCH  16  17
HETATM   17  N   UNL     1     -10.807  11.943  66.049  1.00  0.00    -0.288 N  
HETATM   18  C   UNL     1     -10.688  11.362  64.645  1.00  0.00    -0.314 C  
HETATM   19  C   UNL     1     -10.985  10.781  67.034  1.00  0.00    -0.227 C  
HETATM   20  C   UNL     1      -9.517  12.673  66.417  1.00  0.00    -0.231 C  
ENDBRANCH  16  17
ENDBRANCH  15  16
ENDBRANCH  14  15
ENDBRANCH  12  14
ENDBRANCH  11  12
ENDBRANCH  10  11
ENDBRANCH   8  10
ENDBRANCH   7   8
ENDBRANCH   6   7
ENDBRANCH   5   6
ENDBRANCH   2   5
TORSDOF 11
ENDMDL
MODEL       12
REMARK 921   NORMALIZED FREE ENERGY PREDICTED BY IDOCK:   -4.45 KCAL/MOL
REMARK 922        TOTAL FREE ENERGY PREDICTED BY IDOCK:   -8.07 KCAL/MOL
REMARK 923 INTER-LIGAND FREE ENERGY PREDICTED BY IDOCK:   -7.52 KCAL/MOL
REMARK 924 INTRA-LIGAND FREE ENERGY PREDICTED BY IDOCK:   -0.55 KCAL/MOL
REMARK 927      BINDING AFFINITY PREDICTED BY RF-SCORE:    0.00 PKD
ROOT
HETATM    1  C   UNL     1     -10.679   9.191  71.232  1.00  0.00    -0.331 C  
HETATM    2  N   UNL     1     -10.134   9.527  69.838  1.00  0.00    -0.216 N  
HETATM    3  C   UNL     1      -8.629   9.757  69.970  1.00  0.00    -0.204 C  
HETATM    4  C   UNL     1     -10.399   8.336  68.925  1.00  0.00    -0.215 C  
ENDROOT
BRANCH   2   5
HETATM    5  C   UNL     1     -10.853  10.803  69.337  1.00  0.00    -0.244 C  
BRANCH   5   6
HETATM    6  C   UNL     1     -11.229  10.763  67.845  1.00  0.00    -0.318 C  
BRANCH   6   7
HETATM    7  O   UNL     1     -11.915  11.945  67.392  1.00  0.00    -0.603 OA 
BRANCH   7   8
HETATM    8  C   UNL     1     -11.433  12.471  66.231  1.00  0.00    -0.370 C  
HETATM    9  O   UNL     1     -10.529  11.964  65.582  1.00  0.00    -0.244 OA 
BRANCH   8  10
HETATM   10  C   UNL     1     -12.248  13.657  65.784  1.00  0.00    -0.503 C  
BRANCH  10  11
HETATM   11  C   UNL     1     -11.681  14.315  64.540  1.00  0.00    -0.431 C  
BRANCH  11  12
HETATM   12  C   UNL     1     -11.118  15.684  64.815  1.00  0.00    -0.412 C  
HETATM   13  O   UNL     1     -11.396  16.691  64.177  1.00  0.00    -1.141 OA 
BRANCH  12  14
HETATM   14  O   UNL     1     -10.160  15.646  65.781  1.00  0.00    -0.312 OA 
BRANCH  14  15
HETATM   15  C   UNL     1     -10.301  16.649  66.806  1.00  0.00    -0.295 C  
BRANCH  15  16
HETATM   16  C   UNL     1      -9.017  17.458  67.058  1.00  0.00    -0.242 C  
BRANCH  16  17
HETATM   17  N   UNL     1      -9.229  18.993  67.041  1.00  0.00    -0.292 N  
HETATM   18  C   UNL     1      -8.123  19.707  66.274  1.00  0.00    -0.334 C  
HETATM   19  C   UNL     1      -9.206  19.492  68.491  1.00  0.00    -0.356 C  
HETATM   20  C   UNL     1     -10.588  19.354  66.445  1.00  0.00    -0.463 C  
ENDBRANCH  16  17
ENDBRANCH  15  16
ENDBRANCH  14  15
ENDBRANCH  12  14
ENDBRANCH  11  12
ENDBRANCH  10  11
ENDBRANCH   8  10
ENDBRANCH   7   8
ENDBRANCH   6   7
ENDBRANCH   5   6
ENDBRANCH   2   5
TORSDOF 11
ENDMDL
MODEL       13
REMARK 921   NORMALIZED FREE ENERGY PREDICTED BY IDOCK:   -4.42 KCAL/MOL
REMARK 922        TOTAL FREE ENERGY PREDICTED BY IDOCK:   -8.02 KCAL/MOL
REMARK 923 INTER-LIGAND FREE ENERGY PREDICTED BY IDOCK:   -7.47 KCAL/MOL
REMARK 924 INTRA-LIGAND FREE ENERGY PREDICTED BY IDOCK:   -0.55 KCAL/MOL
REMARK 927      BINDING AFFINITY PREDICTED BY RF-SCORE:    0.00 PKD
ROOT
HETATM    1  C   UNL     1      -8.854   9.468  70.424  1.00  0.00    -0.234 C  
HETATM    2  N   UNL     1     -10.374   9.271  70.353  1.00  0.00    -0.221 N  
HETATM    3  C   UNL     1     -10.652   8.144  69.359  1.00  0.00    -0.200 C  
HETATM    4  C   UNL     1     -10.866   8.873  71.740  1.00  0.00    -0.365 C  
ENDROOT
BRANCH   2   5
HETATM    5  C   UNL     1     -11.008  10.602  69.881  1.00  0.00    -0.274 C  
BRANCH   5   6
HETATM    6  C   UNL     1     -11.183  10.704  68.355  1.00  0.00    -0.288 C  
BRANCH   6   7
HETATM    7  O   UNL     1     -12.270  11.559  67.956  1.00  0.00    -0.582 OA 
BRANCH   7   8
HETATM    8  C   UNL     1     -11.887  12.764  67.447  1.00  0.00    -0.342 C  
HETATM    9  O   UNL     1     -11.584  13.725  68.138  1.00  0.00    -0.294 OA 
BRANCH   8  10
HETATM   10  C   UNL     1     -11.744  12.707  65.948  1.00  0.00    -0.470 C  
BRANCH  10  11
HETATM   11  C   UNL     1     -10.829  13.793  65.410  1.00  0.00    -0.312 C  
BRANCH  11  12
HETATM   12  C   UNL     1     -11.570  14.827  64.605  1.00  0.00    -0.399 C  
HETATM   13  O   UNL     1     -12.595  14.612  63.971  1.00  0.00    -0.819 OA 
BRANCH  12  14
HETATM   14  O   UNL     1     -10.890  16.006  64.559  1.00  0.00    -0.588 OA 
BRANCH  14  15
HETATM   15  C   UNL     1     -10.253  16.380  65.796  1.00  0.00    -0.348 C  
BRANCH  15  16
HETATM   16  C   UNL     1     -10.355  17.882  66.112  1.00  0.00    -0.352 C  
BRANCH  16  17
HETATM   17  N   UNL     1      -9.862  18.259  67.532  1.00  0.00    -0.306 N  
HETATM   18  C   UNL     1      -8.341  18.247  67.623  1.00  0.00    -0.247 C  
HETATM   19  C   UNL     1     -10.408  17.218  68.517  1.00  0.00    -0.371 C  
HETATM   20  C   UNL     1     -10.395  19.626  67.955  1.00  0.00    -0.454 C  
ENDBRANCH  16  17
ENDBRANCH  15  16
ENDBRANCH  14  15
ENDBRANCH  12  14
ENDBRANCH  11  12
ENDBRANCH  10  11
ENDBRANCH   8  10
ENDBRANCH   7   8
ENDBRANCH   6   7
ENDBRANCH   5   6
ENDBRANCH   2   5
TORSDOF 11
ENDMDL
MODEL       14
REMARK 921   NORMALIZED FREE ENERGY PREDICTED BY IDOCK:   -4.42 KCAL/MOL
REMARK 922        TOTAL FREE ENERGY PREDICTED BY IDOCK:   -8.02 KCAL/MOL
REMARK 923 INTER-LIGAND FREE ENERGY PREDICTED BY IDOCK:   -7.33 KCAL/MOL
REMARK 924 INTRA-LIGAND FREE ENERGY PREDICTED BY IDOCK:   -0.69 KCAL/MOL
REMARK 927      BINDING AFFINITY PREDICTED BY RF-SCORE:    0.00 PKD
ROOT
HETATM    1  C   UNL     1     -12.790  15.020  73.443  1.00  0.00    -0.528 C  
HETATM    2  N   UNL     1     -13.121  14.399  72.079  1.00  0.00    -0.339 N  
HETATM    3  C   UNL     1     -13.539  12.949  72.317  1.00  0.00    -0.515 C  
HETATM    4  C   UNL     1     -14.279  15.181  71.470  1.00  0.00    -0.549 C  
ENDROOT
BRANCH   2   5
HETATM    5  C   UNL     1     -11.851  14.478  71.197  1.00  0.00    -0.292 C  
BRANCH   5   6
HETATM    6  C   UNL     1     -12.122  14.932  69.752  1.00  0.00    -0.314 C  
BRANCH   6   7
HETATM    7  O   UNL     1     -11.387  16.110  69.370  1.00  0.00    -0.328 OA 
BRANCH   7   8
HETATM    8  C   UNL     1     -11.075  16.180  68.046  1.00  0.00    -0.317 C  
HETATM    9  O   UNL     1     -10.459  17.109  67.544  1.00  0.00    -0.337 OA 
BRANCH   8  10
HETATM   10  C   UNL     1     -11.451  14.912  67.324  1.00  0.00    -0.350 C  
BRANCH  10  11
HETATM   11  C   UNL     1     -11.154  14.980  65.838  1.00  0.00    -0.334 C  
BRANCH  11  12
HETATM   12  C   UNL     1     -12.066  14.100  65.025  1.00  0.00    -0.421 C  
HETATM   13  O   UNL     1     -13.281  14.040  65.163  1.00  0.00    -0.768 OA 
BRANCH  12  14
HETATM   14  O   UNL     1     -11.362  13.278  64.199  1.00  0.00    -0.374 OA 
BRANCH  14  15
HETATM   15  C   UNL     1     -11.624  11.874  64.383  1.00  0.00    -0.292 C  
BRANCH  15  16
HETATM   16  C   UNL     1     -10.352  11.011  64.435  1.00  0.00    -0.358 C  
BRANCH  16  17
HETATM   17  N   UNL     1      -9.891  10.659  65.872  1.00  0.00    -0.230 N  
HETATM   18  C   UNL     1      -9.628   9.166  66.031  1.00  0.00    -0.272 C  
HETATM   19  C   UNL     1     -11.011  11.053  66.841  1.00  0.00    -0.249 C  
HETATM   20  C   UNL     1      -8.641  11.447  66.258  1.00  0.00    -0.156 C  
ENDBRANCH  16  17
ENDBRANCH  15  16
ENDBRANCH  14  15
ENDBRANCH  12  14
ENDBRANCH  11  12
ENDBRANCH  10  11
ENDBRANCH   8  10
ENDBRANCH   7   8
ENDBRANCH   6   7
ENDBRANCH   5   6
ENDBRANCH   2   5
TORSDOF 11
ENDMDL
MODEL       15
REMARK 921   NORMALIZED FREE ENERGY PREDICTED BY IDOCK:   -4.42 KCAL/MOL
REMARK 922        TOTAL FREE ENERGY PREDICTED BY IDOCK:   -8.01 KCAL/MOL
REMARK 923 INTER-LIGAND FREE ENERGY PREDICTED BY IDOCK:   -7.43 KCAL/MOL
REMARK 924 INTRA-LIGAND FREE ENERGY PREDICTED BY IDOCK:   -0.58 KCAL/MOL
REMARK 927      BINDING AFFINITY PREDICTED BY RF-SCORE:    0.00 PKD
ROOT
HETATM    1  C   UNL     1     -10.078  11.840  63.392  1.00  0.00    -0.446 C  
HETATM    2  N   UNL     1     -11.032  12.437  64.435  1.00  0.00    -0.312 N  
HETATM    3  C   UNL     1     -10.658  13.907  64.622  1.00  0.00    -0.412 C  
HETATM    4  C   UNL     1     -12.454  12.329  63.896  1.00  0.00    -0.485 C  
ENDROOT
BRANCH   2   5
HETATM    5  C   UNL     1     -10.859  11.644  65.753  1.00  0.00    -0.281 C  
BRANCH   5   6
HETATM    6  C   UNL     1     -11.556  12.287  66.965  1.00  0.00    -0.349 C  
BRANCH   6   7
HETATM    7  O   UNL     1     -12.085  11.329  67.901  1.00  0.00    -0.634 OA 
BRANCH   7   8
HETATM    8  C   UNL     1     -11.828  11.610  69.209  1.00  0.00    -0.331 C  
HETATM    9  O   UNL     1     -11.639  10.755  70.061  1.00  0.00    -0.277 OA 
BRANCH   8  10
HETATM   10  C   UNL     1     -11.660  13.092  69.430  1.00  0.00    -0.360 C  
BRANCH  10  11
HETATM   11  C   UNL     1     -12.294  13.561  70.726  1.00  0.00    -0.440 C  
BRANCH  11  12
HETATM   12  C   UNL     1     -11.858  14.948  71.115  1.00  0.00    -0.337 C  
HETATM   13  O   UNL     1     -11.494  15.274  72.237  1.00  0.00    -0.447 OA 
BRANCH  12  14
HETATM   14  O   UNL     1     -12.041  15.833  70.096  1.00  0.00    -0.365 OA 
BRANCH  14  15
HETATM   15  C   UNL     1     -10.850  16.533  69.688  1.00  0.00    -0.322 C  
BRANCH  15  16
HETATM   16  C   UNL     1     -10.638  16.552  68.164  1.00  0.00    -0.329 C  
BRANCH  16  17
HETATM   17  N   UNL     1      -9.814  17.765  67.661  1.00  0.00    -0.289 N  
HETATM   18  C   UNL     1     -10.205  18.162  66.243  1.00  0.00    -0.395 C  
HETATM   19  C   UNL     1      -8.334  17.365  67.654  1.00  0.00    -0.211 C  
HETATM   20  C   UNL     1      -9.970  18.962  68.596  1.00  0.00    -0.412 C  
ENDBRANCH  16  17
ENDBRANCH  15  16
ENDBRANCH  14  15
ENDBRANCH  12  14
ENDBRANCH  11  12
ENDBRANCH  10  11
ENDBRANCH   8  10
ENDBRANCH   7   8
ENDBRANCH   6   7
ENDBRANCH   5   6
ENDBRANCH   2   5
TORSDOF 11
ENDMDL
MODEL       16
REMARK 921   NORMALIZED FREE ENERGY PREDICTED BY IDOCK:   -4.41 KCAL/MOL
REMARK 922        TOTAL FREE ENERGY PREDICTED BY IDOCK:   -7.99 KCAL/MOL
REMARK 923 INTER-LIGAND FREE ENERGY PREDICTED BY IDOCK:   -7.34 KCAL/MOL
REMARK 924 INTRA-LIGAND FREE ENERGY PREDICTED BY IDOCK:   -0.65 KCAL/MOL
REMARK 927      BINDING AFFINITY PREDICTED BY RF-SCORE:    0.00 PKD
ROOT
HETATM    1  C   UNL     1     -10.102  17.288  68.762  1.00  0.00    -0.337 C  
HETATM    2  N   UNL     1      -9.550  18.240  67.693  1.00  0.00    -0.278 N  
HETATM    3  C   UNL     1     -10.682  19.176  67.273  1.00  0.00    -0.488 C  
HETATM    4  C   UNL     1      -8.415  19.046  68.314  1.00  0.00    -0.331 C  
ENDROOT
BRANCH   2   5
HETATM    5  C   UNL     1      -9.059  17.386  66.500  1.00  0.00    -0.266 C  
BRANCH   5   6
HETATM    6  C   UNL     1      -9.781  16.034  66.359  1.00  0.00    -0.284 C  
BRANCH   6   7
HETATM    7  O   UNL     1     -10.059  15.668  64.995  1.00  0.00    -0.398 OA 
BRANCH   7   8
HETATM    8  C   UNL     1     -11.275  16.074  64.534  1.00  0.00    -0.297 C  
HETATM    9  O   UNL     1     -11.504  17.207  64.136  1.00  0.00    -0.993 OA 
BRANCH   8  10
HETATM   10  C   UNL     1     -12.242  14.922  64.443  1.00  0.00    -0.399 C  
BRANCH  10  11
HETATM   11  C   UNL     1     -11.589  13.656  63.922  1.00  0.00    -0.294 C  
BRANCH  11  12
HETATM   12  C   UNL     1     -12.422  12.428  64.177  1.00  0.00    -0.442 C  
HETATM   13  O   UNL     1     -13.032  11.809  63.315  1.00  0.00    -0.633 OA 
BRANCH  12  14
HETATM   14  O   UNL     1     -12.523  12.160  65.508  1.00  0.00    -0.517 OA 
BRANCH  14  15
HETATM   15  C   UNL     1     -11.266  11.914  66.169  1.00  0.00    -0.333 C  
BRANCH  15  16
HETATM   16  C   UNL     1     -11.418  11.426  67.620  1.00  0.00    -0.273 C  
BRANCH  16  17
HETATM   17  N   UNL     1     -11.259  12.546  68.679  1.00  0.00    -0.258 N  
HETATM   18  C   UNL     1      -9.793  12.887  68.923  1.00  0.00     0.152 C  
HETATM   19  C   UNL     1     -11.859  12.044  69.997  1.00  0.00    -0.314 C  
HETATM   20  C   UNL     1     -12.021  13.804  68.268  1.00  0.00    -0.357 C  
ENDBRANCH  16  17
ENDBRANCH  15  16
ENDBRANCH  14  15
ENDBRANCH  12  14
ENDBRANCH  11  12
ENDBRANCH  10  11
ENDBRANCH   8  10
ENDBRANCH   7   8
ENDBRANCH   6   7
ENDBRANCH   5   6
ENDBRANCH   2   5
TORSDOF 11
ENDMDL
MODEL       17
REMARK 921   NORMALIZED FREE ENERGY PREDICTED BY IDOCK:   -4.37 KCAL/MOL
REMARK 922        TOTAL FREE ENERGY PREDICTED BY IDOCK:   -7.94 KCAL/MOL
REMARK 923 INTER-LIGAND FREE ENERGY PREDICTED BY IDOCK:   -7.18 KCAL/MOL
REMARK 924 INTRA-LIGAND FREE ENERGY PREDICTED BY IDOCK:   -0.76 KCAL/MOL
REMARK 927      BINDING AFFINITY PREDICTED BY RF-SCORE:    0.00 PKD
ROOT
HETATM    1  C   UNL     1     -12.862  14.954  73.444  1.00  0.00    -0.515 C  
HETATM    2  N   UNL     1     -13.194  14.433  72.040  1.00  0.00    -0.343 N  
HETATM    3  C   UNL     1     -13.531  12.948  72.162  1.00  0.00    -0.522 C  
HETATM    4  C   UNL     1     -14.407  15.199  71.524  1.00  0.00    -0.559 C  
ENDROOT
BRANCH   2   5
HETATM    5  C   UNL     1     -11.954  14.654  71.141  1.00  0.00    -0.346 C  
BRANCH   5   6
HETATM    6  C   UNL     1     -12.248  14.546  69.634  1.00  0.00    -0.292 C  
BRANCH   6   7
HETATM    7  O   UNL     1     -11.537  15.512  68.837  1.00  0.00    -0.332 OA 
BRANCH   7   8
HETATM    8  C   UNL     1     -11.224  15.091  67.580  1.00  0.00    -0.326 C  
HETATM    9  O   UNL     1     -10.237  15.469  66.966  1.00  0.00    -0.260 OA 
BRANCH   8  10
HETATM   10  C   UNL     1     -12.158  14.004  67.115  1.00  0.00    -0.436 C  
BRANCH  10  11
HETATM   11  C   UNL     1     -12.588  14.185  65.672  1.00  0.00    -0.495 C  
BRANCH  11  12
HETATM   12  C   UNL     1     -12.448  12.923  64.863  1.00  0.00    -0.478 C  
HETATM   13  O   UNL     1     -12.784  12.806  63.692  1.00  0.00    -0.707 OA 
BRANCH  12  14
HETATM   14  O   UNL     1     -12.020  11.883  65.630  1.00  0.00    -0.429 OA 
BRANCH  14  15
HETATM   15  C   UNL     1     -10.733  11.352  65.258  1.00  0.00    -0.265 C  
BRANCH  15  16
HETATM   16  C   UNL     1     -10.189  10.306  66.246  1.00  0.00    -0.221 C  
BRANCH  16  17
HETATM   17  N   UNL     1      -9.282  10.902  67.353  1.00  0.00    -0.147 N  
HETATM   18  C   UNL     1     -10.048  11.123  68.651  1.00  0.00    -0.200 C  
HETATM   19  C   UNL     1      -8.765  12.260  66.865  1.00  0.00    -0.197 C  
HETATM   20  C   UNL     1      -8.071  10.008  67.613  1.00  0.00    -0.110 C  
ENDBRANCH  16  17
ENDBRANCH  15  16
ENDBRANCH  14  15
ENDBRANCH  12  14
ENDBRANCH  11  12
ENDBRANCH  10  11
ENDBRANCH   8  10
ENDBRANCH   7   8
ENDBRANCH   6   7
ENDBRANCH   5   6
ENDBRANCH   2   5
TORSDOF 11
ENDMDL
MODEL       18
REMARK 921   NORMALIZED FREE ENERGY PREDICTED BY IDOCK:   -4.35 KCAL/MOL
REMARK 922        TOTAL FREE ENERGY PREDICTED BY IDOCK:   -7.91 KCAL/MOL
REMARK 923 INTER-LIGAND FREE ENERGY PREDICTED BY IDOCK:   -7.39 KCAL/MOL
REMARK 924 INTRA-LIGAND FREE ENERGY PREDICTED BY IDOCK:   -0.52 KCAL/MOL
REMARK 927      BINDING AFFINITY PREDICTED BY RF-SCORE:    0.00 PKD
ROOT
HETATM    1  C   UNL     1     -12.069  11.735  63.573  1.00  0.00    -0.379 C  
HETATM    2  N   UNL     1     -10.635  11.765  64.117  1.00  0.00    -0.320 N  
HETATM    3  C   UNL     1     -10.616  10.974  65.424  1.00  0.00    -0.202 C  
HETATM    4  C   UNL     1      -9.724  11.098  63.094  1.00  0.00    -0.376 C  
ENDROOT
BRANCH   2   5
HETATM    5  C   UNL     1     -10.244  13.244  64.354  1.00  0.00    -0.277 C  
BRANCH   5   6
HETATM    6  C   UNL     1     -11.428  14.150  64.736  1.00  0.00    -0.383 C  
BRANCH   6   7
HETATM    7  O   UNL     1     -11.094  15.154  65.713  1.00  0.00    -0.342 OA 
BRANCH   7   8
HETATM    8  C   UNL     1     -10.824  16.384  65.192  1.00  0.00    -0.275 C  
HETATM    9  O   UNL     1     -11.241  16.768  64.110  1.00  0.00    -1.155 OA 
BRANCH   8  10
HETATM   10  C   UNL     1     -10.080  17.247  66.178  1.00  0.00    -0.312 C  
BRANCH  10  11
HETATM   11  C   UNL     1      -9.528  16.451  67.347  1.00  0.00    -0.227 C  
BRANCH  11  12
HETATM   12  C   UNL     1     -10.137  16.858  68.662  1.00  0.00    -0.291 C  
HETATM   13  O   UNL     1     -10.326  18.015  69.013  1.00  0.00    -0.350 OA 
BRANCH  12  14
HETATM   14  O   UNL     1     -10.335  15.784  69.475  1.00  0.00    -0.233 OA 
BRANCH  14  15
HETATM   15  C   UNL     1     -11.460  15.905  70.367  1.00  0.00    -0.378 C  
BRANCH  15  16
HETATM   16  C   UNL     1     -11.805  14.599  71.104  1.00  0.00    -0.323 C  
BRANCH  16  17
HETATM   17  N   UNL     1     -13.100  14.682  71.952  1.00  0.00    -0.314 N  
HETATM   18  C   UNL     1     -13.458  13.334  72.568  1.00  0.00    -0.516 C  
HETATM   19  C   UNL     1     -14.248  15.105  71.028  1.00  0.00    -0.209 C  
HETATM   20  C   UNL     1     -12.972  15.735  73.051  1.00  0.00    -0.525 C  
ENDBRANCH  16  17
ENDBRANCH  15  16
ENDBRANCH  14  15
ENDBRANCH  12  14
ENDBRANCH  11  12
ENDBRANCH  10  11
ENDBRANCH   8  10
ENDBRANCH   7   8
ENDBRANCH   6   7
ENDBRANCH   5   6
ENDBRANCH   2   5
TORSDOF 11
ENDMDL
MODEL       19
REMARK 921   NORMALIZED FREE ENERGY PREDICTED BY IDOCK:   -4.35 KCAL/MOL
REMARK 922        TOTAL FREE ENERGY PREDICTED BY IDOCK:   -7.90 KCAL/MOL
REMARK 923 INTER-LIGAND FREE ENERGY PREDICTED BY IDOCK:   -7.32 KCAL/MOL
REMARK 924 INTRA-LIGAND FREE ENERGY PREDICTED BY IDOCK:   -0.58 KCAL/MOL
REMARK 927      BINDING AFFINITY PREDICTED BY RF-SCORE:    0.00 PKD
ROOT
HETATM    1  C   UNL     1     -12.214  12.291  63.627  1.00  0.00    -0.567 C  
HETATM    2  N   UNL     1     -11.286  12.545  64.821  1.00  0.00    -0.296 N  
HETATM    3  C   UNL     1     -10.290  11.388  64.892  1.00  0.00    -0.292 C  
HETATM    4  C   UNL     1     -10.543  13.853  64.576  1.00  0.00    -0.354 C  
ENDROOT
BRANCH   2   5
HETATM    5  C   UNL     1     -12.156  12.613  66.099  1.00  0.00    -0.333 C  
BRANCH   5   6
HETATM    6  C   UNL     1     -11.906  13.864  66.960  1.00  0.00    -0.415 C  
BRANCH   6   7
HETATM    7  O   UNL     1     -11.762  13.578  68.364  1.00  0.00    -0.315 OA 
BRANCH   7   8
HETATM    8  C   UNL     1     -11.813  14.673  69.174  1.00  0.00    -0.312 C  
HETATM    9  O   UNL     1     -11.597  15.812  68.787  1.00  0.00    -0.363 OA 
BRANCH   8  10
HETATM   10  C   UNL     1     -12.308  14.315  70.551  1.00  0.00    -0.430 C  
BRANCH  10  11
HETATM   11  C   UNL     1     -12.333  12.817  70.789  1.00  0.00    -0.375 C  
BRANCH  11  12
HETATM   12  C   UNL     1     -13.287  12.420  71.884  1.00  0.00    -0.349 C  
HETATM   13  O   UNL     1     -13.906  13.209  72.586  1.00  0.00    -0.691 OA 
BRANCH  12  14
HETATM   14  O   UNL     1     -13.283  11.074  72.088  1.00  0.00    -0.481 OA 
BRANCH  14  15
HETATM   15  C   UNL     1     -12.403  10.338  71.216  1.00  0.00    -0.403 C  
BRANCH  15  16
HETATM   16  C   UNL     1     -11.728   9.134  71.896  1.00  0.00    -0.366 C  
BRANCH  16  17
HETATM   17  N   UNL     1     -10.957   8.212  70.917  1.00  0.00    -0.238 N  
HETATM   18  C   UNL     1      -9.586   7.831  71.463  1.00  0.00    -0.155 C  
HETATM   19  C   UNL     1     -10.753   8.977  69.604  1.00  0.00    -0.219 C  
HETATM   20  C   UNL     1     -11.758   6.950  70.602  1.00  0.00    -0.367 C  
ENDBRANCH  16  17
ENDBRANCH  15  16
ENDBRANCH  14  15
ENDBRANCH  12  14
ENDBRANCH  11  12
ENDBRANCH  10  11
ENDBRANCH   8  10
ENDBRANCH   7   8
ENDBRANCH   6   7
ENDBRANCH   5   6
ENDBRANCH   2   5
TORSDOF 11
ENDMDL
MODEL       20
REMARK 921   NORMALIZED FREE ENERGY PREDICTED BY IDOCK:   -4.35 KCAL/MOL
REMARK 922        TOTAL FREE ENERGY PREDICTED BY IDOCK:   -7.90 KCAL/MOL
REMARK 923 INTER-LIGAND FREE ENERGY PREDICTED BY IDOCK:   -7.12 KCAL/MOL
REMARK 924 INTRA-LIGAND FREE ENERGY PREDICTED BY IDOCK:   -0.78 KCAL/MOL
REMARK 927      BINDING AFFINITY PREDICTED BY RF-SCORE:    0.00 PKD
ROOT
HETATM    1  C   UNL     1     -10.999  15.316  65.100  1.00  0.00    -0.416 C  
HETATM    2  N   UNL     1     -10.697  15.098  66.588  1.00  0.00    -0.306 N  
HETATM    3  C   UNL     1      -9.352  14.379  66.690  1.00  0.00    -0.278 C  
HETATM    4  C   UNL     1     -10.607  16.463  67.260  1.00  0.00    -0.293 C  
ENDROOT
BRANCH   2   5
HETATM    5  C   UNL     1     -11.837  14.239  67.187  1.00  0.00    -0.425 C  
BRANCH   5   6
HETATM    6  C   UNL     1     -11.952  12.834  66.569  1.00  0.00    -0.358 C  
BRANCH   6   7
HETATM    7  O   UNL     1     -12.087  11.784  67.546  1.00  0.00    -0.599 OA 
BRANCH   7   8
HETATM    8  C   UNL     1     -11.126  10.821  67.480  1.00  0.00    -0.308 C  
HETATM    9  O   UNL     1     -10.308  10.741  66.575  1.00  0.00    -0.231 OA 
BRANCH   8  10
HETATM   10  C   UNL     1     -11.112   9.972  68.725  1.00  0.00    -0.219 C  
BRANCH  10  11
HETATM   11  C   UNL     1     -11.077  10.803  69.994  1.00  0.00    -0.327 C  
BRANCH  11  12
HETATM   12  C   UNL     1     -11.938  10.228  71.086  1.00  0.00    -0.376 C  
HETATM   13  O   UNL     1     -11.726   9.164  71.652  1.00  0.00    -0.328 OA 
BRANCH  12  14
HETATM   14  O   UNL     1     -13.061  10.973  71.282  1.00  0.00    -0.373 OA 
BRANCH  14  15
HETATM   15  C   UNL     1     -12.877  12.391  71.111  1.00  0.00    -0.205 C  
BRANCH  15  16
HETATM   16  C   UNL     1     -13.066  13.198  72.407  1.00  0.00    -0.308 C  
BRANCH  16  17
HETATM   17  N   UNL     1     -12.935  14.731  72.217  1.00  0.00    -0.321 N  
HETATM   18  C   UNL     1     -11.691  15.096  71.415  1.00  0.00    -0.374 C  
HETATM   19  C   UNL     1     -12.817  15.375  73.603  1.00  0.00    -0.548 C  
HETATM   20  C   UNL     1     -14.175  15.309  71.538  1.00  0.00    -0.526 C  
ENDBRANCH  16  17
ENDBRANCH  15  16
ENDBRANCH  14  15
ENDBRANCH  12  14
ENDBRANCH  11  12
ENDBRANCH  10  11
ENDBRANCH   8  10
ENDBRANCH   7   8
ENDBRANCH   6   7
ENDBRANCH   5   6
ENDBRANCH   2   5
TORSDOF 11
ENDMDL
MODEL       21
REMARK 921   NORMALIZED FREE ENERGY PREDICTED BY IDOCK:   -4.34 KCAL/MOL
REMARK 922        TOTAL FREE ENERGY PREDICTED BY IDOCK:   -7.88 KCAL/MOL
REMARK 923 INTER-LIGAND FREE ENERGY PREDICTED BY IDOCK:   -7.35 KCAL/MOL
REMARK 924 INTRA-LIGAND FREE ENERGY PREDICTED BY IDOCK:   -0.53 KCAL/MOL
REMARK 927      BINDING AFFINITY PREDICTED BY RF-SCORE:    0.00 PKD
ROOT
HETATM    1  C   UNL     1      -8.560  17.125  68.111  1.00  0.00    -0.232 C  
HETATM    2  N   UNL     1      -9.749  17.036  67.145  1.00  0.00    -0.252 N  
HETATM    3  C   UNL     1     -11.004  16.768  67.975  1.00  0.00    -0.296 C  
HETATM    4  C   UNL     1      -9.878  18.373  66.426  1.00  0.00    -0.360 C  
ENDROOT
BRANCH   2   5
HETATM    5  C   UNL     1      -9.476  15.878  66.155  1.00  0.00    -0.340 C  
BRANCH   5   6
HETATM    6  C   UNL     1     -10.648  15.582  65.202  1.00  0.00    -0.431 C  
BRANCH   6   7
HETATM    7  O   UNL     1     -10.656  14.232  64.700  1.00  0.00    -0.421 OA 
BRANCH   7   8
HETATM    8  C   UNL     1     -11.886  13.765  64.347  1.00  0.00    -0.427 C  
HETATM    9  O   UNL     1     -12.475  14.110  63.333  1.00  0.00    -0.797 OA 
BRANCH   8  10
HETATM   10  C   UNL     1     -12.349  12.676  65.279  1.00  0.00    -0.528 C  
BRANCH  10  11
HETATM   11  C   UNL     1     -11.294  12.300  66.303  1.00  0.00    -0.395 C  
BRANCH  11  12
HETATM   12  C   UNL     1     -11.765  12.500  67.719  1.00  0.00    -0.359 C  
HETATM   13  O   UNL     1     -11.687  13.554  68.336  1.00  0.00    -0.315 OA 
BRANCH  12  14
HETATM   14  O   UNL     1     -12.174  11.328  68.280  1.00  0.00    -0.611 OA 
BRANCH  14  15
HETATM   15  C   UNL     1     -11.105  10.435  68.649  1.00  0.00    -0.262 C  
BRANCH  15  16
HETATM   16  C   UNL     1     -10.781  10.450  70.153  1.00  0.00    -0.233 C  
BRANCH  16  17
HETATM   17  N   UNL     1     -10.902   9.063  70.835  1.00  0.00    -0.237 N  
HETATM   18  C   UNL     1      -9.805   8.846  71.870  1.00  0.00    -0.294 C  
HETATM   19  C   UNL     1     -10.758   7.987  69.753  1.00  0.00    -0.231 C  
HETATM   20  C   UNL     1     -12.272   8.889  71.488  1.00  0.00    -0.327 C  
ENDBRANCH  16  17
ENDBRANCH  15  16
ENDBRANCH  14  15
ENDBRANCH  12  14
ENDBRANCH  11  12
ENDBRANCH  10  11
ENDBRANCH   8  10
ENDBRANCH   7   8
ENDBRANCH   6   7
ENDBRANCH   5   6
ENDBRANCH   2   5
TORSDOF 11
ENDMDL
MODEL       22
REMARK 921   NORMALIZED FREE ENERGY PREDICTED BY IDOCK:   -4.33 KCAL/MOL
REMARK 922        TOTAL FREE ENERGY PREDICTED BY IDOCK:   -7.87 KCAL/MOL
REMARK 923 INTER-LIGAND FREE ENERGY PREDICTED BY IDOCK:   -7.05 KCAL/MOL
REMARK 924 INTRA-LIGAND FREE ENERGY PREDICTED BY IDOCK:   -0.83 KCAL/MOL
REMARK 927      BINDING AFFINITY PREDICTED BY RF-SCORE:    0.00 PKD
ROOT
HETATM    1  C   UNL     1     -11.315   6.345  71.222  1.00  0.00    -0.306 C  
HETATM    2  N   UNL     1     -11.397   7.856  71.478  1.00  0.00    -0.251 N  
HETATM    3  C   UNL     1     -10.390   8.197  72.575  1.00  0.00    -0.330 C  
HETATM    4  C   UNL     1     -11.023   8.577  70.188  1.00  0.00    -0.216 C  
ENDROOT
BRANCH   2   5
HETATM    5  C   UNL     1     -12.842   8.189  71.922  1.00  0.00    -0.335 C  
BRANCH   5   6
HETATM    6  C   UNL     1     -13.385   9.507  71.342  1.00  0.00    -0.361 C  
BRANCH   6   7
HETATM    7  O   UNL     1     -13.309  10.615  72.260  1.00  0.00    -0.386 OA 
BRANCH   7   8
HETATM    8  C   UNL     1     -12.997  11.809  71.683  1.00  0.00    -0.362 C  
HETATM    9  O   UNL     1     -12.270  11.920  70.706  1.00  0.00    -0.376 OA 
BRANCH   8  10
HETATM   10  C   UNL     1     -13.773  12.941  72.306  1.00  0.00    -0.553 C  
BRANCH  10  11
HETATM   11  C   UNL     1     -12.924  14.181  72.514  1.00  0.00    -0.498 C  
BRANCH  11  12
HETATM   12  C   UNL     1     -13.270  15.287  71.553  1.00  0.00    -0.459 C  
HETATM   13  O   UNL     1     -14.409  15.659  71.303  1.00  0.00    -0.521 OA 
BRANCH  12  14
HETATM   14  O   UNL     1     -12.168  15.741  70.895  1.00  0.00    -0.388 OA 
BRANCH  14  15
HETATM   15  C   UNL     1     -12.033  15.256  69.545  1.00  0.00    -0.330 C  
BRANCH  15  16
HETATM   16  C   UNL     1     -10.579  14.954  69.142  1.00  0.00    -0.246 C  
BRANCH  16  17
HETATM   17  N   UNL     1     -10.448  14.167  67.813  1.00  0.00    -0.244 N  
HETATM   18  C   UNL     1     -11.810  13.862  67.201  1.00  0.00    -0.412 C  
HETATM   19  C   UNL     1      -9.751  12.835  68.115  1.00  0.00    -0.223 C  
HETATM   20  C   UNL     1      -9.586  14.926  66.806  1.00  0.00    -0.251 C  
ENDBRANCH  16  17
ENDBRANCH  15  16
ENDBRANCH  14  15
ENDBRANCH  12  14
ENDBRANCH  11  12
ENDBRANCH  10  11
ENDBRANCH   8  10
ENDBRANCH   7   8
ENDBRANCH   6   7
ENDBRANCH   5   6
ENDBRANCH   2   5
TORSDOF 11
ENDMDL
MODEL       23
REMARK 921   NORMALIZED FREE ENERGY PREDICTED BY IDOCK:   -4.33 KCAL/MOL
REMARK 922        TOTAL FREE ENERGY PREDICTED BY IDOCK:   -7.86 KCAL/MOL
REMARK 923 INTER-LIGAND FREE ENERGY PREDICTED BY IDOCK:   -7.02 KCAL/MOL
REMARK 924 INTRA-LIGAND FREE ENERGY PREDICTED BY IDOCK:   -0.84 KCAL/MOL
REMARK 927      BINDING AFFINITY PREDICTED BY RF-SCORE:    0.00 PKD
ROOT
HETATM    1  C   UNL     1      -8.973  10.503  69.121  1.00  0.00    -0.161 C  
HETATM    2  N   UNL     1     -10.384  10.652  68.538  1.00  0.00    -0.174 N  
HETATM    3  C   UNL     1     -10.637   9.457  67.620  1.00  0.00    -0.271 C  
HETATM    4  C   UNL     1     -11.379  10.640  69.692  1.00  0.00    -0.294 C  
ENDROOT
BRANCH   2   5
HETATM    5  C   UNL     1     -10.439  11.983  67.750  1.00  0.00    -0.203 C  
BRANCH   5   6
HETATM    6  C   UNL     1     -10.855  11.820  66.276  1.00  0.00    -0.281 C  
BRANCH   6   7
HETATM    7  O   UNL     1     -12.207  12.238  66.010  1.00  0.00    -0.646 OA 
BRANCH   7   8
HETATM    8  C   UNL     1     -12.456  12.555  64.708  1.00  0.00    -0.457 C  
HETATM    9  O   UNL     1     -13.444  12.177  64.097  1.00  0.00    -0.671 OA 
BRANCH   8  10
HETATM   10  C   UNL     1     -11.446  13.540  64.179  1.00  0.00    -0.394 C  
BRANCH  10  11
HETATM   11  C   UNL     1     -11.679  14.947  64.698  1.00  0.00    -0.406 C  
BRANCH  11  12
HETATM   12  C   UNL     1     -10.417  15.592  65.207  1.00  0.00    -0.412 C  
HETATM   13  O   UNL     1      -9.505  14.994  65.761  1.00  0.00    -0.319 OA 
BRANCH  12  14
HETATM   14  O   UNL     1     -10.468  16.948  65.092  1.00  0.00    -0.663 OA 
BRANCH  14  15
HETATM   15  C   UNL     1     -10.393  17.660  66.342  1.00  0.00    -0.345 C  
BRANCH  15  16
HETATM   16  C   UNL     1      -9.267  18.707  66.389  1.00  0.00    -0.291 C  
BRANCH  16  17
HETATM   17  N   UNL     1      -8.030  18.262  67.210  1.00  0.00    -0.222 N  
HETATM   18  C   UNL     1      -7.327  19.449  67.859  1.00  0.00    -0.260 C  
HETATM   19  C   UNL     1      -7.042  17.585  66.254  1.00  0.00    -0.305 C  
HETATM   20  C   UNL     1      -8.418  17.243  68.280  1.00  0.00    -0.243 C  
ENDBRANCH  16  17
ENDBRANCH  15  16
ENDBRANCH  14  15
ENDBRANCH  12  14
ENDBRANCH  11  12
ENDBRANCH  10  11
ENDBRANCH   8  10
ENDBRANCH   7   8
ENDBRANCH   6   7
ENDBRANCH   5   6
ENDBRANCH   2   5
TORSDOF 11
ENDMDL
MODEL       24
REMARK 921   NORMALIZED FREE ENERGY PREDICTED BY IDOCK:   -4.32 KCAL/MOL
REMARK 922        TOTAL FREE ENERGY PREDICTED BY IDOCK:   -7.84 KCAL/MOL
REMARK 923 INTER-LIGAND FREE ENERGY PREDICTED BY IDOCK:   -7.16 KCAL/MOL
REMARK 924 INTRA-LIGAND FREE ENERGY PREDICTED BY IDOCK:   -0.68 KCAL/MOL
REMARK 927      BINDING AFFINITY PREDICTED BY RF-SCORE:    0.00 PKD
ROOT
HETATM    1  C   UNL     1     -10.034   9.705  68.008  1.00  0.00    -0.160 C  
HETATM    2  N   UNL     1      -9.415  10.025  66.641  1.00  0.00    -0.166 N  
HETATM    3  C   UNL     1      -7.995  10.535  66.880  1.00  0.00    -0.121 C  
HETATM    4  C   UNL     1      -9.374   8.739  65.825  1.00  0.00    -0.191 C  
ENDROOT
BRANCH   2   5
HETATM    5  C   UNL     1     -10.290  11.106  65.960  1.00  0.00    -0.254 C  
BRANCH   5   6
HETATM    6  C   UNL     1     -10.456  10.911  64.442  1.00  0.00    -0.333 C  
BRANCH   6   7
HETATM    7  O   UNL     1     -10.845  12.110  63.746  1.00  0.00    -0.352 OA 
BRANCH   7   8
HETATM    8  C   UNL     1     -12.152  12.460  63.906  1.00  0.00    -0.499 C  
HETATM    9  O   UNL     1     -13.078  11.893  63.345  1.00  0.00    -0.710 OA 
BRANCH   8  10
HETATM   10  C   UNL     1     -12.312  13.521  64.964  1.00  0.00    -0.468 C  
BRANCH  10  11
HETATM   11  C   UNL     1     -12.485  14.908  64.373  1.00  0.00    -0.227 C  
BRANCH  11  12
HETATM   12  C   UNL     1     -11.281  15.785  64.591  1.00  0.00    -0.363 C  
HETATM   13  O   UNL     1     -11.189  16.946  64.217  1.00  0.00    -1.204 OA 
BRANCH  12  14
HETATM   14  O   UNL     1     -10.249  15.088  65.144  1.00  0.00    -0.379 OA 
BRANCH  14  15
HETATM   15  C   UNL     1      -9.666  15.703  66.309  1.00  0.00    -0.301 C  
BRANCH  15  16
HETATM   16  C   UNL     1     -10.667  15.921  67.458  1.00  0.00    -0.318 C  
BRANCH  16  17
HETATM   17  N   UNL     1     -10.608  14.829  68.556  1.00  0.00    -0.242 N  
HETATM   18  C   UNL     1     -11.885  13.998  68.595  1.00  0.00    -0.361 C  
HETATM   19  C   UNL     1     -10.449  15.526  69.912  1.00  0.00    -0.313 C  
HETATM   20  C   UNL     1      -9.401  13.913  68.358  1.00  0.00    -0.201 C  
ENDBRANCH  16  17
ENDBRANCH  15  16
ENDBRANCH  14  15
ENDBRANCH  12  14
ENDBRANCH  11  12
ENDBRANCH  10  11
ENDBRANCH   8  10
ENDBRANCH   7   8
ENDBRANCH   6   7
ENDBRANCH   5   6
ENDBRANCH   2   5
TORSDOF 11
ENDMDL
MODEL       25
REMARK 921   NORMALIZED FREE ENERGY PREDICTED BY IDOCK:   -4.31 KCAL/MOL
REMARK 922        TOTAL FREE ENERGY PREDICTED BY IDOCK:   -7.84 KCAL/MOL
REMARK 923 INTER-LIGAND FREE ENERGY PREDICTED BY IDOCK:   -7.35 KCAL/MOL
REMARK 924 INTRA-LIGAND FREE ENERGY PREDICTED BY IDOCK:   -0.49 KCAL/MOL
REMARK 927      BINDING AFFINITY PREDICTED BY RF-SCORE:    0.00 PKD
ROOT
HETATM    1  C   UNL     1      -8.695   9.301  67.841  1.00  0.00    -0.124 C  
HETATM    2  N   UNL     1     -10.028   9.230  67.084  1.00  0.00    -0.200 N  
HETATM    3  C   UNL     1      -9.754   9.587  65.624  1.00  0.00    -0.290 C  
HETATM    4  C   UNL     1     -10.553   7.802  67.180  1.00  0.00    -0.331 C  
ENDROOT
BRANCH   2   5
HETATM    5  C   UNL     1     -11.002  10.242  67.733  1.00  0.00    -0.300 C  
BRANCH   5   6
HETATM    6  C   UNL     1     -10.840  11.684  67.219  1.00  0.00    -0.256 C  
BRANCH   6   7
HETATM    7  O   UNL     1     -12.072  12.279  66.770  1.00  0.00    -0.593 OA 
BRANCH   7   8
HETATM    8  C   UNL     1     -12.077  13.641  66.766  1.00  0.00    -0.399 C  
HETATM    9  O   UNL     1     -11.705  14.322  67.710  1.00  0.00    -0.336 OA 
BRANCH   8  10
HETATM   10  C   UNL     1     -12.453  14.186  65.412  1.00  0.00    -0.488 C  
BRANCH  10  11
HETATM   11  C   UNL     1     -11.242  14.571  64.584  1.00  0.00    -0.359 C  
BRANCH  11  12
HETATM   12  C   UNL     1     -10.767  15.971  64.869  1.00  0.00    -0.316 C  
HETATM   13  O   UNL     1     -11.277  16.985  64.411  1.00  0.00    -1.167 OA 
BRANCH  12  14
HETATM   14  O   UNL     1      -9.617  15.971  65.598  1.00  0.00    -0.384 OA 
BRANCH  14  15
HETATM   15  C   UNL     1      -9.612  16.886  66.711  1.00  0.00    -0.262 C  
BRANCH  15  16
HETATM   16  C   UNL     1      -8.999  18.257  66.378  1.00  0.00    -0.243 C  
BRANCH  16  17
HETATM   17  N   UNL     1      -9.140  19.300  67.515  1.00  0.00    -0.293 N  
HETATM   18  C   UNL     1      -7.800  19.932  67.871  1.00  0.00    -0.292 C  
HETATM   19  C   UNL     1      -9.675  18.580  68.759  1.00  0.00    -0.357 C  
HETATM   20  C   UNL     1     -10.142  20.390  67.141  1.00  0.00    -0.362 C  
ENDBRANCH  16  17
ENDBRANCH  15  16
ENDBRANCH  14  15
ENDBRANCH  12  14
ENDBRANCH  11  12
ENDBRANCH  10  11
ENDBRANCH   8  10
ENDBRANCH   7   8
ENDBRANCH   6   7
ENDBRANCH   5   6
ENDBRANCH   2   5
TORSDOF 11
ENDMDL
MODEL       26
REMARK 921   NORMALIZED FREE ENERGY PREDICTED BY IDOCK:   -4.31 KCAL/MOL
REMARK 922        TOTAL FREE ENERGY PREDICTED BY IDOCK:   -7.83 KCAL/MOL
REMARK 923 INTER-LIGAND FREE ENERGY PREDICTED BY IDOCK:   -7.16 KCAL/MOL
REMARK 924 INTRA-LIGAND FREE ENERGY PREDICTED BY IDOCK:   -0.67 KCAL/MOL
REMARK 927      BINDING AFFINITY PREDICTED BY RF-SCORE:    0.00 PKD
ROOT
HETATM    1  C   UNL     1     -12.770  15.029  73.617  1.00  0.00    -0.512 C  
HETATM    2  N   UNL     1     -13.181  14.581  72.209  1.00  0.00    -0.358 N  
HETATM    3  C   UNL     1     -14.346  15.463  71.761  1.00  0.00    -0.531 C  
HETATM    4  C   UNL     1     -11.990  14.783  71.279  1.00  0.00    -0.349 C  
ENDROOT
BRANCH   2   5
HETATM    5  C   UNL     1     -13.602  13.094  72.283  1.00  0.00    -0.581 C  
BRANCH   5   6
HETATM    6  C   UNL     1     -12.782  12.165  71.369  1.00  0.00    -0.263 C  
BRANCH   6   7
HETATM    7  O   UNL     1     -12.941  10.767  71.675  1.00  0.00    -0.430 OA 
BRANCH   7   8
HETATM    8  C   UNL     1     -12.129   9.935  70.964  1.00  0.00    -0.358 C  
HETATM    9  O   UNL     1     -12.057   8.731  71.159  1.00  0.00    -0.291 OA 
BRANCH   8  10
HETATM   10  C   UNL     1     -11.456  10.661  69.828  1.00  0.00    -0.375 C  
BRANCH  10  11
HETATM   11  C   UNL     1     -10.198   9.958  69.354  1.00  0.00    -0.231 C  
BRANCH  11  12
HETATM   12  C   UNL     1     -10.254   9.590  67.896  1.00  0.00    -0.205 C  
HETATM   13  O   UNL     1     -10.778   8.576  67.454  1.00  0.00    -0.264 OA 
BRANCH  12  14
HETATM   14  O   UNL     1      -9.537  10.460  67.132  1.00  0.00    -0.160 OA 
BRANCH  14  15
HETATM   15  C   UNL     1     -10.208  10.906  65.938  1.00  0.00    -0.257 C  
BRANCH  15  16
HETATM   16  C   UNL     1     -11.313  11.944  66.203  1.00  0.00    -0.324 C  
BRANCH  16  17
HETATM   17  N   UNL     1     -11.565  12.908  65.016  1.00  0.00    -0.318 N  
HETATM   18  C   UNL     1     -11.987  12.156  63.759  1.00  0.00    -0.513 C  
HETATM   19  C   UNL     1     -10.256  13.646  64.716  1.00  0.00    -0.337 C  
HETATM   20  C   UNL     1     -12.620  13.954  65.372  1.00  0.00    -0.507 C  
ENDBRANCH  16  17
ENDBRANCH  15  16
ENDBRANCH  14  15
ENDBRANCH  12  14
ENDBRANCH  11  12
ENDBRANCH  10  11
ENDBRANCH   8  10
ENDBRANCH   7   8
ENDBRANCH   6   7
ENDBRANCH   5   6
ENDBRANCH   2   5
TORSDOF 11
ENDMDL
MODEL       27
REMARK 921   NORMALIZED FREE ENERGY PREDICTED BY IDOCK:   -4.30 KCAL/MOL
REMARK 922        TOTAL FREE ENERGY PREDICTED BY IDOCK:   -7.82 KCAL/MOL
REMARK 923 INTER-LIGAND FREE ENERGY PREDICTED BY IDOCK:   -7.40 KCAL/MOL
REMARK 924 INTRA-LIGAND FREE ENERGY PREDICTED BY IDOCK:   -0.42 KCAL/MOL
REMARK 927      BINDING AFFINITY PREDICTED BY RF-SCORE:    0.00 PKD
ROOT
HETATM    1  C   UNL     1     -10.533   8.655  69.423  1.00  0.00    -0.218 C  
HETATM    2  N   UNL     1     -10.423  10.080  68.865  1.00  0.00    -0.200 N  
HETATM    3  C   UNL     1     -11.484  10.934  69.555  1.00  0.00    -0.301 C  
HETATM    4  C   UNL     1      -9.033  10.613  69.194  1.00  0.00    -0.128 C  
ENDROOT
BRANCH   2   5
HETATM    5  C   UNL     1     -10.663  10.016  67.337  1.00  0.00    -0.274 C  
BRANCH   5   6
HETATM    6  C   UNL     1     -11.140  11.345  66.723  1.00  0.00    -0.281 C  
BRANCH   6   7
HETATM    7  O   UNL     1     -11.106  11.360  65.284  1.00  0.00    -0.230 OA 
BRANCH   7   8
HETATM    8  C   UNL     1     -11.848  12.348  64.709  1.00  0.00    -0.382 C  
HETATM    9  O   UNL     1     -13.059  12.282  64.553  1.00  0.00    -0.791 OA 
BRANCH   8  10
HETATM   10  C   UNL     1     -11.014  13.572  64.433  1.00  0.00    -0.399 C  
BRANCH  10  11
HETATM   11  C   UNL     1     -11.300  14.701  65.405  1.00  0.00    -0.344 C  
BRANCH  11  12
HETATM   12  C   UNL     1     -11.053  16.059  64.803  1.00  0.00    -0.365 C  
HETATM   13  O   UNL     1     -11.651  16.509  63.834  1.00  0.00    -1.175 OA 
BRANCH  12  14
HETATM   14  O   UNL     1      -9.992  16.680  65.387  1.00  0.00    -0.565 OA 
BRANCH  14  15
HETATM   15  C   UNL     1     -10.339  17.594  66.445  1.00  0.00    -0.345 C  
BRANCH  15  16
HETATM   16  C   UNL     1      -9.327  17.608  67.604  1.00  0.00    -0.246 C  
BRANCH  16  17
HETATM   17  N   UNL     1      -8.124  18.558  67.375  1.00  0.00    -0.239 N  
HETATM   18  C   UNL     1      -7.576  19.100  68.690  1.00  0.00    -0.346 C  
HETATM   19  C   UNL     1      -8.609  19.745  66.534  1.00  0.00    -0.354 C  
HETATM   20  C   UNL     1      -7.010  17.859  66.599  1.00  0.00    -0.213 C  
ENDBRANCH  16  17
ENDBRANCH  15  16
ENDBRANCH  14  15
ENDBRANCH  12  14
ENDBRANCH  11  12
ENDBRANCH  10  11
ENDBRANCH   8  10
ENDBRANCH   7   8
ENDBRANCH   6   7
ENDBRANCH   5   6
ENDBRANCH   2   5
TORSDOF 11
ENDMDL
MODEL       28
REMARK 921   NORMALIZED FREE ENERGY PREDICTED BY IDOCK:   -4.30 KCAL/MOL
REMARK 922        TOTAL FREE ENERGY PREDICTED BY IDOCK:   -7.81 KCAL/MOL
REMARK 923 INTER-LIGAND FREE ENERGY PREDICTED BY IDOCK:   -7.43 KCAL/MOL
REMARK 924 INTRA-LIGAND FREE ENERGY PREDICTED BY IDOCK:   -0.39 KCAL/MOL
REMARK 927      BINDING AFFINITY PREDICTED BY RF-SCORE:    0.00 PKD
ROOT
HETATM    1  C   UNL     1     -11.750   7.265  70.650  1.00  0.00    -0.275 C  
HETATM    2  N   UNL     1     -11.278   8.684  70.996  1.00  0.00    -0.261 N  
HETATM    3  C   UNL     1     -10.092   8.560  71.951  1.00  0.00    -0.297 C  
HETATM    4  C   UNL     1     -10.836   9.365  69.706  1.00  0.00    -0.232 C  
ENDROOT
BRANCH   2   5
HETATM    5  C   UNL     1     -12.458   9.432  71.663  1.00  0.00    -0.378 C  
BRANCH   5   6
HETATM    6  C   UNL     1     -12.536  10.925  71.298  1.00  0.00    -0.421 C  
BRANCH   6   7
HETATM    7  O   UNL     1     -13.502  11.658  72.075  1.00  0.00    -0.411 OA 
BRANCH   7   8
HETATM    8  C   UNL     1     -13.402  13.013  71.973  1.00  0.00    -0.492 C  
HETATM    9  O   UNL     1     -13.941  13.792  72.745  1.00  0.00    -0.714 OA 
BRANCH   8  10
HETATM   10  C   UNL     1     -12.432  13.413  70.891  1.00  0.00    -0.439 C  
BRANCH  10  11
HETATM   11  C   UNL     1     -12.036  14.875  70.978  1.00  0.00    -0.376 C  
BRANCH  11  12
HETATM   12  C   UNL     1     -11.761  15.482  69.628  1.00  0.00    -0.357 C  
HETATM   13  O   UNL     1     -12.117  14.997  68.562  1.00  0.00    -0.257 OA 
BRANCH  12  14
HETATM   14  O   UNL     1     -10.955  16.575  69.725  1.00  0.00    -0.344 OA 
BRANCH  14  15
HETATM   15  C   UNL     1     -10.411  17.033  68.473  1.00  0.00    -0.373 C  
BRANCH  15  16
HETATM   16  C   UNL     1     -10.279  18.564  68.381  1.00  0.00    -0.372 C  
BRANCH  16  17
HETATM   17  N   UNL     1      -9.520  19.053  67.122  1.00  0.00    -0.301 N  
HETATM   18  C   UNL     1     -10.463  19.685  66.105  1.00  0.00    -0.524 C  
HETATM   19  C   UNL     1      -8.854  17.839  66.465  1.00  0.00    -0.262 C  
HETATM   20  C   UNL     1      -8.420  20.045  67.493  1.00  0.00    -0.339 C  
ENDBRANCH  16  17
ENDBRANCH  15  16
ENDBRANCH  14  15
ENDBRANCH  12  14
ENDBRANCH  11  12
ENDBRANCH  10  11
ENDBRANCH   8  10
ENDBRANCH   7   8
ENDBRANCH   6   7
ENDBRANCH   5   6
ENDBRANCH   2   5
TORSDOF 11
ENDMDL
MODEL       29
REMARK 921   NORMALIZED FREE ENERGY PREDICTED BY IDOCK:   -4.28 KCAL/MOL
REMARK 922        TOTAL FREE ENERGY PREDICTED BY IDOCK:   -7.78 KCAL/MOL
REMARK 923 INTER-LIGAND FREE ENERGY PREDICTED BY IDOCK:   -7.09 KCAL/MOL
REMARK 924 INTRA-LIGAND FREE ENERGY PREDICTED BY IDOCK:   -0.70 KCAL/MOL
REMARK 927      BINDING AFFINITY PREDICTED BY RF-SCORE:    0.00 PKD
ROOT
HETATM    1  C   UNL     1     -10.473  11.047  64.644  1.00  0.00    -0.329 C  
HETATM    2  N   UNL     1     -11.286  12.331  64.856  1.00  0.00    -0.311 N  
HETATM    3  C   UNL     1     -10.398  13.514  64.470  1.00  0.00    -0.358 C  
HETATM    4  C   UNL     1     -12.505  12.278  63.943  1.00  0.00    -0.485 C  
ENDROOT
BRANCH   2   5
HETATM    5  C   UNL     1     -11.691  12.400  66.348  1.00  0.00    -0.391 C  
BRANCH   5   6
HETATM    6  C   UNL     1     -11.161  13.645  67.083  1.00  0.00    -0.297 C  
BRANCH   6   7
HETATM    7  O   UNL     1     -12.117  14.232  67.986  1.00  0.00    -0.338 OA 
BRANCH   7   8
HETATM    8  C   UNL     1     -11.609  15.200  68.799  1.00  0.00    -0.349 C  
HETATM    9  O   UNL     1     -11.346  16.332  68.421  1.00  0.00    -0.367 OA 
BRANCH   8  10
HETATM   10  C   UNL     1     -11.557  14.742  70.234  1.00  0.00    -0.333 C  
BRANCH  10  11
HETATM   11  C   UNL     1     -12.901  14.246  70.734  1.00  0.00    -0.404 C  
BRANCH  11  12
HETATM   12  C   UNL     1     -12.844  12.828  71.238  1.00  0.00    -0.262 C  
HETATM   13  O   UNL     1     -13.412  12.424  72.243  1.00  0.00    -0.541 OA 
BRANCH  12  14
HETATM   14  O   UNL     1     -11.974  12.074  70.510  1.00  0.00    -0.351 OA 
BRANCH  14  15
HETATM   15  C   UNL     1     -12.351  10.690  70.372  1.00  0.00    -0.343 C  
BRANCH  15  16
HETATM   16  C   UNL     1     -11.277   9.707  70.869  1.00  0.00    -0.352 C  
BRANCH  16  17
HETATM   17  N   UNL     1     -11.854   8.394  71.457  1.00  0.00    -0.284 N  
HETATM   18  C   UNL     1     -13.350   8.506  71.728  1.00  0.00    -0.367 C  
HETATM   19  C   UNL     1     -11.146   8.117  72.789  1.00  0.00    -0.337 C  
HETATM   20  C   UNL     1     -11.584   7.210  70.531  1.00  0.00    -0.290 C  
ENDBRANCH  16  17
ENDBRANCH  15  16
ENDBRANCH  14  15
ENDBRANCH  12  14
ENDBRANCH  11  12
ENDBRANCH  10  11
ENDBRANCH   8  10
ENDBRANCH   7   8
ENDBRANCH   6   7
ENDBRANCH   5   6
ENDBRANCH   2   5
TORSDOF 11
ENDMDL
MODEL       30
REMARK 921   NORMALIZED FREE ENERGY PREDICTED BY IDOCK:   -4.27 KCAL/MOL
REMARK 922        TOTAL FREE ENERGY PREDICTED BY IDOCK:   -7.77 KCAL/MOL
REMARK 923 INTER-LIGAND FREE ENERGY PREDICTED BY IDOCK:   -6.92 KCAL/MOL
REMARK 924 INTRA-LIGAND FREE ENERGY PREDICTED BY IDOCK:   -0.85 KCAL/MOL
REMARK 927      BINDING AFFINITY PREDICTED BY RF-SCORE:    0.00 PKD
ROOT
HETATM    1  C   UNL     1     -10.602  17.243  68.579  1.00  0.00    -0.350 C  
HETATM    2  N   UNL     1     -10.011  18.175  67.513  1.00  0.00    -0.318 N  
HETATM    3  C   UNL     1     -10.854  19.449  67.490  1.00  0.00    -0.404 C  
HETATM    4  C   UNL     1      -8.579  18.508  67.914  1.00  0.00    -0.287 C  
ENDROOT
BRANCH   2   5
HETATM    5  C   UNL     1     -10.069  17.442  66.151  1.00  0.00    -0.300 C  
BRANCH   5   6
HETATM    6  C   UNL     1     -10.241  15.916  66.270  1.00  0.00    -0.311 C  
BRANCH   6   7
HETATM    7  O   UNL     1     -10.536  15.271  65.017  1.00  0.00    -0.399 OA 
BRANCH   7   8
HETATM    8  C   UNL     1     -11.860  15.228  64.698  1.00  0.00    -0.267 C  
HETATM    9  O   UNL     1     -12.361  15.883  63.796  1.00  0.00    -0.791 OA 
BRANCH   8  10
HETATM   10  C   UNL     1     -12.584  14.172  65.494  1.00  0.00    -0.501 C  
BRANCH  10  11
HETATM   11  C   UNL     1     -12.288  12.769  65.000  1.00  0.00    -0.559 C  
BRANCH  11  12
HETATM   12  C   UNL     1     -11.367  12.013  65.920  1.00  0.00    -0.337 C  
HETATM   13  O   UNL     1     -10.190  11.776  65.685  1.00  0.00    -0.228 OA 
BRANCH  12  14
HETATM   14  O   UNL     1     -12.036  11.509  66.994  1.00  0.00    -0.556 OA 
BRANCH  14  15
HETATM   15  C   UNL     1     -11.495  11.895  68.273  1.00  0.00    -0.311 C  
BRANCH  15  16
HETATM   16  C   UNL     1     -11.322  10.718  69.249  1.00  0.00    -0.286 C  
BRANCH  16  17
HETATM   17  N   UNL     1      -9.915  10.069  69.206  1.00  0.00    -0.201 N  
HETATM   18  C   UNL     1      -9.533   9.463  70.551  1.00  0.00    -0.269 C  
HETATM   19  C   UNL     1      -8.896  11.164  68.868  1.00  0.00    -0.079 C  
HETATM   20  C   UNL     1      -9.833   9.003  68.116  1.00  0.00    -0.166 C  
ENDBRANCH  16  17
ENDBRANCH  15  16
ENDBRANCH  14  15
ENDBRANCH  12  14
ENDBRANCH  11  12
ENDBRANCH  10  11
ENDBRANCH   8  10
ENDBRANCH   7   8
ENDBRANCH   6   7
ENDBRANCH   5   6
ENDBRANCH   2   5
TORSDOF 11
ENDMDL
MODEL       31
REMARK 921   NORMALIZED FREE ENERGY PREDICTED BY IDOCK:   -4.25 KCAL/MOL
REMARK 922        TOTAL FREE ENERGY PREDICTED BY IDOCK:   -7.74 KCAL/MOL
REMARK 923 INTER-LIGAND FREE ENERGY PREDICTED BY IDOCK:   -7.12 KCAL/MOL
REMARK 924 INTRA-LIGAND FREE ENERGY PREDICTED BY IDOCK:   -0.63 KCAL/MOL
REMARK 927      BINDING AFFINITY PREDICTED BY RF-SCORE:    0.00 PKD
ROOT
HETATM    1  C   UNL     1      -9.985  11.826  63.362  1.00  0.00    -0.423 C  
HETATM    2  N   UNL     1     -11.059  12.367  64.315  1.00  0.00    -0.323 N  
HETATM    3  C   UNL     1     -10.741  13.836  64.588  1.00  0.00    -0.414 C  
HETATM    4  C   UNL     1     -12.411  12.248  63.622  1.00  0.00    -0.541 C  
ENDROOT
BRANCH   2   5
HETATM    5  C   UNL     1     -11.008  11.532  65.617  1.00  0.00    -0.236 C  
BRANCH   5   6
HETATM    6  C   UNL     1     -11.468  12.300  66.870  1.00  0.00    -0.356 C  
BRANCH   6   7
HETATM    7  O   UNL     1     -12.004  11.451  67.902  1.00  0.00    -0.626 OA 
BRANCH   7   8
HETATM    8  C   UNL     1     -11.907  11.959  69.162  1.00  0.00    -0.311 C  
HETATM    9  O   UNL     1     -11.969  11.276  70.174  1.00  0.00    -0.311 OA 
BRANCH   8  10
HETATM   10  C   UNL     1     -11.570  13.428  69.139  1.00  0.00    -0.365 C  
BRANCH  10  11
HETATM   11  C   UNL     1     -12.336  14.216  70.184  1.00  0.00    -0.413 C  
BRANCH  11  12
HETATM   12  C   UNL     1     -11.845  15.633  70.315  1.00  0.00    -0.365 C  
HETATM   13  O   UNL     1     -11.661  16.210  71.379  1.00  0.00    -0.445 OA 
BRANCH  12  14
HETATM   14  O   UNL     1     -11.751  16.244  69.102  1.00  0.00    -0.281 OA 
BRANCH  14  15
HETATM   15  C   UNL     1     -10.594  17.087  68.941  1.00  0.00    -0.328 C  
BRANCH  15  16
HETATM   16  C   UNL     1      -9.612  16.587  67.867  1.00  0.00    -0.233 C  
BRANCH  16  17
HETATM   17  N   UNL     1      -8.596  17.660  67.398  1.00  0.00    -0.224 N  
HETATM   18  C   UNL     1      -7.987  18.412  68.575  1.00  0.00    -0.314 C  
HETATM   19  C   UNL     1      -9.343  18.671  66.520  1.00  0.00    -0.320 C  
HETATM   20  C   UNL     1      -7.488  17.036  66.553  1.00  0.00    -0.292 C  
ENDBRANCH  16  17
ENDBRANCH  15  16
ENDBRANCH  14  15
ENDBRANCH  12  14
ENDBRANCH  11  12
ENDBRANCH  10  11
ENDBRANCH   8  10
ENDBRANCH   7   8
ENDBRANCH   6   7
ENDBRANCH   5   6
ENDBRANCH   2   5
TORSDOF 11
ENDMDL
MODEL       32
REMARK 921   NORMALIZED FREE ENERGY PREDICTED BY IDOCK:   -4.24 KCAL/MOL
REMARK 922        TOTAL FREE ENERGY PREDICTED BY IDOCK:   -7.72 KCAL/MOL
REMARK 923 INTER-LIGAND FREE ENERGY PREDICTED BY IDOCK:   -7.09 KCAL/MOL
REMARK 924 INTRA-LIGAND FREE ENERGY PREDICTED BY IDOCK:   -0.63 KCAL/MOL
REMARK 927      BINDING AFFINITY PREDICTED BY RF-SCORE:    0.00 PKD
ROOT
HETATM    1  C   UNL     1     -10.263  17.797  68.388  1.00  0.00    -0.384 C  
HETATM    2  N   UNL     1      -9.928  18.437  67.035  1.00  0.00    -0.324 N  
HETATM    3  C   UNL     1     -10.512  19.849  67.030  1.00  0.00    -0.441 C  
HETATM    4  C   UNL     1      -8.411  18.502  66.903  1.00  0.00    -0.273 C  
ENDROOT
BRANCH   2   5
HETATM    5  C   UNL     1     -10.562  17.566  65.923  1.00  0.00    -0.203 C  
BRANCH   5   6
HETATM    6  C   UNL     1     -10.163  16.081  65.989  1.00  0.00    -0.341 C  
BRANCH   6   7
HETATM    7  O   UNL     1     -10.590  15.318  64.845  1.00  0.00    -0.407 OA 
BRANCH   7   8
HETATM    8  C   UNL     1     -11.939  15.280  64.660  1.00  0.00    -0.233 C  
HETATM    9  O   UNL     1     -12.529  15.966  63.838  1.00  0.00    -0.760 OA 
BRANCH   8  10
HETATM   10  C   UNL     1     -12.577  14.192  65.484  1.00  0.00    -0.501 C  
BRANCH  10  11
HETATM   11  C   UNL     1     -11.859  12.863  65.347  1.00  0.00    -0.444 C  
BRANCH  11  12
HETATM   12  C   UNL     1     -12.104  12.208  64.013  1.00  0.00    -0.443 C  
HETATM   13  O   UNL     1     -13.201  12.103  63.481  1.00  0.00    -0.744 OA 
BRANCH  12  14
HETATM   14  O   UNL     1     -10.973  11.628  63.526  1.00  0.00    -0.397 OA 
BRANCH  14  15
HETATM   15  C   UNL     1      -9.941  11.407  64.507  1.00  0.00    -0.271 C  
BRANCH  15  16
HETATM   16  C   UNL     1      -9.721   9.922  64.846  1.00  0.00    -0.262 C  
BRANCH  16  17
HETATM   17  N   UNL     1      -9.220   9.677  66.292  1.00  0.00    -0.158 N  
HETATM   18  C   UNL     1     -10.374   9.406  67.250  1.00  0.00    -0.260 C  
HETATM   19  C   UNL     1      -8.492  10.941  66.765  1.00  0.00    -0.139 C  
HETATM   20  C   UNL     1      -8.225   8.520  66.341  1.00  0.00    -0.108 C  
ENDBRANCH  16  17
ENDBRANCH  15  16
ENDBRANCH  14  15
ENDBRANCH  12  14
ENDBRANCH  11  12
ENDBRANCH  10  11
ENDBRANCH   8  10
ENDBRANCH   7   8
ENDBRANCH   6   7
ENDBRANCH   5   6
ENDBRANCH   2   5
TORSDOF 11
ENDMDL
MODEL       33
REMARK 921   NORMALIZED FREE ENERGY PREDICTED BY IDOCK:   -4.23 KCAL/MOL
REMARK 922        TOTAL FREE ENERGY PREDICTED BY IDOCK:   -7.71 KCAL/MOL
REMARK 923 INTER-LIGAND FREE ENERGY PREDICTED BY IDOCK:   -6.89 KCAL/MOL
REMARK 924 INTRA-LIGAND FREE ENERGY PREDICTED BY IDOCK:   -0.82 KCAL/MOL
REMARK 927      BINDING AFFINITY PREDICTED BY RF-SCORE:    0.00 PKD
ROOT
HETATM    1  C   UNL     1      -9.701  14.111  67.199  1.00  0.00    -0.248 C  
HETATM    2  N   UNL     1     -10.879  15.052  66.920  1.00  0.00    -0.310 N  
HETATM    3  C   UNL     1     -11.015  15.996  68.114  1.00  0.00    -0.339 C  
HETATM    4  C   UNL     1     -10.562  15.851  65.661  1.00  0.00    -0.378 C  
ENDROOT
BRANCH   2   5
HETATM    5  C   UNL     1     -12.151  14.188  66.743  1.00  0.00    -0.442 C  
BRANCH   5   6
HETATM    6  C   UNL     1     -11.873  12.765  66.225  1.00  0.00    -0.423 C  
BRANCH   6   7
HETATM    7  O   UNL     1     -12.580  12.445  65.012  1.00  0.00    -0.601 OA 
BRANCH   7   8
HETATM    8  C   UNL     1     -12.036  12.973  63.881  1.00  0.00    -0.485 C  
HETATM    9  O   UNL     1     -12.621  13.761  63.152  1.00  0.00    -0.793 OA 
BRANCH   8  10
HETATM   10  C   UNL     1     -10.588  12.582  63.732  1.00  0.00    -0.471 C  
BRANCH  10  11
HETATM   11  C   UNL     1     -10.410  11.092  63.503  1.00  0.00    -0.446 C  
BRANCH  11  12
HETATM   12  C   UNL     1      -9.475  10.461  64.500  1.00  0.00    -0.286 C  
HETATM   13  O   UNL     1      -8.264  10.368  64.355  1.00  0.00    -0.165 OA 
BRANCH  12  14
HETATM   14  O   UNL     1     -10.156   9.888  65.530  1.00  0.00    -0.303 OA 
BRANCH  14  15
HETATM   15  C   UNL     1      -9.327   9.216  66.498  1.00  0.00    -0.190 C  
BRANCH  15  16
HETATM   16  C   UNL     1      -9.806   7.795  66.841  1.00  0.00    -0.235 C  
BRANCH  16  17
HETATM   17  N   UNL     1     -10.020   7.554  68.357  1.00  0.00    -0.165 N  
HETATM   18  C   UNL     1     -11.143   6.556  68.616  1.00  0.00    -0.270 C  
HETATM   19  C   UNL     1     -10.408   8.890  69.002  1.00  0.00    -0.212 C  
HETATM   20  C   UNL     1      -8.734   7.070  69.024  1.00  0.00    -0.128 C  
ENDBRANCH  16  17
ENDBRANCH  15  16
ENDBRANCH  14  15
ENDBRANCH  12  14
ENDBRANCH  11  12
ENDBRANCH  10  11
ENDBRANCH   8  10
ENDBRANCH   7   8
ENDBRANCH   6   7
ENDBRANCH   5   6
ENDBRANCH   2   5
TORSDOF 11
ENDMDL
MODEL       34
REMARK 921   NORMALIZED FREE ENERGY PREDICTED BY IDOCK:   -4.22 KCAL/MOL
REMARK 922        TOTAL FREE ENERGY PREDICTED BY IDOCK:   -7.69 KCAL/MOL
REMARK 923 INTER-LIGAND FREE ENERGY PREDICTED BY IDOCK:   -7.29 KCAL/MOL
REMARK 924 INTRA-LIGAND FREE ENERGY PREDICTED BY IDOCK:   -0.39 KCAL/MOL
REMARK 927      BINDING AFFINITY PREDICTED BY RF-SCORE:    0.00 PKD
ROOT
HETATM    1  C   UNL     1      -7.515  10.418  65.570  1.00  0.00    -0.142 C  
HETATM    2  N   UNL     1      -8.770   9.648  65.137  1.00  0.00    -0.154 N  
HETATM    3  C   UNL     1      -9.089  10.049  63.697  1.00  0.00    -0.268 C  
HETATM    4  C   UNL     1      -8.459   8.158  65.203  1.00  0.00    -0.116 C  
ENDROOT
BRANCH   2   5
HETATM    5  C   UNL     1      -9.923  10.035  66.093  1.00  0.00    -0.256 C  
BRANCH   5   6
HETATM    6  C   UNL     1     -10.286  11.531  66.062  1.00  0.00    -0.242 C  
BRANCH   6   7
HETATM    7  O   UNL     1     -11.702  11.780  65.989  1.00  0.00    -0.433 OA 
BRANCH   7   8
HETATM    8  C   UNL     1     -12.098  12.492  64.897  1.00  0.00    -0.440 C  
HETATM    9  O   UNL     1     -12.156  12.024  63.769  1.00  0.00    -0.465 OA 
BRANCH   8  10
HETATM   10  C   UNL     1     -12.588  13.864  65.282  1.00  0.00    -0.508 C  
BRANCH  10  11
HETATM   11  C   UNL     1     -12.288  14.907  64.222  1.00  0.00    -0.300 C  
BRANCH  11  12
HETATM   12  C   UNL     1     -11.268  15.917  64.676  1.00  0.00    -0.351 C  
HETATM   13  O   UNL     1     -11.198  17.067  64.266  1.00  0.00    -1.186 OA 
BRANCH  12  14
HETATM   14  O   UNL     1     -10.346  15.357  65.508  1.00  0.00    -0.327 OA 
BRANCH  14  15
HETATM   15  C   UNL     1      -9.456  16.298  66.138  1.00  0.00    -0.339 C  
BRANCH  15  16
HETATM   16  C   UNL     1     -10.140  17.177  67.199  1.00  0.00    -0.295 C  
BRANCH  16  17
HETATM   17  N   UNL     1      -9.655  18.649  67.202  1.00  0.00    -0.291 N  
HETATM   18  C   UNL     1      -9.659  19.242  68.606  1.00  0.00    -0.418 C  
HETATM   19  C   UNL     1     -10.616  19.469  66.334  1.00  0.00    -0.472 C  
HETATM   20  C   UNL     1      -8.259  18.770  66.593  1.00  0.00    -0.289 C  
ENDBRANCH  16  17
ENDBRANCH  15  16
ENDBRANCH  14  15
ENDBRANCH  12  14
ENDBRANCH  11  12
ENDBRANCH  10  11
ENDBRANCH   8  10
ENDBRANCH   7   8
ENDBRANCH   6   7
ENDBRANCH   5   6
ENDBRANCH   2   5
TORSDOF 11
ENDMDL
MODEL       35
REMARK 921   NORMALIZED FREE ENERGY PREDICTED BY IDOCK:   -4.21 KCAL/MOL
REMARK 922        TOTAL FREE ENERGY PREDICTED BY IDOCK:   -7.68 KCAL/MOL
REMARK 923 INTER-LIGAND FREE ENERGY PREDICTED BY IDOCK:   -7.08 KCAL/MOL
REMARK 924 INTRA-LIGAND FREE ENERGY PREDICTED BY IDOCK:   -0.60 KCAL/MOL
REMARK 927      BINDING AFFINITY PREDICTED BY RF-SCORE:    0.00 PKD
ROOT
HETATM    1  C   UNL     1     -10.158  19.840  69.008  1.00  0.00    -0.334 C  
HETATM    2  N   UNL     1      -9.418  19.154  67.853  1.00  0.00    -0.310 N  
HETATM    3  C   UNL     1      -9.620  20.004  66.599  1.00  0.00    -0.425 C  
HETATM    4  C   UNL     1      -7.936  19.096  68.206  1.00  0.00    -0.326 C  
ENDROOT
BRANCH   2   5
HETATM    5  C   UNL     1     -10.018  17.739  67.672  1.00  0.00    -0.322 C  
BRANCH   5   6
HETATM    6  C   UNL     1     -10.426  17.413  66.224  1.00  0.00    -0.276 C  
BRANCH   6   7
HETATM    7  O   UNL     1      -9.508  16.531  65.551  1.00  0.00    -0.473 OA 
BRANCH   7   8
HETATM    8  C   UNL     1      -9.750  15.205  65.746  1.00  0.00    -0.344 C  
HETATM    9  O   UNL     1      -9.182  14.531  66.593  1.00  0.00    -0.253 OA 
BRANCH   8  10
HETATM   10  C   UNL     1     -10.897  14.724  64.895  1.00  0.00    -0.433 C  
BRANCH  10  11
HETATM   11  C   UNL     1     -10.826  13.234  64.613  1.00  0.00    -0.396 C  
BRANCH  11  12
HETATM   12  C   UNL     1     -12.018  12.487  65.150  1.00  0.00    -0.434 C  
HETATM   13  O   UNL     1     -13.178  12.701  64.825  1.00  0.00    -0.846 OA 
BRANCH  12  14
HETATM   14  O   UNL     1     -11.662  11.625  66.143  1.00  0.00    -0.415 OA 
BRANCH  14  15
HETATM   15  C   UNL     1     -11.583  12.219  67.453  1.00  0.00    -0.355 C  
BRANCH  15  16
HETATM   16  C   UNL     1     -11.749  11.206  68.599  1.00  0.00    -0.320 C  
BRANCH  16  17
HETATM   17  N   UNL     1     -10.467  10.390  68.906  1.00  0.00    -0.198 N  
HETATM   18  C   UNL     1     -10.408   9.105  68.089  1.00  0.00    -0.216 C  
HETATM   19  C   UNL     1     -10.488  10.012  70.392  1.00  0.00    -0.240 C  
HETATM   20  C   UNL     1      -9.211  11.222  68.654  1.00  0.00    -0.161 C  
ENDBRANCH  16  17
ENDBRANCH  15  16
ENDBRANCH  14  15
ENDBRANCH  12  14
ENDBRANCH  11  12
ENDBRANCH  10  11
ENDBRANCH   8  10
ENDBRANCH   7   8
ENDBRANCH   6   7
ENDBRANCH   5   6
ENDBRANCH   2   5
TORSDOF 11
ENDMDL
MODEL       36
REMARK 921   NORMALIZED FREE ENERGY PREDICTED BY IDOCK:   -4.20 KCAL/MOL
REMARK 922        TOTAL FREE ENERGY PREDICTED BY IDOCK:   -7.65 KCAL/MOL
REMARK 923 INTER-LIGAND FREE ENERGY PREDICTED BY IDOCK:   -6.65 KCAL/MOL
REMARK 924 INTRA-LIGAND FREE ENERGY PREDICTED BY IDOCK:   -1.00 KCAL/MOL
REMARK 927      BINDING AFFINITY PREDICTED BY RF-SCORE:    0.00 PKD
ROOT
HETATM    1  C   UNL     1      -8.565  10.304  68.945  1.00  0.00    -0.150 C  
HETATM    2  N   UNL     1     -10.058  10.366  68.600  1.00  0.00    -0.168 N  
HETATM    3  C   UNL     1     -10.392   9.140  67.751  1.00  0.00    -0.245 C  
HETATM    4  C   UNL     1     -10.849  10.325  69.902  1.00  0.00    -0.302 C  
ENDROOT
BRANCH   2   5
HETATM    5  C   UNL     1     -10.314  11.676  67.816  1.00  0.00    -0.182 C  
BRANCH   5   6
HETATM    6  C   UNL     1     -10.903  11.458  66.411  1.00  0.00    -0.271 C  
BRANCH   6   7
HETATM    7  O   UNL     1     -12.148  12.148  66.194  1.00  0.00    -0.621 OA 
BRANCH   7   8
HETATM    8  C   UNL     1     -12.398  12.474  64.895  1.00  0.00    -0.470 C  
HETATM    9  O   UNL     1     -13.436  12.194  64.314  1.00  0.00    -0.708 OA 
BRANCH   8  10
HETATM   10  C   UNL     1     -11.304  13.341  64.325  1.00  0.00    -0.428 C  
BRANCH  10  11
HETATM   11  C   UNL     1     -11.489  14.808  64.665  1.00  0.00    -0.381 C  
BRANCH  11  12
HETATM   12  C   UNL     1     -10.364  15.353  65.505  1.00  0.00    -0.387 C  
HETATM   13  O   UNL     1      -9.416  14.694  65.910  1.00  0.00    -0.283 OA 
BRANCH  12  14
HETATM   14  O   UNL     1     -10.594  16.644  65.871  1.00  0.00    -0.316 OA 
BRANCH  14  15
HETATM   15  C   UNL     1      -9.939  17.050  67.088  1.00  0.00    -0.281 C  
BRANCH  15  16
HETATM   16  C   UNL     1     -10.893  17.178  68.288  1.00  0.00    -0.314 C  
BRANCH  16  17
HETATM   17  N   UNL     1     -10.871  15.955  69.240  1.00  0.00    -0.254 N  
HETATM   18  C   UNL     1     -11.345  16.323  70.641  1.00  0.00    -0.297 C  
HETATM   19  C   UNL     1      -9.425  15.455  69.340  1.00  0.00    -0.267 C  
HETATM   20  C   UNL     1     -11.723  14.814  68.689  1.00  0.00    -0.325 C  
ENDBRANCH  16  17
ENDBRANCH  15  16
ENDBRANCH  14  15
ENDBRANCH  12  14
ENDBRANCH  11  12
ENDBRANCH  10  11
ENDBRANCH   8  10
ENDBRANCH   7   8
ENDBRANCH   6   7
ENDBRANCH   5   6
ENDBRANCH   2   5
TORSDOF 11
ENDMDL
MODEL       37
REMARK 921   NORMALIZED FREE ENERGY PREDICTED BY IDOCK:   -4.18 KCAL/MOL
REMARK 922        TOTAL FREE ENERGY PREDICTED BY IDOCK:   -7.63 KCAL/MOL
REMARK 923 INTER-LIGAND FREE ENERGY PREDICTED BY IDOCK:   -6.88 KCAL/MOL
REMARK 924 INTRA-LIGAND FREE ENERGY PREDICTED BY IDOCK:   -0.75 KCAL/MOL
REMARK 927      BINDING AFFINITY PREDICTED BY RF-SCORE:    0.00 PKD
ROOT
HETATM    1  C   UNL     1     -11.036  11.804  67.348  1.00  0.00    -0.282 C  
HETATM    2  N   UNL     1     -10.237  10.711  68.068  1.00  0.00    -0.169 N  
HETATM    3  C   UNL     1     -10.471   9.397  67.323  1.00  0.00    -0.264 C  
HETATM    4  C   UNL     1      -8.761  11.085  68.009  1.00  0.00    -0.138 C  
ENDROOT
BRANCH   2   5
HETATM    5  C   UNL     1     -10.748  10.625  69.526  1.00  0.00    -0.251 C  
BRANCH   5   6
HETATM    6  C   UNL     1     -12.157  11.210  69.730  1.00  0.00    -0.344 C  
BRANCH   6   7
HETATM    7  O   UNL     1     -12.198  12.298  70.672  1.00  0.00    -0.371 OA 
BRANCH   7   8
HETATM    8  C   UNL     1     -13.054  12.113  71.716  1.00  0.00    -0.352 C  
HETATM    9  O   UNL     1     -13.316  11.017  72.190  1.00  0.00    -0.451 OA 
BRANCH   8  10
HETATM   10  C   UNL     1     -13.510  13.427  72.295  1.00  0.00    -0.683 C  
BRANCH  10  11
HETATM   11  C   UNL     1     -13.206  14.600  71.382  1.00  0.00    -0.425 C  
BRANCH  11  12
HETATM   12  C   UNL     1     -12.173  15.531  71.960  1.00  0.00    -0.404 C  
HETATM   13  O   UNL     1     -11.930  15.644  73.154  1.00  0.00    -0.438 OA 
BRANCH  12  14
HETATM   14  O   UNL     1     -11.628  16.330  71.002  1.00  0.00    -0.410 OA 
BRANCH  14  15
HETATM   15  C   UNL     1     -10.989  15.623  69.922  1.00  0.00    -0.318 C  
BRANCH  15  16
HETATM   16  C   UNL     1     -11.405  16.123  68.527  1.00  0.00    -0.359 C  
BRANCH  16  17
HETATM   17  N   UNL     1     -10.296  16.915  67.789  1.00  0.00    -0.315 N  
HETATM   18  C   UNL     1     -10.686  18.373  67.583  1.00  0.00    -0.357 C  
HETATM   19  C   UNL     1     -10.092  16.275  66.410  1.00  0.00    -0.305 C  
HETATM   20  C   UNL     1      -8.969  16.835  68.541  1.00  0.00    -0.244 C  
ENDBRANCH  16  17
ENDBRANCH  15  16
ENDBRANCH  14  15
ENDBRANCH  12  14
ENDBRANCH  11  12
ENDBRANCH  10  11
ENDBRANCH   8  10
ENDBRANCH   7   8
ENDBRANCH   6   7
ENDBRANCH   5   6
ENDBRANCH   2   5
TORSDOF 11
ENDMDL
MODEL       38
REMARK 921   NORMALIZED FREE ENERGY PREDICTED BY IDOCK:   -4.18 KCAL/MOL
REMARK 922        TOTAL FREE ENERGY PREDICTED BY IDOCK:   -7.62 KCAL/MOL
REMARK 923 INTER-LIGAND FREE ENERGY PREDICTED BY IDOCK:   -6.67 KCAL/MOL
REMARK 924 INTRA-LIGAND FREE ENERGY PREDICTED BY IDOCK:   -0.95 KCAL/MOL
REMARK 927      BINDING AFFINITY PREDICTED BY RF-SCORE:    0.00 PKD
ROOT
HETATM    1  C   UNL     1     -11.296  16.066  68.547  1.00  0.00    -0.382 C  
HETATM    2  N   UNL     1     -11.156  14.550  68.358  1.00  0.00    -0.246 N  
HETATM    3  C   UNL     1      -9.674  14.199  68.483  1.00  0.00    -0.219 C  
HETATM    4  C   UNL     1     -11.947  13.858  69.461  1.00  0.00    -0.343 C  
ENDROOT
BRANCH   2   5
HETATM    5  C   UNL     1     -11.699  14.190  66.953  1.00  0.00    -0.414 C  
BRANCH   5   6
HETATM    6  C   UNL     1     -11.022  14.961  65.806  1.00  0.00    -0.345 C  
BRANCH   6   7
HETATM    7  O   UNL     1     -10.790  14.160  64.631  1.00  0.00    -0.403 OA 
BRANCH   7   8
HETATM    8  C   UNL     1     -11.921  13.752  63.991  1.00  0.00    -0.408 C  
HETATM    9  O   UNL     1     -12.828  14.506  63.670  1.00  0.00    -0.632 OA 
BRANCH   8  10
HETATM   10  C   UNL     1     -11.840  12.297  63.605  1.00  0.00    -0.610 C  
BRANCH  10  11
HETATM   11  C   UNL     1     -10.408  11.808  63.485  1.00  0.00    -0.490 C  
BRANCH  11  12
HETATM   12  C   UNL     1     -10.042  10.822  64.562  1.00  0.00    -0.350 C  
HETATM   13  O   UNL     1      -9.200   9.942  64.443  1.00  0.00    -0.238 OA 
BRANCH  12  14
HETATM   14  O   UNL     1     -10.854  10.944  65.649  1.00  0.00    -0.165 OA 
BRANCH  14  15
HETATM   15  C   UNL     1     -10.178  10.847  66.917  1.00  0.00    -0.228 C  
BRANCH  15  16
HETATM   16  C   UNL     1     -11.116  10.517  68.091  1.00  0.00    -0.287 C  
BRANCH  16  17
HETATM   17  N   UNL     1     -10.423   9.758  69.252  1.00  0.00    -0.208 N  
HETATM   18  C   UNL     1     -11.046  10.100  70.600  1.00  0.00    -0.322 C  
HETATM   19  C   UNL     1      -8.950  10.179  69.285  1.00  0.00    -0.183 C  
HETATM   20  C   UNL     1     -10.472   8.248  69.028  1.00  0.00    -0.197 C  
ENDBRANCH  16  17
ENDBRANCH  15  16
ENDBRANCH  14  15
ENDBRANCH  12  14
ENDBRANCH  11  12
ENDBRANCH  10  11
ENDBRANCH   8  10
ENDBRANCH   7   8
ENDBRANCH   6   7
ENDBRANCH   5   6
ENDBRANCH   2   5
TORSDOF 11
ENDMDL
MODEL       39
REMARK 921   NORMALIZED FREE ENERGY PREDICTED BY IDOCK:   -4.18 KCAL/MOL
REMARK 922        TOTAL FREE ENERGY PREDICTED BY IDOCK:   -7.62 KCAL/MOL
REMARK 923 INTER-LIGAND FREE ENERGY PREDICTED BY IDOCK:   -6.87 KCAL/MOL
REMARK 924 INTRA-LIGAND FREE ENERGY PREDICTED BY IDOCK:   -0.75 KCAL/MOL
REMARK 927      BINDING AFFINITY PREDICTED BY RF-SCORE:    0.00 PKD
ROOT
HETATM    1  C   UNL     1     -10.477  17.795  67.664  1.00  0.00    -0.388 C  
HETATM    2  N   UNL     1     -10.409  16.275  67.858  1.00  0.00    -0.276 N  
HETATM    3  C   UNL     1     -10.439  15.627  66.475  1.00  0.00    -0.302 C  
HETATM    4  C   UNL     1      -9.096  15.944  68.558  1.00  0.00    -0.200 C  
ENDROOT
BRANCH   2   5
HETATM    5  C   UNL     1     -11.632  15.845  68.704  1.00  0.00    -0.380 C  
BRANCH   5   6
HETATM    6  C   UNL     1     -11.413  15.961  70.223  1.00  0.00    -0.366 C  
BRANCH   6   7
HETATM    7  O   UNL     1     -12.607  15.736  70.996  1.00  0.00    -0.451 OA 
BRANCH   7   8
HETATM    8  C   UNL     1     -12.411  15.694  72.344  1.00  0.00    -0.423 C  
HETATM    9  O   UNL     1     -12.035  16.651  73.004  1.00  0.00    -0.506 OA 
BRANCH   8  10
HETATM   10  C   UNL     1     -12.855  14.375  72.923  1.00  0.00    -0.512 C  
BRANCH  10  11
HETATM   11  C   UNL     1     -13.750  13.597  71.976  1.00  0.00    -0.583 C  
BRANCH  11  12
HETATM   12  C   UNL     1     -13.118  12.314  71.506  1.00  0.00    -0.257 C  
HETATM   13  O   UNL     1     -13.255  11.229  72.055  1.00  0.00    -0.506 OA 
BRANCH  12  14
HETATM   14  O   UNL     1     -12.266  12.529  70.465  1.00  0.00    -0.365 OA 
BRANCH  14  15
HETATM   15  C   UNL     1     -11.419  11.409  70.143  1.00  0.00    -0.214 C  
BRANCH  15  16
HETATM   16  C   UNL     1     -11.734  10.771  68.778  1.00  0.00    -0.245 C  
BRANCH  16  17
HETATM   17  N   UNL     1     -10.890  11.341  67.610  1.00  0.00    -0.221 N  
HETATM   18  C   UNL     1     -10.018  10.268  66.968  1.00  0.00    -0.201 C  
HETATM   19  C   UNL     1      -9.970  12.431  68.174  1.00  0.00    -0.215 C  
HETATM   20  C   UNL     1     -11.781  11.985  66.550  1.00  0.00    -0.256 C  
ENDBRANCH  16  17
ENDBRANCH  15  16
ENDBRANCH  14  15
ENDBRANCH  12  14
ENDBRANCH  11  12
ENDBRANCH  10  11
ENDBRANCH   8  10
ENDBRANCH   7   8
ENDBRANCH   6   7
ENDBRANCH   5   6
ENDBRANCH   2   5
TORSDOF 11
ENDMDL
MODEL       40
REMARK 921   NORMALIZED FREE ENERGY PREDICTED BY IDOCK:   -4.18 KCAL/MOL
REMARK 922        TOTAL FREE ENERGY PREDICTED BY IDOCK:   -7.62 KCAL/MOL
REMARK 923 INTER-LIGAND FREE ENERGY PREDICTED BY IDOCK:   -6.84 KCAL/MOL
REMARK 924 INTRA-LIGAND FREE ENERGY PREDICTED BY IDOCK:   -0.77 KCAL/MOL
REMARK 927      BINDING AFFINITY PREDICTED BY RF-SCORE:    0.00 PKD
ROOT
HETATM    1  C   UNL     1     -14.366  15.316  71.396  1.00  0.00    -0.471 C  
HETATM    2  N   UNL     1     -13.262  14.397  71.935  1.00  0.00    -0.341 N  
HETATM    3  C   UNL     1     -12.713  15.029  73.213  1.00  0.00    -0.519 C  
HETATM    4  C   UNL     1     -13.884  13.043  72.253  1.00  0.00    -0.434 C  
ENDROOT
BRANCH   2   5
HETATM    5  C   UNL     1     -12.163  14.282  70.852  1.00  0.00    -0.355 C  
BRANCH   5   6
HETATM    6  C   UNL     1     -11.721  15.634  70.263  1.00  0.00    -0.357 C  
BRANCH   6   7
HETATM    7  O   UNL     1     -11.957  15.752  68.848  1.00  0.00    -0.382 OA 
BRANCH   7   8
HETATM    8  C   UNL     1     -10.837  15.676  68.077  1.00  0.00    -0.308 C  
HETATM    9  O   UNL     1      -9.731  16.038  68.452  1.00  0.00    -0.207 OA 
BRANCH   8  10
HETATM   10  C   UNL     1     -11.109  14.959  66.779  1.00  0.00    -0.335 C  
BRANCH  10  11
HETATM   11  C   UNL     1     -12.007  13.750  66.960  1.00  0.00    -0.452 C  
BRANCH  11  12
HETATM   12  C   UNL     1     -11.252  12.450  66.871  1.00  0.00    -0.305 C  
HETATM   13  O   UNL     1     -10.168  12.312  66.320  1.00  0.00    -0.221 OA 
BRANCH  12  14
HETATM   14  O   UNL     1     -11.981  11.413  67.367  1.00  0.00    -0.606 OA 
BRANCH  14  15
HETATM   15  C   UNL     1     -11.651  11.038  68.718  1.00  0.00    -0.318 C  
BRANCH  15  16
HETATM   16  C   UNL     1     -11.021   9.639  68.833  1.00  0.00    -0.121 C  
BRANCH  16  17
HETATM   17  N   UNL     1     -10.984   9.085  70.280  1.00  0.00    -0.241 N  
HETATM   18  C   UNL     1     -11.391   7.617  70.332  1.00  0.00    -0.219 C  
HETATM   19  C   UNL     1     -11.982   9.888  71.123  1.00  0.00    -0.384 C  
HETATM   20  C   UNL     1      -9.600   9.260  70.902  1.00  0.00    -0.269 C  
ENDBRANCH  16  17
ENDBRANCH  15  16
ENDBRANCH  14  15
ENDBRANCH  12  14
ENDBRANCH  11  12
ENDBRANCH  10  11
ENDBRANCH   8  10
ENDBRANCH   7   8
ENDBRANCH   6   7
ENDBRANCH   5   6
ENDBRANCH   2   5
TORSDOF 11
ENDMDL
MODEL       41
REMARK 921   NORMALIZED FREE ENERGY PREDICTED BY IDOCK:   -4.16 KCAL/MOL
REMARK 922        TOTAL FREE ENERGY PREDICTED BY IDOCK:   -7.58 KCAL/MOL
REMARK 923 INTER-LIGAND FREE ENERGY PREDICTED BY IDOCK:   -7.12 KCAL/MOL
REMARK 924 INTRA-LIGAND FREE ENERGY PREDICTED BY IDOCK:   -0.47 KCAL/MOL
REMARK 927      BINDING AFFINITY PREDICTED BY RF-SCORE:    0.00 PKD
ROOT
HETATM    1  C   UNL     1      -9.409   6.383  72.861  1.00  0.00    -0.136 C  
HETATM    2  N   UNL     1     -10.471   5.522  72.167  1.00  0.00    -0.213 N  
HETATM    3  C   UNL     1     -10.253   5.638  70.659  1.00  0.00    -0.227 C  
HETATM    4  C   UNL     1     -10.274   4.077  72.609  1.00  0.00    -0.167 C  
ENDROOT
BRANCH   2   5
HETATM    5  C   UNL     1     -11.864   6.060  72.573  1.00  0.00    -0.186 C  
BRANCH   5   6
HETATM    6  C   UNL     1     -12.405   7.160  71.642  1.00  0.00    -0.362 C  
BRANCH   6   7
HETATM    7  O   UNL     1     -12.144   8.495  72.115  1.00  0.00    -0.336 OA 
BRANCH   7   8
HETATM    8  C   UNL     1     -13.239   9.304  72.164  1.00  0.00    -0.461 C  
HETATM    9  O   UNL     1     -14.309   8.966  72.649  1.00  0.00    -0.613 OA 
BRANCH   8  10
HETATM   10  C   UNL     1     -12.916  10.696  71.686  1.00  0.00    -0.582 C  
BRANCH  10  11
HETATM   11  C   UNL     1     -11.852  10.707  70.604  1.00  0.00    -0.463 C  
BRANCH  11  12
HETATM   12  C   UNL     1     -11.928  11.930  69.730  1.00  0.00    -0.307 C  
HETATM   13  O   UNL     1     -11.928  13.082  70.143  1.00  0.00    -0.336 OA 
BRANCH  12  14
HETATM   14  O   UNL     1     -12.128  11.599  68.424  1.00  0.00    -0.522 OA 
BRANCH  14  15
HETATM   15  C   UNL     1     -11.137  12.117  67.515  1.00  0.00    -0.275 C  
BRANCH  15  16
HETATM   16  C   UNL     1     -11.365  11.700  66.052  1.00  0.00    -0.196 C  
BRANCH  16  17
HETATM   17  N   UNL     1     -11.728  12.879  65.113  1.00  0.00    -0.331 N  
HETATM   18  C   UNL     1     -12.647  13.883  65.798  1.00  0.00    -0.494 C  
HETATM   19  C   UNL     1     -12.466  12.308  63.896  1.00  0.00    -0.485 C  
HETATM   20  C   UNL     1     -10.473  13.587  64.607  1.00  0.00    -0.421 C  
ENDBRANCH  16  17
ENDBRANCH  15  16
ENDBRANCH  14  15
ENDBRANCH  12  14
ENDBRANCH  11  12
ENDBRANCH  10  11
ENDBRANCH   8  10
ENDBRANCH   7   8
ENDBRANCH   6   7
ENDBRANCH   5   6
ENDBRANCH   2   5
TORSDOF 11
ENDMDL
MODEL       42
REMARK 921   NORMALIZED FREE ENERGY PREDICTED BY IDOCK:   -4.16 KCAL/MOL
REMARK 922        TOTAL FREE ENERGY PREDICTED BY IDOCK:   -7.58 KCAL/MOL
REMARK 923 INTER-LIGAND FREE ENERGY PREDICTED BY IDOCK:   -7.24 KCAL/MOL
REMARK 924 INTRA-LIGAND FREE ENERGY PREDICTED BY IDOCK:   -0.34 KCAL/MOL
REMARK 927      BINDING AFFINITY PREDICTED BY RF-SCORE:    0.00 PKD
ROOT
HETATM    1  C   UNL     1     -11.387   7.675  70.449  1.00  0.00    -0.219 C  
HETATM    2  N   UNL     1     -11.858   8.586  71.590  1.00  0.00    -0.292 N  
HETATM    3  C   UNL     1     -13.365   8.388  71.753  1.00  0.00    -0.357 C  
HETATM    4  C   UNL     1     -11.139   8.164  72.865  1.00  0.00    -0.240 C  
ENDROOT
BRANCH   2   5
HETATM    5  C   UNL     1     -11.526  10.048  71.203  1.00  0.00    -0.354 C  
BRANCH   5   6
HETATM    6  C   UNL     1     -12.764  10.910  70.897  1.00  0.00    -0.370 C  
BRANCH   6   7
HETATM    7  O   UNL     1     -13.291  11.592  72.051  1.00  0.00    -0.481 OA 
BRANCH   7   8
HETATM    8  C   UNL     1     -13.527  12.921  71.866  1.00  0.00    -0.387 C  
HETATM    9  O   UNL     1     -14.358  13.556  72.499  1.00  0.00    -0.713 OA 
BRANCH   8  10
HETATM   10  C   UNL     1     -12.540  13.526  70.900  1.00  0.00    -0.414 C  
BRANCH  10  11
HETATM   11  C   UNL     1     -12.855  14.975  70.580  1.00  0.00    -0.413 C  
BRANCH  11  12
HETATM   12  C   UNL     1     -11.898  15.934  71.238  1.00  0.00    -0.449 C  
HETATM   13  O   UNL     1     -11.901  16.211  72.430  1.00  0.00    -0.492 OA 
BRANCH  12  14
HETATM   14  O   UNL     1     -11.107  16.558  70.322  1.00  0.00    -0.348 OA 
BRANCH  14  15
HETATM   15  C   UNL     1     -11.237  16.058  68.977  1.00  0.00    -0.347 C  
BRANCH  15  16
HETATM   16  C   UNL     1      -9.891  15.885  68.251  1.00  0.00    -0.217 C  
BRANCH  16  17
HETATM   17  N   UNL     1      -9.426  17.147  67.482  1.00  0.00    -0.245 N  
HETATM   18  C   UNL     1      -8.744  16.787  66.168  1.00  0.00    -0.264 C  
HETATM   19  C   UNL     1      -8.413  17.892  68.358  1.00  0.00    -0.297 C  
HETATM   20  C   UNL     1     -10.596  18.092  67.216  1.00  0.00    -0.346 C  
ENDBRANCH  16  17
ENDBRANCH  15  16
ENDBRANCH  14  15
ENDBRANCH  12  14
ENDBRANCH  11  12
ENDBRANCH  10  11
ENDBRANCH   8  10
ENDBRANCH   7   8
ENDBRANCH   6   7
ENDBRANCH   5   6
ENDBRANCH   2   5
TORSDOF 11
ENDMDL
MODEL       43
REMARK 921   NORMALIZED FREE ENERGY PREDICTED BY IDOCK:   -4.15 KCAL/MOL
REMARK 922        TOTAL FREE ENERGY PREDICTED BY IDOCK:   -7.58 KCAL/MOL
REMARK 923 INTER-LIGAND FREE ENERGY PREDICTED BY IDOCK:   -6.86 KCAL/MOL
REMARK 924 INTRA-LIGAND FREE ENERGY PREDICTED BY IDOCK:   -0.72 KCAL/MOL
REMARK 927      BINDING AFFINITY PREDICTED BY RF-SCORE:    0.00 PKD
ROOT
HETATM    1  C   UNL     1      -7.178  17.369  66.409  1.00  0.00    -0.298 C  
HETATM    2  N   UNL     1      -7.776  18.379  67.397  1.00  0.00    -0.222 N  
HETATM    3  C   UNL     1      -7.123  18.143  68.758  1.00  0.00    -0.279 C  
HETATM    4  C   UNL     1      -7.445  19.782  66.900  1.00  0.00    -0.240 C  
ENDROOT
BRANCH   2   5
HETATM    5  C   UNL     1      -9.304  18.141  67.460  1.00  0.00    -0.258 C  
BRANCH   5   6
HETATM    6  C   UNL     1      -9.920  17.679  66.127  1.00  0.00    -0.272 C  
BRANCH   6   7
HETATM    7  O   UNL     1     -10.564  16.394  66.204  1.00  0.00    -0.311 OA 
BRANCH   7   8
HETATM    8  C   UNL     1     -11.019  15.914  65.013  1.00  0.00    -0.412 C  
HETATM    9  O   UNL     1     -11.465  16.624  64.123  1.00  0.00    -1.131 OA 
BRANCH   8  10
HETATM   10  C   UNL     1     -10.765  14.435  64.882  1.00  0.00    -0.444 C  
BRANCH  10  11
HETATM   11  C   UNL     1     -10.828  13.714  66.216  1.00  0.00    -0.282 C  
BRANCH  11  12
HETATM   12  C   UNL     1     -11.849  12.608  66.229  1.00  0.00    -0.410 C  
HETATM   13  O   UNL     1     -12.495  12.246  65.254  1.00  0.00    -0.585 OA 
BRANCH  12  14
HETATM   14  O   UNL     1     -12.064  12.141  67.489  1.00  0.00    -0.534 OA 
BRANCH  14  15
HETATM   15  C   UNL     1     -11.017  11.297  68.004  1.00  0.00    -0.247 C  
BRANCH  15  16
HETATM   16  C   UNL     1     -10.901   9.946  67.278  1.00  0.00    -0.199 C  
BRANCH  16  17
HETATM   17  N   UNL     1      -9.521   9.706  66.614  1.00  0.00    -0.161 N  
HETATM   18  C   UNL     1      -9.582   9.900  65.103  1.00  0.00    -0.300 C  
HETATM   19  C   UNL     1      -9.103   8.258  66.894  1.00  0.00    -0.150 C  
HETATM   20  C   UNL     1      -8.456  10.624  67.211  1.00  0.00    -0.126 C  
ENDBRANCH  16  17
ENDBRANCH  15  16
ENDBRANCH  14  15
ENDBRANCH  12  14
ENDBRANCH  11  12
ENDBRANCH  10  11
ENDBRANCH   8  10
ENDBRANCH   7   8
ENDBRANCH   6   7
ENDBRANCH   5   6
ENDBRANCH   2   5
TORSDOF 11
ENDMDL
MODEL       44
REMARK 921   NORMALIZED FREE ENERGY PREDICTED BY IDOCK:   -4.13 KCAL/MOL
REMARK 922        TOTAL FREE ENERGY PREDICTED BY IDOCK:   -7.55 KCAL/MOL
REMARK 923 INTER-LIGAND FREE ENERGY PREDICTED BY IDOCK:   -7.00 KCAL/MOL
REMARK 924 INTRA-LIGAND FREE ENERGY PREDICTED BY IDOCK:   -0.55 KCAL/MOL
REMARK 927      BINDING AFFINITY PREDICTED BY RF-SCORE:    0.00 PKD
ROOT
HETATM    1  C   UNL     1     -12.247   9.545  71.563  1.00  0.00    -0.386 C  
HETATM    2  N   UNL     1     -11.606   8.163  71.384  1.00  0.00    -0.270 N  
HETATM    3  C   UNL     1     -10.787   7.864  72.639  1.00  0.00    -0.364 C  
HETATM    4  C   UNL     1     -12.722   7.137  71.236  1.00  0.00    -0.366 C  
ENDROOT
BRANCH   2   5
HETATM    5  C   UNL     1     -10.704   8.213  70.127  1.00  0.00    -0.243 C  
BRANCH   5   6
HETATM    6  C   UNL     1     -10.426   9.638  69.613  1.00  0.00    -0.229 C  
BRANCH   6   7
HETATM    7  O   UNL     1     -10.706   9.809  68.211  1.00  0.00    -0.229 OA 
BRANCH   7   8
HETATM    8  C   UNL     1     -11.390  10.947  67.904  1.00  0.00    -0.308 C  
HETATM    9  O   UNL     1     -12.368  11.337  68.525  1.00  0.00    -0.543 OA 
BRANCH   8  10
HETATM   10  C   UNL     1     -10.704  11.723  66.810  1.00  0.00    -0.289 C  
BRANCH  10  11
HETATM   11  C   UNL     1     -11.653  12.113  65.692  1.00  0.00    -0.409 C  
BRANCH  11  12
HETATM   12  C   UNL     1     -12.054  13.563  65.753  1.00  0.00    -0.433 C  
HETATM   13  O   UNL     1     -13.055  14.030  65.226  1.00  0.00    -0.782 OA 
BRANCH  12  14
HETATM   14  O   UNL     1     -11.099  14.321  66.358  1.00  0.00    -0.313 OA 
BRANCH  14  15
HETATM   15  C   UNL     1     -10.364  15.184  65.469  1.00  0.00    -0.375 C  
BRANCH  15  16
HETATM   16  C   UNL     1     -10.694  16.676  65.646  1.00  0.00    -0.214 C  
BRANCH  16  17
HETATM   17  N   UNL     1      -9.735  17.420  66.610  1.00  0.00    -0.277 N  
HETATM   18  C   UNL     1      -8.282  17.021  66.379  1.00  0.00    -0.291 C  
HETATM   19  C   UNL     1     -10.113  17.038  68.046  1.00  0.00    -0.305 C  
HETATM   20  C   UNL     1      -9.883  18.934  66.475  1.00  0.00    -0.368 C  
ENDBRANCH  16  17
ENDBRANCH  15  16
ENDBRANCH  14  15
ENDBRANCH  12  14
ENDBRANCH  11  12
ENDBRANCH  10  11
ENDBRANCH   8  10
ENDBRANCH   7   8
ENDBRANCH   6   7
ENDBRANCH   5   6
ENDBRANCH   2   5
TORSDOF 11
ENDMDL
MODEL       45
REMARK 921   NORMALIZED FREE ENERGY PREDICTED BY IDOCK:   -4.13 KCAL/MOL
REMARK 922        TOTAL FREE ENERGY PREDICTED BY IDOCK:   -7.54 KCAL/MOL
REMARK 923 INTER-LIGAND FREE ENERGY PREDICTED BY IDOCK:   -6.82 KCAL/MOL
REMARK 924 INTRA-LIGAND FREE ENERGY PREDICTED BY IDOCK:   -0.72 KCAL/MOL
REMARK 927      BINDING AFFINITY PREDICTED BY RF-SCORE:    0.00 PKD
ROOT
HETATM    1  C   UNL     1      -9.851   8.939  66.323  1.00  0.00    -0.285 C  
HETATM    2  N   UNL     1      -8.876   9.719  65.432  1.00  0.00    -0.157 N  
HETATM    3  C   UNL     1      -7.580   9.913  66.219  1.00  0.00    -0.102 C  
HETATM    4  C   UNL     1      -8.604   8.889  64.183  1.00  0.00    -0.106 C  
ENDROOT
BRANCH   2   5
HETATM    5  C   UNL     1      -9.527  11.079  65.085  1.00  0.00    -0.228 C  
BRANCH   5   6
HETATM    6  C   UNL     1     -10.516  11.016  63.906  1.00  0.00    -0.354 C  
BRANCH   6   7
HETATM    7  O   UNL     1     -10.853  12.308  63.367  1.00  0.00    -0.449 OA 
BRANCH   7   8
HETATM    8  C   UNL     1     -12.072  12.781  63.749  1.00  0.00    -0.517 C  
HETATM    9  O   UNL     1     -13.100  12.122  63.699  1.00  0.00    -0.787 OA 
BRANCH   8  10
HETATM   10  C   UNL     1     -11.961  14.150  64.370  1.00  0.00    -0.478 C  
BRANCH  10  11
HETATM   11  C   UNL     1     -12.784  14.281  65.638  1.00  0.00    -0.395 C  
BRANCH  11  12
HETATM   12  C   UNL     1     -12.083  13.718  66.845  1.00  0.00    -0.413 C  
HETATM   13  O   UNL     1     -11.921  12.524  67.061  1.00  0.00    -0.498 OA 
BRANCH  12  14
HETATM   14  O   UNL     1     -11.760  14.694  67.737  1.00  0.00    -0.347 OA 
BRANCH  14  15
HETATM   15  C   UNL     1     -10.355  15.004  67.806  1.00  0.00    -0.245 C  
BRANCH  15  16
HETATM   16  C   UNL     1     -10.059  16.395  68.394  1.00  0.00    -0.245 C  
BRANCH  16  17
HETATM   17  N   UNL     1      -9.393  17.371  67.392  1.00  0.00    -0.235 N  
HETATM   18  C   UNL     1     -10.406  18.333  66.783  1.00  0.00    -0.384 C  
HETATM   19  C   UNL     1      -8.779  16.542  66.257  1.00  0.00    -0.333 C  
HETATM   20  C   UNL     1      -8.266  18.159  68.057  1.00  0.00    -0.260 C  
ENDBRANCH  16  17
ENDBRANCH  15  16
ENDBRANCH  14  15
ENDBRANCH  12  14
ENDBRANCH  11  12
ENDBRANCH  10  11
ENDBRANCH   8  10
ENDBRANCH   7   8
ENDBRANCH   6   7
ENDBRANCH   5   6
ENDBRANCH   2   5
TORSDOF 11
ENDMDL
MODEL       46
REMARK 921   NORMALIZED FREE ENERGY PREDICTED BY IDOCK:   -4.13 KCAL/MOL
REMARK 922        TOTAL FREE ENERGY PREDICTED BY IDOCK:   -7.54 KCAL/MOL
REMARK 923 INTER-LIGAND FREE ENERGY PREDICTED BY IDOCK:   -6.87 KCAL/MOL
REMARK 924 INTRA-LIGAND FREE ENERGY PREDICTED BY IDOCK:   -0.67 KCAL/MOL
REMARK 927      BINDING AFFINITY PREDICTED BY RF-SCORE:    0.00 PKD
ROOT
HETATM    1  C   UNL     1     -12.427  12.220  63.424  1.00  0.00    -0.481 C  
HETATM    2  N   UNL     1     -11.720  13.101  64.462  1.00  0.00    -0.352 N  
HETATM    3  C   UNL     1     -10.214  12.943  64.258  1.00  0.00    -0.312 C  
HETATM    4  C   UNL     1     -12.128  14.548  64.216  1.00  0.00    -0.425 C  
ENDROOT
BRANCH   2   5
HETATM    5  C   UNL     1     -12.146  12.618  65.870  1.00  0.00    -0.396 C  
BRANCH   5   6
HETATM    6  C   UNL     1     -11.008  12.632  66.906  1.00  0.00    -0.262 C  
BRANCH   6   7
HETATM    7  O   UNL     1     -10.660  13.952  67.363  1.00  0.00    -0.264 OA 
BRANCH   7   8
HETATM    8  C   UNL     1     -11.460  14.439  68.353  1.00  0.00    -0.301 C  
HETATM    9  O   UNL     1     -11.914  13.751  69.256  1.00  0.00    -0.320 OA 
BRANCH   8  10
HETATM   10  C   UNL     1     -11.584  15.939  68.273  1.00  0.00    -0.274 C  
BRANCH  10  11
HETATM   11  C   UNL     1     -10.285  16.608  67.865  1.00  0.00    -0.284 C  
BRANCH  11  12
HETATM   12  C   UNL     1     -10.491  17.699  66.849  1.00  0.00    -0.290 C  
HETATM   13  O   UNL     1     -10.336  17.564  65.642  1.00  0.00    -0.601 OA 
BRANCH  12  14
HETATM   14  O   UNL     1     -10.746  18.897  67.445  1.00  0.00    -0.444 OA 
BRANCH  14  15
HETATM   15  C   UNL     1      -9.625  19.471  68.144  1.00  0.00    -0.368 C  
BRANCH  15  16
HETATM   16  C   UNL     1      -8.575  20.102  67.212  1.00  0.00    -0.343 C  
BRANCH  16  17
HETATM   17  N   UNL     1      -7.112  19.865  67.664  1.00  0.00    -0.253 N  
HETATM   18  C   UNL     1      -6.298  21.154  67.637  1.00  0.00    -0.355 C  
HETATM   19  C   UNL     1      -6.467  18.872  66.690  1.00  0.00    -0.189 C  
HETATM   20  C   UNL     1      -7.060  19.250  69.061  1.00  0.00    -0.356 C  
ENDBRANCH  16  17
ENDBRANCH  15  16
ENDBRANCH  14  15
ENDBRANCH  12  14
ENDBRANCH  11  12
ENDBRANCH  10  11
ENDBRANCH   8  10
ENDBRANCH   7   8
ENDBRANCH   6   7
ENDBRANCH   5   6
ENDBRANCH   2   5
TORSDOF 11
ENDMDL
MODEL       47
REMARK 921   NORMALIZED FREE ENERGY PREDICTED BY IDOCK:   -4.12 KCAL/MOL
REMARK 922        TOTAL FREE ENERGY PREDICTED BY IDOCK:   -7.52 KCAL/MOL
REMARK 923 INTER-LIGAND FREE ENERGY PREDICTED BY IDOCK:   -6.79 KCAL/MOL
REMARK 924 INTRA-LIGAND FREE ENERGY PREDICTED BY IDOCK:   -0.74 KCAL/MOL
REMARK 927      BINDING AFFINITY PREDICTED BY RF-SCORE:    0.00 PKD
ROOT
HETATM    1  C   UNL     1     -12.122  12.147  63.766  1.00  0.00    -0.525 C  
HETATM    2  N   UNL     1     -10.949  12.019  64.747  1.00  0.00    -0.301 N  
HETATM    3  C   UNL     1     -11.531  11.877  66.153  1.00  0.00    -0.288 C  
HETATM    4  C   UNL     1     -10.160  10.767  64.384  1.00  0.00    -0.353 C  
ENDROOT
BRANCH   2   5
HETATM    5  C   UNL     1     -10.083  13.296  64.626  1.00  0.00    -0.225 C  
BRANCH   5   6
HETATM    6  C   UNL     1     -10.892  14.605  64.664  1.00  0.00    -0.313 C  
BRANCH   6   7
HETATM    7  O   UNL     1     -10.334  15.602  65.540  1.00  0.00    -0.342 OA 
BRANCH   7   8
HETATM    8  C   UNL     1     -10.781  16.870  65.315  1.00  0.00    -0.134 C  
HETATM    9  O   UNL     1     -11.374  17.208  64.302  1.00  0.00    -1.126 OA 
BRANCH   8  10
HETATM   10  C   UNL     1     -10.583  17.746  66.526  1.00  0.00    -0.220 C  
BRANCH  10  11
HETATM   11  C   UNL     1     -10.111  19.141  66.162  1.00  0.00    -0.492 C  
BRANCH  11  12
HETATM   12  C   UNL     1      -9.778  19.973  67.372  1.00  0.00    -0.417 C  
HETATM   13  O   UNL     1     -10.419  19.973  68.414  1.00  0.00    -0.411 OA 
BRANCH  12  14
HETATM   14  O   UNL     1      -8.746  20.826  67.123  1.00  0.00    -0.273 OA 
BRANCH  14  15
HETATM   15  C   UNL     1      -7.472  20.185  66.923  1.00  0.00    -0.281 C  
BRANCH  15  16
HETATM   16  C   UNL     1      -6.900  19.539  68.197  1.00  0.00    -0.271 C  
BRANCH  16  17
HETATM   17  N   UNL     1      -6.509  18.049  68.023  1.00  0.00    -0.185 N  
HETATM   18  C   UNL     1      -6.513  17.633  66.557  1.00  0.00    -0.222 C  
HETATM   19  C   UNL     1      -7.544  17.196  68.766  1.00  0.00    -0.259 C  
HETATM   20  C   UNL     1      -5.141  17.764  68.639  1.00  0.00    -0.152 C  
ENDBRANCH  16  17
ENDBRANCH  15  16
ENDBRANCH  14  15
ENDBRANCH  12  14
ENDBRANCH  11  12
ENDBRANCH  10  11
ENDBRANCH   8  10
ENDBRANCH   7   8
ENDBRANCH   6   7
ENDBRANCH   5   6
ENDBRANCH   2   5
TORSDOF 11
ENDMDL
MODEL       48
REMARK 921   NORMALIZED FREE ENERGY PREDICTED BY IDOCK:   -4.11 KCAL/MOL
REMARK 922        TOTAL FREE ENERGY PREDICTED BY IDOCK:   -7.50 KCAL/MOL
REMARK 923 INTER-LIGAND FREE ENERGY PREDICTED BY IDOCK:   -6.86 KCAL/MOL
REMARK 924 INTRA-LIGAND FREE ENERGY PREDICTED BY IDOCK:   -0.64 KCAL/MOL
REMARK 927      BINDING AFFINITY PREDICTED BY RF-SCORE:    0.00 PKD
ROOT
HETATM    1  C   UNL     1     -10.120  13.596  67.750  1.00  0.00    -0.242 C  
HETATM    2  N   UNL     1     -11.196  14.648  67.451  1.00  0.00    -0.329 N  
HETATM    3  C   UNL     1     -10.506  15.849  66.804  1.00  0.00    -0.309 C  
HETATM    4  C   UNL     1     -12.198  14.040  66.478  1.00  0.00    -0.451 C  
ENDROOT
BRANCH   2   5
HETATM    5  C   UNL     1     -11.865  15.042  68.790  1.00  0.00    -0.301 C  
BRANCH   5   6
HETATM    6  C   UNL     1     -12.136  13.852  69.727  1.00  0.00    -0.345 C  
BRANCH   6   7
HETATM    7  O   UNL     1     -12.939  14.191  70.873  1.00  0.00    -0.336 OA 
BRANCH   7   8
HETATM    8  C   UNL     1     -13.240  13.141  71.687  1.00  0.00    -0.346 C  
HETATM    9  O   UNL     1     -14.007  13.217  72.636  1.00  0.00    -0.741 OA 
BRANCH   8  10
HETATM   10  C   UNL     1     -12.627  11.860  71.181  1.00  0.00    -0.390 C  
BRANCH  10  11
HETATM   11  C   UNL     1     -13.207  10.632  71.858  1.00  0.00    -0.528 C  
BRANCH  11  12
HETATM   12  C   UNL     1     -12.290   9.441  71.779  1.00  0.00    -0.394 C  
HETATM   13  O   UNL     1     -12.584   8.312  72.149  1.00  0.00    -0.328 OA 
BRANCH  12  14
HETATM   14  O   UNL     1     -11.043   9.796  71.365  1.00  0.00    -0.359 OA 
BRANCH  14  15
HETATM   15  C   UNL     1     -10.249   8.710  70.849  1.00  0.00    -0.209 C  
BRANCH  15  16
HETATM   16  C   UNL     1     -10.222   8.642  69.312  1.00  0.00    -0.211 C  
BRANCH  16  17
HETATM   17  N   UNL     1     -10.223   7.199  68.748  1.00  0.00    -0.174 N  
HETATM   18  C   UNL     1      -8.855   6.540  68.880  1.00  0.00    -0.126 C  
HETATM   19  C   UNL     1     -10.579   7.270  67.259  1.00  0.00    -0.325 C  
HETATM   20  C   UNL     1     -11.279   6.339  69.440  1.00  0.00    -0.420 C  
ENDBRANCH  16  17
ENDBRANCH  15  16
ENDBRANCH  14  15
ENDBRANCH  12  14
ENDBRANCH  11  12
ENDBRANCH  10  11
ENDBRANCH   8  10
ENDBRANCH   7   8
ENDBRANCH   6   7
ENDBRANCH   5   6
ENDBRANCH   2   5
TORSDOF 11
ENDMDL
MODEL       49
REMARK 921   NORMALIZED FREE ENERGY PREDICTED BY IDOCK:   -4.10 KCAL/MOL
REMARK 922        TOTAL FREE ENERGY PREDICTED BY IDOCK:   -7.49 KCAL/MOL
REMARK 923 INTER-LIGAND FREE ENERGY PREDICTED BY IDOCK:   -6.85 KCAL/MOL
REMARK 924 INTRA-LIGAND FREE ENERGY PREDICTED BY IDOCK:   -0.64 KCAL/MOL
REMARK 927      BINDING AFFINITY PREDICTED BY RF-SCORE:    0.00 PKD
ROOT
HETATM    1  C   UNL     1     -10.643   7.715  69.774  1.00  0.00    -0.244 C  
HETATM    2  N   UNL     1     -10.319   9.214  69.732  1.00  0.00    -0.206 N  
HETATM    3  C   UNL     1     -11.198   9.910  70.770  1.00  0.00    -0.353 C  
HETATM    4  C   UNL     1      -8.849   9.391  70.094  1.00  0.00    -0.223 C  
ENDROOT
BRANCH   2   5
HETATM    5  C   UNL     1     -10.623   9.730  68.305  1.00  0.00    -0.229 C  
BRANCH   5   6
HETATM    6  C   UNL     1     -11.422  11.045  68.274  1.00  0.00    -0.304 C  
BRANCH   6   7
HETATM    7  O   UNL     1     -11.895  11.401  66.962  1.00  0.00    -0.530 OA 
BRANCH   7   8
HETATM    8  C   UNL     1     -11.188  12.394  66.353  1.00  0.00    -0.319 C  
HETATM    9  O   UNL     1     -10.109  12.218  65.806  1.00  0.00    -0.243 OA 
BRANCH   8  10
HETATM   10  C   UNL     1     -11.968  13.682  66.315  1.00  0.00    -0.461 C  
BRANCH  10  11
HETATM   11  C   UNL     1     -11.083  14.903  66.490  1.00  0.00    -0.341 C  
BRANCH  11  12
HETATM   12  C   UNL     1     -11.215  15.522  67.856  1.00  0.00    -0.325 C  
HETATM   13  O   UNL     1     -11.115  16.719  68.090  1.00  0.00    -0.363 OA 
BRANCH  12  14
HETATM   14  O   UNL     1     -11.331  14.573  68.826  1.00  0.00    -0.247 OA 
BRANCH  14  15
HETATM   15  C   UNL     1     -12.451  14.755  69.713  1.00  0.00    -0.191 C  
BRANCH  15  16
HETATM   16  C   UNL     1     -12.046  15.157  71.142  1.00  0.00    -0.333 C  
BRANCH  16  17
HETATM   17  N   UNL     1     -13.063  14.722  72.228  1.00  0.00    -0.331 N  
HETATM   18  C   UNL     1     -14.394  15.450  72.078  1.00  0.00    -0.550 C  
HETATM   19  C   UNL     1     -12.477  15.077  73.599  1.00  0.00    -0.532 C  
HETATM   20  C   UNL     1     -13.292  13.213  72.195  1.00  0.00    -0.524 C  
ENDBRANCH  16  17
ENDBRANCH  15  16
ENDBRANCH  14  15
ENDBRANCH  12  14
ENDBRANCH  11  12
ENDBRANCH  10  11
ENDBRANCH   8  10
ENDBRANCH   7   8
ENDBRANCH   6   7
ENDBRANCH   5   6
ENDBRANCH   2   5
TORSDOF 11
ENDMDL
MODEL       50
REMARK 921   NORMALIZED FREE ENERGY PREDICTED BY IDOCK:   -4.10 KCAL/MOL
REMARK 922        TOTAL FREE ENERGY PREDICTED BY IDOCK:   -7.48 KCAL/MOL
REMARK 923 INTER-LIGAND FREE ENERGY PREDICTED BY IDOCK:   -6.70 KCAL/MOL
REMARK 924 INTRA-LIGAND FREE ENERGY PREDICTED BY IDOCK:   -0.78 KCAL/MOL
REMARK 927      BINDING AFFINITY PREDICTED BY RF-SCORE:    0.00 PKD
ROOT
HETATM    1  C   UNL     1     -10.604   5.429  71.922  1.00  0.00    -0.226 C  
HETATM    2  N   UNL     1     -11.009   6.748  71.251  1.00  0.00    -0.242 N  
HETATM    3  C   UNL     1      -9.944   7.789  71.589  1.00  0.00    -0.174 C  
HETATM    4  C   UNL     1     -11.052   6.521  69.745  1.00  0.00    -0.370 C  
ENDROOT
BRANCH   2   5
HETATM    5  C   UNL     1     -12.393   7.163  71.807  1.00  0.00    -0.350 C  
BRANCH   5   6
HETATM    6  C   UNL     1     -12.520   8.667  72.105  1.00  0.00    -0.389 C  
BRANCH   6   7
HETATM    7  O   UNL     1     -12.899   9.452  70.959  1.00  0.00    -0.277 OA 
BRANCH   7   8
HETATM    8  C   UNL     1     -12.835  10.800  71.148  1.00  0.00    -0.414 C  
HETATM    9  O   UNL     1     -13.316  11.372  72.115  1.00  0.00    -0.469 OA 
BRANCH   8  10
HETATM   10  C   UNL     1     -11.977  11.462  70.101  1.00  0.00    -0.460 C  
BRANCH  10  11
HETATM   11  C   UNL     1     -11.177  10.462  69.288  1.00  0.00    -0.304 C  
BRANCH  11  12
HETATM   12  C   UNL     1     -11.136  10.807  67.823  1.00  0.00    -0.318 C  
HETATM   13  O   UNL     1     -10.348  10.331  67.018  1.00  0.00    -0.219 OA 
BRANCH  12  14
HETATM   14  O   UNL     1     -12.001  11.816  67.523  1.00  0.00    -0.607 OA 
BRANCH  14  15
HETATM   15  C   UNL     1     -11.442  12.864  66.708  1.00  0.00    -0.340 C  
BRANCH  15  16
HETATM   16  C   UNL     1     -11.958  14.267  67.070  1.00  0.00    -0.433 C  
BRANCH  16  17
HETATM   17  N   UNL     1     -11.087  15.004  68.120  1.00  0.00    -0.279 N  
HETATM   18  C   UNL     1      -9.769  14.281  68.367  1.00  0.00    -0.225 C  
HETATM   19  C   UNL     1     -11.866  15.044  69.440  1.00  0.00    -0.329 C  
HETATM   20  C   UNL     1     -10.815  16.446  67.695  1.00  0.00    -0.280 C  
ENDBRANCH  16  17
ENDBRANCH  15  16
ENDBRANCH  14  15
ENDBRANCH  12  14
ENDBRANCH  11  12
ENDBRANCH  10  11
ENDBRANCH   8  10
ENDBRANCH   7   8
ENDBRANCH   6   7
ENDBRANCH   5   6
ENDBRANCH   2   5
TORSDOF 11
ENDMDL
MODEL       51
REMARK 921   NORMALIZED FREE ENERGY PREDICTED BY IDOCK:   -4.09 KCAL/MOL
REMARK 922        TOTAL FREE ENERGY PREDICTED BY IDOCK:   -7.48 KCAL/MOL
REMARK 923 INTER-LIGAND FREE ENERGY PREDICTED BY IDOCK:   -6.75 KCAL/MOL
REMARK 924 INTRA-LIGAND FREE ENERGY PREDICTED BY IDOCK:   -0.73 KCAL/MOL
REMARK 927      BINDING AFFINITY PREDICTED BY RF-SCORE:    0.00 PKD
ROOT
HETATM    1  C   UNL     1     -12.108  11.881  63.459  1.00  0.00    -0.470 C  
HETATM    2  N   UNL     1     -10.670  11.877  63.992  1.00  0.00    -0.337 N  
HETATM    3  C   UNL     1     -10.634  10.982  65.230  1.00  0.00    -0.214 C  
HETATM    4  C   UNL     1      -9.763  11.303  62.910  1.00  0.00    -0.323 C  
ENDROOT
BRANCH   2   5
HETATM    5  C   UNL     1     -10.287  13.335  64.345  1.00  0.00    -0.351 C  
BRANCH   5   6
HETATM    6  C   UNL     1      -9.961  13.552  65.834  1.00  0.00    -0.283 C  
BRANCH   6   7
HETATM    7  O   UNL     1     -10.774  14.562  66.460  1.00  0.00    -0.302 OA 
BRANCH   7   8
HETATM    8  C   UNL     1     -12.021  14.144  66.820  1.00  0.00    -0.447 C  
HETATM    9  O   UNL     1     -12.951  14.038  66.035  1.00  0.00    -0.381 OA 
BRANCH   8  10
HETATM   10  C   UNL     1     -12.057  13.697  68.258  1.00  0.00    -0.306 C  
BRANCH  10  11
HETATM   11  C   UNL     1     -11.023  14.406  69.114  1.00  0.00    -0.288 C  
BRANCH  11  12
HETATM   12  C   UNL     1     -11.601  15.570  69.873  1.00  0.00    -0.335 C  
HETATM   13  O   UNL     1     -12.704  15.576  70.404  1.00  0.00    -0.425 OA 
BRANCH  12  14
HETATM   14  O   UNL     1     -10.800  16.668  69.791  1.00  0.00    -0.333 OA 
BRANCH  14  15
HETATM   15  C   UNL     1     -10.782  17.301  68.497  1.00  0.00    -0.305 C  
BRANCH  15  16
HETATM   16  C   UNL     1      -9.369  17.462  67.910  1.00  0.00    -0.267 C  
BRANCH  16  17
HETATM   17  N   UNL     1      -8.948  18.936  67.681  1.00  0.00    -0.285 N  
HETATM   18  C   UNL     1      -8.086  19.460  68.823  1.00  0.00    -0.353 C  
HETATM   19  C   UNL     1     -10.221  19.789  67.612  1.00  0.00    -0.434 C  
HETATM   20  C   UNL     1      -8.206  19.097  66.356  1.00  0.00    -0.314 C  
ENDBRANCH  16  17
ENDBRANCH  15  16
ENDBRANCH  14  15
ENDBRANCH  12  14
ENDBRANCH  11  12
ENDBRANCH  10  11
ENDBRANCH   8  10
ENDBRANCH   7   8
ENDBRANCH   6   7
ENDBRANCH   5   6
ENDBRANCH   2   5
TORSDOF 11
ENDMDL
MODEL       52
REMARK 921   NORMALIZED FREE ENERGY PREDICTED BY IDOCK:   -4.09 KCAL/MOL
REMARK 922        TOTAL FREE ENERGY PREDICTED BY IDOCK:   -7.47 KCAL/MOL
REMARK 923 INTER-LIGAND FREE ENERGY PREDICTED BY IDOCK:   -6.75 KCAL/MOL
REMARK 924 INTRA-LIGAND FREE ENERGY PREDICTED BY IDOCK:   -0.72 KCAL/MOL
REMARK 927      BINDING AFFINITY PREDICTED BY RF-SCORE:    0.00 PKD
ROOT
HETATM    1  C   UNL     1     -11.027   7.389  70.102  1.00  0.00    -0.255 C  
HETATM    2  N   UNL     1     -11.449   8.216  71.323  1.00  0.00    -0.261 N  
HETATM    3  C   UNL     1     -12.948   8.006  71.534  1.00  0.00    -0.303 C  
HETATM    4  C   UNL     1     -10.679   7.703  72.534  1.00  0.00    -0.296 C  
ENDROOT
BRANCH   2   5
HETATM    5  C   UNL     1     -11.129   9.702  71.029  1.00  0.00    -0.368 C  
BRANCH   5   6
HETATM    6  C   UNL     1     -12.301  10.661  71.308  1.00  0.00    -0.383 C  
BRANCH   6   7
HETATM    7  O   UNL     1     -12.268  11.858  70.510  1.00  0.00    -0.362 OA 
BRANCH   7   8
HETATM    8  C   UNL     1     -12.758  12.968  71.131  1.00  0.00    -0.283 C  
HETATM    9  O   UNL     1     -13.410  12.933  72.164  1.00  0.00    -0.512 OA 
BRANCH   8  10
HETATM   10  C   UNL     1     -12.270  14.230  70.468  1.00  0.00    -0.427 C  
BRANCH  10  11
HETATM   11  C   UNL     1     -11.500  13.955  69.190  1.00  0.00    -0.345 C  
BRANCH  11  12
HETATM   12  C   UNL     1     -10.945  15.208  68.567  1.00  0.00    -0.262 C  
HETATM   13  O   UNL     1     -11.528  16.283  68.529  1.00  0.00    -0.371 OA 
BRANCH  12  14
HETATM   14  O   UNL     1      -9.763  14.971  67.934  1.00  0.00    -0.210 OA 
BRANCH  14  15
HETATM   15  C   UNL     1      -9.736  13.765  67.146  1.00  0.00    -0.244 C  
BRANCH  15  16
HETATM   16  C   UNL     1     -10.171  13.974  65.685  1.00  0.00    -0.334 C  
BRANCH  16  17
HETATM   17  N   UNL     1     -11.394  13.119  65.266  1.00  0.00    -0.292 N  
HETATM   18  C   UNL     1     -11.514  11.856  66.111  1.00  0.00    -0.288 C  
HETATM   19  C   UNL     1     -11.204  12.700  63.804  1.00  0.00    -0.463 C  
HETATM   20  C   UNL     1     -12.687  13.926  65.356  1.00  0.00    -0.490 C  
ENDBRANCH  16  17
ENDBRANCH  15  16
ENDBRANCH  14  15
ENDBRANCH  12  14
ENDBRANCH  11  12
ENDBRANCH  10  11
ENDBRANCH   8  10
ENDBRANCH   7   8
ENDBRANCH   6   7
ENDBRANCH   5   6
ENDBRANCH   2   5
TORSDOF 11
ENDMDL
MODEL       53
REMARK 921   NORMALIZED FREE ENERGY PREDICTED BY IDOCK:   -4.09 KCAL/MOL
REMARK 922        TOTAL FREE ENERGY PREDICTED BY IDOCK:   -7.47 KCAL/MOL
REMARK 923 INTER-LIGAND FREE ENERGY PREDICTED BY IDOCK:   -6.85 KCAL/MOL
REMARK 924 INTRA-LIGAND FREE ENERGY PREDICTED BY IDOCK:   -0.62 KCAL/MOL
REMARK 927      BINDING AFFINITY PREDICTED BY RF-SCORE:    0.00 PKD
ROOT
HETATM    1  C   UNL     1     -10.378  13.024  64.435  1.00  0.00    -0.374 C  
HETATM    2  N   UNL     1     -11.868  13.293  64.682  1.00  0.00    -0.360 N  
HETATM    3  C   UNL     1     -12.156  14.736  64.270  1.00  0.00    -0.394 C  
HETATM    4  C   UNL     1     -12.674  12.335  63.813  1.00  0.00    -0.405 C  
ENDROOT
BRANCH   2   5
HETATM    5  C   UNL     1     -12.151  13.075  66.188  1.00  0.00    -0.409 C  
BRANCH   5   6
HETATM    6  C   UNL     1     -11.264  11.999  66.841  1.00  0.00    -0.320 C  
BRANCH   6   7
HETATM    7  O   UNL     1     -11.980  11.127  67.736  1.00  0.00    -0.630 OA 
BRANCH   7   8
HETATM    8  C   UNL     1     -11.245  10.666  68.787  1.00  0.00    -0.279 C  
HETATM    9  O   UNL     1     -10.062  10.370  68.708  1.00  0.00    -0.170 OA 
BRANCH   8  10
HETATM   10  C   UNL     1     -12.034  10.712  70.071  1.00  0.00    -0.408 C  
BRANCH  10  11
HETATM   11  C   UNL     1     -11.433   9.833  71.153  1.00  0.00    -0.472 C  
BRANCH  11  12
HETATM   12  C   UNL     1     -12.475   9.256  72.074  1.00  0.00    -0.378 C  
HETATM   13  O   UNL     1     -13.600   9.712  72.223  1.00  0.00    -0.438 OA 
BRANCH  12  14
HETATM   14  O   UNL     1     -11.970   8.236  72.822  1.00  0.00    -0.377 OA 
BRANCH  14  15
HETATM   15  C   UNL     1     -10.619   7.861  72.492  1.00  0.00    -0.315 C  
BRANCH  15  16
HETATM   16  C   UNL     1     -10.484   6.407  72.008  1.00  0.00    -0.208 C  
BRANCH  16  17
HETATM   17  N   UNL     1     -10.087   6.277  70.515  1.00  0.00    -0.185 N  
HETATM   18  C   UNL     1     -11.289   6.460  69.595  1.00  0.00    -0.412 C  
HETATM   19  C   UNL     1      -9.524   4.869  70.292  1.00  0.00    -0.171 C  
HETATM   20  C   UNL     1      -8.996   7.280  70.146  1.00  0.00    -0.148 C  
ENDBRANCH  16  17
ENDBRANCH  15  16
ENDBRANCH  14  15
ENDBRANCH  12  14
ENDBRANCH  11  12
ENDBRANCH  10  11
ENDBRANCH   8  10
ENDBRANCH   7   8
ENDBRANCH   6   7
ENDBRANCH   5   6
ENDBRANCH   2   5
TORSDOF 11
ENDMDL
MODEL       54
REMARK 921   NORMALIZED FREE ENERGY PREDICTED BY IDOCK:   -4.07 KCAL/MOL
REMARK 922        TOTAL FREE ENERGY PREDICTED BY IDOCK:   -7.45 KCAL/MOL
REMARK 923 INTER-LIGAND FREE ENERGY PREDICTED BY IDOCK:   -6.49 KCAL/MOL
REMARK 924 INTRA-LIGAND FREE ENERGY PREDICTED BY IDOCK:   -0.96 KCAL/MOL
REMARK 927      BINDING AFFINITY PREDICTED BY RF-SCORE:    0.00 PKD
ROOT
HETATM    1  C   UNL     1     -10.469   9.807  69.433  1.00  0.00    -0.223 C  
HETATM    2  N   UNL     1      -9.572  10.047  68.212  1.00  0.00    -0.139 N  
HETATM    3  C   UNL     1      -8.767  11.320  68.469  1.00  0.00    -0.156 C  
HETATM    4  C   UNL     1      -8.630   8.857  68.073  1.00  0.00    -0.130 C  
ENDROOT
BRANCH   2   5
HETATM    5  C   UNL     1     -10.484  10.203  66.971  1.00  0.00    -0.240 C  
BRANCH   5   6
HETATM    6  C   UNL     1      -9.802   9.825  65.644  1.00  0.00    -0.301 C  
BRANCH   6   7
HETATM    7  O   UNL     1      -9.391  10.963  64.863  1.00  0.00    -0.208 OA 
BRANCH   7   8
HETATM    8  C   UNL     1      -9.921  11.012  63.609  1.00  0.00    -0.361 C  
HETATM    9  O   UNL     1      -9.589  10.261  62.703  1.00  0.00    -0.310 OA 
BRANCH   8  10
HETATM   10  C   UNL     1     -11.059  11.997  63.530  1.00  0.00    -0.519 C  
BRANCH  10  11
HETATM   11  C   UNL     1     -10.831  13.218  64.403  1.00  0.00    -0.422 C  
BRANCH  11  12
HETATM   12  C   UNL     1     -12.097  13.993  64.656  1.00  0.00    -0.440 C  
HETATM   13  O   UNL     1     -12.657  14.699  63.828  1.00  0.00    -0.820 OA 
BRANCH  12  14
HETATM   14  O   UNL     1     -12.477  13.917  65.961  1.00  0.00    -0.463 OA 
BRANCH  14  15
HETATM   15  C   UNL     1     -11.394  14.002  66.907  1.00  0.00    -0.329 C  
BRANCH  15  16
HETATM   16  C   UNL     1     -11.375  15.316  67.707  1.00  0.00    -0.326 C  
BRANCH  16  17
HETATM   17  N   UNL     1     -10.220  16.272  67.314  1.00  0.00    -0.274 N  
HETATM   18  C   UNL     1     -10.529  17.034  66.031  1.00  0.00    -0.274 C  
HETATM   19  C   UNL     1      -8.963  15.427  67.077  1.00  0.00    -0.231 C  
HETATM   20  C   UNL     1      -9.914  17.258  68.441  1.00  0.00    -0.322 C  
ENDBRANCH  16  17
ENDBRANCH  15  16
ENDBRANCH  14  15
ENDBRANCH  12  14
ENDBRANCH  11  12
ENDBRANCH  10  11
ENDBRANCH   8  10
ENDBRANCH   7   8
ENDBRANCH   6   7
ENDBRANCH   5   6
ENDBRANCH   2   5
TORSDOF 11
ENDMDL
MODEL       55
REMARK 921   NORMALIZED FREE ENERGY PREDICTED BY IDOCK:   -4.07 KCAL/MOL
REMARK 922        TOTAL FREE ENERGY PREDICTED BY IDOCK:   -7.44 KCAL/MOL
REMARK 923 INTER-LIGAND FREE ENERGY PREDICTED BY IDOCK:   -6.74 KCAL/MOL
REMARK 924 INTRA-LIGAND FREE ENERGY PREDICTED BY IDOCK:   -0.70 KCAL/MOL
REMARK 927      BINDING AFFINITY PREDICTED BY RF-SCORE:    0.00 PKD
ROOT
HETATM    1  C   UNL     1     -12.264  14.334  64.541  1.00  0.00    -0.455 C  
HETATM    2  N   UNL     1     -11.264  13.974  65.647  1.00  0.00    -0.306 N  
HETATM    3  C   UNL     1     -10.808  12.534  65.412  1.00  0.00    -0.282 C  
HETATM    4  C   UNL     1     -10.073  14.919  65.537  1.00  0.00    -0.370 C  
ENDROOT
BRANCH   2   5
HETATM    5  C   UNL     1     -11.983  14.117  67.009  1.00  0.00    -0.439 C  
BRANCH   5   6
HETATM    6  C   UNL     1     -11.200  13.525  68.195  1.00  0.00    -0.272 C  
BRANCH   6   7
HETATM    7  O   UNL     1     -12.031  13.169  69.316  1.00  0.00    -0.311 OA 
BRANCH   7   8
HETATM    8  C   UNL     1     -12.220  11.830  69.479  1.00  0.00    -0.169 C  
HETATM    9  O   UNL     1     -12.083  11.012  68.581  1.00  0.00    -0.551 OA 
BRANCH   8  10
HETATM   10  C   UNL     1     -12.467  11.481  70.925  1.00  0.00    -0.464 C  
BRANCH  10  11
HETATM   11  C   UNL     1     -12.681   9.994  71.135  1.00  0.00    -0.484 C  
BRANCH  11  12
HETATM   12  C   UNL     1     -11.451   9.301  71.659  1.00  0.00    -0.398 C  
HETATM   13  O   UNL     1     -10.307   9.553  71.304  1.00  0.00    -0.312 OA 
BRANCH  12  14
HETATM   14  O   UNL     1     -11.772   8.268  72.484  1.00  0.00    -0.386 OA 
BRANCH  14  15
HETATM   15  C   UNL     1     -12.008   7.015  71.814  1.00  0.00    -0.326 C  
BRANCH  15  16
HETATM   16  C   UNL     1     -10.803   6.058  71.855  1.00  0.00    -0.254 C  
BRANCH  16  17
HETATM   17  N   UNL     1     -10.184   5.768  70.464  1.00  0.00    -0.206 N  
HETATM   18  C   UNL     1      -9.850   4.291  70.292  1.00  0.00    -0.193 C  
HETATM   19  C   UNL     1      -8.883   6.570  70.345  1.00  0.00    -0.151 C  
HETATM   20  C   UNL     1     -11.116   6.222  69.342  1.00  0.00    -0.410 C  
ENDBRANCH  16  17
ENDBRANCH  15  16
ENDBRANCH  14  15
ENDBRANCH  12  14
ENDBRANCH  11  12
ENDBRANCH  10  11
ENDBRANCH   8  10
ENDBRANCH   7   8
ENDBRANCH   6   7
ENDBRANCH   5   6
ENDBRANCH   2   5
TORSDOF 11
ENDMDL
MODEL       56
REMARK 921   NORMALIZED FREE ENERGY PREDICTED BY IDOCK:   -4.07 KCAL/MOL
REMARK 922        TOTAL FREE ENERGY PREDICTED BY IDOCK:   -7.44 KCAL/MOL
REMARK 923 INTER-LIGAND FREE ENERGY PREDICTED BY IDOCK:   -6.67 KCAL/MOL
REMARK 924 INTRA-LIGAND FREE ENERGY PREDICTED BY IDOCK:   -0.77 KCAL/MOL
REMARK 927      BINDING AFFINITY PREDICTED BY RF-SCORE:    0.00 PKD
ROOT
HETATM    1  C   UNL     1      -6.618  18.086  66.340  1.00  0.00    -0.221 C  
HETATM    2  N   UNL     1      -7.881  18.481  67.116  1.00  0.00    -0.227 N  
HETATM    3  C   UNL     1      -7.444  18.985  68.491  1.00  0.00    -0.317 C  
HETATM    4  C   UNL     1      -8.579  19.599  66.351  1.00  0.00    -0.361 C  
ENDROOT
BRANCH   2   5
HETATM    5  C   UNL     1      -8.778  17.226  67.240  1.00  0.00    -0.211 C  
BRANCH   5   6
HETATM    6  C   UNL     1      -9.996  17.234  66.299  1.00  0.00    -0.300 C  
BRANCH   6   7
HETATM    7  O   UNL     1     -10.016  16.130  65.373  1.00  0.00    -0.482 OA 
BRANCH   7   8
HETATM    8  C   UNL     1     -11.205  15.947  64.734  1.00  0.00    -0.355 C  
HETATM    9  O   UNL     1     -11.617  16.680  63.847  1.00  0.00    -1.204 OA 
BRANCH   8  10
HETATM   10  C   UNL     1     -11.864  14.659  65.155  1.00  0.00    -0.351 C  
BRANCH  10  11
HETATM   11  C   UNL     1     -12.203  13.767  63.975  1.00  0.00    -0.429 C  
BRANCH  11  12
HETATM   12  C   UNL     1     -11.829  12.328  64.211  1.00  0.00    -0.403 C  
HETATM   13  O   UNL     1     -11.834  11.458  63.351  1.00  0.00    -0.247 OA 
BRANCH  12  14
HETATM   14  O   UNL     1     -11.606  12.080  65.531  1.00  0.00    -0.350 OA 
BRANCH  14  15
HETATM   15  C   UNL     1     -10.515  11.176  65.796  1.00  0.00    -0.246 C  
BRANCH  15  16
HETATM   16  C   UNL     1      -9.230  11.882  66.262  1.00  0.00    -0.214 C  
BRANCH  16  17
HETATM   17  N   UNL     1      -9.184  12.162  67.786  1.00  0.00    -0.182 N  
HETATM   18  C   UNL     1      -9.721  13.548  68.120  1.00  0.00    -0.233 C  
HETATM   19  C   UNL     1      -7.721  12.093  68.239  1.00  0.00    -0.135 C  
HETATM   20  C   UNL     1      -9.964  11.103  68.563  1.00  0.00    -0.199 C  
ENDBRANCH  16  17
ENDBRANCH  15  16
ENDBRANCH  14  15
ENDBRANCH  12  14
ENDBRANCH  11  12
ENDBRANCH  10  11
ENDBRANCH   8  10
ENDBRANCH   7   8
ENDBRANCH   6   7
ENDBRANCH   5   6
ENDBRANCH   2   5
TORSDOF 11
ENDMDL
MODEL       57
REMARK 921   NORMALIZED FREE ENERGY PREDICTED BY IDOCK:   -4.07 KCAL/MOL
REMARK 922        TOTAL FREE ENERGY PREDICTED BY IDOCK:   -7.44 KCAL/MOL
REMARK 923 INTER-LIGAND FREE ENERGY PREDICTED BY IDOCK:   -6.48 KCAL/MOL
REMARK 924 INTRA-LIGAND FREE ENERGY PREDICTED BY IDOCK:   -0.96 KCAL/MOL
REMARK 927      BINDING AFFINITY PREDICTED BY RF-SCORE:    0.00 PKD
ROOT
HETATM    1  C   UNL     1     -11.747  15.644  68.627  1.00  0.00    -0.352 C  
HETATM    2  N   UNL     1     -11.044  14.875  67.501  1.00  0.00    -0.307 N  
HETATM    3  C   UNL     1     -10.700  15.876  66.398  1.00  0.00    -0.256 C  
HETATM    4  C   UNL     1      -9.766  14.267  68.067  1.00  0.00    -0.223 C  
ENDROOT
BRANCH   2   5
HETATM    5  C   UNL     1     -12.015  13.787  66.985  1.00  0.00    -0.413 C  
BRANCH   5   6
HETATM    6  C   UNL     1     -12.282  13.855  65.470  1.00  0.00    -0.444 C  
BRANCH   6   7
HETATM    7  O   UNL     1     -12.954  12.692  64.950  1.00  0.00    -0.830 OA 
BRANCH   7   8
HETATM    8  C   UNL     1     -12.485  12.256  63.748  1.00  0.00    -0.515 C  
HETATM    9  O   UNL     1     -13.203  11.817  62.861  1.00  0.00    -0.357 OA 
BRANCH   8  10
HETATM   10  C   UNL     1     -11.009  12.523  63.602  1.00  0.00    -0.507 C  
BRANCH  10  11
HETATM   11  C   UNL     1     -10.170  11.278  63.818  1.00  0.00    -0.431 C  
BRANCH  11  12
HETATM   12  C   UNL     1      -9.791  11.078  65.261  1.00  0.00    -0.259 C  
HETATM   13  O   UNL     1      -8.957  11.744  65.860  1.00  0.00    -0.167 OA 
BRANCH  12  14
HETATM   14  O   UNL     1     -10.397   9.979  65.789  1.00  0.00    -0.228 OA 
BRANCH  14  15
HETATM   15  C   UNL     1     -10.785  10.112  67.170  1.00  0.00    -0.221 C  
BRANCH  15  16
HETATM   16  C   UNL     1     -10.407   8.898  68.036  1.00  0.00    -0.219 C  
BRANCH  16  17
HETATM   17  N   UNL     1      -9.597   9.261  69.307  1.00  0.00    -0.157 N  
HETATM   18  C   UNL     1      -8.478  10.249  68.998  1.00  0.00    -0.150 C  
HETATM   19  C   UNL     1      -8.964   7.976  69.851  1.00  0.00    -0.145 C  
HETATM   20  C   UNL     1     -10.505   9.831  70.394  1.00  0.00    -0.297 C  
ENDBRANCH  16  17
ENDBRANCH  15  16
ENDBRANCH  14  15
ENDBRANCH  12  14
ENDBRANCH  11  12
ENDBRANCH  10  11
ENDBRANCH   8  10
ENDBRANCH   7   8
ENDBRANCH   6   7
ENDBRANCH   5   6
ENDBRANCH   2   5
TORSDOF 11
ENDMDL
MODEL       58
REMARK 921   NORMALIZED FREE ENERGY PREDICTED BY IDOCK:   -4.05 KCAL/MOL
REMARK 922        TOTAL FREE ENERGY PREDICTED BY IDOCK:   -7.41 KCAL/MOL
REMARK 923 INTER-LIGAND FREE ENERGY PREDICTED BY IDOCK:   -6.62 KCAL/MOL
REMARK 924 INTRA-LIGAND FREE ENERGY PREDICTED BY IDOCK:   -0.79 KCAL/MOL
REMARK 927      BINDING AFFINITY PREDICTED BY RF-SCORE:    0.00 PKD
ROOT
HETATM    1  C   UNL     1      -7.575  17.312  66.238  1.00  0.00    -0.325 C  
HETATM    2  N   UNL     1      -8.896  16.904  66.902  1.00  0.00    -0.215 N  
HETATM    3  C   UNL     1      -8.686  16.932  68.415  1.00  0.00    -0.244 C  
HETATM    4  C   UNL     1      -9.960  17.921  66.508  1.00  0.00    -0.357 C  
ENDROOT
BRANCH   2   5
HETATM    5  C   UNL     1      -9.258  15.480  66.414  1.00  0.00    -0.305 C  
BRANCH   5   6
HETATM    6  C   UNL     1     -10.426  15.441  65.412  1.00  0.00    -0.402 C  
BRANCH   6   7
HETATM    7  O   UNL     1     -11.521  14.608  65.837  1.00  0.00    -0.344 OA 
BRANCH   7   8
HETATM    8  C   UNL     1     -12.336  14.185  64.830  1.00  0.00    -0.417 C  
HETATM    9  O   UNL     1     -12.819  14.932  63.991  1.00  0.00    -0.701 OA 
BRANCH   8  10
HETATM   10  C   UNL     1     -12.438  12.682  64.799  1.00  0.00    -0.555 C  
BRANCH  10  11
HETATM   11  C   UNL     1     -11.919  12.091  63.502  1.00  0.00    -0.605 C  
BRANCH  11  12
HETATM   12  C   UNL     1     -10.530  11.527  63.638  1.00  0.00    -0.427 C  
HETATM   13  O   UNL     1     -10.003  10.773  62.831  1.00  0.00    -0.307 OA 
BRANCH  12  14
HETATM   14  O   UNL     1      -9.972  11.855  64.837  1.00  0.00    -0.253 OA 
BRANCH  14  15
HETATM   15  C   UNL     1      -9.220  10.796  65.459  1.00  0.00    -0.202 C  
BRANCH  15  16
HETATM   16  C   UNL     1      -8.743  11.133  66.882  1.00  0.00    -0.152 C  
BRANCH  16  17
HETATM   17  N   UNL     1      -9.741  10.719  67.993  1.00  0.00    -0.159 N  
HETATM   18  C   UNL     1     -10.690   9.624  67.519  1.00  0.00    -0.256 C  
HETATM   19  C   UNL     1     -10.578  11.949  68.364  1.00  0.00    -0.218 C  
HETATM   20  C   UNL     1      -9.006  10.257  69.250  1.00  0.00    -0.179 C  
ENDBRANCH  16  17
ENDBRANCH  15  16
ENDBRANCH  14  15
ENDBRANCH  12  14
ENDBRANCH  11  12
ENDBRANCH  10  11
ENDBRANCH   8  10
ENDBRANCH   7   8
ENDBRANCH   6   7
ENDBRANCH   5   6
ENDBRANCH   2   5
TORSDOF 11
ENDMDL
MODEL       59
REMARK 921   NORMALIZED FREE ENERGY PREDICTED BY IDOCK:   -4.05 KCAL/MOL
REMARK 922        TOTAL FREE ENERGY PREDICTED BY IDOCK:   -7.40 KCAL/MOL
REMARK 923 INTER-LIGAND FREE ENERGY PREDICTED BY IDOCK:   -6.76 KCAL/MOL
REMARK 924 INTRA-LIGAND FREE ENERGY PREDICTED BY IDOCK:   -0.64 KCAL/MOL
REMARK 927      BINDING AFFINITY PREDICTED BY RF-SCORE:    0.00 PKD
ROOT
HETATM    1  C   UNL     1      -8.846   9.113  65.114  1.00  0.00    -0.200 C  
HETATM    2  N   UNL     1      -9.132  10.181  66.178  1.00  0.00    -0.151 N  
HETATM    3  C   UNL     1      -9.534   9.460  67.464  1.00  0.00    -0.127 C  
HETATM    4  C   UNL     1      -7.853  10.977  66.409  1.00  0.00    -0.150 C  
ENDROOT
BRANCH   2   5
HETATM    5  C   UNL     1     -10.280  11.079  65.658  1.00  0.00    -0.260 C  
BRANCH   5   6
HETATM    6  C   UNL     1     -10.372  11.150  64.123  1.00  0.00    -0.361 C  
BRANCH   6   7
HETATM    7  O   UNL     1     -10.720  12.456  63.626  1.00  0.00    -0.417 OA 
BRANCH   7   8
HETATM    8  C   UNL     1     -12.057  12.718  63.606  1.00  0.00    -0.543 C  
HETATM    9  O   UNL     1     -12.892  11.940  63.169  1.00  0.00    -0.636 OA 
BRANCH   8  10
HETATM   10  C   UNL     1     -12.376  14.007  64.318  1.00  0.00    -0.393 C  
BRANCH  10  11
HETATM   11  C   UNL     1     -11.132  14.717  64.819  1.00  0.00    -0.393 C  
BRANCH  11  12
HETATM   12  C   UNL     1     -11.095  14.829  66.320  1.00  0.00    -0.341 C  
HETATM   13  O   UNL     1     -11.922  14.337  67.075  1.00  0.00    -0.414 OA 
BRANCH  12  14
HETATM   14  O   UNL     1     -10.097  15.657  66.734  1.00  0.00    -0.259 OA 
BRANCH  14  15
HETATM   15  C   UNL     1     -10.270  17.039  66.365  1.00  0.00    -0.326 C  
BRANCH  15  16
HETATM   16  C   UNL     1      -9.056  17.923  66.698  1.00  0.00    -0.267 C  
BRANCH  16  17
HETATM   17  N   UNL     1      -9.417  19.404  66.982  1.00  0.00    -0.311 N  
HETATM   18  C   UNL     1      -8.198  20.312  66.878  1.00  0.00    -0.294 C  
HETATM   19  C   UNL     1      -9.962  19.495  68.412  1.00  0.00    -0.443 C  
HETATM   20  C   UNL     1     -10.510  19.895  66.035  1.00  0.00    -0.475 C  
ENDBRANCH  16  17
ENDBRANCH  15  16
ENDBRANCH  14  15
ENDBRANCH  12  14
ENDBRANCH  11  12
ENDBRANCH  10  11
ENDBRANCH   8  10
ENDBRANCH   7   8
ENDBRANCH   6   7
ENDBRANCH   5   6
ENDBRANCH   2   5
TORSDOF 11
ENDMDL
MODEL       60
REMARK 921   NORMALIZED FREE ENERGY PREDICTED BY IDOCK:   -4.03 KCAL/MOL
REMARK 922        TOTAL FREE ENERGY PREDICTED BY IDOCK:   -7.38 KCAL/MOL
REMARK 923 INTER-LIGAND FREE ENERGY PREDICTED BY IDOCK:   -6.80 KCAL/MOL
REMARK 924 INTRA-LIGAND FREE ENERGY PREDICTED BY IDOCK:   -0.58 KCAL/MOL
REMARK 927      BINDING AFFINITY PREDICTED BY RF-SCORE:    0.00 PKD
ROOT
HETATM    1  C   UNL     1     -12.525   7.149  71.090  1.00  0.00    -0.359 C  
HETATM    2  N   UNL     1     -11.948   8.513  71.489  1.00  0.00    -0.290 N  
HETATM    3  C   UNL     1     -13.107   9.391  71.958  1.00  0.00    -0.433 C  
HETATM    4  C   UNL     1     -10.966   8.296  72.635  1.00  0.00    -0.316 C  
ENDROOT
BRANCH   2   5
HETATM    5  C   UNL     1     -11.253   9.122  70.248  1.00  0.00    -0.218 C  
BRANCH   5   6
HETATM    6  C   UNL     1     -11.488  10.634  70.078  1.00  0.00    -0.325 C  
BRANCH   6   7
HETATM    7  O   UNL     1     -12.262  10.970  68.912  1.00  0.00    -0.519 OA 
BRANCH   7   8
HETATM    8  C   UNL     1     -11.711  11.934  68.123  1.00  0.00    -0.320 C  
HETATM    9  O   UNL     1     -11.891  12.006  66.916  1.00  0.00    -0.580 OA 
BRANCH   8  10
HETATM   10  C   UNL     1     -10.984  12.967  68.944  1.00  0.00    -0.271 C  
BRANCH  10  11
HETATM   11  C   UNL     1     -10.141  13.898  68.091  1.00  0.00    -0.250 C  
BRANCH  11  12
HETATM   12  C   UNL     1     -10.856  15.181  67.756  1.00  0.00    -0.292 C  
HETATM   13  O   UNL     1     -11.559  15.809  68.535  1.00  0.00    -0.368 OA 
BRANCH  12  14
HETATM   14  O   UNL     1     -10.731  15.492  66.436  1.00  0.00    -0.305 OA 
BRANCH  14  15
HETATM   15  C   UNL     1     -10.385  16.866  66.174  1.00  0.00    -0.320 C  
BRANCH  15  16
HETATM   16  C   UNL     1      -9.017  17.277  66.744  1.00  0.00    -0.250 C  
BRANCH  16  17
HETATM   17  N   UNL     1      -8.982  18.719  67.313  1.00  0.00    -0.272 N  
HETATM   18  C   UNL     1     -10.383  19.295  67.476  1.00  0.00    -0.439 C  
HETATM   19  C   UNL     1      -8.213  19.602  66.323  1.00  0.00    -0.347 C  
HETATM   20  C   UNL     1      -8.245  18.765  68.650  1.00  0.00    -0.329 C  
ENDBRANCH  16  17
ENDBRANCH  15  16
ENDBRANCH  14  15
ENDBRANCH  12  14
ENDBRANCH  11  12
ENDBRANCH  10  11
ENDBRANCH   8  10
ENDBRANCH   7   8
ENDBRANCH   6   7
ENDBRANCH   5   6
ENDBRANCH   2   5
TORSDOF 11
ENDMDL
MODEL       61
REMARK 921   NORMALIZED FREE ENERGY PREDICTED BY IDOCK:   -4.02 KCAL/MOL
REMARK 922        TOTAL FREE ENERGY PREDICTED BY IDOCK:   -7.36 KCAL/MOL
REMARK 923 INTER-LIGAND FREE ENERGY PREDICTED BY IDOCK:   -6.91 KCAL/MOL
REMARK 924 INTRA-LIGAND FREE ENERGY PREDICTED BY IDOCK:   -0.45 KCAL/MOL
REMARK 927      BINDING AFFINITY PREDICTED BY RF-SCORE:    0.00 PKD
ROOT
HETATM    1  C   UNL     1     -10.382  19.770  66.378  1.00  0.00    -0.508 C  
HETATM    2  N   UNL     1      -9.799  18.755  67.369  1.00  0.00    -0.308 N  
HETATM    3  C   UNL     1      -8.407  18.366  66.872  1.00  0.00    -0.253 C  
HETATM    4  C   UNL     1      -9.694  19.429  68.732  1.00  0.00    -0.449 C  
ENDROOT
BRANCH   2   5
HETATM    5  C   UNL     1     -10.742  17.528  67.408  1.00  0.00    -0.250 C  
BRANCH   5   6
HETATM    6  C   UNL     1     -10.093  16.225  66.907  1.00  0.00    -0.278 C  
BRANCH   6   7
HETATM    7  O   UNL     1     -10.909  15.499  65.969  1.00  0.00    -0.322 OA 
BRANCH   7   8
HETATM    8  C   UNL     1     -11.745  14.584  66.533  1.00  0.00    -0.368 C  
HETATM    9  O   UNL     1     -11.795  14.363  67.735  1.00  0.00    -0.362 OA 
BRANCH   8  10
HETATM   10  C   UNL     1     -12.688  13.997  65.515  1.00  0.00    -0.517 C  
BRANCH  10  11
HETATM   11  C   UNL     1     -12.069  13.913  64.132  1.00  0.00    -0.464 C  
BRANCH  11  12
HETATM   12  C   UNL     1     -12.165  12.533  63.538  1.00  0.00    -0.558 C  
HETATM   13  O   UNL     1     -13.212  11.933  63.336  1.00  0.00    -0.649 OA 
BRANCH  12  14
HETATM   14  O   UNL     1     -10.934  11.975  63.370  1.00  0.00    -0.409 OA 
BRANCH  14  15
HETATM   15  C   UNL     1     -10.562  11.024  64.386  1.00  0.00    -0.325 C  
BRANCH  15  16
HETATM   16  C   UNL     1      -9.060  10.693  64.401  1.00  0.00    -0.215 C  
BRANCH  16  17
HETATM   17  N   UNL     1      -8.657   9.653  65.477  1.00  0.00    -0.139 N  
HETATM   18  C   UNL     1      -7.458  10.122  66.293  1.00  0.00    -0.112 C  
HETATM   19  C   UNL     1      -8.270   8.353  64.762  1.00  0.00    -0.160 C  
HETATM   20  C   UNL     1      -9.827   9.343  66.409  1.00  0.00    -0.269 C  
ENDBRANCH  16  17
ENDBRANCH  15  16
ENDBRANCH  14  15
ENDBRANCH  12  14
ENDBRANCH  11  12
ENDBRANCH  10  11
ENDBRANCH   8  10
ENDBRANCH   7   8
ENDBRANCH   6   7
ENDBRANCH   5   6
ENDBRANCH   2   5
TORSDOF 11
ENDMDL
MODEL       62
REMARK 921   NORMALIZED FREE ENERGY PREDICTED BY IDOCK:   -4.01 KCAL/MOL
REMARK 922        TOTAL FREE ENERGY PREDICTED BY IDOCK:   -7.35 KCAL/MOL
REMARK 923 INTER-LIGAND FREE ENERGY PREDICTED BY IDOCK:   -6.69 KCAL/MOL
REMARK 924 INTRA-LIGAND FREE ENERGY PREDICTED BY IDOCK:   -0.65 KCAL/MOL
REMARK 927      BINDING AFFINITY PREDICTED BY RF-SCORE:    0.00 PKD
ROOT
HETATM    1  C   UNL     1      -9.167   4.705  70.199  1.00  0.00    -0.125 C  
HETATM    2  N   UNL     1      -9.939   6.003  70.469  1.00  0.00    -0.179 N  
HETATM    3  C   UNL     1      -8.972   7.170  70.273  1.00  0.00    -0.152 C  
HETATM    4  C   UNL     1     -11.077   6.097  69.460  1.00  0.00    -0.420 C  
ENDROOT
BRANCH   2   5
HETATM    5  C   UNL     1     -10.467   5.953  71.923  1.00  0.00    -0.220 C  
BRANCH   5   6
HETATM    6  C   UNL     1     -10.910   7.320  72.474  1.00  0.00    -0.272 C  
BRANCH   6   7
HETATM    7  O   UNL     1     -12.267   7.665  72.137  1.00  0.00    -0.296 OA 
BRANCH   7   8
HETATM    8  C   UNL     1     -12.497   9.002  72.004  1.00  0.00    -0.390 C  
HETATM    9  O   UNL     1     -13.472   9.570  72.472  1.00  0.00    -0.426 OA 
BRANCH   8  10
HETATM   10  C   UNL     1     -11.333   9.697  71.346  1.00  0.00    -0.444 C  
BRANCH  10  11
HETATM   11  C   UNL     1     -11.555   9.921  69.862  1.00  0.00    -0.184 C  
BRANCH  11  12
HETATM   12  C   UNL     1     -11.906  11.348  69.537  1.00  0.00    -0.357 C  
HETATM   13  O   UNL     1     -12.005  12.245  70.364  1.00  0.00    -0.343 OA 
BRANCH  12  14
HETATM   14  O   UNL     1     -12.230  11.498  68.223  1.00  0.00    -0.561 OA 
BRANCH  14  15
HETATM   15  C   UNL     1     -11.278  12.257  67.453  1.00  0.00    -0.301 C  
BRANCH  15  16
HETATM   16  C   UNL     1     -11.161  11.797  65.990  1.00  0.00    -0.312 C  
BRANCH  16  17
HETATM   17  N   UNL     1     -11.665  12.841  64.961  1.00  0.00    -0.335 N  
HETATM   18  C   UNL     1     -12.764  13.721  65.544  1.00  0.00    -0.488 C  
HETATM   19  C   UNL     1     -12.244  12.085  63.760  1.00  0.00    -0.498 C  
HETATM   20  C   UNL     1     -10.517  13.713  64.455  1.00  0.00    -0.390 C  
ENDBRANCH  16  17
ENDBRANCH  15  16
ENDBRANCH  14  15
ENDBRANCH  12  14
ENDBRANCH  11  12
ENDBRANCH  10  11
ENDBRANCH   8  10
ENDBRANCH   7   8
ENDBRANCH   6   7
ENDBRANCH   5   6
ENDBRANCH   2   5
TORSDOF 11
ENDMDL
MODEL       63
REMARK 921   NORMALIZED FREE ENERGY PREDICTED BY IDOCK:   -4.01 KCAL/MOL
REMARK 922        TOTAL FREE ENERGY PREDICTED BY IDOCK:   -7.33 KCAL/MOL
REMARK 923 INTER-LIGAND FREE ENERGY PREDICTED BY IDOCK:   -6.74 KCAL/MOL
REMARK 924 INTRA-LIGAND FREE ENERGY PREDICTED BY IDOCK:   -0.60 KCAL/MOL
REMARK 927      BINDING AFFINITY PREDICTED BY RF-SCORE:    0.00 PKD
ROOT
HETATM    1  C   UNL     1      -8.577   6.900  68.132  1.00  0.00    -0.123 C  
HETATM    2  N   UNL     1      -9.999   7.438  68.340  1.00  0.00    -0.159 N  
HETATM    3  C   UNL     1     -10.842   6.310  68.931  1.00  0.00    -0.333 C  
HETATM    4  C   UNL     1      -9.928   8.602  69.322  1.00  0.00    -0.195 C  
ENDROOT
BRANCH   2   5
HETATM    5  C   UNL     1     -10.548   7.884  66.963  1.00  0.00    -0.311 C  
BRANCH   5   6
HETATM    6  C   UNL     1      -9.508   8.591  66.075  1.00  0.00    -0.186 C  
BRANCH   6   7
HETATM    7  O   UNL     1      -9.991   9.811  65.481  1.00  0.00    -0.307 OA 
BRANCH   7   8
HETATM    8  C   UNL     1      -9.217  10.295  64.469  1.00  0.00    -0.250 C  
HETATM    9  O   UNL     1      -8.036  10.015  64.327  1.00  0.00    -0.143 OA 
BRANCH   8  10
HETATM   10  C   UNL     1     -10.035  11.088  63.482  1.00  0.00    -0.421 C  
BRANCH  10  11
HETATM   11  C   UNL     1     -10.654  12.326  64.103  1.00  0.00    -0.408 C  
BRANCH  11  12
HETATM   12  C   UNL     1     -12.157  12.253  64.162  1.00  0.00    -0.436 C  
HETATM   13  O   UNL     1     -12.885  12.100  63.191  1.00  0.00    -0.662 OA 
BRANCH  12  14
HETATM   14  O   UNL     1     -12.620  12.507  65.417  1.00  0.00    -0.656 OA 
BRANCH  14  15
HETATM   15  C   UNL     1     -12.582  13.895  65.801  1.00  0.00    -0.494 C  
BRANCH  15  16
HETATM   16  C   UNL     1     -11.568  14.198  66.918  1.00  0.00    -0.391 C  
BRANCH  16  17
HETATM   17  N   UNL     1     -10.599  15.361  66.587  1.00  0.00    -0.302 N  
HETATM   18  C   UNL     1      -9.141  14.934  66.710  1.00  0.00    -0.270 C  
HETATM   19  C   UNL     1     -10.852  16.492  67.592  1.00  0.00    -0.269 C  
HETATM   20  C   UNL     1     -10.860  15.914  65.187  1.00  0.00    -0.421 C  
ENDBRANCH  16  17
ENDBRANCH  15  16
ENDBRANCH  14  15
ENDBRANCH  12  14
ENDBRANCH  11  12
ENDBRANCH  10  11
ENDBRANCH   8  10
ENDBRANCH   7   8
ENDBRANCH   6   7
ENDBRANCH   5   6
ENDBRANCH   2   5
TORSDOF 11
ENDMDL
MODEL       64
REMARK 921   NORMALIZED FREE ENERGY PREDICTED BY IDOCK:   -3.99 KCAL/MOL
REMARK 922        TOTAL FREE ENERGY PREDICTED BY IDOCK:   -7.31 KCAL/MOL
REMARK 923 INTER-LIGAND FREE ENERGY PREDICTED BY IDOCK:   -6.81 KCAL/MOL
REMARK 924 INTRA-LIGAND FREE ENERGY PREDICTED BY IDOCK:   -0.49 KCAL/MOL
REMARK 927      BINDING AFFINITY PREDICTED BY RF-SCORE:    0.00 PKD
ROOT
HETATM    1  C   UNL     1     -12.676   9.256  71.906  1.00  0.00    -0.394 C  
HETATM    2  N   UNL     1     -11.506   8.299  71.642  1.00  0.00    -0.264 N  
HETATM    3  C   UNL     1     -10.979   7.823  72.995  1.00  0.00    -0.381 C  
HETATM    4  C   UNL     1     -12.035   7.112  70.845  1.00  0.00    -0.334 C  
ENDROOT
BRANCH   2   5
HETATM    5  C   UNL     1     -10.419   9.074  70.860  1.00  0.00    -0.254 C  
BRANCH   5   6
HETATM    6  C   UNL     1     -10.920   9.696  69.544  1.00  0.00    -0.208 C  
BRANCH   6   7
HETATM    7  O   UNL     1     -10.589  11.090  69.402  1.00  0.00    -0.223 OA 
BRANCH   7   8
HETATM    8  C   UNL     1     -11.563  11.849  68.826  1.00  0.00    -0.309 C  
HETATM    9  O   UNL     1     -12.075  11.589  67.747  1.00  0.00    -0.626 OA 
BRANCH   8  10
HETATM   10  C   UNL     1     -12.022  12.949  69.749  1.00  0.00    -0.365 C  
BRANCH  10  11
HETATM   11  C   UNL     1     -12.150  14.285  69.042  1.00  0.00    -0.320 C  
BRANCH  11  12
HETATM   12  C   UNL     1     -12.124  15.450  69.996  1.00  0.00    -0.359 C  
HETATM   13  O   UNL     1     -12.968  15.663  70.856  1.00  0.00    -0.482 OA 
BRANCH  12  14
HETATM   14  O   UNL     1     -11.114  16.314  69.702  1.00  0.00    -0.321 OA 
BRANCH  14  15
HETATM   15  C   UNL     1     -10.909  16.543  68.294  1.00  0.00    -0.352 C  
BRANCH  15  16
HETATM   16  C   UNL     1      -9.482  17.000  67.945  1.00  0.00    -0.245 C  
BRANCH  16  17
HETATM   17  N   UNL     1      -9.378  18.500  67.571  1.00  0.00    -0.277 N  
HETATM   18  C   UNL     1      -8.445  18.723  66.387  1.00  0.00    -0.284 C  
HETATM   19  C   UNL     1      -8.807  19.254  68.778  1.00  0.00    -0.346 C  
HETATM   20  C   UNL     1     -10.754  19.087  67.262  1.00  0.00    -0.470 C  
ENDBRANCH  16  17
ENDBRANCH  15  16
ENDBRANCH  14  15
ENDBRANCH  12  14
ENDBRANCH  11  12
ENDBRANCH  10  11
ENDBRANCH   8  10
ENDBRANCH   7   8
ENDBRANCH   6   7
ENDBRANCH   5   6
ENDBRANCH   2   5
TORSDOF 11
ENDMDL
MODEL       65
REMARK 921   NORMALIZED FREE ENERGY PREDICTED BY IDOCK:   -3.97 KCAL/MOL
REMARK 922        TOTAL FREE ENERGY PREDICTED BY IDOCK:   -7.28 KCAL/MOL
REMARK 923 INTER-LIGAND FREE ENERGY PREDICTED BY IDOCK:   -6.68 KCAL/MOL
REMARK 924 INTRA-LIGAND FREE ENERGY PREDICTED BY IDOCK:   -0.60 KCAL/MOL
REMARK 927      BINDING AFFINITY PREDICTED BY RF-SCORE:    0.00 PKD
ROOT
HETATM    1  C   UNL     1     -10.532  19.866  66.479  1.00  0.00    -0.471 C  
HETATM    2  N   UNL     1      -9.339  19.018  66.938  1.00  0.00    -0.303 N  
HETATM    3  C   UNL     1      -8.098  19.526  66.206  1.00  0.00    -0.334 C  
HETATM    4  C   UNL     1      -9.170  19.209  68.440  1.00  0.00    -0.356 C  
ENDROOT
BRANCH   2   5
HETATM    5  C   UNL     1      -9.635  17.542  66.578  1.00  0.00    -0.285 C  
BRANCH   5   6
HETATM    6  C   UNL     1      -8.765  16.527  67.342  1.00  0.00    -0.182 C  
BRANCH   6   7
HETATM    7  O   UNL     1      -8.496  15.324  66.598  1.00  0.00    -0.259 OA 
BRANCH   7   8
HETATM    8  C   UNL     1      -7.785  14.382  67.279  1.00  0.00    -0.137 C  
HETATM    9  O   UNL     1      -6.564  14.349  67.313  1.00  0.00    -0.283 OA 
BRANCH   8  10
HETATM   10  C   UNL     1      -8.689  13.493  68.094  1.00  0.00    -0.174 C  
BRANCH  10  11
HETATM   11  C   UNL     1      -9.863  12.966  67.290  1.00  0.00    -0.218 C  
BRANCH  11  12
HETATM   12  C   UNL     1     -11.149  12.973  68.072  1.00  0.00    -0.260 C  
HETATM   13  O   UNL     1     -12.074  12.191  67.897  1.00  0.00    -0.502 OA 
BRANCH  12  14
HETATM   14  O   UNL     1     -11.216  14.040  68.915  1.00  0.00    -0.247 OA 
BRANCH  14  15
HETATM   15  C   UNL     1     -12.327  14.013  69.831  1.00  0.00    -0.310 C  
BRANCH  15  16
HETATM   16  C   UNL     1     -12.013  14.642  71.200  1.00  0.00    -0.346 C  
BRANCH  16  17
HETATM   17  N   UNL     1     -13.165  14.511  72.229  1.00  0.00    -0.358 N  
HETATM   18  C   UNL     1     -13.606  13.063  72.401  1.00  0.00    -0.529 C  
HETATM   19  C   UNL     1     -14.361  15.318  71.710  1.00  0.00    -0.574 C  
HETATM   20  C   UNL     1     -12.762  15.093  73.583  1.00  0.00    -0.546 C  
ENDBRANCH  16  17
ENDBRANCH  15  16
ENDBRANCH  14  15
ENDBRANCH  12  14
ENDBRANCH  11  12
ENDBRANCH  10  11
ENDBRANCH   8  10
ENDBRANCH   7   8
ENDBRANCH   6   7
ENDBRANCH   5   6
ENDBRANCH   2   5
TORSDOF 11
ENDMDL
MODEL       66
REMARK 921   NORMALIZED FREE ENERGY PREDICTED BY IDOCK:   -3.96 KCAL/MOL
REMARK 922        TOTAL FREE ENERGY PREDICTED BY IDOCK:   -7.26 KCAL/MOL
REMARK 923 INTER-LIGAND FREE ENERGY PREDICTED BY IDOCK:   -6.33 KCAL/MOL
REMARK 924 INTRA-LIGAND FREE ENERGY PREDICTED BY IDOCK:   -0.93 KCAL/MOL
REMARK 927      BINDING AFFINITY PREDICTED BY RF-SCORE:    0.00 PKD
ROOT
HETATM    1  C   UNL     1     -10.722   5.664  71.477  1.00  0.00    -0.242 C  
HETATM    2  N   UNL     1     -10.984   7.161  71.273  1.00  0.00    -0.238 N  
HETATM    3  C   UNL     1     -10.081   7.928  72.238  1.00  0.00    -0.236 C  
HETATM    4  C   UNL     1     -10.624   7.515  69.835  1.00  0.00    -0.237 C  
ENDROOT
BRANCH   2   5
HETATM    5  C   UNL     1     -12.478   7.431  71.572  1.00  0.00    -0.361 C  
BRANCH   5   6
HETATM    6  C   UNL     1     -12.740   8.763  72.298  1.00  0.00    -0.402 C  
BRANCH   6   7
HETATM    7  O   UNL     1     -13.472   9.717  71.506  1.00  0.00    -0.374 OA 
BRANCH   7   8
HETATM    8  C   UNL     1     -12.893  10.947  71.420  1.00  0.00    -0.449 C  
HETATM    9  O   UNL     1     -13.271  11.919  72.056  1.00  0.00    -0.495 OA 
BRANCH   8  10
HETATM   10  C   UNL     1     -11.652  10.912  70.565  1.00  0.00    -0.397 C  
BRANCH  10  11
HETATM   11  C   UNL     1     -11.969  10.921  69.082  1.00  0.00    -0.359 C  
BRANCH  11  12
HETATM   12  C   UNL     1     -11.784  12.280  68.459  1.00  0.00    -0.331 C  
HETATM   13  O   UNL     1     -11.585  13.311  69.087  1.00  0.00    -0.279 OA 
BRANCH  12  14
HETATM   14  O   UNL     1     -11.993  12.246  67.114  1.00  0.00    -0.564 OA 
BRANCH  14  15
HETATM   15  C   UNL     1     -10.796  12.324  66.317  1.00  0.00    -0.278 C  
BRANCH  15  16
HETATM   16  C   UNL     1     -10.703  11.234  65.236  1.00  0.00    -0.237 C  
BRANCH  16  17
HETATM   17  N   UNL     1      -9.519  10.254  65.433  1.00  0.00    -0.211 N  
HETATM   18  C   UNL     1      -9.880   9.117  66.382  1.00  0.00    -0.280 C  
HETATM   19  C   UNL     1      -8.350  11.035  66.045  1.00  0.00    -0.147 C  
HETATM   20  C   UNL     1      -9.048   9.682  64.097  1.00  0.00    -0.209 C  
ENDBRANCH  16  17
ENDBRANCH  15  16
ENDBRANCH  14  15
ENDBRANCH  12  14
ENDBRANCH  11  12
ENDBRANCH  10  11
ENDBRANCH   8  10
ENDBRANCH   7   8
ENDBRANCH   6   7
ENDBRANCH   5   6
ENDBRANCH   2   5
TORSDOF 11
ENDMDL
MODEL       67
REMARK 921   NORMALIZED FREE ENERGY PREDICTED BY IDOCK:   -3.96 KCAL/MOL
REMARK 922        TOTAL FREE ENERGY PREDICTED BY IDOCK:   -7.25 KCAL/MOL
REMARK 923 INTER-LIGAND FREE ENERGY PREDICTED BY IDOCK:   -6.52 KCAL/MOL
REMARK 924 INTRA-LIGAND FREE ENERGY PREDICTED BY IDOCK:   -0.74 KCAL/MOL
REMARK 927      BINDING AFFINITY PREDICTED BY RF-SCORE:    0.00 PKD
ROOT
HETATM    1  C   UNL     1     -12.078   7.392  71.122  1.00  0.00    -0.325 C  
HETATM    2  N   UNL     1     -10.741   7.191  70.397  1.00  0.00    -0.228 N  
HETATM    3  C   UNL     1      -9.646   7.089  71.458  1.00  0.00    -0.158 C  
HETATM    4  C   UNL     1     -10.820   5.889  69.607  1.00  0.00    -0.374 C  
ENDROOT
BRANCH   2   5
HETATM    5  C   UNL     1     -10.511   8.409  69.470  1.00  0.00    -0.224 C  
BRANCH   5   6
HETATM    6  C   UNL     1     -10.015   8.037  68.061  1.00  0.00    -0.179 C  
BRANCH   6   7
HETATM    7  O   UNL     1     -10.705   8.732  67.005  1.00  0.00    -0.262 OA 
BRANCH   7   8
HETATM    8  C   UNL     1      -9.940   9.626  66.319  1.00  0.00    -0.264 C  
HETATM    9  O   UNL     1      -8.862   9.348  65.814  1.00  0.00    -0.151 OA 
BRANCH   8  10
HETATM   10  C   UNL     1     -10.656  10.941  66.141  1.00  0.00    -0.270 C  
BRANCH  10  11
HETATM   11  C   UNL     1     -10.516  11.492  64.734  1.00  0.00    -0.354 C  
BRANCH  11  12
HETATM   12  C   UNL     1     -11.728  12.268  64.294  1.00  0.00    -0.381 C  
HETATM   13  O   UNL     1     -11.912  12.686  63.158  1.00  0.00    -0.478 OA 
BRANCH  12  14
HETATM   14  O   UNL     1     -12.540  12.565  65.345  1.00  0.00    -0.656 OA 
BRANCH  14  15
HETATM   15  C   UNL     1     -12.691  13.974  65.608  1.00  0.00    -0.481 C  
BRANCH  15  16
HETATM   16  C   UNL     1     -11.944  14.449  66.867  1.00  0.00    -0.399 C  
BRANCH  16  17
HETATM   17  N   UNL     1     -10.679  15.293  66.565  1.00  0.00    -0.308 N  
HETATM   18  C   UNL     1     -10.562  16.489  67.502  1.00  0.00    -0.313 C  
HETATM   19  C   UNL     1     -10.791  15.819  65.129  1.00  0.00    -0.428 C  
HETATM   20  C   UNL     1      -9.415  14.441  66.652  1.00  0.00    -0.283 C  
ENDBRANCH  16  17
ENDBRANCH  15  16
ENDBRANCH  14  15
ENDBRANCH  12  14
ENDBRANCH  11  12
ENDBRANCH  10  11
ENDBRANCH   8  10
ENDBRANCH   7   8
ENDBRANCH   6   7
ENDBRANCH   5   6
ENDBRANCH   2   5
TORSDOF 11
ENDMDL
MODEL       68
REMARK 921   NORMALIZED FREE ENERGY PREDICTED BY IDOCK:   -3.95 KCAL/MOL
REMARK 922        TOTAL FREE ENERGY PREDICTED BY IDOCK:   -7.24 KCAL/MOL
REMARK 923 INTER-LIGAND FREE ENERGY PREDICTED BY IDOCK:   -6.50 KCAL/MOL
REMARK 924 INTRA-LIGAND FREE ENERGY PREDICTED BY IDOCK:   -0.74 KCAL/MOL
REMARK 927      BINDING AFFINITY PREDICTED BY RF-SCORE:    0.00 PKD
ROOT
HETATM    1  C   UNL     1      -9.793  11.929  63.283  1.00  0.00    -0.325 C  
HETATM    2  N   UNL     1     -10.899  11.924  64.347  1.00  0.00    -0.311 N  
HETATM    3  C   UNL     1     -12.243  11.920  63.621  1.00  0.00    -0.479 C  
HETATM    4  C   UNL     1     -10.754  10.654  65.177  1.00  0.00    -0.017 C  
ENDROOT
BRANCH   2   5
HETATM    5  C   UNL     1     -10.736  13.196  65.214  1.00  0.00    -0.303 C  
BRANCH   5   6
HETATM    6  C   UNL     1     -11.653  13.232  66.449  1.00  0.00    -0.347 C  
BRANCH   6   7
HETATM    7  O   UNL     1     -10.937  13.263  67.698  1.00  0.00    -0.253 OA 
BRANCH   7   8
HETATM    8  C   UNL     1     -11.686  12.946  68.791  1.00  0.00    -0.323 C  
HETATM    9  O   UNL     1     -12.206  13.778  69.520  1.00  0.00    -0.333 OA 
BRANCH   8  10
HETATM   10  C   UNL     1     -11.911  11.459  68.891  1.00  0.00    -0.413 C  
BRANCH  10  11
HETATM   11  C   UNL     1     -11.617  10.920  70.279  1.00  0.00    -0.426 C  
BRANCH  11  12
HETATM   12  C   UNL     1     -12.851  10.822  71.135  1.00  0.00    -0.414 C  
HETATM   13  O   UNL     1     -13.180  11.646  71.978  1.00  0.00    -0.501 OA 
BRANCH  12  14
HETATM   14  O   UNL     1     -13.495   9.637  70.950  1.00  0.00    -0.272 OA 
BRANCH  14  15
HETATM   15  C   UNL     1     -13.205   8.635  71.943  1.00  0.00    -0.375 C  
BRANCH  15  16
HETATM   16  C   UNL     1     -12.772   7.284  71.348  1.00  0.00    -0.389 C  
BRANCH  16  17
HETATM   17  N   UNL     1     -11.245   7.027  71.419  1.00  0.00    -0.245 N  
HETATM   18  C   UNL     1     -10.540   8.061  72.289  1.00  0.00    -0.291 C  
HETATM   19  C   UNL     1     -10.677   7.130  69.999  1.00  0.00    -0.248 C  
HETATM   20  C   UNL     1     -10.946   5.623  71.941  1.00  0.00    -0.235 C  
ENDBRANCH  16  17
ENDBRANCH  15  16
ENDBRANCH  14  15
ENDBRANCH  12  14
ENDBRANCH  11  12
ENDBRANCH  10  11
ENDBRANCH   8  10
ENDBRANCH   7   8
ENDBRANCH   6   7
ENDBRANCH   5   6
ENDBRANCH   2   5
TORSDOF 11
ENDMDL
MODEL       69
REMARK 921   NORMALIZED FREE ENERGY PREDICTED BY IDOCK:   -3.94 KCAL/MOL
REMARK 922        TOTAL FREE ENERGY PREDICTED BY IDOCK:   -7.22 KCAL/MOL
REMARK 923 INTER-LIGAND FREE ENERGY PREDICTED BY IDOCK:   -6.54 KCAL/MOL
REMARK 924 INTRA-LIGAND FREE ENERGY PREDICTED BY IDOCK:   -0.68 KCAL/MOL
REMARK 927      BINDING AFFINITY PREDICTED BY RF-SCORE:    0.00 PKD
ROOT
HETATM    1  C   UNL     1      -8.731   9.437  69.164  1.00  0.00    -0.142 C  
HETATM    2  N   UNL     1     -10.255   9.286  69.071  1.00  0.00    -0.200 N  
HETATM    3  C   UNL     1     -10.622   7.910  69.625  1.00  0.00    -0.234 C  
HETATM    4  C   UNL     1     -10.893  10.375  69.925  1.00  0.00    -0.298 C  
ENDROOT
BRANCH   2   5
HETATM    5  C   UNL     1     -10.660   9.415  67.583  1.00  0.00    -0.271 C  
BRANCH   5   6
HETATM    6  C   UNL     1     -10.339  10.788  66.965  1.00  0.00    -0.228 C  
BRANCH   6   7
HETATM    7  O   UNL     1     -11.492  11.457  66.419  1.00  0.00    -0.349 OA 
BRANCH   7   8
HETATM    8  C   UNL     1     -11.414  11.724  65.085  1.00  0.00    -0.183 C  
HETATM    9  O   UNL     1     -10.608  11.194  64.335  1.00  0.00    -0.335 OA 
BRANCH   8  10
HETATM   10  C   UNL     1     -12.532  12.631  64.640  1.00  0.00    -0.538 C  
BRANCH  10  11
HETATM   11  C   UNL     1     -12.530  13.959  65.374  1.00  0.00    -0.528 C  
BRANCH  11  12
HETATM   12  C   UNL     1     -11.894  15.063  64.572  1.00  0.00    -0.371 C  
HETATM   13  O   UNL     1     -12.510  15.877  63.897  1.00  0.00    -0.760 OA 
BRANCH  12  14
HETATM   14  O   UNL     1     -10.535  14.969  64.581  1.00  0.00    -0.318 OA 
BRANCH  14  15
HETATM   15  C   UNL     1      -9.933  15.106  65.883  1.00  0.00    -0.328 C  
BRANCH  15  16
HETATM   16  C   UNL     1     -10.358  16.384  66.627  1.00  0.00    -0.292 C  
BRANCH  16  17
HETATM   17  N   UNL     1     -10.230  16.285  68.168  1.00  0.00    -0.250 N  
HETATM   18  C   UNL     1      -9.218  15.222  68.583  1.00  0.00    -0.201 C  
HETATM   19  C   UNL     1     -11.598  15.889  68.735  1.00  0.00    -0.386 C  
HETATM   20  C   UNL     1      -9.844  17.631  68.777  1.00  0.00    -0.334 C  
ENDBRANCH  16  17
ENDBRANCH  15  16
ENDBRANCH  14  15
ENDBRANCH  12  14
ENDBRANCH  11  12
ENDBRANCH  10  11
ENDBRANCH   8  10
ENDBRANCH   7   8
ENDBRANCH   6   7
ENDBRANCH   5   6
ENDBRANCH   2   5
TORSDOF 11
ENDMDL
MODEL       70
REMARK 921   NORMALIZED FREE ENERGY PREDICTED BY IDOCK:   -3.92 KCAL/MOL
REMARK 922        TOTAL FREE ENERGY PREDICTED BY IDOCK:   -7.20 KCAL/MOL
REMARK 923 INTER-LIGAND FREE ENERGY PREDICTED BY IDOCK:   -6.32 KCAL/MOL
REMARK 924 INTRA-LIGAND FREE ENERGY PREDICTED BY IDOCK:   -0.88 KCAL/MOL
REMARK 927      BINDING AFFINITY PREDICTED BY RF-SCORE:    0.00 PKD
ROOT
HETATM    1  C   UNL     1     -10.396  13.302  65.258  1.00  0.00    -0.312 C  
HETATM    2  N   UNL     1     -11.350  14.427  65.677  1.00  0.00    -0.323 N  
HETATM    3  C   UNL     1     -11.181  15.576  64.685  1.00  0.00    -0.371 C  
HETATM    4  C   UNL     1     -12.775  13.890  65.611  1.00  0.00    -0.495 C  
ENDROOT
BRANCH   2   5
HETATM    5  C   UNL     1     -10.971  14.866  67.112  1.00  0.00    -0.323 C  
BRANCH   5   6
HETATM    6  C   UNL     1     -11.886  14.286  68.206  1.00  0.00    -0.335 C  
BRANCH   6   7
HETATM    7  O   UNL     1     -11.242  13.296  69.030  1.00  0.00    -0.256 OA 
BRANCH   7   8
HETATM    8  C   UNL     1     -11.852  12.078  69.035  1.00  0.00    -0.315 C  
HETATM    9  O   UNL     1     -12.085  11.433  68.023  1.00  0.00    -0.629 OA 
BRANCH   8  10
HETATM   10  C   UNL     1     -12.061  11.573  70.440  1.00  0.00    -0.471 C  
BRANCH  10  11
HETATM   11  C   UNL     1     -12.158  10.060  70.505  1.00  0.00    -0.338 C  
BRANCH  11  12
HETATM   12  C   UNL     1     -10.915   9.425  71.069  1.00  0.00    -0.338 C  
HETATM   13  O   UNL     1     -10.846   8.886  72.166  1.00  0.00    -0.355 OA 
BRANCH  12  14
HETATM   14  O   UNL     1      -9.837   9.635  70.265  1.00  0.00    -0.241 OA 
BRANCH  14  15
HETATM   15  C   UNL     1      -9.472   8.509  69.444  1.00  0.00    -0.161 C  
BRANCH  15  16
HETATM   16  C   UNL     1      -8.759   8.903  68.139  1.00  0.00    -0.134 C  
BRANCH  16  17
HETATM   17  N   UNL     1      -9.394   8.286  66.866  1.00  0.00    -0.164 N  
HETATM   18  C   UNL     1      -9.833   9.359  65.878  1.00  0.00    -0.291 C  
HETATM   19  C   UNL     1     -10.634   7.490  67.291  1.00  0.00    -0.324 C  
HETATM   20  C   UNL     1      -8.429   7.318  66.184  1.00  0.00    -0.142 C  
ENDBRANCH  16  17
ENDBRANCH  15  16
ENDBRANCH  14  15
ENDBRANCH  12  14
ENDBRANCH  11  12
ENDBRANCH  10  11
ENDBRANCH   8  10
ENDBRANCH   7   8
ENDBRANCH   6   7
ENDBRANCH   5   6
ENDBRANCH   2   5
TORSDOF 11
ENDMDL
MODEL       71
REMARK 921   NORMALIZED FREE ENERGY PREDICTED BY IDOCK:   -3.92 KCAL/MOL
REMARK 922        TOTAL FREE ENERGY PREDICTED BY IDOCK:   -7.20 KCAL/MOL
REMARK 923 INTER-LIGAND FREE ENERGY PREDICTED BY IDOCK:   -6.21 KCAL/MOL
REMARK 924 INTRA-LIGAND FREE ENERGY PREDICTED BY IDOCK:   -0.98 KCAL/MOL
REMARK 927      BINDING AFFINITY PREDICTED BY RF-SCORE:    0.00 PKD
ROOT
HETATM    1  C   UNL     1      -9.490   8.977  69.077  1.00  0.00    -0.155 C  
HETATM    2  N   UNL     1      -9.141   8.557  67.643  1.00  0.00    -0.135 N  
HETATM    3  C   UNL     1      -8.182   7.370  67.726  1.00  0.00    -0.119 C  
HETATM    4  C   UNL     1     -10.429   8.135  66.945  1.00  0.00    -0.309 C  
ENDROOT
BRANCH   2   5
HETATM    5  C   UNL     1      -8.477   9.764  66.938  1.00  0.00    -0.120 C  
BRANCH   5   6
HETATM    6  C   UNL     1      -9.152  11.114  67.243  1.00  0.00    -0.150 C  
BRANCH   6   7
HETATM    7  O   UNL     1     -10.031  11.568  66.197  1.00  0.00    -0.210 OA 
BRANCH   7   8
HETATM    8  C   UNL     1     -11.296  11.864  66.608  1.00  0.00    -0.337 C  
HETATM    9  O   UNL     1     -11.838  11.333  67.566  1.00  0.00    -0.613 OA 
BRANCH   8  10
HETATM   10  C   UNL     1     -11.872  13.019  65.830  1.00  0.00    -0.468 C  
BRANCH  10  11
HETATM   11  C   UNL     1     -12.101  14.245  66.694  1.00  0.00    -0.448 C  
BRANCH  11  12
HETATM   12  C   UNL     1     -10.819  14.818  67.237  1.00  0.00    -0.309 C  
HETATM   13  O   UNL     1      -9.940  15.326  66.553  1.00  0.00    -0.246 OA 
BRANCH  12  14
HETATM   14  O   UNL     1     -10.694  14.588  68.573  1.00  0.00    -0.236 OA 
BRANCH  14  15
HETATM   15  C   UNL     1     -11.866  14.904  69.349  1.00  0.00    -0.324 C  
BRANCH  15  16
HETATM   16  C   UNL     1     -12.270  13.794  70.335  1.00  0.00    -0.363 C  
BRANCH  16  17
HETATM   17  N   UNL     1     -13.006  14.313  71.596  1.00  0.00    -0.328 N  
HETATM   18  C   UNL     1     -12.067  15.073  72.525  1.00  0.00    -0.343 C  
HETATM   19  C   UNL     1     -13.556  13.102  72.359  1.00  0.00    -0.567 C  
HETATM   20  C   UNL     1     -14.189  15.201  71.217  1.00  0.00    -0.429 C  
ENDBRANCH  16  17
ENDBRANCH  15  16
ENDBRANCH  14  15
ENDBRANCH  12  14
ENDBRANCH  11  12
ENDBRANCH  10  11
ENDBRANCH   8  10
ENDBRANCH   7   8
ENDBRANCH   6   7
ENDBRANCH   5   6
ENDBRANCH   2   5
TORSDOF 11
ENDMDL
MODEL       72
REMARK 921   NORMALIZED FREE ENERGY PREDICTED BY IDOCK:   -3.92 KCAL/MOL
REMARK 922        TOTAL FREE ENERGY PREDICTED BY IDOCK:   -7.19 KCAL/MOL
REMARK 923 INTER-LIGAND FREE ENERGY PREDICTED BY IDOCK:   -6.57 KCAL/MOL
REMARK 924 INTRA-LIGAND FREE ENERGY PREDICTED BY IDOCK:   -0.63 KCAL/MOL
REMARK 927      BINDING AFFINITY PREDICTED BY RF-SCORE:    0.00 PKD
ROOT
HETATM    1  C   UNL     1     -12.297  14.331  72.918  1.00  0.00    -0.011 C  
HETATM    2  N   UNL     1     -12.716  15.045  71.626  1.00  0.00    -0.317 N  
HETATM    3  C   UNL     1     -14.177  15.465  71.779  1.00  0.00    -0.527 C  
HETATM    4  C   UNL     1     -11.837  16.280  71.460  1.00  0.00    -0.380 C  
ENDROOT
BRANCH   2   5
HETATM    5  C   UNL     1     -12.538  14.054  70.451  1.00  0.00    -0.308 C  
BRANCH   5   6
HETATM    6  C   UNL     1     -11.819  14.655  69.230  1.00  0.00    -0.321 C  
BRANCH   6   7
HETATM    7  O   UNL     1     -10.511  14.098  69.000  1.00  0.00    -0.237 OA 
BRANCH   7   8
HETATM    8  C   UNL     1      -9.811  14.692  67.993  1.00  0.00    -0.216 C  
HETATM    9  O   UNL     1      -8.675  14.369  67.676  1.00  0.00    -0.170 OA 
BRANCH   8  10
HETATM   10  C   UNL     1     -10.662  15.681  67.239  1.00  0.00    -0.305 C  
BRANCH  10  11
HETATM   11  C   UNL     1      -9.834  16.697  66.476  1.00  0.00    -0.295 C  
BRANCH  11  12
HETATM   12  C   UNL     1     -10.663  17.527  65.532  1.00  0.00    -0.062 C  
HETATM   13  O   UNL     1     -11.176  17.107  64.503  1.00  0.00    -1.104 OA 
BRANCH  12  14
HETATM   14  O   UNL     1     -10.667  18.840  65.893  1.00  0.00    -0.438 OA 
BRANCH  14  15
HETATM   15  C   UNL     1     -10.078  19.111  67.179  1.00  0.00    -0.373 C  
BRANCH  15  16
HETATM   16  C   UNL     1      -9.088  20.289  67.168  1.00  0.00    -0.378 C  
BRANCH  16  17
HETATM   17  N   UNL     1      -7.601  19.858  67.080  1.00  0.00    -0.255 N  
HETATM   18  C   UNL     1      -7.261  18.793  68.116  1.00  0.00    -0.252 C  
HETATM   19  C   UNL     1      -6.731  21.090  67.357  1.00  0.00    -0.383 C  
HETATM   20  C   UNL     1      -7.257  19.349  65.682  1.00  0.00    -0.233 C  
ENDBRANCH  16  17
ENDBRANCH  15  16
ENDBRANCH  14  15
ENDBRANCH  12  14
ENDBRANCH  11  12
ENDBRANCH  10  11
ENDBRANCH   8  10
ENDBRANCH   7   8
ENDBRANCH   6   7
ENDBRANCH   5   6
ENDBRANCH   2   5
TORSDOF 11
ENDMDL
MODEL       73
REMARK 921   NORMALIZED FREE ENERGY PREDICTED BY IDOCK:   -3.92 KCAL/MOL
REMARK 922        TOTAL FREE ENERGY PREDICTED BY IDOCK:   -7.19 KCAL/MOL
REMARK 923 INTER-LIGAND FREE ENERGY PREDICTED BY IDOCK:   -6.68 KCAL/MOL
REMARK 924 INTRA-LIGAND FREE ENERGY PREDICTED BY IDOCK:   -0.51 KCAL/MOL
REMARK 927      BINDING AFFINITY PREDICTED BY RF-SCORE:    0.00 PKD
ROOT
HETATM    1  C   UNL     1     -10.417  12.234  64.068  1.00  0.00    -0.399 C  
HETATM    2  N   UNL     1     -11.141  12.877  65.257  1.00  0.00    -0.280 N  
HETATM    3  C   UNL     1     -10.659  14.323  65.369  1.00  0.00    -0.354 C  
HETATM    4  C   UNL     1     -12.638  12.851  64.973  1.00  0.00    -0.472 C  
ENDROOT
BRANCH   2   5
HETATM    5  C   UNL     1     -10.786  12.069  66.529  1.00  0.00    -0.277 C  
BRANCH   5   6
HETATM    6  C   UNL     1     -11.753  12.298  67.705  1.00  0.00    -0.334 C  
BRANCH   6   7
HETATM    7  O   UNL     1     -11.089  12.616  68.943  1.00  0.00    -0.247 OA 
BRANCH   7   8
HETATM    8  C   UNL     1     -11.873  12.504  70.052  1.00  0.00    -0.289 C  
HETATM    9  O   UNL     1     -12.328  13.462  70.659  1.00  0.00    -0.350 OA 
BRANCH   8  10
HETATM   10  C   UNL     1     -12.220  11.065  70.336  1.00  0.00    -0.461 C  
BRANCH  10  11
HETATM   11  C   UNL     1     -13.053  10.907  71.595  1.00  0.00    -0.538 C  
BRANCH  11  12
HETATM   12  C   UNL     1     -13.447   9.476  71.851  1.00  0.00    -0.424 C  
HETATM   13  O   UNL     1     -14.350   9.127  72.599  1.00  0.00    -0.561 OA 
BRANCH  12  14
HETATM   14  O   UNL     1     -12.590   8.606  71.249  1.00  0.00    -0.303 OA 
BRANCH  14  15
HETATM   15  C   UNL     1     -12.263   7.444  72.036  1.00  0.00    -0.280 C  
BRANCH  15  16
HETATM   16  C   UNL     1     -11.110   7.676  73.028  1.00  0.00    -0.381 C  
BRANCH  16  17
HETATM   17  N   UNL     1      -9.993   6.605  72.953  1.00  0.00    -0.167 N  
HETATM   18  C   UNL     1     -10.075   5.622  74.115  1.00  0.00    -0.249 C  
HETATM   19  C   UNL     1      -8.639   7.322  73.028  1.00  0.00    -0.124 C  
HETATM   20  C   UNL     1     -10.046   5.846  71.629  1.00  0.00    -0.190 C  
ENDBRANCH  16  17
ENDBRANCH  15  16
ENDBRANCH  14  15
ENDBRANCH  12  14
ENDBRANCH  11  12
ENDBRANCH  10  11
ENDBRANCH   8  10
ENDBRANCH   7   8
ENDBRANCH   6   7
ENDBRANCH   5   6
ENDBRANCH   2   5
TORSDOF 11
ENDMDL
MODEL       74
REMARK 921   NORMALIZED FREE ENERGY PREDICTED BY IDOCK:   -3.90 KCAL/MOL
REMARK 922        TOTAL FREE ENERGY PREDICTED BY IDOCK:   -7.16 KCAL/MOL
REMARK 923 INTER-LIGAND FREE ENERGY PREDICTED BY IDOCK:   -6.60 KCAL/MOL
REMARK 924 INTRA-LIGAND FREE ENERGY PREDICTED BY IDOCK:   -0.56 KCAL/MOL
REMARK 927      BINDING AFFINITY PREDICTED BY RF-SCORE:    0.00 PKD
ROOT
HETATM    1  C   UNL     1     -10.500   6.655  73.645  1.00  0.00    -0.330 C  
HETATM    2  N   UNL     1     -10.616   7.431  72.326  1.00  0.00    -0.222 N  
HETATM    3  C   UNL     1      -9.474   8.444  72.280  1.00  0.00    -0.297 C  
HETATM    4  C   UNL     1     -10.476   6.439  71.178  1.00  0.00    -0.221 C  
ENDROOT
BRANCH   2   5
HETATM    5  C   UNL     1     -11.992   8.139  72.306  1.00  0.00    -0.377 C  
BRANCH   5   6
HETATM    6  C   UNL     1     -12.146   9.174  71.177  1.00  0.00    -0.299 C  
BRANCH   6   7
HETATM    7  O   UNL     1     -12.487  10.492  71.646  1.00  0.00    -0.383 OA 
BRANCH   7   8
HETATM    8  C   UNL     1     -12.317  11.483  70.727  1.00  0.00    -0.375 C  
HETATM    9  O   UNL     1     -12.428  12.672  70.986  1.00  0.00    -0.368 OA 
BRANCH   8  10
HETATM   10  C   UNL     1     -11.834  10.934  69.409  1.00  0.00    -0.400 C  
BRANCH  10  11
HETATM   11  C   UNL     1     -11.007  11.939  68.629  1.00  0.00    -0.271 C  
BRANCH  11  12
HETATM   12  C   UNL     1     -11.760  12.533  67.469  1.00  0.00    -0.374 C  
HETATM   13  O   UNL     1     -11.840  12.024  66.359  1.00  0.00    -0.578 OA 
BRANCH  12  14
HETATM   14  O   UNL     1     -12.237  13.773  67.764  1.00  0.00    -0.329 OA 
BRANCH  14  15
HETATM   15  C   UNL     1     -11.617  14.845  67.027  1.00  0.00    -0.304 C  
BRANCH  15  16
HETATM   16  C   UNL     1     -10.822  15.822  67.912  1.00  0.00    -0.314 C  
BRANCH  16  17
HETATM   17  N   UNL     1     -10.111  16.948  67.120  1.00  0.00    -0.280 N  
HETATM   18  C   UNL     1     -10.289  16.779  65.616  1.00  0.00    -0.265 C  
HETATM   19  C   UNL     1      -8.612  16.879  67.435  1.00  0.00    -0.202 C  
HETATM   20  C   UNL     1     -10.615  18.325  67.548  1.00  0.00    -0.409 C  
ENDBRANCH  16  17
ENDBRANCH  15  16
ENDBRANCH  14  15
ENDBRANCH  12  14
ENDBRANCH  11  12
ENDBRANCH  10  11
ENDBRANCH   8  10
ENDBRANCH   7   8
ENDBRANCH   6   7
ENDBRANCH   5   6
ENDBRANCH   2   5
TORSDOF 11
ENDMDL
MODEL       75
REMARK 921   NORMALIZED FREE ENERGY PREDICTED BY IDOCK:   -3.89 KCAL/MOL
REMARK 922        TOTAL FREE ENERGY PREDICTED BY IDOCK:   -7.14 KCAL/MOL
REMARK 923 INTER-LIGAND FREE ENERGY PREDICTED BY IDOCK:   -6.44 KCAL/MOL
REMARK 924 INTRA-LIGAND FREE ENERGY PREDICTED BY IDOCK:   -0.71 KCAL/MOL
REMARK 927      BINDING AFFINITY PREDICTED BY RF-SCORE:    0.00 PKD
ROOT
HETATM    1  C   UNL     1      -8.272  19.251  66.219  1.00  0.00    -0.318 C  
HETATM    2  N   UNL     1      -9.219  19.014  67.403  1.00  0.00    -0.287 N  
HETATM    3  C   UNL     1      -8.387  19.070  68.683  1.00  0.00    -0.361 C  
HETATM    4  C   UNL     1     -10.258  20.129  67.411  1.00  0.00    -0.394 C  
ENDROOT
BRANCH   2   5
HETATM    5  C   UNL     1      -9.873  17.623  67.222  1.00  0.00    -0.303 C  
BRANCH   5   6
HETATM    6  C   UNL     1     -10.406  17.364  65.801  1.00  0.00    -0.216 C  
BRANCH   6   7
HETATM    7  O   UNL     1     -10.514  15.966  65.472  1.00  0.00    -0.359 OA 
BRANCH   7   8
HETATM    8  C   UNL     1     -11.584  15.648  64.690  1.00  0.00    -0.249 C  
HETATM    9  O   UNL     1     -11.997  16.360  63.787  1.00  0.00    -0.964 OA 
BRANCH   8  10
HETATM   10  C   UNL     1     -12.086  14.258  64.985  1.00  0.00    -0.428 C  
BRANCH  10  11
HETATM   11  C   UNL     1     -11.961  13.894  66.452  1.00  0.00    -0.467 C  
BRANCH  11  12
HETATM   12  C   UNL     1     -11.439  12.498  66.659  1.00  0.00    -0.359 C  
HETATM   13  O   UNL     1     -12.018  11.625  67.292  1.00  0.00    -0.627 OA 
BRANCH  12  14
HETATM   14  O   UNL     1     -10.177  12.357  66.166  1.00  0.00    -0.233 OA 
BRANCH  14  15
HETATM   15  C   UNL     1      -9.171  13.115  66.866  1.00  0.00    -0.236 C  
BRANCH  15  16
HETATM   16  C   UNL     1      -8.819  12.541  68.249  1.00  0.00    -0.171 C  
BRANCH  16  17
HETATM   17  N   UNL     1      -7.390  11.949  68.337  1.00  0.00    -0.089 N  
HETATM   18  C   UNL     1      -6.853  11.565  66.964  1.00  0.00    -0.147 C  
HETATM   19  C   UNL     1      -7.451  10.681  69.198  1.00  0.00    -0.123 C  
HETATM   20  C   UNL     1      -6.430  12.926  69.013  1.00  0.00    -0.103 C  
ENDBRANCH  16  17
ENDBRANCH  15  16
ENDBRANCH  14  15
ENDBRANCH  12  14
ENDBRANCH  11  12
ENDBRANCH  10  11
ENDBRANCH   8  10
ENDBRANCH   7   8
ENDBRANCH   6   7
ENDBRANCH   5   6
ENDBRANCH   2   5
TORSDOF 11
ENDMDL
MODEL       76
REMARK 921   NORMALIZED FREE ENERGY PREDICTED BY IDOCK:   -3.88 KCAL/MOL
REMARK 922        TOTAL FREE ENERGY PREDICTED BY IDOCK:   -7.13 KCAL/MOL
REMARK 923 INTER-LIGAND FREE ENERGY PREDICTED BY IDOCK:   -6.37 KCAL/MOL
REMARK 924 INTRA-LIGAND FREE ENERGY PREDICTED BY IDOCK:   -0.76 KCAL/MOL
REMARK 927      BINDING AFFINITY PREDICTED BY RF-SCORE:    0.00 PKD
ROOT
HETATM    1  C   UNL     1      -8.583   6.667  68.667  1.00  0.00    -0.125 C  
HETATM    2  N   UNL     1     -10.085   6.968  68.750  1.00  0.00    -0.164 N  
HETATM    3  C   UNL     1     -10.268   8.475  68.575  1.00  0.00    -0.198 C  
HETATM    4  C   UNL     1     -10.783   6.226  67.616  1.00  0.00    -0.313 C  
ENDROOT
BRANCH   2   5
HETATM    5  C   UNL     1     -10.591   6.501  70.136  1.00  0.00    -0.227 C  
BRANCH   5   6
HETATM    6  C   UNL     1     -12.029   6.947  70.459  1.00  0.00    -0.305 C  
BRANCH   6   7
HETATM    7  O   UNL     1     -12.183   7.476  71.790  1.00  0.00    -0.292 OA 
BRANCH   7   8
HETATM    8  C   UNL     1     -12.847   8.664  71.855  1.00  0.00    -0.369 C  
HETATM    9  O   UNL     1     -13.998   8.775  72.251  1.00  0.00    -0.430 OA 
BRANCH   8  10
HETATM   10  C   UNL     1     -11.940   9.820  71.521  1.00  0.00    -0.488 C  
BRANCH  10  11
HETATM   11  C   UNL     1     -12.581  10.802  70.559  1.00  0.00    -0.421 C  
BRANCH  11  12
HETATM   12  C   UNL     1     -12.704  12.185  71.141  1.00  0.00    -0.253 C  
HETATM   13  O   UNL     1     -13.293  12.453  72.180  1.00  0.00    -0.528 OA 
BRANCH  12  14
HETATM   14  O   UNL     1     -12.190  13.128  70.303  1.00  0.00    -0.338 OA 
BRANCH  14  15
HETATM   15  C   UNL     1     -11.620  12.604  69.088  1.00  0.00    -0.320 C  
BRANCH  15  16
HETATM   16  C   UNL     1     -12.048  13.372  67.826  1.00  0.00    -0.259 C  
BRANCH  16  17
HETATM   17  N   UNL     1     -11.302  12.932  66.541  1.00  0.00    -0.303 N  
HETATM   18  C   UNL     1     -10.704  11.538  66.686  1.00  0.00    -0.268 C  
HETATM   19  C   UNL     1     -10.157  13.920  66.292  1.00  0.00    -0.300 C  
HETATM   20  C   UNL     1     -12.226  12.974  65.325  1.00  0.00    -0.466 C  
ENDBRANCH  16  17
ENDBRANCH  15  16
ENDBRANCH  14  15
ENDBRANCH  12  14
ENDBRANCH  11  12
ENDBRANCH  10  11
ENDBRANCH   8  10
ENDBRANCH   7   8
ENDBRANCH   6   7
ENDBRANCH   5   6
ENDBRANCH   2   5
TORSDOF 11
ENDMDL
MODEL       77
REMARK 921   NORMALIZED FREE ENERGY PREDICTED BY IDOCK:   -3.87 KCAL/MOL
REMARK 922        TOTAL FREE ENERGY PREDICTED BY IDOCK:   -7.11 KCAL/MOL
REMARK 923 INTER-LIGAND FREE ENERGY PREDICTED BY IDOCK:   -6.69 KCAL/MOL
REMARK 924 INTRA-LIGAND FREE ENERGY PREDICTED BY IDOCK:   -0.42 KCAL/MOL
REMARK 927      BINDING AFFINITY PREDICTED BY RF-SCORE:    0.00 PKD
ROOT
HETATM    1  C   UNL     1     -12.388  14.895  64.212  1.00  0.00    -0.277 C  
HETATM    2  N   UNL     1     -11.381  14.450  65.281  1.00  0.00    -0.333 N  
HETATM    3  C   UNL     1     -10.616  13.248  64.727  1.00  0.00    -0.386 C  
HETATM    4  C   UNL     1     -10.419  15.604  65.537  1.00  0.00    -0.404 C  
ENDROOT
BRANCH   2   5
HETATM    5  C   UNL     1     -12.172  14.070  66.556  1.00  0.00    -0.451 C  
BRANCH   5   6
HETATM    6  C   UNL     1     -11.624  12.829  67.284  1.00  0.00    -0.360 C  
BRANCH   6   7
HETATM    7  O   UNL     1     -11.025  13.126  68.559  1.00  0.00    -0.243 OA 
BRANCH   7   8
HETATM    8  C   UNL     1     -11.868  13.009  69.623  1.00  0.00    -0.319 C  
HETATM    9  O   UNL     1     -12.460  13.953  70.125  1.00  0.00    -0.333 OA 
BRANCH   8  10
HETATM   10  C   UNL     1     -12.086  11.565  69.996  1.00  0.00    -0.408 C  
BRANCH  10  11
HETATM   11  C   UNL     1     -12.740  11.408  71.356  1.00  0.00    -0.489 C  
BRANCH  11  12
HETATM   12  C   UNL     1     -12.916   9.966  71.751  1.00  0.00    -0.449 C  
HETATM   13  O   UNL     1     -13.993   9.436  71.988  1.00  0.00    -0.347 OA 
BRANCH  12  14
HETATM   14  O   UNL     1     -11.717   9.350  71.940  1.00  0.00    -0.374 OA 
BRANCH  14  15
HETATM   15  C   UNL     1     -11.792   8.088  72.630  1.00  0.00    -0.321 C  
BRANCH  15  16
HETATM   16  C   UNL     1     -10.418   7.510  73.010  1.00  0.00    -0.342 C  
BRANCH  16  17
HETATM   17  N   UNL     1     -10.171   6.076  72.475  1.00  0.00    -0.183 N  
HETATM   18  C   UNL     1     -10.413   5.985  70.974  1.00  0.00    -0.229 C  
HETATM   19  C   UNL     1     -11.153   5.130  73.176  1.00  0.00    -0.326 C  
HETATM   20  C   UNL     1      -8.756   5.604  72.801  1.00  0.00    -0.119 C  
ENDBRANCH  16  17
ENDBRANCH  15  16
ENDBRANCH  14  15
ENDBRANCH  12  14
ENDBRANCH  11  12
ENDBRANCH  10  11
ENDBRANCH   8  10
ENDBRANCH   7   8
ENDBRANCH   6   7
ENDBRANCH   5   6
ENDBRANCH   2   5
TORSDOF 11
ENDMDL
MODEL       78
REMARK 921   NORMALIZED FREE ENERGY PREDICTED BY IDOCK:   -3.87 KCAL/MOL
REMARK 922        TOTAL FREE ENERGY PREDICTED BY IDOCK:   -7.11 KCAL/MOL
REMARK 923 INTER-LIGAND FREE ENERGY PREDICTED BY IDOCK:   -6.31 KCAL/MOL
REMARK 924 INTRA-LIGAND FREE ENERGY PREDICTED BY IDOCK:   -0.80 KCAL/MOL
REMARK 927      BINDING AFFINITY PREDICTED BY RF-SCORE:    0.00 PKD
ROOT
HETATM    1  C   UNL     1      -9.977  12.477  65.641  1.00  0.00    -0.245 C  
HETATM    2  N   UNL     1     -11.277  13.267  65.444  1.00  0.00    -0.286 N  
HETATM    3  C   UNL     1     -10.905  14.652  64.917  1.00  0.00    -0.419 C  
HETATM    4  C   UNL     1     -12.128  12.533  64.414  1.00  0.00    -0.424 C  
ENDROOT
BRANCH   2   5
HETATM    5  C   UNL     1     -11.992  13.363  66.813  1.00  0.00    -0.394 C  
BRANCH   5   6
HETATM    6  C   UNL     1     -11.147  14.031  67.913  1.00  0.00    -0.255 C  
BRANCH   6   7
HETATM    7  O   UNL     1     -11.920  14.835  68.825  1.00  0.00    -0.304 OA 
BRANCH   7   8
HETATM    8  C   UNL     1     -11.248  15.894  69.357  1.00  0.00    -0.336 C  
HETATM    9  O   UNL     1     -11.357  16.249  70.522  1.00  0.00    -0.378 OA 
BRANCH   8  10
HETATM   10  C   UNL     1     -10.258  16.467  68.376  1.00  0.00    -0.266 C  
BRANCH  10  11
HETATM   11  C   UNL     1     -10.740  17.765  67.756  1.00  0.00    -0.332 C  
BRANCH  11  12
HETATM   12  C   UNL     1     -10.184  17.988  66.375  1.00  0.00    -0.393 C  
HETATM   13  O   UNL     1     -10.775  18.564  65.471  1.00  0.00    -0.586 OA 
BRANCH  12  14
HETATM   14  O   UNL     1      -8.989  17.357  66.209  1.00  0.00    -0.365 OA 
BRANCH  14  15
HETATM   15  C   UNL     1      -7.839  18.222  66.270  1.00  0.00    -0.245 C  
BRANCH  15  16
HETATM   16  C   UNL     1      -6.916  17.937  67.468  1.00  0.00    -0.193 C  
BRANCH  16  17
HETATM   17  N   UNL     1      -6.671  19.169  68.376  1.00  0.00    -0.252 N  
HETATM   18  C   UNL     1      -7.967  19.685  68.989  1.00  0.00    -0.199 C  
HETATM   19  C   UNL     1      -6.072  20.286  67.513  1.00  0.00    -0.206 C  
HETATM   20  C   UNL     1      -5.669  18.846  69.483  1.00  0.00    -0.232 C  
ENDBRANCH  16  17
ENDBRANCH  15  16
ENDBRANCH  14  15
ENDBRANCH  12  14
ENDBRANCH  11  12
ENDBRANCH  10  11
ENDBRANCH   8  10
ENDBRANCH   7   8
ENDBRANCH   6   7
ENDBRANCH   5   6
ENDBRANCH   2   5
TORSDOF 11
ENDMDL
MODEL       79
REMARK 921   NORMALIZED FREE ENERGY PREDICTED BY IDOCK:   -3.86 KCAL/MOL
REMARK 922        TOTAL FREE ENERGY PREDICTED BY IDOCK:   -7.09 KCAL/MOL
REMARK 923 INTER-LIGAND FREE ENERGY PREDICTED BY IDOCK:   -6.28 KCAL/MOL
REMARK 924 INTRA-LIGAND FREE ENERGY PREDICTED BY IDOCK:   -0.81 KCAL/MOL
REMARK 927      BINDING AFFINITY PREDICTED BY RF-SCORE:    0.00 PKD
ROOT
HETATM    1  C   UNL     1     -10.344  12.951  65.468  1.00  0.00    -0.291 C  
HETATM    2  N   UNL     1     -11.228  14.120  65.923  1.00  0.00    -0.309 N  
HETATM    3  C   UNL     1     -10.881  15.331  65.058  1.00  0.00    -0.439 C  
HETATM    4  C   UNL     1     -12.684  13.727  65.704  1.00  0.00    -0.478 C  
ENDROOT
BRANCH   2   5
HETATM    5  C   UNL     1     -10.927  14.395  67.416  1.00  0.00    -0.299 C  
BRANCH   5   6
HETATM    6  C   UNL     1     -11.974  13.810  68.382  1.00  0.00    -0.360 C  
BRANCH   6   7
HETATM    7  O   UNL     1     -11.428  12.860  69.316  1.00  0.00    -0.268 OA 
BRANCH   7   8
HETATM    8  C   UNL     1     -11.872  11.583  69.151  1.00  0.00    -0.340 C  
HETATM    9  O   UNL     1     -12.086  11.076  68.060  1.00  0.00    -0.615 OA 
BRANCH   8  10
HETATM   10  C   UNL     1     -11.921  10.843  70.463  1.00  0.00    -0.466 C  
BRANCH  10  11
HETATM   11  C   UNL     1     -10.787   9.845  70.609  1.00  0.00    -0.400 C  
BRANCH  11  12
HETATM   12  C   UNL     1     -11.259   8.500  71.095  1.00  0.00    -0.267 C  
HETATM   13  O   UNL     1     -11.490   7.541  70.372  1.00  0.00    -0.269 OA 
BRANCH  12  14
HETATM   14  O   UNL     1     -11.523   8.516  72.431  1.00  0.00    -0.369 OA 
BRANCH  14  15
HETATM   15  C   UNL     1     -10.904   7.452  73.178  1.00  0.00    -0.386 C  
BRANCH  15  16
HETATM   16  C   UNL     1      -9.420   7.704  73.496  1.00  0.00    -0.289 C  
BRANCH  16  17
HETATM   17  N   UNL     1      -8.450   6.732  72.776  1.00  0.00    -0.117 N  
HETATM   18  C   UNL     1      -7.739   7.407  71.609  1.00  0.00    -0.086 C  
HETATM   19  C   UNL     1      -9.273   5.562  72.224  1.00  0.00    -0.142 C  
HETATM   20  C   UNL     1      -7.421   6.161  73.749  1.00  0.00    -0.091 C  
ENDBRANCH  16  17
ENDBRANCH  15  16
ENDBRANCH  14  15
ENDBRANCH  12  14
ENDBRANCH  11  12
ENDBRANCH  10  11
ENDBRANCH   8  10
ENDBRANCH   7   8
ENDBRANCH   6   7
ENDBRANCH   5   6
ENDBRANCH   2   5
TORSDOF 11
ENDMDL
MODEL       80
REMARK 921   NORMALIZED FREE ENERGY PREDICTED BY IDOCK:   -3.85 KCAL/MOL
REMARK 922        TOTAL FREE ENERGY PREDICTED BY IDOCK:   -7.09 KCAL/MOL
REMARK 923 INTER-LIGAND FREE ENERGY PREDICTED BY IDOCK:   -6.38 KCAL/MOL
REMARK 924 INTRA-LIGAND FREE ENERGY PREDICTED BY IDOCK:   -0.71 KCAL/MOL
REMARK 927      BINDING AFFINITY PREDICTED BY RF-SCORE:    0.00 PKD
ROOT
HETATM    1  C   UNL     1      -9.246   7.766  68.910  1.00  0.00    -0.140 C  
HETATM    2  N   UNL     1      -9.326   9.041  68.060  1.00  0.00    -0.141 N  
HETATM    3  C   UNL     1     -10.219  10.037  68.798  1.00  0.00    -0.186 C  
HETATM    4  C   UNL     1      -7.918   9.609  67.924  1.00  0.00    -0.098 C  
ENDROOT
BRANCH   2   5
HETATM    5  C   UNL     1      -9.926   8.664  66.685  1.00  0.00    -0.287 C  
BRANCH   5   6
HETATM    6  C   UNL     1      -9.331   9.455  65.505  1.00  0.00    -0.251 C  
BRANCH   6   7
HETATM    7  O   UNL     1     -10.092  10.626  65.155  1.00  0.00    -0.275 OA 
BRANCH   7   8
HETATM    8  C   UNL     1     -10.143  10.891  63.820  1.00  0.00    -0.353 C  
HETATM    9  O   UNL     1      -9.707  10.136  62.963  1.00  0.00    -0.258 OA 
BRANCH   8  10
HETATM   10  C   UNL     1     -10.927  12.147  63.537  1.00  0.00    -0.521 C  
BRANCH  10  11
HETATM   11  C   UNL     1     -12.310  12.121  64.161  1.00  0.00    -0.508 C  
BRANCH  11  12
HETATM   12  C   UNL     1     -12.521  13.239  65.146  1.00  0.00    -0.470 C  
HETATM   13  O   UNL     1     -12.999  14.331  64.866  1.00  0.00    -0.682 OA 
BRANCH  12  14
HETATM   14  O   UNL     1     -11.996  12.938  66.365  1.00  0.00    -0.398 OA 
BRANCH  14  15
HETATM   15  C   UNL     1     -11.985  14.033  67.302  1.00  0.00    -0.413 C  
BRANCH  15  16
HETATM   16  C   UNL     1     -10.940  13.877  68.420  1.00  0.00    -0.253 C  
BRANCH  16  17
HETATM   17  N   UNL     1     -10.449  15.223  69.012  1.00  0.00    -0.238 N  
HETATM   18  C   UNL     1     -11.111  15.524  70.351  1.00  0.00    -0.337 C  
HETATM   19  C   UNL     1     -10.825  16.339  68.030  1.00  0.00    -0.339 C  
HETATM   20  C   UNL     1      -8.930  15.233  69.171  1.00  0.00    -0.233 C  
ENDBRANCH  16  17
ENDBRANCH  15  16
ENDBRANCH  14  15
ENDBRANCH  12  14
ENDBRANCH  11  12
ENDBRANCH  10  11
ENDBRANCH   8  10
ENDBRANCH   7   8
ENDBRANCH   6   7
ENDBRANCH   5   6
ENDBRANCH   2   5
TORSDOF 11
ENDMDL
MODEL       81
REMARK 921   NORMALIZED FREE ENERGY PREDICTED BY IDOCK:   -3.85 KCAL/MOL
REMARK 922        TOTAL FREE ENERGY PREDICTED BY IDOCK:   -7.08 KCAL/MOL
REMARK 923 INTER-LIGAND FREE ENERGY PREDICTED BY IDOCK:   -6.13 KCAL/MOL
REMARK 924 INTRA-LIGAND FREE ENERGY PREDICTED BY IDOCK:   -0.95 KCAL/MOL
REMARK 927      BINDING AFFINITY PREDICTED BY RF-SCORE:    0.00 PKD
ROOT
HETATM    1  C   UNL     1      -9.954  10.169  65.081  1.00  0.00    -0.309 C  
HETATM    2  N   UNL     1     -10.005  11.183  66.231  1.00  0.00    -0.212 N  
HETATM    3  C   UNL     1     -10.762  10.536  67.389  1.00  0.00    -0.281 C  
HETATM    4  C   UNL     1      -8.574  11.493  66.655  1.00  0.00    -0.176 C  
ENDROOT
BRANCH   2   5
HETATM    5  C   UNL     1     -10.737  12.449  65.722  1.00  0.00    -0.267 C  
BRANCH   5   6
HETATM    6  C   UNL     1     -12.013  12.793  66.512  1.00  0.00    -0.358 C  
BRANCH   6   7
HETATM    7  O   UNL     1     -12.174  14.202  66.760  1.00  0.00    -0.447 OA 
BRANCH   7   8
HETATM    8  C   UNL     1     -11.898  14.589  68.037  1.00  0.00    -0.315 C  
HETATM    9  O   UNL     1     -12.230  13.950  69.024  1.00  0.00    -0.350 OA 
BRANCH   8  10
HETATM   10  C   UNL     1     -11.014  15.809  68.063  1.00  0.00    -0.330 C  
BRANCH  10  11
HETATM   11  C   UNL     1      -9.583  15.499  67.666  1.00  0.00    -0.210 C  
BRANCH  11  12
HETATM   12  C   UNL     1      -9.178  16.174  66.383  1.00  0.00    -0.300 C  
HETATM   13  O   UNL     1      -9.959  16.560  65.524  1.00  0.00    -0.541 OA 
BRANCH  12  14
HETATM   14  O   UNL     1      -7.825  16.191  66.232  1.00  0.00    -0.236 OA 
BRANCH  14  15
HETATM   15  C   UNL     1      -7.157  17.264  66.923  1.00  0.00    -0.199 C  
BRANCH  15  16
HETATM   16  C   UNL     1      -7.337  18.636  66.251  1.00  0.00    -0.258 C  
BRANCH  16  17
HETATM   17  N   UNL     1      -8.044  19.685  67.147  1.00  0.00    -0.273 N  
HETATM   18  C   UNL     1      -7.253  20.985  67.225  1.00  0.00    -0.301 C  
HETATM   19  C   UNL     1      -8.153  19.106  68.562  1.00  0.00    -0.359 C  
HETATM   20  C   UNL     1      -9.459  19.969  66.649  1.00  0.00    -0.404 C  
ENDBRANCH  16  17
ENDBRANCH  15  16
ENDBRANCH  14  15
ENDBRANCH  12  14
ENDBRANCH  11  12
ENDBRANCH  10  11
ENDBRANCH   8  10
ENDBRANCH   7   8
ENDBRANCH   6   7
ENDBRANCH   5   6
ENDBRANCH   2   5
TORSDOF 11
ENDMDL
MODEL       82
REMARK 921   NORMALIZED FREE ENERGY PREDICTED BY IDOCK:   -3.83 KCAL/MOL
REMARK 922        TOTAL FREE ENERGY PREDICTED BY IDOCK:   -7.04 KCAL/MOL
REMARK 923 INTER-LIGAND FREE ENERGY PREDICTED BY IDOCK:   -6.40 KCAL/MOL
REMARK 924 INTRA-LIGAND FREE ENERGY PREDICTED BY IDOCK:   -0.64 KCAL/MOL
REMARK 927      BINDING AFFINITY PREDICTED BY RF-SCORE:    0.00 PKD
ROOT
HETATM    1  C   UNL     1      -8.925   7.333  68.833  1.00  0.00    -0.133 C  
HETATM    2  N   UNL     1      -9.892   7.061  67.674  1.00  0.00    -0.142 N  
HETATM    3  C   UNL     1     -10.282   8.408  67.066  1.00  0.00    -0.307 C  
HETATM    4  C   UNL     1      -9.164   6.215  66.636  1.00  0.00    -0.144 C  
ENDROOT
BRANCH   2   5
HETATM    5  C   UNL     1     -11.129   6.327  68.244  1.00  0.00    -0.269 C  
BRANCH   5   6
HETATM    6  C   UNL     1     -11.058   6.067  69.760  1.00  0.00    -0.406 C  
BRANCH   6   7
HETATM    7  O   UNL     1     -12.149   6.653  70.496  1.00  0.00    -0.390 OA 
BRANCH   7   8
HETATM    8  C   UNL     1     -11.950   6.726  71.842  1.00  0.00    -0.333 C  
HETATM    9  O   UNL     1     -11.655   5.763  72.536  1.00  0.00    -0.303 OA 
BRANCH   8  10
HETATM   10  C   UNL     1     -11.994   8.151  72.329  1.00  0.00    -0.434 C  
BRANCH  10  11
HETATM   11  C   UNL     1     -13.065   8.969  71.632  1.00  0.00    -0.420 C  
BRANCH  11  12
HETATM   12  C   UNL     1     -12.704  10.428  71.529  1.00  0.00    -0.459 C  
HETATM   13  O   UNL     1     -13.347  11.340  72.032  1.00  0.00    -0.462 OA 
BRANCH  12  14
HETATM   14  O   UNL     1     -11.644  10.623  70.698  1.00  0.00    -0.326 OA 
BRANCH  14  15
HETATM   15  C   UNL     1     -11.989  11.109  69.387  1.00  0.00    -0.349 C  
BRANCH  15  16
HETATM   16  C   UNL     1     -11.892  12.639  69.252  1.00  0.00    -0.302 C  
BRANCH  16  17
HETATM   17  N   UNL     1     -11.202  13.111  67.947  1.00  0.00    -0.256 N  
HETATM   18  C   UNL     1     -11.910  14.315  67.338  1.00  0.00    -0.409 C  
HETATM   19  C   UNL     1     -11.260  11.960  66.935  1.00  0.00    -0.325 C  
HETATM   20  C   UNL     1      -9.732  13.444  68.192  1.00  0.00    -0.226 C  
ENDBRANCH  16  17
ENDBRANCH  15  16
ENDBRANCH  14  15
ENDBRANCH  12  14
ENDBRANCH  11  12
ENDBRANCH  10  11
ENDBRANCH   8  10
ENDBRANCH   7   8
ENDBRANCH   6   7
ENDBRANCH   5   6
ENDBRANCH   2   5
TORSDOF 11
ENDMDL
MODEL       83
REMARK 921   NORMALIZED FREE ENERGY PREDICTED BY IDOCK:   -3.82 KCAL/MOL
REMARK 922        TOTAL FREE ENERGY PREDICTED BY IDOCK:   -7.03 KCAL/MOL
REMARK 923 INTER-LIGAND FREE ENERGY PREDICTED BY IDOCK:   -6.59 KCAL/MOL
REMARK 924 INTRA-LIGAND FREE ENERGY PREDICTED BY IDOCK:   -0.44 KCAL/MOL
REMARK 927      BINDING AFFINITY PREDICTED BY RF-SCORE:    0.00 PKD
ROOT
HETATM    1  C   UNL     1      -9.062   5.779  67.599  1.00  0.00    -0.106 C  
HETATM    2  N   UNL     1      -9.941   6.937  68.090  1.00  0.00    -0.150 N  
HETATM    3  C   UNL     1     -11.079   6.341  68.916  1.00  0.00    -0.362 C  
HETATM    4  C   UNL     1      -9.085   7.845  68.966  1.00  0.00    -0.144 C  
ENDROOT
BRANCH   2   5
HETATM    5  C   UNL     1     -10.483   7.686  66.849  1.00  0.00    -0.318 C  
BRANCH   5   6
HETATM    6  C   UNL     1      -9.561   8.812  66.345  1.00  0.00    -0.249 C  
BRANCH   6   7
HETATM    7  O   UNL     1     -10.269   9.909  65.740  1.00  0.00    -0.265 OA 
BRANCH   7   8
HETATM    8  C   UNL     1      -9.785  10.298  64.527  1.00  0.00    -0.329 C  
HETATM    9  O   UNL     1      -8.675   9.997  64.114  1.00  0.00    -0.171 OA 
BRANCH   8  10
HETATM   10  C   UNL     1     -10.838  11.008  63.716  1.00  0.00    -0.201 C  
BRANCH  10  11
HETATM   11  C   UNL     1     -10.753  12.517  63.850  1.00  0.00    -0.473 C  
BRANCH  11  12
HETATM   12  C   UNL     1     -12.108  13.167  63.941  1.00  0.00    -0.470 C  
HETATM   13  O   UNL     1     -12.528  14.012  63.161  1.00  0.00    -0.733 OA 
BRANCH  12  14
HETATM   14  O   UNL     1     -12.765  12.796  65.074  1.00  0.00    -0.625 OA 
BRANCH  14  15
HETATM   15  C   UNL     1     -11.969  12.848  66.274  1.00  0.00    -0.408 C  
BRANCH  15  16
HETATM   16  C   UNL     1     -11.998  14.217  66.974  1.00  0.00    -0.433 C  
BRANCH  16  17
HETATM   17  N   UNL     1     -11.450  14.192  68.424  1.00  0.00    -0.283 N  
HETATM   18  C   UNL     1     -11.995  15.349  69.253  1.00  0.00    -0.310 C  
HETATM   19  C   UNL     1      -9.924  14.328  68.358  1.00  0.00    -0.240 C  
HETATM   20  C   UNL     1     -11.772  12.867  69.111  1.00  0.00    -0.324 C  
ENDBRANCH  16  17
ENDBRANCH  15  16
ENDBRANCH  14  15
ENDBRANCH  12  14
ENDBRANCH  11  12
ENDBRANCH  10  11
ENDBRANCH   8  10
ENDBRANCH   7   8
ENDBRANCH   6   7
ENDBRANCH   5   6
ENDBRANCH   2   5
TORSDOF 11
ENDMDL
MODEL       84
REMARK 921   NORMALIZED FREE ENERGY PREDICTED BY IDOCK:   -3.82 KCAL/MOL
REMARK 922        TOTAL FREE ENERGY PREDICTED BY IDOCK:   -7.03 KCAL/MOL
REMARK 923 INTER-LIGAND FREE ENERGY PREDICTED BY IDOCK:   -6.28 KCAL/MOL
REMARK 924 INTRA-LIGAND FREE ENERGY PREDICTED BY IDOCK:   -0.75 KCAL/MOL
REMARK 927      BINDING AFFINITY PREDICTED BY RF-SCORE:    0.00 PKD
ROOT
HETATM    1  C   UNL     1     -12.713  15.101  73.207  1.00  0.00    -0.512 C  
HETATM    2  N   UNL     1     -13.181  14.331  71.965  1.00  0.00    -0.357 N  
HETATM    3  C   UNL     1     -13.648  12.950  72.422  1.00  0.00    -0.478 C  
HETATM    4  C   UNL     1     -14.346  15.093  71.345  1.00  0.00    -0.499 C  
ENDROOT
BRANCH   2   5
HETATM    5  C   UNL     1     -11.985  14.222  70.989  1.00  0.00    -0.303 C  
BRANCH   5   6
HETATM    6  C   UNL     1     -12.370  14.385  69.508  1.00  0.00    -0.222 C  
BRANCH   6   7
HETATM    7  O   UNL     1     -11.653  15.439  68.838  1.00  0.00    -0.315 OA 
BRANCH   7   8
HETATM    8  C   UNL     1     -11.321  15.167  67.545  1.00  0.00    -0.320 C  
HETATM    9  O   UNL     1     -10.307  15.585  67.005  1.00  0.00    -0.267 OA 
BRANCH   8  10
HETATM   10  C   UNL     1     -12.275  14.178  66.928  1.00  0.00    -0.400 C  
BRANCH  10  11
HETATM   11  C   UNL     1     -11.582  13.215  65.982  1.00  0.00    -0.393 C  
BRANCH  11  12
HETATM   12  C   UNL     1     -11.408  11.844  66.578  1.00  0.00    -0.341 C  
HETATM   13  O   UNL     1     -11.969  11.449  67.592  1.00  0.00    -0.630 OA 
BRANCH  12  14
HETATM   14  O   UNL     1     -10.446  11.134  65.926  1.00  0.00    -0.252 OA 
BRANCH  14  15
HETATM   15  C   UNL     1     -10.223   9.808  66.444  1.00  0.00    -0.217 C  
BRANCH  15  16
HETATM   16  C   UNL     1      -8.922   9.674  67.254  1.00  0.00    -0.134 C  
BRANCH  16  17
HETATM   17  N   UNL     1      -9.069   8.820  68.539  1.00  0.00    -0.138 N  
HETATM   18  C   UNL     1      -8.678   9.605  69.786  1.00  0.00    -0.208 C  
HETATM   19  C   UNL     1      -8.130   7.614  68.419  1.00  0.00    -0.124 C  
HETATM   20  C   UNL     1     -10.494   8.290  68.688  1.00  0.00    -0.168 C  
ENDBRANCH  16  17
ENDBRANCH  15  16
ENDBRANCH  14  15
ENDBRANCH  12  14
ENDBRANCH  11  12
ENDBRANCH  10  11
ENDBRANCH   8  10
ENDBRANCH   7   8
ENDBRANCH   6   7
ENDBRANCH   5   6
ENDBRANCH   2   5
TORSDOF 11
ENDMDL
MODEL       85
REMARK 921   NORMALIZED FREE ENERGY PREDICTED BY IDOCK:   -3.79 KCAL/MOL
REMARK 922        TOTAL FREE ENERGY PREDICTED BY IDOCK:   -6.99 KCAL/MOL
REMARK 923 INTER-LIGAND FREE ENERGY PREDICTED BY IDOCK:   -6.22 KCAL/MOL
REMARK 924 INTRA-LIGAND FREE ENERGY PREDICTED BY IDOCK:   -0.77 KCAL/MOL
REMARK 927      BINDING AFFINITY PREDICTED BY RF-SCORE:    0.00 PKD
ROOT
HETATM    1  C   UNL     1     -11.035   7.734  69.833  1.00  0.00    -0.190 C  
HETATM    2  N   UNL     1     -11.102   9.047  70.624  1.00  0.00    -0.254 N  
HETATM    3  C   UNL     1     -12.534   9.212  71.132  1.00  0.00    -0.254 C  
HETATM    4  C   UNL     1     -10.142   8.941  71.803  1.00  0.00    -0.337 C  
ENDROOT
BRANCH   2   5
HETATM    5  C   UNL     1     -10.711  10.201  69.670  1.00  0.00    -0.264 C  
BRANCH   5   6
HETATM    6  C   UNL     1     -11.884  11.123  69.291  1.00  0.00    -0.352 C  
BRANCH   6   7
HETATM    7  O   UNL     1     -11.950  11.423  67.884  1.00  0.00    -0.626 OA 
BRANCH   7   8
HETATM    8  C   UNL     1     -11.321  12.576  67.520  1.00  0.00    -0.312 C  
HETATM    9  O   UNL     1     -10.178  12.857  67.850  1.00  0.00    -0.221 OA 
BRANCH   8  10
HETATM   10  C   UNL     1     -12.153  13.373  66.549  1.00  0.00    -0.444 C  
BRANCH  10  11
HETATM   11  C   UNL     1     -12.232  12.723  65.180  1.00  0.00    -0.530 C  
BRANCH  11  12
HETATM   12  C   UNL     1     -10.951  12.859  64.401  1.00  0.00    -0.371 C  
HETATM   13  O   UNL     1     -10.188  13.813  64.477  1.00  0.00    -0.414 OA 
BRANCH  12  14
HETATM   14  O   UNL     1     -10.805  11.849  63.499  1.00  0.00    -0.387 OA 
BRANCH  14  15
HETATM   15  C   UNL     1      -9.441  11.453  63.257  1.00  0.00    -0.314 C  
BRANCH  15  16
HETATM   16  C   UNL     1      -9.201   9.941  63.418  1.00  0.00    -0.240 C  
BRANCH  16  17
HETATM   17  N   UNL     1      -8.726   9.529  64.835  1.00  0.00    -0.177 N  
HETATM   18  C   UNL     1      -7.692  10.502  65.388  1.00  0.00    -0.106 C  
HETATM   19  C   UNL     1      -8.076   8.145  64.735  1.00  0.00    -0.152 C  
HETATM   20  C   UNL     1      -9.905   9.422  65.801  1.00  0.00    -0.275 C  
ENDBRANCH  16  17
ENDBRANCH  15  16
ENDBRANCH  14  15
ENDBRANCH  12  14
ENDBRANCH  11  12
ENDBRANCH  10  11
ENDBRANCH   8  10
ENDBRANCH   7   8
ENDBRANCH   6   7
ENDBRANCH   5   6
ENDBRANCH   2   5
TORSDOF 11
ENDMDL
MODEL       86
REMARK 921   NORMALIZED FREE ENERGY PREDICTED BY IDOCK:   -3.79 KCAL/MOL
REMARK 922        TOTAL FREE ENERGY PREDICTED BY IDOCK:   -6.97 KCAL/MOL
REMARK 923 INTER-LIGAND FREE ENERGY PREDICTED BY IDOCK:   -6.03 KCAL/MOL
REMARK 924 INTRA-LIGAND FREE ENERGY PREDICTED BY IDOCK:   -0.95 KCAL/MOL
REMARK 927      BINDING AFFINITY PREDICTED BY RF-SCORE:    0.00 PKD
ROOT
HETATM    1  C   UNL     1      -9.007   7.186  69.611  1.00  0.00    -0.141 C  
HETATM    2  N   UNL     1      -9.857   6.598  68.477  1.00  0.00    -0.137 N  
HETATM    3  C   UNL     1      -9.847   7.598  67.321  1.00  0.00    -0.186 C  
HETATM    4  C   UNL     1      -9.217   5.288  68.035  1.00  0.00    -0.113 C  
ENDROOT
BRANCH   2   5
HETATM    5  C   UNL     1     -11.291   6.381  69.016  1.00  0.00    -0.255 C  
BRANCH   5   6
HETATM    6  C   UNL     1     -11.412   6.520  70.545  1.00  0.00    -0.387 C  
BRANCH   6   7
HETATM    7  O   UNL     1     -12.636   7.147  70.971  1.00  0.00    -0.357 OA 
BRANCH   7   8
HETATM    8  C   UNL     1     -12.471   8.171  71.855  1.00  0.00    -0.332 C  
HETATM    9  O   UNL     1     -11.627   8.173  72.739  1.00  0.00    -0.411 OA 
BRANCH   8  10
HETATM   10  C   UNL     1     -13.353   9.343  71.510  1.00  0.00    -0.458 C  
BRANCH  10  11
HETATM   11  C   UNL     1     -12.561  10.617  71.276  1.00  0.00    -0.533 C  
BRANCH  11  12
HETATM   12  C   UNL     1     -11.625  10.509  70.102  1.00  0.00    -0.326 C  
HETATM   13  O   UNL     1     -10.426  10.279  70.187  1.00  0.00    -0.271 OA 
BRANCH  12  14
HETATM   14  O   UNL     1     -12.250  10.827  68.934  1.00  0.00    -0.447 OA 
BRANCH  14  15
HETATM   15  C   UNL     1     -11.366  11.013  67.812  1.00  0.00    -0.292 C  
BRANCH  15  16
HETATM   16  C   UNL     1     -11.616  12.321  67.041  1.00  0.00    -0.349 C  
BRANCH  16  17
HETATM   17  N   UNL     1     -10.620  13.456  67.390  1.00  0.00    -0.250 N  
HETATM   18  C   UNL     1     -10.282  14.305  66.171  1.00  0.00    -0.307 C  
HETATM   19  C   UNL     1      -9.324  12.812  67.898  1.00  0.00    -0.208 C  
HETATM   20  C   UNL     1     -11.167  14.345  68.505  1.00  0.00    -0.265 C  
ENDBRANCH  16  17
ENDBRANCH  15  16
ENDBRANCH  14  15
ENDBRANCH  12  14
ENDBRANCH  11  12
ENDBRANCH  10  11
ENDBRANCH   8  10
ENDBRANCH   7   8
ENDBRANCH   6   7
ENDBRANCH   5   6
ENDBRANCH   2   5
TORSDOF 11
ENDMDL
MODEL       87
REMARK 921   NORMALIZED FREE ENERGY PREDICTED BY IDOCK:   -3.78 KCAL/MOL
REMARK 922        TOTAL FREE ENERGY PREDICTED BY IDOCK:   -6.97 KCAL/MOL
REMARK 923 INTER-LIGAND FREE ENERGY PREDICTED BY IDOCK:   -6.54 KCAL/MOL
REMARK 924 INTRA-LIGAND FREE ENERGY PREDICTED BY IDOCK:   -0.43 KCAL/MOL
REMARK 927      BINDING AFFINITY PREDICTED BY RF-SCORE:    0.00 PKD
ROOT
HETATM    1  C   UNL     1     -10.918   6.569  67.230  1.00  0.00    -0.400 C  
HETATM    2  N   UNL     1      -9.568   7.292  67.140  1.00  0.00    -0.151 N  
HETATM    3  C   UNL     1      -8.817   7.040  68.447  1.00  0.00    -0.123 C  
HETATM    4  C   UNL     1      -8.789   6.700  65.971  1.00  0.00    -0.139 C  
ENDROOT
BRANCH   2   5
HETATM    5  C   UNL     1      -9.846   8.801  66.938  1.00  0.00    -0.229 C  
BRANCH   5   6
HETATM    6  C   UNL     1      -9.608   9.292  65.498  1.00  0.00    -0.220 C  
BRANCH   6   7
HETATM    7  O   UNL     1      -9.943  10.678  65.299  1.00  0.00    -0.255 OA 
BRANCH   7   8
HETATM    8  C   UNL     1     -10.186  11.023  64.004  1.00  0.00    -0.358 C  
HETATM    9  O   UNL     1      -9.688  10.450  63.046  1.00  0.00    -0.318 OA 
BRANCH   8  10
HETATM   10  C   UNL     1     -11.248  12.089  63.908  1.00  0.00    -0.490 C  
BRANCH  10  11
HETATM   11  C   UNL     1     -11.876  12.405  65.252  1.00  0.00    -0.451 C  
BRANCH  11  12
HETATM   12  C   UNL     1     -12.356  13.829  65.346  1.00  0.00    -0.475 C  
HETATM   13  O   UNL     1     -13.528  14.162  65.463  1.00  0.00    -0.643 OA 
BRANCH  12  14
HETATM   14  O   UNL     1     -11.338  14.713  65.154  1.00  0.00    -0.344 OA 
BRANCH  14  15
HETATM   15  C   UNL     1     -10.902  15.395  66.345  1.00  0.00    -0.303 C  
BRANCH  15  16
HETATM   16  C   UNL     1      -9.691  16.317  66.120  1.00  0.00    -0.329 C  
BRANCH  16  17
HETATM   17  N   UNL     1      -9.786  17.671  66.868  1.00  0.00    -0.280 N  
HETATM   18  C   UNL     1     -10.577  17.545  68.164  1.00  0.00    -0.366 C  
HETATM   19  C   UNL     1     -10.513  18.668  65.958  1.00  0.00    -0.414 C  
HETATM   20  C   UNL     1      -8.397  18.235  67.163  1.00  0.00    -0.245 C  
ENDBRANCH  16  17
ENDBRANCH  15  16
ENDBRANCH  14  15
ENDBRANCH  12  14
ENDBRANCH  11  12
ENDBRANCH  10  11
ENDBRANCH   8  10
ENDBRANCH   7   8
ENDBRANCH   6   7
ENDBRANCH   5   6
ENDBRANCH   2   5
TORSDOF 11
ENDMDL
MODEL       88
REMARK 921   NORMALIZED FREE ENERGY PREDICTED BY IDOCK:   -3.78 KCAL/MOL
REMARK 922        TOTAL FREE ENERGY PREDICTED BY IDOCK:   -6.96 KCAL/MOL
REMARK 923 INTER-LIGAND FREE ENERGY PREDICTED BY IDOCK:   -6.41 KCAL/MOL
REMARK 924 INTRA-LIGAND FREE ENERGY PREDICTED BY IDOCK:   -0.54 KCAL/MOL
REMARK 927      BINDING AFFINITY PREDICTED BY RF-SCORE:    0.00 PKD
ROOT
HETATM    1  C   UNL     1      -8.275  16.849  66.376  1.00  0.00    -0.307 C  
HETATM    2  N   UNL     1      -9.709  17.038  66.886  1.00  0.00    -0.252 N  
HETATM    3  C   UNL     1      -9.642  17.242  68.399  1.00  0.00    -0.285 C  
HETATM    4  C   UNL     1     -10.290  18.280  66.221  1.00  0.00    -0.405 C  
ENDROOT
BRANCH   2   5
HETATM    5  C   UNL     1     -10.516  15.767  66.529  1.00  0.00    -0.303 C  
BRANCH   5   6
HETATM    6  C   UNL     1     -10.645  15.513  65.016  1.00  0.00    -0.409 C  
BRANCH   6   7
HETATM    7  O   UNL     1     -11.696  14.589  64.674  1.00  0.00    -0.400 OA 
BRANCH   7   8
HETATM    8  C   UNL     1     -11.311  13.283  64.630  1.00  0.00    -0.346 C  
HETATM    9  O   UNL     1     -10.444  12.858  63.881  1.00  0.00    -0.413 OA 
BRANCH   8  10
HETATM   10  C   UNL     1     -11.979  12.476  65.714  1.00  0.00    -0.482 C  
BRANCH  10  11
HETATM   11  C   UNL     1     -11.042  11.462  66.344  1.00  0.00    -0.301 C  
BRANCH  11  12
HETATM   12  C   UNL     1     -10.967  11.596  67.841  1.00  0.00    -0.225 C  
HETATM   13  O   UNL     1     -10.026  11.220  68.527  1.00  0.00    -0.190 OA 
BRANCH  12  14
HETATM   14  O   UNL     1     -12.134  12.069  68.360  1.00  0.00    -0.412 OA 
BRANCH  14  15
HETATM   15  C   UNL     1     -12.038  13.377  68.956  1.00  0.00    -0.259 C  
BRANCH  15  16
HETATM   16  C   UNL     1     -12.009  13.353  70.494  1.00  0.00    -0.255 C  
BRANCH  16  17
HETATM   17  N   UNL     1     -12.572  14.638  71.153  1.00  0.00    -0.311 N  
HETATM   18  C   UNL     1     -12.571  15.815  70.185  1.00  0.00    -0.119 C  
HETATM   19  C   UNL     1     -11.672  14.997  72.342  1.00  0.00    -0.315 C  
HETATM   20  C   UNL     1     -13.984  14.409  71.688  1.00  0.00    -0.426 C  
ENDBRANCH  16  17
ENDBRANCH  15  16
ENDBRANCH  14  15
ENDBRANCH  12  14
ENDBRANCH  11  12
ENDBRANCH  10  11
ENDBRANCH   8  10
ENDBRANCH   7   8
ENDBRANCH   6   7
ENDBRANCH   5   6
ENDBRANCH   2   5
TORSDOF 11
ENDMDL
MODEL       89
REMARK 921   NORMALIZED FREE ENERGY PREDICTED BY IDOCK:   -3.77 KCAL/MOL
REMARK 922        TOTAL FREE ENERGY PREDICTED BY IDOCK:   -6.94 KCAL/MOL
REMARK 923 INTER-LIGAND FREE ENERGY PREDICTED BY IDOCK:   -6.54 KCAL/MOL
REMARK 924 INTRA-LIGAND FREE ENERGY PREDICTED BY IDOCK:   -0.40 KCAL/MOL
REMARK 927      BINDING AFFINITY PREDICTED BY RF-SCORE:    0.00 PKD
ROOT
HETATM    1  C   UNL     1      -9.479   7.614  70.853  1.00  0.00    -0.164 C  
HETATM    2  N   UNL     1     -10.927   7.940  71.240  1.00  0.00    -0.235 N  
HETATM    3  C   UNL     1     -11.820   6.837  70.674  1.00  0.00    -0.387 C  
HETATM    4  C   UNL     1     -11.020   7.954  72.761  1.00  0.00    -0.393 C  
ENDROOT
BRANCH   2   5
HETATM    5  C   UNL     1     -11.287   9.317  70.633  1.00  0.00    -0.275 C  
BRANCH   5   6
HETATM    6  C   UNL     1     -10.365   9.752  69.479  1.00  0.00    -0.230 C  
BRANCH   6   7
HETATM    7  O   UNL     1     -10.938   9.547  68.174  1.00  0.00    -0.192 OA 
BRANCH   7   8
HETATM    8  C   UNL     1     -10.566  10.467  67.240  1.00  0.00    -0.267 C  
HETATM    9  O   UNL     1      -9.670  10.284  66.429  1.00  0.00    -0.183 OA 
BRANCH   8  10
HETATM   10  C   UNL     1     -11.490  11.658  67.243  1.00  0.00    -0.350 C  
BRANCH  10  11
HETATM   11  C   UNL     1     -11.429  12.442  65.946  1.00  0.00    -0.422 C  
BRANCH  11  12
HETATM   12  C   UNL     1     -12.321  13.655  65.961  1.00  0.00    -0.445 C  
HETATM   13  O   UNL     1     -13.143  13.925  65.096  1.00  0.00    -0.773 OA 
BRANCH  12  14
HETATM   14  O   UNL     1     -12.012  14.490  66.992  1.00  0.00    -0.404 OA 
BRANCH  14  15
HETATM   15  C   UNL     1     -10.686  15.051  66.933  1.00  0.00    -0.308 C  
BRANCH  15  16
HETATM   16  C   UNL     1     -10.657  16.581  67.088  1.00  0.00    -0.270 C  
BRANCH  16  17
HETATM   17  N   UNL     1     -10.077  17.064  68.442  1.00  0.00    -0.283 N  
HETATM   18  C   UNL     1     -10.113  18.583  68.561  1.00  0.00    -0.378 C  
HETATM   19  C   UNL     1      -8.614  16.613  68.521  1.00  0.00    -0.234 C  
HETATM   20  C   UNL     1     -10.824  16.435  69.616  1.00  0.00    -0.346 C  
ENDBRANCH  16  17
ENDBRANCH  15  16
ENDBRANCH  14  15
ENDBRANCH  12  14
ENDBRANCH  11  12
ENDBRANCH  10  11
ENDBRANCH   8  10
ENDBRANCH   7   8
ENDBRANCH   6   7
ENDBRANCH   5   6
ENDBRANCH   2   5
TORSDOF 11
ENDMDL
MODEL       90
REMARK 921   NORMALIZED FREE ENERGY PREDICTED BY IDOCK:   -3.76 KCAL/MOL
REMARK 922        TOTAL FREE ENERGY PREDICTED BY IDOCK:   -6.94 KCAL/MOL
REMARK 923 INTER-LIGAND FREE ENERGY PREDICTED BY IDOCK:   -6.00 KCAL/MOL
REMARK 924 INTRA-LIGAND FREE ENERGY PREDICTED BY IDOCK:   -0.94 KCAL/MOL
REMARK 927      BINDING AFFINITY PREDICTED BY RF-SCORE:    0.00 PKD
ROOT
HETATM    1  C   UNL     1     -10.998  13.785  64.350  1.00  0.00    -0.343 C  
HETATM    2  N   UNL     1     -11.215  12.274  64.196  1.00  0.00    -0.339 N  
HETATM    3  C   UNL     1     -12.529  12.067  63.444  1.00  0.00    -0.509 C  
HETATM    4  C   UNL     1     -10.057  11.708  63.382  1.00  0.00    -0.440 C  
ENDROOT
BRANCH   2   5
HETATM    5  C   UNL     1     -11.277  11.652  65.611  1.00  0.00    -0.214 C  
BRANCH   5   6
HETATM    6  C   UNL     1      -9.978  10.946  66.041  1.00  0.00    -0.240 C  
BRANCH   6   7
HETATM    7  O   UNL     1      -9.445  11.428  67.288  1.00  0.00    -0.166 OA 
BRANCH   7   8
HETATM    8  C   UNL     1      -8.375  12.262  67.163  1.00  0.00    -0.183 C  
HETATM    9  O   UNL     1      -7.260  11.888  66.831  1.00  0.00    -0.138 OA 
BRANCH   8  10
HETATM   10  C   UNL     1      -8.778  13.704  67.340  1.00  0.00    -0.214 C  
BRANCH  10  11
HETATM   11  C   UNL     1      -9.834  13.884  68.415  1.00  0.00    -0.229 C  
BRANCH  11  12
HETATM   12  C   UNL     1     -11.047  14.623  67.915  1.00  0.00    -0.291 C  
HETATM   13  O   UNL     1     -12.186  14.174  67.920  1.00  0.00    -0.319 OA 
BRANCH  12  14
HETATM   14  O   UNL     1     -10.708  15.807  67.336  1.00  0.00    -0.309 OA 
BRANCH  14  15
HETATM   15  C   UNL     1     -10.723  16.938  68.228  1.00  0.00    -0.377 C  
BRANCH  15  16
HETATM   16  C   UNL     1      -9.323  17.485  68.555  1.00  0.00    -0.286 C  
BRANCH  16  17
HETATM   17  N   UNL     1      -9.039  18.884  67.952  1.00  0.00    -0.294 N  
HETATM   18  C   UNL     1     -10.245  19.808  68.080  1.00  0.00    -0.451 C  
HETATM   19  C   UNL     1      -8.728  18.707  66.461  1.00  0.00    -0.304 C  
HETATM   20  C   UNL     1      -7.821  19.530  68.609  1.00  0.00    -0.348 C  
ENDBRANCH  16  17
ENDBRANCH  15  16
ENDBRANCH  14  15
ENDBRANCH  12  14
ENDBRANCH  11  12
ENDBRANCH  10  11
ENDBRANCH   8  10
ENDBRANCH   7   8
ENDBRANCH   6   7
ENDBRANCH   5   6
ENDBRANCH   2   5
TORSDOF 11
ENDMDL
MODEL       91
REMARK 921   NORMALIZED FREE ENERGY PREDICTED BY IDOCK:   -3.76 KCAL/MOL
REMARK 922        TOTAL FREE ENERGY PREDICTED BY IDOCK:   -6.94 KCAL/MOL
REMARK 923 INTER-LIGAND FREE ENERGY PREDICTED BY IDOCK:   -6.15 KCAL/MOL
REMARK 924 INTRA-LIGAND FREE ENERGY PREDICTED BY IDOCK:   -0.79 KCAL/MOL
REMARK 927      BINDING AFFINITY PREDICTED BY RF-SCORE:    0.00 PKD
ROOT
HETATM    1  C   UNL     1      -8.987   8.571  65.818  1.00  0.00    -0.182 C  
HETATM    2  N   UNL     1      -8.590  10.024  65.529  1.00  0.00    -0.144 N  
HETATM    3  C   UNL     1      -7.110  10.035  65.148  1.00  0.00    -0.135 C  
HETATM    4  C   UNL     1      -9.430  10.523  64.359  1.00  0.00    -0.281 C  
ENDROOT
BRANCH   2   5
HETATM    5  C   UNL     1      -8.843  10.854  66.810  1.00  0.00    -0.145 C  
BRANCH   5   6
HETATM    6  C   UNL     1      -9.417  12.258  66.543  1.00  0.00    -0.236 C  
BRANCH   6   7
HETATM    7  O   UNL     1      -9.906  12.916  67.726  1.00  0.00    -0.209 OA 
BRANCH   7   8
HETATM    8  C   UNL     1     -11.255  12.838  67.902  1.00  0.00    -0.274 C  
HETATM    9  O   UNL     1     -11.796  12.850  68.998  1.00  0.00    -0.299 OA 
BRANCH   8  10
HETATM   10  C   UNL     1     -11.986  12.887  66.585  1.00  0.00    -0.436 C  
BRANCH  10  11
HETATM   11  C   UNL     1     -12.358  14.301  66.179  1.00  0.00    -0.411 C  
BRANCH  11  12
HETATM   12  C   UNL     1     -11.872  14.654  64.799  1.00  0.00    -0.440 C  
HETATM   13  O   UNL     1     -12.487  14.427  63.766  1.00  0.00    -0.814 OA 
BRANCH  12  14
HETATM   14  O   UNL     1     -10.601  15.142  64.825  1.00  0.00    -0.398 OA 
BRANCH  14  15
HETATM   15  C   UNL     1     -10.417  16.290  65.676  1.00  0.00    -0.368 C  
BRANCH  15  16
HETATM   16  C   UNL     1      -9.316  16.103  66.735  1.00  0.00    -0.234 C  
BRANCH  16  17
HETATM   17  N   UNL     1      -9.311  17.195  67.834  1.00  0.00    -0.245 N  
HETATM   18  C   UNL     1     -10.321  16.893  68.935  1.00  0.00    -0.333 C  
HETATM   19  C   UNL     1      -9.699  18.528  67.182  1.00  0.00    -0.304 C  
HETATM   20  C   UNL     1      -7.919  17.360  68.440  1.00  0.00    -0.259 C  
ENDBRANCH  16  17
ENDBRANCH  15  16
ENDBRANCH  14  15
ENDBRANCH  12  14
ENDBRANCH  11  12
ENDBRANCH  10  11
ENDBRANCH   8  10
ENDBRANCH   7   8
ENDBRANCH   6   7
ENDBRANCH   5   6
ENDBRANCH   2   5
TORSDOF 11
ENDMDL
MODEL       92
REMARK 921   NORMALIZED FREE ENERGY PREDICTED BY IDOCK:   -3.75 KCAL/MOL
REMARK 922        TOTAL FREE ENERGY PREDICTED BY IDOCK:   -6.91 KCAL/MOL
REMARK 923 INTER-LIGAND FREE ENERGY PREDICTED BY IDOCK:   -6.29 KCAL/MOL
REMARK 924 INTRA-LIGAND FREE ENERGY PREDICTED BY IDOCK:   -0.62 KCAL/MOL
REMARK 927      BINDING AFFINITY PREDICTED BY RF-SCORE:    0.00 PKD
ROOT
HETATM    1  C   UNL     1      -8.806   7.766  71.013  1.00  0.00    -0.141 C  
HETATM    2  N   UNL     1      -9.236   8.258  69.625  1.00  0.00    -0.157 N  
HETATM    3  C   UNL     1      -8.076   8.011  68.663  1.00  0.00    -0.125 C  
HETATM    4  C   UNL     1     -10.452   7.450  69.190  1.00  0.00    -0.213 C  
ENDROOT
BRANCH   2   5
HETATM    5  C   UNL     1      -9.561   9.768  69.732  1.00  0.00    -0.230 C  
BRANCH   5   6
HETATM    6  C   UNL     1     -11.056  10.072  69.940  1.00  0.00    -0.288 C  
BRANCH   6   7
HETATM    7  O   UNL     1     -11.485   9.945  71.309  1.00  0.00    -0.365 OA 
BRANCH   7   8
HETATM    8  C   UNL     1     -12.696  10.509  71.579  1.00  0.00    -0.452 C  
HETATM    9  O   UNL     1     -13.610   9.917  72.134  1.00  0.00    -0.409 OA 
BRANCH   8  10
HETATM   10  C   UNL     1     -12.705  11.978  71.243  1.00  0.00    -0.382 C  
BRANCH  10  11
HETATM   11  C   UNL     1     -13.503  12.797  72.240  1.00  0.00    -0.591 C  
BRANCH  11  12
HETATM   12  C   UNL     1     -13.479  14.270  71.930  1.00  0.00    -0.401 C  
HETATM   13  O   UNL     1     -13.653  15.157  72.755  1.00  0.00    -0.461 OA 
BRANCH  12  14
HETATM   14  O   UNL     1     -13.369  14.498  70.592  1.00  0.00    -0.295 OA 
BRANCH  14  15
HETATM   15  C   UNL     1     -12.516  15.603  70.240  1.00  0.00    -0.334 C  
BRANCH  15  16
HETATM   16  C   UNL     1     -11.067  15.189  69.930  1.00  0.00    -0.284 C  
BRANCH  16  17
HETATM   17  N   UNL     1     -10.676  15.340  68.438  1.00  0.00    -0.243 N  
HETATM   18  C   UNL     1     -11.584  14.517  67.532  1.00  0.00    -0.381 C  
HETATM   19  C   UNL     1      -9.241  14.829  68.267  1.00  0.00    -0.187 C  
HETATM   20  C   UNL     1     -10.705  16.804  68.006  1.00  0.00    -0.355 C  
ENDBRANCH  16  17
ENDBRANCH  15  16
ENDBRANCH  14  15
ENDBRANCH  12  14
ENDBRANCH  11  12
ENDBRANCH  10  11
ENDBRANCH   8  10
ENDBRANCH   7   8
ENDBRANCH   6   7
ENDBRANCH   5   6
ENDBRANCH   2   5
TORSDOF 11
ENDMDL
MODEL       93
REMARK 921   NORMALIZED FREE ENERGY PREDICTED BY IDOCK:   -3.74 KCAL/MOL
REMARK 922        TOTAL FREE ENERGY PREDICTED BY IDOCK:   -6.91 KCAL/MOL
REMARK 923 INTER-LIGAND FREE ENERGY PREDICTED BY IDOCK:   -6.09 KCAL/MOL
REMARK 924 INTRA-LIGAND FREE ENERGY PREDICTED BY IDOCK:   -0.81 KCAL/MOL
REMARK 927      BINDING AFFINITY PREDICTED BY RF-SCORE:    0.00 PKD
ROOT
HETATM    1  C   UNL     1      -8.060   9.128  67.780  1.00  0.00    -0.105 C  
HETATM    2  N   UNL     1      -9.410   8.811  67.124  1.00  0.00    -0.145 N  
HETATM    3  C   UNL     1      -9.502   7.296  66.954  1.00  0.00    -0.164 C  
HETATM    4  C   UNL     1     -10.516   9.296  68.054  1.00  0.00    -0.223 C  
ENDROOT
BRANCH   2   5
HETATM    5  C   UNL     1      -9.458   9.532  65.755  1.00  0.00    -0.250 C  
BRANCH   5   6
HETATM    6  C   UNL     1      -9.791  11.032  65.849  1.00  0.00    -0.232 C  
BRANCH   6   7
HETATM    7  O   UNL     1     -10.975  11.406  65.120  1.00  0.00    -0.267 OA 
BRANCH   7   8
HETATM    8  C   UNL     1     -10.752  12.236  64.063  1.00  0.00    -0.396 C  
HETATM    9  O   UNL     1      -9.738  12.205  63.381  1.00  0.00    -0.330 OA 
BRANCH   8  10
HETATM   10  C   UNL     1     -11.963  13.081  63.761  1.00  0.00    -0.585 C  
BRANCH  10  11
HETATM   11  C   UNL     1     -12.224  14.125  64.831  1.00  0.00    -0.451 C  
BRANCH  11  12
HETATM   12  C   UNL     1     -11.686  15.481  64.459  1.00  0.00    -0.253 C  
HETATM   13  O   UNL     1     -12.310  16.330  63.836  1.00  0.00    -0.874 OA 
BRANCH  12  14
HETATM   14  O   UNL     1     -10.371  15.604  64.789  1.00  0.00    -0.422 OA 
BRANCH  14  15
HETATM   15  C   UNL     1     -10.122  15.837  66.188  1.00  0.00    -0.318 C  
BRANCH  15  16
HETATM   16  C   UNL     1      -8.913  15.059  66.737  1.00  0.00    -0.265 C  
BRANCH  16  17
HETATM   17  N   UNL     1      -9.108  14.535  68.182  1.00  0.00    -0.184 N  
HETATM   18  C   UNL     1      -9.111  15.670  69.199  1.00  0.00    -0.256 C  
HETATM   19  C   UNL     1      -7.938  13.600  68.512  1.00  0.00    -0.127 C  
HETATM   20  C   UNL     1     -10.399  13.727  68.305  1.00  0.00    -0.247 C  
ENDBRANCH  16  17
ENDBRANCH  15  16
ENDBRANCH  14  15
ENDBRANCH  12  14
ENDBRANCH  11  12
ENDBRANCH  10  11
ENDBRANCH   8  10
ENDBRANCH   7   8
ENDBRANCH   6   7
ENDBRANCH   5   6
ENDBRANCH   2   5
TORSDOF 11
ENDMDL
MODEL       94
REMARK 921   NORMALIZED FREE ENERGY PREDICTED BY IDOCK:   -3.73 KCAL/MOL
REMARK 922        TOTAL FREE ENERGY PREDICTED BY IDOCK:   -6.88 KCAL/MOL
REMARK 923 INTER-LIGAND FREE ENERGY PREDICTED BY IDOCK:   -6.16 KCAL/MOL
REMARK 924 INTRA-LIGAND FREE ENERGY PREDICTED BY IDOCK:   -0.72 KCAL/MOL
REMARK 927      BINDING AFFINITY PREDICTED BY RF-SCORE:    0.00 PKD
ROOT
HETATM    1  C   UNL     1      -9.898  10.504  64.302  1.00  0.00    -0.338 C  
HETATM    2  N   UNL     1      -9.357  10.256  65.716  1.00  0.00    -0.174 N  
HETATM    3  C   UNL     1      -9.559   8.776  66.039  1.00  0.00    -0.226 C  
HETATM    4  C   UNL     1      -7.870  10.590  65.721  1.00  0.00    -0.154 C  
ENDROOT
BRANCH   2   5
HETATM    5  C   UNL     1     -10.149  11.155  66.696  1.00  0.00    -0.217 C  
BRANCH   5   6
HETATM    6  C   UNL     1     -11.072  10.376  67.651  1.00  0.00    -0.293 C  
BRANCH   6   7
HETATM    7  O   UNL     1     -12.167  11.160  68.161  1.00  0.00    -0.612 OA 
BRANCH   7   8
HETATM    8  C   UNL     1     -11.897  11.826  69.319  1.00  0.00    -0.326 C  
HETATM    9  O   UNL     1     -11.866  13.045  69.407  1.00  0.00    -0.306 OA 
BRANCH   8  10
HETATM   10  C   UNL     1     -11.793  10.879  70.487  1.00  0.00    -0.457 C  
BRANCH  10  11
HETATM   11  C   UNL     1     -13.151  10.425  70.988  1.00  0.00    -0.450 C  
BRANCH  11  12
HETATM   12  C   UNL     1     -13.051   9.332  72.019  1.00  0.00    -0.436 C  
HETATM   13  O   UNL     1     -13.996   8.895  72.663  1.00  0.00    -0.448 OA 
BRANCH  12  14
HETATM   14  O   UNL     1     -11.757   8.976  72.246  1.00  0.00    -0.334 OA 
BRANCH  14  15
HETATM   15  C   UNL     1     -11.549   7.565  72.446  1.00  0.00    -0.309 C  
BRANCH  15  16
HETATM   16  C   UNL     1     -11.582   6.746  71.144  1.00  0.00    -0.329 C  
BRANCH  16  17
HETATM   17  N   UNL     1     -10.179   6.389  70.592  1.00  0.00    -0.187 N  
HETATM   18  C   UNL     1      -9.069   7.047  71.403  1.00  0.00    -0.147 C  
HETATM   19  C   UNL     1     -10.089   6.905  69.151  1.00  0.00    -0.173 C  
HETATM   20  C   UNL     1      -9.968   4.877  70.559  1.00  0.00    -0.241 C  
ENDBRANCH  16  17
ENDBRANCH  15  16
ENDBRANCH  14  15
ENDBRANCH  12  14
ENDBRANCH  11  12
ENDBRANCH  10  11
ENDBRANCH   8  10
ENDBRANCH   7   8
ENDBRANCH   6   7
ENDBRANCH   5   6
ENDBRANCH   2   5
TORSDOF 11
ENDMDL
MODEL       95
REMARK 921   NORMALIZED FREE ENERGY PREDICTED BY IDOCK:   -3.72 KCAL/MOL
REMARK 922        TOTAL FREE ENERGY PREDICTED BY IDOCK:   -6.86 KCAL/MOL
REMARK 923 INTER-LIGAND FREE ENERGY PREDICTED BY IDOCK:   -6.21 KCAL/MOL
REMARK 924 INTRA-LIGAND FREE ENERGY PREDICTED BY IDOCK:   -0.66 KCAL/MOL
REMARK 927      BINDING AFFINITY PREDICTED BY RF-SCORE:    0.00 PKD
ROOT
HETATM    1  C   UNL     1     -10.471   8.410  69.511  1.00  0.00    -0.224 C  
HETATM    2  N   UNL     1     -10.080   7.402  68.422  1.00  0.00    -0.172 N  
HETATM    3  C   UNL     1      -8.567   7.201  68.495  1.00  0.00    -0.124 C  
HETATM    4  C   UNL     1     -10.793   6.088  68.715  1.00  0.00    -0.322 C  
ENDROOT
BRANCH   2   5
HETATM    5  C   UNL     1     -10.501   7.989  67.053  1.00  0.00    -0.340 C  
BRANCH   5   6
HETATM    6  C   UNL     1      -9.444   8.910  66.417  1.00  0.00    -0.220 C  
BRANCH   6   7
HETATM    7  O   UNL     1      -9.908   9.589  65.234  1.00  0.00    -0.282 OA 
BRANCH   7   8
HETATM    8  C   UNL     1      -9.897  10.949  65.320  1.00  0.00    -0.265 C  
HETATM    9  O   UNL     1      -9.249  11.569  66.150  1.00  0.00    -0.211 OA 
BRANCH   8  10
HETATM   10  C   UNL     1     -10.658  11.578  64.181  1.00  0.00    -0.420 C  
BRANCH  10  11
HETATM   11  C   UNL     1     -10.552  13.091  64.178  1.00  0.00    -0.421 C  
BRANCH  11  12
HETATM   12  C   UNL     1     -11.892  13.766  64.302  1.00  0.00    -0.417 C  
HETATM   13  O   UNL     1     -12.680  13.921  63.379  1.00  0.00    -0.806 OA 
BRANCH  12  14
HETATM   14  O   UNL     1     -12.070  14.301  65.541  1.00  0.00    -0.377 OA 
BRANCH  14  15
HETATM   15  C   UNL     1     -10.873  14.832  66.143  1.00  0.00    -0.321 C  
BRANCH  15  16
HETATM   16  C   UNL     1     -11.147  15.789  67.316  1.00  0.00    -0.211 C  
BRANCH  16  17
HETATM   17  N   UNL     1     -10.832  15.183  68.707  1.00  0.00    -0.238 N  
HETATM   18  C   UNL     1     -11.996  14.354  69.238  1.00  0.00    -0.324 C  
HETATM   19  C   UNL     1     -10.583  16.338  69.685  1.00  0.00    -0.320 C  
HETATM   20  C   UNL     1      -9.567  14.328  68.662  1.00  0.00    -0.192 C  
ENDBRANCH  16  17
ENDBRANCH  15  16
ENDBRANCH  14  15
ENDBRANCH  12  14
ENDBRANCH  11  12
ENDBRANCH  10  11
ENDBRANCH   8  10
ENDBRANCH   7   8
ENDBRANCH   6   7
ENDBRANCH   5   6
ENDBRANCH   2   5
TORSDOF 11
ENDMDL
MODEL       96
REMARK 921   NORMALIZED FREE ENERGY PREDICTED BY IDOCK:   -3.71 KCAL/MOL
REMARK 922        TOTAL FREE ENERGY PREDICTED BY IDOCK:   -6.84 KCAL/MOL
REMARK 923 INTER-LIGAND FREE ENERGY PREDICTED BY IDOCK:   -6.10 KCAL/MOL
REMARK 924 INTRA-LIGAND FREE ENERGY PREDICTED BY IDOCK:   -0.75 KCAL/MOL
REMARK 927      BINDING AFFINITY PREDICTED BY RF-SCORE:    0.00 PKD
ROOT
HETATM    1  C   UNL     1      -9.511  13.292  68.018  1.00  0.00    -0.219 C  
HETATM    2  N   UNL     1     -10.707  13.709  67.152  1.00  0.00    -0.275 N  
HETATM    3  C   UNL     1     -10.878  15.221  67.291  1.00  0.00    -0.318 C  
HETATM    4  C   UNL     1     -10.392  13.352  65.704  1.00  0.00    -0.290 C  
ENDROOT
BRANCH   2   5
HETATM    5  C   UNL     1     -11.957  12.955  67.668  1.00  0.00    -0.289 C  
BRANCH   5   6
HETATM    6  C   UNL     1     -11.638  11.622  68.368  1.00  0.00    -0.312 C  
BRANCH   6   7
HETATM    7  O   UNL     1     -12.158  11.536  69.708  1.00  0.00    -0.309 OA 
BRANCH   7   8
HETATM    8  C   UNL     1     -11.669  10.496  70.441  1.00  0.00    -0.344 C  
HETATM    9  O   UNL     1     -10.506  10.123  70.394  1.00  0.00    -0.280 OA 
BRANCH   8  10
HETATM   10  C   UNL     1     -12.698   9.974  71.410  1.00  0.00    -0.518 C  
BRANCH  10  11
HETATM   11  C   UNL     1     -12.246   8.705  72.109  1.00  0.00    -0.453 C  
BRANCH  11  12
HETATM   12  C   UNL     1     -12.946   7.478  71.590  1.00  0.00    -0.358 C  
HETATM   13  O   UNL     1     -14.154   7.390  71.410  1.00  0.00    -0.427 OA 
BRANCH  12  14
HETATM   14  O   UNL     1     -12.088   6.428  71.465  1.00  0.00    -0.328 OA 
BRANCH  14  15
HETATM   15  C   UNL     1     -11.003   6.646  70.544  1.00  0.00    -0.286 C  
BRANCH  15  16
HETATM   16  C   UNL     1     -11.343   6.272  69.090  1.00  0.00    -0.287 C  
BRANCH  16  17
HETATM   17  N   UNL     1     -10.215   6.597  68.078  1.00  0.00    -0.154 N  
HETATM   18  C   UNL     1     -10.532   7.844  67.261  1.00  0.00    -0.320 C  
HETATM   19  C   UNL     1     -10.086   5.413  67.113  1.00  0.00    -0.198 C  
HETATM   20  C   UNL     1      -8.873   6.770  68.787  1.00  0.00    -0.131 C  
ENDBRANCH  16  17
ENDBRANCH  15  16
ENDBRANCH  14  15
ENDBRANCH  12  14
ENDBRANCH  11  12
ENDBRANCH  10  11
ENDBRANCH   8  10
ENDBRANCH   7   8
ENDBRANCH   6   7
ENDBRANCH   5   6
ENDBRANCH   2   5
TORSDOF 11
ENDMDL
MODEL       97
REMARK 921   NORMALIZED FREE ENERGY PREDICTED BY IDOCK:   -3.71 KCAL/MOL
REMARK 922        TOTAL FREE ENERGY PREDICTED BY IDOCK:   -6.84 KCAL/MOL
REMARK 923 INTER-LIGAND FREE ENERGY PREDICTED BY IDOCK:   -6.16 KCAL/MOL
REMARK 924 INTRA-LIGAND FREE ENERGY PREDICTED BY IDOCK:   -0.68 KCAL/MOL
REMARK 927      BINDING AFFINITY PREDICTED BY RF-SCORE:    0.00 PKD
ROOT
HETATM    1  C   UNL     1      -9.623  17.213  68.108  1.00  0.00    -0.270 C  
HETATM    2  N   UNL     1      -9.819  18.041  66.832  1.00  0.00    -0.314 N  
HETATM    3  C   UNL     1     -10.651  19.270  67.198  1.00  0.00    -0.472 C  
HETATM    4  C   UNL     1      -8.447  18.475  66.331  1.00  0.00    -0.258 C  
ENDROOT
BRANCH   2   5
HETATM    5  C   UNL     1     -10.554  17.157  65.796  1.00  0.00    -0.195 C  
BRANCH   5   6
HETATM    6  C   UNL     1     -10.287  15.650  65.959  1.00  0.00    -0.335 C  
BRANCH   6   7
HETATM    7  O   UNL     1     -11.451  14.898  66.350  1.00  0.00    -0.344 OA 
BRANCH   7   8
HETATM    8  C   UNL     1     -12.040  14.198  65.339  1.00  0.00    -0.410 C  
HETATM    9  O   UNL     1     -13.250  14.088  65.207  1.00  0.00    -0.782 OA 
BRANCH   8  10
HETATM   10  C   UNL     1     -11.021  13.712  64.341  1.00  0.00    -0.379 C  
BRANCH  10  11
HETATM   11  C   UNL     1     -11.448  12.429  63.652  1.00  0.00    -0.568 C  
BRANCH  11  12
HETATM   12  C   UNL     1     -10.518  11.281  63.938  1.00  0.00    -0.391 C  
HETATM   13  O   UNL     1      -9.978  10.593  63.081  1.00  0.00    -0.320 OA 
BRANCH  12  14
HETATM   14  O   UNL     1     -10.447  11.014  65.271  1.00  0.00    -0.273 OA 
BRANCH  14  15
HETATM   15  C   UNL     1      -9.850   9.745  65.599  1.00  0.00    -0.301 C  
BRANCH  15  16
HETATM   16  C   UNL     1      -8.448   9.865  66.221  1.00  0.00    -0.128 C  
BRANCH  16  17
HETATM   17  N   UNL     1      -7.339   9.150  65.408  1.00  0.00    -0.088 N  
HETATM   18  C   UNL     1      -6.686  10.088  64.400  1.00  0.00    -0.128 C  
HETATM   19  C   UNL     1      -7.984   7.993  64.637  1.00  0.00    -0.151 C  
HETATM   20  C   UNL     1      -6.274   8.560  66.331  1.00  0.00    -0.057 C  
ENDBRANCH  16  17
ENDBRANCH  15  16
ENDBRANCH  14  15
ENDBRANCH  12  14
ENDBRANCH  11  12
ENDBRANCH  10  11
ENDBRANCH   8  10
ENDBRANCH   7   8
ENDBRANCH   6   7
ENDBRANCH   5   6
ENDBRANCH   2   5
TORSDOF 11
ENDMDL
MODEL       98
REMARK 921   NORMALIZED FREE ENERGY PREDICTED BY IDOCK:   -3.68 KCAL/MOL
REMARK 922        TOTAL FREE ENERGY PREDICTED BY IDOCK:   -6.81 KCAL/MOL
REMARK 923 INTER-LIGAND FREE ENERGY PREDICTED BY IDOCK:   -5.97 KCAL/MOL
REMARK 924 INTRA-LIGAND FREE ENERGY PREDICTED BY IDOCK:   -0.84 KCAL/MOL
REMARK 927      BINDING AFFINITY PREDICTED BY RF-SCORE:    0.00 PKD
ROOT
HETATM    1  C   UNL     1      -9.542   5.511  72.096  1.00  0.00    -0.150 C  
HETATM    2  N   UNL     1     -10.761   5.808  72.977  1.00  0.00    -0.240 N  
HETATM    3  C   UNL     1     -11.173   4.504  73.658  1.00  0.00    -0.264 C  
HETATM    4  C   UNL     1     -10.350   6.834  74.027  1.00  0.00    -0.347 C  
ENDROOT
BRANCH   2   5
HETATM    5  C   UNL     1     -11.892   6.344  72.066  1.00  0.00    -0.333 C  
BRANCH   5   6
HETATM    6  C   UNL     1     -11.443   6.645  70.624  1.00  0.00    -0.364 C  
BRANCH   6   7
HETATM    7  O   UNL     1     -11.531   8.038  70.272  1.00  0.00    -0.205 OA 
BRANCH   7   8
HETATM    8  C   UNL     1     -10.349   8.713  70.323  1.00  0.00    -0.198 C  
HETATM    9  O   UNL     1      -9.833   9.095  71.363  1.00  0.00    -0.298 OA 
BRANCH   8  10
HETATM   10  C   UNL     1      -9.700   8.791  68.965  1.00  0.00    -0.172 C  
BRANCH  10  11
HETATM   11  C   UNL     1     -10.601   9.434  67.927  1.00  0.00    -0.293 C  
BRANCH  11  12
HETATM   12  C   UNL     1     -11.090  10.794  68.349  1.00  0.00    -0.266 C  
HETATM   13  O   UNL     1     -12.244  11.053  68.662  1.00  0.00    -0.571 OA 
BRANCH  12  14
HETATM   14  O   UNL     1     -10.117  11.738  68.216  1.00  0.00    -0.186 OA 
BRANCH  14  15
HETATM   15  C   UNL     1      -9.744  12.028  66.855  1.00  0.00    -0.203 C  
BRANCH  15  16
HETATM   16  C   UNL     1      -9.964  13.498  66.456  1.00  0.00    -0.287 C  
BRANCH  16  17
HETATM   17  N   UNL     1     -10.973  13.688  65.295  1.00  0.00    -0.300 N  
HETATM   18  C   UNL     1     -10.606  12.838  64.085  1.00  0.00    -0.415 C  
HETATM   19  C   UNL     1     -10.940  15.162  64.872  1.00  0.00    -0.419 C  
HETATM   20  C   UNL     1     -12.396  13.363  65.744  1.00  0.00    -0.460 C  
ENDBRANCH  16  17
ENDBRANCH  15  16
ENDBRANCH  14  15
ENDBRANCH  12  14
ENDBRANCH  11  12
ENDBRANCH  10  11
ENDBRANCH   8  10
ENDBRANCH   7   8
ENDBRANCH   6   7
ENDBRANCH   5   6
ENDBRANCH   2   5
TORSDOF 11
ENDMDL
MODEL       99
REMARK 921   NORMALIZED FREE ENERGY PREDICTED BY IDOCK:   -3.68 KCAL/MOL
REMARK 922        TOTAL FREE ENERGY PREDICTED BY IDOCK:   -6.80 KCAL/MOL
REMARK 923 INTER-LIGAND FREE ENERGY PREDICTED BY IDOCK:   -6.24 KCAL/MOL
REMARK 924 INTRA-LIGAND FREE ENERGY PREDICTED BY IDOCK:   -0.57 KCAL/MOL
REMARK 927      BINDING AFFINITY PREDICTED BY RF-SCORE:    0.00 PKD
ROOT
HETATM    1  C   UNL     1     -12.909   7.152  71.346  1.00  0.00    -0.384 C  
HETATM    2  N   UNL     1     -11.397   7.406  71.316  1.00  0.00    -0.259 N  
HETATM    3  C   UNL     1     -10.981   7.909  72.698  1.00  0.00    -0.378 C  
HETATM    4  C   UNL     1     -10.699   6.085  71.014  1.00  0.00    -0.265 C  
ENDROOT
BRANCH   2   5
HETATM    5  C   UNL     1     -11.110   8.467  70.225  1.00  0.00    -0.213 C  
BRANCH   5   6
HETATM    6  C   UNL     1     -11.048   9.910  70.758  1.00  0.00    -0.347 C  
BRANCH   6   7
HETATM    7  O   UNL     1     -12.323  10.580  70.756  1.00  0.00    -0.315 OA 
BRANCH   7   8
HETATM    8  C   UNL     1     -12.271  11.897  70.409  1.00  0.00    -0.314 C  
HETATM    9  O   UNL     1     -12.474  12.812  71.193  1.00  0.00    -0.352 OA 
BRANCH   8  10
HETATM   10  C   UNL     1     -11.791  12.073  68.992  1.00  0.00    -0.372 C  
BRANCH  10  11
HETATM   11  C   UNL     1     -11.953  13.499  68.497  1.00  0.00    -0.379 C  
BRANCH  11  12
HETATM   12  C   UNL     1     -11.782  13.617  67.006  1.00  0.00    -0.384 C  
HETATM   13  O   UNL     1     -12.695  13.818  66.216  1.00  0.00    -0.373 OA 
BRANCH  12  14
HETATM   14  O   UNL     1     -10.504  13.343  66.626  1.00  0.00    -0.274 OA 
BRANCH  14  15
HETATM   15  C   UNL     1      -9.796  14.459  66.051  1.00  0.00    -0.319 C  
BRANCH  15  16
HETATM   16  C   UNL     1      -8.723  15.052  66.980  1.00  0.00    -0.237 C  
BRANCH  16  17
HETATM   17  N   UNL     1      -8.832  16.587  67.165  1.00  0.00    -0.190 N  
HETATM   18  C   UNL     1     -10.227  17.098  66.828  1.00  0.00    -0.311 C  
HETATM   19  C   UNL     1      -7.834  17.254  66.211  1.00  0.00    -0.309 C  
HETATM   20  C   UNL     1      -8.461  16.998  68.589  1.00  0.00    -0.262 C  
ENDBRANCH  16  17
ENDBRANCH  15  16
ENDBRANCH  14  15
ENDBRANCH  12  14
ENDBRANCH  11  12
ENDBRANCH  10  11
ENDBRANCH   8  10
ENDBRANCH   7   8
ENDBRANCH   6   7
ENDBRANCH   5   6
ENDBRANCH   2   5
TORSDOF 11
ENDMDL
MODEL      100
REMARK 921   NORMALIZED FREE ENERGY PREDICTED BY IDOCK:   -3.67 KCAL/MOL
REMARK 922        TOTAL FREE ENERGY PREDICTED BY IDOCK:   -6.78 KCAL/MOL
REMARK 923 INTER-LIGAND FREE ENERGY PREDICTED BY IDOCK:   -6.08 KCAL/MOL
REMARK 924 INTRA-LIGAND FREE ENERGY PREDICTED BY IDOCK:   -0.70 KCAL/MOL
REMARK 927      BINDING AFFINITY PREDICTED BY RF-SCORE:    0.00 PKD
ROOT
HETATM    1  C   UNL     1     -11.291  12.237  65.103  1.00  0.00    -0.329 C  
HETATM    2  N   UNL     1     -10.153  11.601  65.911  1.00  0.00    -0.222 N  
HETATM    3  C   UNL     1      -9.161  10.994  64.920  1.00  0.00    -0.147 C  
HETATM    4  C   UNL     1      -9.472  12.700  66.718  1.00  0.00    -0.237 C  
ENDROOT
BRANCH   2   5
HETATM    5  C   UNL     1     -10.764  10.514  66.827  1.00  0.00    -0.188 C  
BRANCH   5   6
HETATM    6  C   UNL     1     -10.814  10.907  68.315  1.00  0.00    -0.225 C  
BRANCH   6   7
HETATM    7  O   UNL     1     -12.151  11.074  68.822  1.00  0.00    -0.518 OA 
BRANCH   7   8
HETATM    8  C   UNL     1     -12.237  11.816  69.962  1.00  0.00    -0.242 C  
HETATM    9  O   UNL     1     -12.588  11.362  71.041  1.00  0.00    -0.389 OA 
BRANCH   8  10
HETATM   10  C   UNL     1     -11.708  13.211  69.751  1.00  0.00    -0.350 C  
BRANCH  10  11
HETATM   11  C   UNL     1     -12.273  14.204  70.749  1.00  0.00    -0.435 C  
BRANCH  11  12
HETATM   12  C   UNL     1     -11.511  15.502  70.769  1.00  0.00    -0.367 C  
HETATM   13  O   UNL     1     -11.726  16.423  71.547  1.00  0.00    -0.448 OA 
BRANCH  12  14
HETATM   14  O   UNL     1     -10.634  15.583  69.731  1.00  0.00    -0.253 OA 
BRANCH  14  15
HETATM   15  C   UNL     1     -10.773  16.765  68.919  1.00  0.00    -0.333 C  
BRANCH  15  16
HETATM   16  C   UNL     1      -9.443  17.492  68.655  1.00  0.00    -0.278 C  
BRANCH  16  17
HETATM   17  N   UNL     1      -9.157  17.751  67.153  1.00  0.00    -0.242 N  
HETATM   18  C   UNL     1      -8.239  16.687  66.562  1.00  0.00    -0.295 C  
HETATM   19  C   UNL     1      -8.457  19.109  67.030  1.00  0.00    -0.285 C  
HETATM   20  C   UNL     1     -10.454  17.819  66.350  1.00  0.00    -0.297 C  
ENDBRANCH  16  17
ENDBRANCH  15  16
ENDBRANCH  14  15
ENDBRANCH  12  14
ENDBRANCH  11  12
ENDBRANCH  10  11
ENDBRANCH   8  10
ENDBRANCH   7   8
ENDBRANCH   6   7
ENDBRANCH   5   6
ENDBRANCH   2   5
TORSDOF 11
ENDMDL
MODEL      101
REMARK 921   NORMALIZED FREE ENERGY PREDICTED BY IDOCK:   -3.65 KCAL/MOL
REMARK 922        TOTAL FREE ENERGY PREDICTED BY IDOCK:   -6.75 KCAL/MOL
REMARK 923 INTER-LIGAND FREE ENERGY PREDICTED BY IDOCK:   -5.96 KCAL/MOL
REMARK 924 INTRA-LIGAND FREE ENERGY PREDICTED BY IDOCK:   -0.79 KCAL/MOL
REMARK 927      BINDING AFFINITY PREDICTED BY RF-SCORE:    0.00 PKD
ROOT
HETATM    1  C   UNL     1     -11.032   6.592  67.031  1.00  0.00    -0.393 C  
HETATM    2  N   UNL     1      -9.566   6.851  67.402  1.00  0.00    -0.133 N  
HETATM    3  C   UNL     1      -8.933   5.509  67.767  1.00  0.00    -0.108 C  
HETATM    4  C   UNL     1      -8.865   7.441  66.184  1.00  0.00    -0.160 C  
ENDROOT
BRANCH   2   5
HETATM    5  C   UNL     1      -9.541   7.826  68.604  1.00  0.00    -0.154 C  
BRANCH   5   6
HETATM    6  C   UNL     1      -9.604   9.312  68.206  1.00  0.00    -0.147 C  
BRANCH   6   7
HETATM    7  O   UNL     1     -10.894   9.912  68.423  1.00  0.00    -0.232 OA 
BRANCH   7   8
HETATM    8  C   UNL     1     -11.231  10.876  67.521  1.00  0.00    -0.293 C  
HETATM    9  O   UNL     1     -12.135  11.680  67.695  1.00  0.00    -0.615 OA 
BRANCH   8  10
HETATM   10  C   UNL     1     -10.262  10.912  66.367  1.00  0.00    -0.289 C  
BRANCH  10  11
HETATM   11  C   UNL     1     -10.258  12.251  65.655  1.00  0.00    -0.287 C  
BRANCH  11  12
HETATM   12  C   UNL     1     -10.973  12.205  64.331  1.00  0.00    -0.326 C  
HETATM   13  O   UNL     1     -11.000  11.232  63.589  1.00  0.00    -0.385 OA 
BRANCH  12  14
HETATM   14  O   UNL     1     -11.481  13.423  63.994  1.00  0.00    -0.382 OA 
BRANCH  14  15
HETATM   15  C   UNL     1     -11.726  14.300  65.109  1.00  0.00    -0.368 C  
BRANCH  15  16
HETATM   16  C   UNL     1     -11.089  15.692  64.951  1.00  0.00    -0.402 C  
BRANCH  16  17
HETATM   17  N   UNL     1     -10.346  16.190  66.216  1.00  0.00    -0.315 N  
HETATM   18  C   UNL     1     -10.997  15.671  67.493  1.00  0.00    -0.309 C  
HETATM   19  C   UNL     1     -10.410  17.721  66.235  1.00  0.00    -0.358 C  
HETATM   20  C   UNL     1      -8.874  15.784  66.185  1.00  0.00    -0.311 C  
ENDBRANCH  16  17
ENDBRANCH  15  16
ENDBRANCH  14  15
ENDBRANCH  12  14
ENDBRANCH  11  12
ENDBRANCH  10  11
ENDBRANCH   8  10
ENDBRANCH   7   8
ENDBRANCH   6   7
ENDBRANCH   5   6
ENDBRANCH   2   5
TORSDOF 11
ENDMDL
MODEL      102
REMARK 921   NORMALIZED FREE ENERGY PREDICTED BY IDOCK:   -3.64 KCAL/MOL
REMARK 922        TOTAL FREE ENERGY PREDICTED BY IDOCK:   -6.73 KCAL/MOL
REMARK 923 INTER-LIGAND FREE ENERGY PREDICTED BY IDOCK:   -6.12 KCAL/MOL
REMARK 924 INTRA-LIGAND FREE ENERGY PREDICTED BY IDOCK:   -0.61 KCAL/MOL
REMARK 927      BINDING AFFINITY PREDICTED BY RF-SCORE:    0.00 PKD
ROOT
HETATM    1  C   UNL     1     -11.234   6.703  70.638  1.00  0.00    -0.317 C  
HETATM    2  N   UNL     1     -10.997   8.151  71.085  1.00  0.00    -0.232 N  
HETATM    3  C   UNL     1     -12.363   8.807  71.284  1.00  0.00    -0.270 C  
HETATM    4  C   UNL     1     -10.238   8.122  72.406  1.00  0.00    -0.298 C  
ENDROOT
BRANCH   2   5
HETATM    5  C   UNL     1     -10.189   8.868  69.976  1.00  0.00    -0.199 C  
BRANCH   5   6
HETATM    6  C   UNL     1     -10.312  10.402  70.006  1.00  0.00    -0.128 C  
BRANCH   6   7
HETATM    7  O   UNL     1     -10.211  11.014  68.707  1.00  0.00    -0.185 OA 
BRANCH   7   8
HETATM    8  C   UNL     1     -11.407  11.295  68.117  1.00  0.00    -0.303 C  
HETATM    9  O   UNL     1     -12.489  11.045  68.628  1.00  0.00    -0.462 OA 
BRANCH   8  10
HETATM   10  C   UNL     1     -11.221  12.076  66.841  1.00  0.00    -0.375 C  
BRANCH  10  11
HETATM   11  C   UNL     1     -10.150  13.143  66.965  1.00  0.00    -0.241 C  
BRANCH  11  12
HETATM   12  C   UNL     1     -10.704  14.537  66.836  1.00  0.00    -0.288 C  
HETATM   13  O   UNL     1     -10.922  15.104  65.774  1.00  0.00    -0.336 OA 
BRANCH  12  14
HETATM   14  O   UNL     1     -10.815  15.145  68.050  1.00  0.00    -0.267 OA 
BRANCH  14  15
HETATM   15  C   UNL     1     -12.010  14.812  68.782  1.00  0.00    -0.257 C  
BRANCH  15  16
HETATM   16  C   UNL     1     -12.232  15.686  70.029  1.00  0.00    -0.327 C  
BRANCH  16  17
HETATM   17  N   UNL     1     -12.695  14.891  71.276  1.00  0.00    -0.315 N  
HETATM   18  C   UNL     1     -12.519  13.389  71.086  1.00  0.00    -0.327 C  
HETATM   19  C   UNL     1     -14.186  15.174  71.494  1.00  0.00    -0.549 C  
HETATM   20  C   UNL     1     -11.947  15.346  72.528  1.00  0.00    -0.447 C  
ENDBRANCH  16  17
ENDBRANCH  15  16
ENDBRANCH  14  15
ENDBRANCH  12  14
ENDBRANCH  11  12
ENDBRANCH  10  11
ENDBRANCH   8  10
ENDBRANCH   7   8
ENDBRANCH   6   7
ENDBRANCH   5   6
ENDBRANCH   2   5
TORSDOF 11
ENDMDL
MODEL      103
REMARK 921   NORMALIZED FREE ENERGY PREDICTED BY IDOCK:   -3.60 KCAL/MOL
REMARK 922        TOTAL FREE ENERGY PREDICTED BY IDOCK:   -6.66 KCAL/MOL
REMARK 923 INTER-LIGAND FREE ENERGY PREDICTED BY IDOCK:   -6.17 KCAL/MOL
REMARK 924 INTRA-LIGAND FREE ENERGY PREDICTED BY IDOCK:   -0.49 KCAL/MOL
REMARK 927      BINDING AFFINITY PREDICTED BY RF-SCORE:    0.00 PKD
ROOT
HETATM    1  C   UNL     1      -8.528   6.459  67.782  1.00  0.00    -0.117 C  
HETATM    2  N   UNL     1      -9.838   7.246  67.915  1.00  0.00    -0.140 N  
HETATM    3  C   UNL     1     -10.941   6.254  68.282  1.00  0.00    -0.321 C  
HETATM    4  C   UNL     1      -9.668   8.268  69.032  1.00  0.00    -0.167 C  
ENDROOT
BRANCH   2   5
HETATM    5  C   UNL     1     -10.129   7.926  66.556  1.00  0.00    -0.175 C  
BRANCH   5   6
HETATM    6  C   UNL     1      -9.306   9.204  66.309  1.00  0.00    -0.216 C  
BRANCH   6   7
HETATM    7  O   UNL     1     -10.112  10.359  66.009  1.00  0.00    -0.230 OA 
BRANCH   7   8
HETATM    8  C   UNL     1     -10.203  10.659  64.683  1.00  0.00    -0.334 C  
HETATM    9  O   UNL     1      -9.534  10.113  63.818  1.00  0.00    -0.281 OA 
BRANCH   8  10
HETATM   10  C   UNL     1     -11.324  11.630  64.415  1.00  0.00    -0.334 C  
BRANCH  10  11
HETATM   11  C   UNL     1     -10.823  13.040  64.163  1.00  0.00    -0.433 C  
BRANCH  11  12
HETATM   12  C   UNL     1     -11.813  14.091  64.591  1.00  0.00    -0.417 C  
HETATM   13  O   UNL     1     -12.596  14.655  63.838  1.00  0.00    -0.834 OA 
BRANCH  12  14
HETATM   14  O   UNL     1     -11.646  14.434  65.898  1.00  0.00    -0.350 OA 
BRANCH  14  15
HETATM   15  C   UNL     1     -10.415  15.126  66.184  1.00  0.00    -0.312 C  
BRANCH  15  16
HETATM   16  C   UNL     1     -10.470  16.633  65.878  1.00  0.00    -0.313 C  
BRANCH  16  17
HETATM   17  N   UNL     1      -9.680  17.506  66.885  1.00  0.00    -0.279 N  
HETATM   18  C   UNL     1      -9.491  18.929  66.371  1.00  0.00    -0.336 C  
HETATM   19  C   UNL     1      -8.293  16.879  67.075  1.00  0.00    -0.200 C  
HETATM   20  C   UNL     1     -10.369  17.535  68.247  1.00  0.00    -0.379 C  
ENDBRANCH  16  17
ENDBRANCH  15  16
ENDBRANCH  14  15
ENDBRANCH  12  14
ENDBRANCH  11  12
ENDBRANCH  10  11
ENDBRANCH   8  10
ENDBRANCH   7   8
ENDBRANCH   6   7
ENDBRANCH   5   6
ENDBRANCH   2   5
TORSDOF 11
ENDMDL
MODEL      104
REMARK 921   NORMALIZED FREE ENERGY PREDICTED BY IDOCK:   -3.59 KCAL/MOL
REMARK 922        TOTAL FREE ENERGY PREDICTED BY IDOCK:   -6.65 KCAL/MOL
REMARK 923 INTER-LIGAND FREE ENERGY PREDICTED BY IDOCK:   -6.24 KCAL/MOL
REMARK 924 INTRA-LIGAND FREE ENERGY PREDICTED BY IDOCK:   -0.42 KCAL/MOL
REMARK 927      BINDING AFFINITY PREDICTED BY RF-SCORE:    0.00 PKD
ROOT
HETATM    1  C   UNL     1      -9.411   6.751  71.171  1.00  0.00    -0.159 C  
HETATM    2  N   UNL     1     -10.501   7.352  70.274  1.00  0.00    -0.216 N  
HETATM    3  C   UNL     1      -9.810   8.188  69.198  1.00  0.00    -0.182 C  
HETATM    4  C   UNL     1     -11.268   6.205  69.627  1.00  0.00    -0.418 C  
ENDROOT
BRANCH   2   5
HETATM    5  C   UNL     1     -11.420   8.228  71.159  1.00  0.00    -0.273 C  
BRANCH   5   6
HETATM    6  C   UNL     1     -11.171   9.740  71.013  1.00  0.00    -0.381 C  
BRANCH   6   7
HETATM    7  O   UNL     1     -12.254  10.444  70.375  1.00  0.00    -0.288 OA 
BRANCH   7   8
HETATM    8  C   UNL     1     -12.792  11.451  71.119  1.00  0.00    -0.341 C  
HETATM    9  O   UNL     1     -13.441  11.267  72.138  1.00  0.00    -0.390 OA 
BRANCH   8  10
HETATM   10  C   UNL     1     -12.361  12.802  70.609  1.00  0.00    -0.381 C  
BRANCH  10  11
HETATM   11  C   UNL     1     -12.875  13.939  71.472  1.00  0.00    -0.441 C  
BRANCH  11  12
HETATM   12  C   UNL     1     -12.243  15.261  71.124  1.00  0.00    -0.350 C  
HETATM   13  O   UNL     1     -12.104  16.192  71.905  1.00  0.00    -0.476 OA 
BRANCH  12  14
HETATM   14  O   UNL     1     -11.960  15.344  69.795  1.00  0.00    -0.323 OA 
BRANCH  14  15
HETATM   15  C   UNL     1     -10.621  15.782  69.493  1.00  0.00    -0.272 C  
BRANCH  15  16
HETATM   16  C   UNL     1     -10.568  17.070  68.654  1.00  0.00    -0.362 C  
BRANCH  16  17
HETATM   17  N   UNL     1      -9.338  17.156  67.714  1.00  0.00    -0.242 N  
HETATM   18  C   UNL     1      -8.727  18.552  67.711  1.00  0.00    -0.275 C  
HETATM   19  C   UNL     1      -9.806  16.836  66.289  1.00  0.00    -0.309 C  
HETATM   20  C   UNL     1      -8.277  16.128  68.099  1.00  0.00    -0.157 C  
ENDBRANCH  16  17
ENDBRANCH  15  16
ENDBRANCH  14  15
ENDBRANCH  12  14
ENDBRANCH  11  12
ENDBRANCH  10  11
ENDBRANCH   8  10
ENDBRANCH   7   8
ENDBRANCH   6   7
ENDBRANCH   5   6
ENDBRANCH   2   5
TORSDOF 11
ENDMDL
MODEL      105
REMARK 921   NORMALIZED FREE ENERGY PREDICTED BY IDOCK:   -3.59 KCAL/MOL
REMARK 922        TOTAL FREE ENERGY PREDICTED BY IDOCK:   -6.65 KCAL/MOL
REMARK 923 INTER-LIGAND FREE ENERGY PREDICTED BY IDOCK:   -6.24 KCAL/MOL
REMARK 924 INTRA-LIGAND FREE ENERGY PREDICTED BY IDOCK:   -0.41 KCAL/MOL
REMARK 927      BINDING AFFINITY PREDICTED BY RF-SCORE:    0.00 PKD
ROOT
HETATM    1  C   UNL     1      -9.166   3.942  68.873  1.00  0.00    -0.152 C  
HETATM    2  N   UNL     1      -9.365   5.085  67.869  1.00  0.00    -0.119 N  
HETATM    3  C   UNL     1      -8.062   5.882  67.806  1.00  0.00    -0.105 C  
HETATM    4  C   UNL     1      -9.665   4.474  66.506  1.00  0.00    -0.207 C  
ENDROOT
BRANCH   2   5
HETATM    5  C   UNL     1     -10.535   5.965  68.371  1.00  0.00    -0.237 C  
BRANCH   5   6
HETATM    6  C   UNL     1     -10.910   5.724  69.845  1.00  0.00    -0.347 C  
BRANCH   6   7
HETATM    7  O   UNL     1     -11.739   6.760  70.405  1.00  0.00    -0.361 OA 
BRANCH   7   8
HETATM    8  C   UNL     1     -11.810   6.756  71.765  1.00  0.00    -0.330 C  
HETATM    9  O   UNL     1     -11.609   5.765  72.451  1.00  0.00    -0.301 OA 
BRANCH   8  10
HETATM   10  C   UNL     1     -12.019   8.146  72.309  1.00  0.00    -0.434 C  
BRANCH  10  11
HETATM   11  C   UNL     1     -13.012   8.948  71.488  1.00  0.00    -0.379 C  
BRANCH  11  12
HETATM   12  C   UNL     1     -12.493  10.314  71.126  1.00  0.00    -0.391 C  
HETATM   13  O   UNL     1     -11.538  10.523  70.390  1.00  0.00    -0.293 OA 
BRANCH  12  14
HETATM   14  O   UNL     1     -13.136  11.293  71.820  1.00  0.00    -0.472 OA 
BRANCH  14  15
HETATM   15  C   UNL     1     -12.752  12.635  71.462  1.00  0.00    -0.223 C  
BRANCH  15  16
HETATM   16  C   UNL     1     -12.838  13.633  72.629  1.00  0.00    -0.153 C  
BRANCH  16  17
HETATM   17  N   UNL     1     -12.720  15.117  72.195  1.00  0.00    -0.320 N  
HETATM   18  C   UNL     1     -12.688  16.054  73.396  1.00  0.00    -0.558 C  
HETATM   19  C   UNL     1     -13.952  15.465  71.350  1.00  0.00    -0.467 C  
HETATM   20  C   UNL     1     -11.482  15.341  71.330  1.00  0.00    -0.389 C  
ENDBRANCH  16  17
ENDBRANCH  15  16
ENDBRANCH  14  15
ENDBRANCH  12  14
ENDBRANCH  11  12
ENDBRANCH  10  11
ENDBRANCH   8  10
ENDBRANCH   7   8
ENDBRANCH   6   7
ENDBRANCH   5   6
ENDBRANCH   2   5
TORSDOF 11
ENDMDL
MODEL      106
REMARK 921   NORMALIZED FREE ENERGY PREDICTED BY IDOCK:   -3.58 KCAL/MOL
REMARK 922        TOTAL FREE ENERGY PREDICTED BY IDOCK:   -6.64 KCAL/MOL
REMARK 923 INTER-LIGAND FREE ENERGY PREDICTED BY IDOCK:   -6.09 KCAL/MOL
REMARK 924 INTRA-LIGAND FREE ENERGY PREDICTED BY IDOCK:   -0.55 KCAL/MOL
REMARK 927      BINDING AFFINITY PREDICTED BY RF-SCORE:    0.00 PKD
ROOT
HETATM    1  C   UNL     1     -14.273  15.342  71.564  1.00  0.00    -0.526 C  
HETATM    2  N   UNL     1     -12.851  14.768  71.527  1.00  0.00    -0.311 N  
HETATM    3  C   UNL     1     -12.175  15.281  70.256  1.00  0.00    -0.363 C  
HETATM    4  C   UNL     1     -12.102  15.275  72.754  1.00  0.00    -0.419 C  
ENDROOT
BRANCH   2   5
HETATM    5  C   UNL     1     -12.957  13.224  71.520  1.00  0.00    -0.337 C  
BRANCH   5   6
HETATM    6  C   UNL     1     -12.180  12.549  70.375  1.00  0.00    -0.286 C  
BRANCH   6   7
HETATM    7  O   UNL     1     -12.641  11.219  70.071  1.00  0.00    -0.210 OA 
BRANCH   7   8
HETATM    8  C   UNL     1     -11.835  10.221  70.530  1.00  0.00    -0.329 C  
HETATM    9  O   UNL     1     -10.745   9.955  70.046  1.00  0.00    -0.249 OA 
BRANCH   8  10
HETATM   10  C   UNL     1     -12.390   9.599  71.786  1.00  0.00    -0.474 C  
BRANCH  10  11
HETATM   11  C   UNL     1     -11.598   8.384  72.231  1.00  0.00    -0.453 C  
BRANCH  11  12
HETATM   12  C   UNL     1     -12.172   7.095  71.706  1.00  0.00    -0.344 C  
HETATM   13  O   UNL     1     -13.358   6.908  71.467  1.00  0.00    -0.329 OA 
BRANCH  12  14
HETATM   14  O   UNL     1     -11.230   6.114  71.650  1.00  0.00    -0.269 OA 
BRANCH  14  15
HETATM   15  C   UNL     1     -10.215   6.313  70.648  1.00  0.00    -0.194 C  
BRANCH  15  16
HETATM   16  C   UNL     1     -10.266   5.282  69.506  1.00  0.00    -0.268 C  
BRANCH  16  17
HETATM   17  N   UNL     1      -9.738   5.820  68.152  1.00  0.00    -0.120 N  
HETATM   18  C   UNL     1     -10.876   6.217  67.220  1.00  0.00    -0.375 C  
HETATM   19  C   UNL     1      -8.935   4.702  67.476  1.00  0.00    -0.112 C  
HETATM   20  C   UNL     1      -8.801   7.008  68.359  1.00  0.00    -0.123 C  
ENDBRANCH  16  17
ENDBRANCH  15  16
ENDBRANCH  14  15
ENDBRANCH  12  14
ENDBRANCH  11  12
ENDBRANCH  10  11
ENDBRANCH   8  10
ENDBRANCH   7   8
ENDBRANCH   6   7
ENDBRANCH   5   6
ENDBRANCH   2   5
TORSDOF 11
ENDMDL
MODEL      107
REMARK 921   NORMALIZED FREE ENERGY PREDICTED BY IDOCK:   -3.58 KCAL/MOL
REMARK 922        TOTAL FREE ENERGY PREDICTED BY IDOCK:   -6.63 KCAL/MOL
REMARK 923 INTER-LIGAND FREE ENERGY PREDICTED BY IDOCK:   -6.02 KCAL/MOL
REMARK 924 INTRA-LIGAND FREE ENERGY PREDICTED BY IDOCK:   -0.61 KCAL/MOL
REMARK 927      BINDING AFFINITY PREDICTED BY RF-SCORE:    0.00 PKD
ROOT
HETATM    1  C   UNL     1     -10.836   7.933  69.856  1.00  0.00    -0.221 C  
HETATM    2  N   UNL     1     -11.537   8.705  70.981  1.00  0.00    -0.278 N  
HETATM    3  C   UNL     1     -12.678   7.833  71.503  1.00  0.00    -0.332 C  
HETATM    4  C   UNL     1     -10.523   8.952  72.091  1.00  0.00    -0.250 C  
ENDROOT
BRANCH   2   5
HETATM    5  C   UNL     1     -12.073  10.031  70.389  1.00  0.00    -0.202 C  
BRANCH   5   6
HETATM    6  C   UNL     1     -11.254  10.559  69.197  1.00  0.00    -0.256 C  
BRANCH   6   7
HETATM    7  O   UNL     1     -12.057  11.191  68.182  1.00  0.00    -0.633 OA 
BRANCH   7   8
HETATM    8  C   UNL     1     -11.386  12.084  67.402  1.00  0.00    -0.327 C  
HETATM    9  O   UNL     1     -10.236  11.921  67.022  1.00  0.00    -0.207 OA 
BRANCH   8  10
HETATM   10  C   UNL     1     -12.285  13.209  66.956  1.00  0.00    -0.271 C  
BRANCH  10  11
HETATM   11  C   UNL     1     -11.790  14.566  67.419  1.00  0.00    -0.416 C  
BRANCH  11  12
HETATM   12  C   UNL     1     -11.600  14.634  68.911  1.00  0.00    -0.310 C  
HETATM   13  O   UNL     1     -12.469  14.385  69.735  1.00  0.00    -0.312 OA 
BRANCH  12  14
HETATM   14  O   UNL     1     -10.375  15.134  69.236  1.00  0.00    -0.238 OA 
BRANCH  14  15
HETATM   15  C   UNL     1      -9.809  16.022  68.254  1.00  0.00    -0.219 C  
BRANCH  15  16
HETATM   16  C   UNL     1     -10.110  17.507  68.519  1.00  0.00    -0.363 C  
BRANCH  16  17
HETATM   17  N   UNL     1      -9.510  18.468  67.461  1.00  0.00    -0.275 N  
HETATM   18  C   UNL     1      -8.766  19.629  68.110  1.00  0.00    -0.312 C  
HETATM   19  C   UNL     1     -10.664  19.043  66.631  1.00  0.00    -0.342 C  
HETATM   20  C   UNL     1      -8.576  17.723  66.508  1.00  0.00    -0.257 C  
ENDBRANCH  16  17
ENDBRANCH  15  16
ENDBRANCH  14  15
ENDBRANCH  12  14
ENDBRANCH  11  12
ENDBRANCH  10  11
ENDBRANCH   8  10
ENDBRANCH   7   8
ENDBRANCH   6   7
ENDBRANCH   5   6
ENDBRANCH   2   5
TORSDOF 11
ENDMDL
MODEL      108
REMARK 921   NORMALIZED FREE ENERGY PREDICTED BY IDOCK:   -3.58 KCAL/MOL
REMARK 922        TOTAL FREE ENERGY PREDICTED BY IDOCK:   -6.63 KCAL/MOL
REMARK 923 INTER-LIGAND FREE ENERGY PREDICTED BY IDOCK:   -6.02 KCAL/MOL
REMARK 924 INTRA-LIGAND FREE ENERGY PREDICTED BY IDOCK:   -0.61 KCAL/MOL
REMARK 927      BINDING AFFINITY PREDICTED BY RF-SCORE:    0.00 PKD
ROOT
HETATM    1  C   UNL     1     -12.813  14.739  73.240  1.00  0.00    -0.507 C  
HETATM    2  N   UNL     1     -12.815  14.612  71.711  1.00  0.00    -0.317 N  
HETATM    3  C   UNL     1     -13.986  15.436  71.177  1.00  0.00    -0.316 C  
HETATM    4  C   UNL     1     -11.501  15.176  71.185  1.00  0.00    -0.343 C  
ENDROOT
BRANCH   2   5
HETATM    5  C   UNL     1     -12.978  13.114  71.356  1.00  0.00    -0.298 C  
BRANCH   5   6
HETATM    6  C   UNL     1     -12.151  12.668  70.136  1.00  0.00    -0.294 C  
BRANCH   6   7
HETATM    7  O   UNL     1     -11.480  11.408  70.325  1.00  0.00    -0.277 OA 
BRANCH   7   8
HETATM    8  C   UNL     1     -11.154  10.760  69.172  1.00  0.00    -0.249 C  
HETATM    9  O   UNL     1     -10.785   9.596  69.130  1.00  0.00    -0.217 OA 
BRANCH   8  10
HETATM   10  C   UNL     1     -11.448  11.609  67.962  1.00  0.00    -0.385 C  
BRANCH  10  11
HETATM   11  C   UNL     1     -10.211  11.875  67.125  1.00  0.00    -0.230 C  
BRANCH  11  12
HETATM   12  C   UNL     1     -10.544  12.299  65.719  1.00  0.00    -0.254 C  
HETATM   13  O   UNL     1     -11.033  11.566  64.869  1.00  0.00    -0.298 OA 
BRANCH  12  14
HETATM   14  O   UNL     1     -10.115  13.565  65.463  1.00  0.00    -0.295 OA 
BRANCH  14  15
HETATM   15  C   UNL     1     -10.818  14.594  66.186  1.00  0.00    -0.321 C  
BRANCH  15  16
HETATM   16  C   UNL     1     -10.280  16.011  65.920  1.00  0.00    -0.365 C  
BRANCH  16  17
HETATM   17  N   UNL     1      -9.618  16.673  67.156  1.00  0.00    -0.237 N  
HETATM   18  C   UNL     1      -9.317  15.653  68.248  1.00  0.00    -0.192 C  
HETATM   19  C   UNL     1     -10.598  17.706  67.725  1.00  0.00    -0.378 C  
HETATM   20  C   UNL     1      -8.337  17.408  66.767  1.00  0.00    -0.248 C  
ENDBRANCH  16  17
ENDBRANCH  15  16
ENDBRANCH  14  15
ENDBRANCH  12  14
ENDBRANCH  11  12
ENDBRANCH  10  11
ENDBRANCH   8  10
ENDBRANCH   7   8
ENDBRANCH   6   7
ENDBRANCH   5   6
ENDBRANCH   2   5
TORSDOF 11
ENDMDL
MODEL      109
REMARK 921   NORMALIZED FREE ENERGY PREDICTED BY IDOCK:   -3.54 KCAL/MOL
REMARK 922        TOTAL FREE ENERGY PREDICTED BY IDOCK:   -6.57 KCAL/MOL
REMARK 923 INTER-LIGAND FREE ENERGY PREDICTED BY IDOCK:   -5.82 KCAL/MOL
REMARK 924 INTRA-LIGAND FREE ENERGY PREDICTED BY IDOCK:   -0.75 KCAL/MOL
REMARK 927      BINDING AFFINITY PREDICTED BY RF-SCORE:    0.00 PKD
ROOT
HETATM    1  C   UNL     1     -12.612  13.726  65.746  1.00  0.00    -0.480 C  
HETATM    2  N   UNL     1     -11.731  14.110  64.550  1.00  0.00    -0.405 N  
HETATM    3  C   UNL     1     -12.155  13.246  63.363  1.00  0.00    -0.439 C  
HETATM    4  C   UNL     1     -11.974  15.581  64.234  1.00  0.00    -0.153 C  
ENDROOT
BRANCH   2   5
HETATM    5  C   UNL     1     -10.256  13.844  64.937  1.00  0.00    -0.351 C  
BRANCH   5   6
HETATM    6  C   UNL     1     -10.086  12.893  66.136  1.00  0.00    -0.276 C  
BRANCH   6   7
HETATM    7  O   UNL     1      -9.450  13.507  67.272  1.00  0.00    -0.215 OA 
BRANCH   7   8
HETATM    8  C   UNL     1     -10.230  13.584  68.387  1.00  0.00    -0.245 C  
HETATM    9  O   UNL     1     -10.942  12.672  68.778  1.00  0.00    -0.238 OA 
BRANCH   8  10
HETATM   10  C   UNL     1      -9.986  14.866  69.141  1.00  0.00    -0.213 C  
BRANCH  10  11
HETATM   11  C   UNL     1     -11.138  15.845  69.009  1.00  0.00    -0.294 C  
BRANCH  11  12
HETATM   12  C   UNL     1     -10.711  17.164  68.419  1.00  0.00    -0.347 C  
HETATM   13  O   UNL     1     -10.438  18.162  69.073  1.00  0.00    -0.249 OA 
BRANCH  12  14
HETATM   14  O   UNL     1     -10.790  17.153  67.060  1.00  0.00    -0.200 OA 
BRANCH  14  15
HETATM   15  C   UNL     1     -10.271  18.334  66.419  1.00  0.00    -0.403 C  
BRANCH  15  16
HETATM   16  C   UNL     1      -8.737  18.352  66.310  1.00  0.00    -0.191 C  
BRANCH  16  17
HETATM   17  N   UNL     1      -8.084  19.646  66.861  1.00  0.00    -0.275 N  
HETATM   18  C   UNL     1      -7.343  19.391  68.168  1.00  0.00    -0.295 C  
HETATM   19  C   UNL     1      -9.199  20.662  67.133  1.00  0.00    -0.292 C  
HETATM   20  C   UNL     1      -7.132  20.260  65.837  1.00  0.00    -0.258 C  
ENDBRANCH  16  17
ENDBRANCH  15  16
ENDBRANCH  14  15
ENDBRANCH  12  14
ENDBRANCH  11  12
ENDBRANCH  10  11
ENDBRANCH   8  10
ENDBRANCH   7   8
ENDBRANCH   6   7
ENDBRANCH   5   6
ENDBRANCH   2   5
TORSDOF 11
ENDMDL
MODEL      110
REMARK 921   NORMALIZED FREE ENERGY PREDICTED BY IDOCK:   -3.53 KCAL/MOL
REMARK 922        TOTAL FREE ENERGY PREDICTED BY IDOCK:   -6.55 KCAL/MOL
REMARK 923 INTER-LIGAND FREE ENERGY PREDICTED BY IDOCK:   -6.28 KCAL/MOL
REMARK 924 INTRA-LIGAND FREE ENERGY PREDICTED BY IDOCK:   -0.28 KCAL/MOL
REMARK 927      BINDING AFFINITY PREDICTED BY RF-SCORE:    0.00 PKD
ROOT
HETATM    1  C   UNL     1      -8.850   7.724  69.587  1.00  0.00    -0.139 C  
HETATM    2  N   UNL     1     -10.344   7.784  69.244  1.00  0.00    -0.216 N  
HETATM    3  C   UNL     1     -10.510   8.721  68.048  1.00  0.00    -0.204 C  
HETATM    4  C   UNL     1     -10.803   6.380  68.870  1.00  0.00    -0.325 C  
ENDROOT
BRANCH   2   5
HETATM    5  C   UNL     1     -11.098   8.321  70.484  1.00  0.00    -0.249 C  
BRANCH   5   6
HETATM    6  C   UNL     1     -11.060   9.854  70.623  1.00  0.00    -0.340 C  
BRANCH   6   7
HETATM    7  O   UNL     1     -12.242  10.507  70.124  1.00  0.00    -0.292 OA 
BRANCH   7   8
HETATM    8  C   UNL     1     -12.529  11.696  70.725  1.00  0.00    -0.330 C  
HETATM    9  O   UNL     1     -13.151  11.793  71.772  1.00  0.00    -0.463 OA 
BRANCH   8  10
HETATM   10  C   UNL     1     -11.861  12.846  70.015  1.00  0.00    -0.356 C  
BRANCH  10  11
HETATM   11  C   UNL     1     -11.782  12.636  68.515  1.00  0.00    -0.372 C  
BRANCH  11  12
HETATM   12  C   UNL     1     -11.867  13.927  67.744  1.00  0.00    -0.380 C  
HETATM   13  O   UNL     1     -12.275  14.025  66.595  1.00  0.00    -0.442 OA 
BRANCH  12  14
HETATM   14  O   UNL     1     -11.312  14.959  68.436  1.00  0.00    -0.276 OA 
BRANCH  14  15
HETATM   15  C   UNL     1     -10.805  16.029  67.615  1.00  0.00    -0.311 C  
BRANCH  15  16
HETATM   16  C   UNL     1      -9.917  17.026  68.380  1.00  0.00    -0.289 C  
BRANCH  16  17
HETATM   17  N   UNL     1      -9.463  18.241  67.531  1.00  0.00    -0.264 N  
HETATM   18  C   UNL     1     -10.514  18.632  66.499  1.00  0.00    -0.420 C  
HETATM   19  C   UNL     1      -8.183  17.849  66.785  1.00  0.00    -0.250 C  
HETATM   20  C   UNL     1      -9.138  19.441  68.418  1.00  0.00    -0.358 C  
ENDBRANCH  16  17
ENDBRANCH  15  16
ENDBRANCH  14  15
ENDBRANCH  12  14
ENDBRANCH  11  12
ENDBRANCH  10  11
ENDBRANCH   8  10
ENDBRANCH   7   8
ENDBRANCH   6   7
ENDBRANCH   5   6
ENDBRANCH   2   5
TORSDOF 11
ENDMDL
MODEL      111
REMARK 921   NORMALIZED FREE ENERGY PREDICTED BY IDOCK:   -3.53 KCAL/MOL
REMARK 922        TOTAL FREE ENERGY PREDICTED BY IDOCK:   -6.55 KCAL/MOL
REMARK 923 INTER-LIGAND FREE ENERGY PREDICTED BY IDOCK:   -5.91 KCAL/MOL
REMARK 924 INTRA-LIGAND FREE ENERGY PREDICTED BY IDOCK:   -0.64 KCAL/MOL
REMARK 927      BINDING AFFINITY PREDICTED BY RF-SCORE:    0.00 PKD
ROOT
HETATM    1  C   UNL     1     -10.314  13.516  64.666  1.00  0.00    -0.385 C  
HETATM    2  N   UNL     1     -11.834  13.531  64.870  1.00  0.00    -0.358 N  
HETATM    3  C   UNL     1     -12.365  14.855  64.323  1.00  0.00    -0.277 C  
HETATM    4  C   UNL     1     -12.430  12.369  64.085  1.00  0.00    -0.442 C  
ENDROOT
BRANCH   2   5
HETATM    5  C   UNL     1     -12.115  13.401  66.387  1.00  0.00    -0.409 C  
BRANCH   5   6
HETATM    6  C   UNL     1     -11.161  12.439  67.118  1.00  0.00    -0.280 C  
BRANCH   6   7
HETATM    7  O   UNL     1     -11.794  11.222  67.557  1.00  0.00    -0.613 OA 
BRANCH   7   8
HETATM    8  C   UNL     1     -11.674  10.969  68.890  1.00  0.00    -0.330 C  
HETATM    9  O   UNL     1     -12.173  11.668  69.760  1.00  0.00    -0.275 OA 
BRANCH   8  10
HETATM   10  C   UNL     1     -10.982   9.654  69.141  1.00  0.00    -0.177 C  
BRANCH  10  11
HETATM   11  C   UNL     1      -9.915   9.754  70.215  1.00  0.00    -0.309 C  
BRANCH  11  12
HETATM   12  C   UNL     1     -10.327   9.092  71.503  1.00  0.00    -0.342 C  
HETATM   13  O   UNL     1     -11.459   9.117  71.966  1.00  0.00    -0.362 OA 
BRANCH  12  14
HETATM   14  O   UNL     1      -9.256   8.568  72.160  1.00  0.00    -0.227 OA 
BRANCH  14  15
HETATM   15  C   UNL     1      -9.591   7.763  73.307  1.00  0.00    -0.283 C  
BRANCH  15  16
HETATM   16  C   UNL     1      -8.976   6.353  73.272  1.00  0.00    -0.128 C  
BRANCH  16  17
HETATM   17  N   UNL     1      -9.937   5.264  72.730  1.00  0.00    -0.158 N  
HETATM   18  C   UNL     1      -9.780   3.948  73.483  1.00  0.00    -0.107 C  
HETATM   19  C   UNL     1      -9.593   5.015  71.257  1.00  0.00    -0.165 C  
HETATM   20  C   UNL     1     -11.390   5.728  72.798  1.00  0.00    -0.282 C  
ENDBRANCH  16  17
ENDBRANCH  15  16
ENDBRANCH  14  15
ENDBRANCH  12  14
ENDBRANCH  11  12
ENDBRANCH  10  11
ENDBRANCH   8  10
ENDBRANCH   7   8
ENDBRANCH   6   7
ENDBRANCH   5   6
ENDBRANCH   2   5
TORSDOF 11
ENDMDL
MODEL      112
REMARK 921   NORMALIZED FREE ENERGY PREDICTED BY IDOCK:   -3.51 KCAL/MOL
REMARK 922        TOTAL FREE ENERGY PREDICTED BY IDOCK:   -6.53 KCAL/MOL
REMARK 923 INTER-LIGAND FREE ENERGY PREDICTED BY IDOCK:   -5.83 KCAL/MOL
REMARK 924 INTRA-LIGAND FREE ENERGY PREDICTED BY IDOCK:   -0.70 KCAL/MOL
REMARK 927      BINDING AFFINITY PREDICTED BY RF-SCORE:    0.00 PKD
ROOT
HETATM    1  C   UNL     1     -11.822  15.179  72.499  1.00  0.00    -0.384 C  
HETATM    2  N   UNL     1     -12.671  14.781  71.285  1.00  0.00    -0.313 N  
HETATM    3  C   UNL     1     -14.116  15.186  71.575  1.00  0.00    -0.540 C  
HETATM    4  C   UNL     1     -12.153  15.543  70.071  1.00  0.00    -0.368 C  
ENDROOT
BRANCH   2   5
HETATM    5  C   UNL     1     -12.547  13.250  71.095  1.00  0.00    -0.325 C  
BRANCH   5   6
HETATM    6  C   UNL     1     -11.863  12.837  69.779  1.00  0.00    -0.310 C  
BRANCH   6   7
HETATM    7  O   UNL     1     -12.216  11.513  69.337  1.00  0.00    -0.289 OA 
BRANCH   7   8
HETATM    8  C   UNL     1     -11.470  10.514  69.885  1.00  0.00    -0.310 C  
HETATM    9  O   UNL     1     -11.897   9.732  70.723  1.00  0.00    -0.287 OA 
BRANCH   8  10
HETATM   10  C   UNL     1     -10.120  10.409  69.225  1.00  0.00    -0.248 C  
BRANCH  10  11
HETATM   11  C   UNL     1      -9.629   8.976  69.131  1.00  0.00    -0.161 C  
BRANCH  11  12
HETATM   12  C   UNL     1     -10.354   8.184  68.076  1.00  0.00    -0.211 C  
HETATM   13  O   UNL     1     -10.628   8.600  66.959  1.00  0.00    -0.294 OA 
BRANCH  12  14
HETATM   14  O   UNL     1     -10.786   6.986  68.560  1.00  0.00    -0.208 OA 
BRANCH  14  15
HETATM   15  C   UNL     1     -10.215   6.609  69.827  1.00  0.00    -0.187 C  
BRANCH  15  16
HETATM   16  C   UNL     1     -11.263   6.230  70.887  1.00  0.00    -0.324 C  
BRANCH  16  17
HETATM   17  N   UNL     1     -10.693   6.126  72.325  1.00  0.00    -0.220 N  
HETATM   18  C   UNL     1     -10.854   7.433  73.091  1.00  0.00    -0.386 C  
HETATM   19  C   UNL     1      -9.195   5.813  72.221  1.00  0.00    -0.145 C  
HETATM   20  C   UNL     1     -11.355   4.988  73.099  1.00  0.00    -0.321 C  
ENDBRANCH  16  17
ENDBRANCH  15  16
ENDBRANCH  14  15
ENDBRANCH  12  14
ENDBRANCH  11  12
ENDBRANCH  10  11
ENDBRANCH   8  10
ENDBRANCH   7   8
ENDBRANCH   6   7
ENDBRANCH   5   6
ENDBRANCH   2   5
TORSDOF 11
ENDMDL
MODEL      113
REMARK 921   NORMALIZED FREE ENERGY PREDICTED BY IDOCK:   -3.51 KCAL/MOL
REMARK 922        TOTAL FREE ENERGY PREDICTED BY IDOCK:   -6.52 KCAL/MOL
REMARK 923 INTER-LIGAND FREE ENERGY PREDICTED BY IDOCK:   -6.02 KCAL/MOL
REMARK 924 INTRA-LIGAND FREE ENERGY PREDICTED BY IDOCK:   -0.49 KCAL/MOL
REMARK 927      BINDING AFFINITY PREDICTED BY RF-SCORE:    0.00 PKD
ROOT
HETATM    1  C   UNL     1      -8.967   7.168  69.359  1.00  0.00    -0.136 C  
HETATM    2  N   UNL     1      -9.375   8.616  69.659  1.00  0.00    -0.160 N  
HETATM    3  C   UNL     1     -10.717   8.580  70.388  1.00  0.00    -0.228 C  
HETATM    4  C   UNL     1      -8.312   9.233  70.559  1.00  0.00    -0.205 C  
ENDROOT
BRANCH   2   5
HETATM    5  C   UNL     1      -9.491   9.369  68.311  1.00  0.00    -0.137 C  
BRANCH   5   6
HETATM    6  C   UNL     1      -9.114  10.859  68.394  1.00  0.00    -0.164 C  
BRANCH   6   7
HETATM    7  O   UNL     1     -10.225  11.718  68.713  1.00  0.00    -0.211 OA 
BRANCH   7   8
HETATM    8  C   UNL     1     -11.362  11.460  68.008  1.00  0.00    -0.303 C  
HETATM    9  O   UNL     1     -12.410  11.100  68.523  1.00  0.00    -0.561 OA 
BRANCH   8  10
HETATM   10  C   UNL     1     -11.201  11.816  66.553  1.00  0.00    -0.380 C  
BRANCH  10  11
HETATM   11  C   UNL     1     -12.018  13.032  66.158  1.00  0.00    -0.488 C  
BRANCH  11  12
HETATM   12  C   UNL     1     -11.159  14.191  65.727  1.00  0.00    -0.309 C  
HETATM   13  O   UNL     1     -10.274  14.126  64.884  1.00  0.00    -0.412 OA 
BRANCH  12  14
HETATM   14  O   UNL     1     -11.397  15.298  66.484  1.00  0.00    -0.287 OA 
BRANCH  14  15
HETATM   15  C   UNL     1     -10.425  16.350  66.332  1.00  0.00    -0.286 C  
BRANCH  15  16
HETATM   16  C   UNL     1     -10.106  17.088  67.643  1.00  0.00    -0.298 C  
BRANCH  16  17
HETATM   17  N   UNL     1      -9.699  18.571  67.445  1.00  0.00    -0.296 N  
HETATM   18  C   UNL     1     -10.030  19.415  68.670  1.00  0.00    -0.444 C  
HETATM   19  C   UNL     1     -10.489  19.126  66.254  1.00  0.00    -0.467 C  
HETATM   20  C   UNL     1      -8.213  18.695  67.118  1.00  0.00    -0.252 C  
ENDBRANCH  16  17
ENDBRANCH  15  16
ENDBRANCH  14  15
ENDBRANCH  12  14
ENDBRANCH  11  12
ENDBRANCH  10  11
ENDBRANCH   8  10
ENDBRANCH   7   8
ENDBRANCH   6   7
ENDBRANCH   5   6
ENDBRANCH   2   5
TORSDOF 11
ENDMDL
MODEL      114
REMARK 921   NORMALIZED FREE ENERGY PREDICTED BY IDOCK:   -3.50 KCAL/MOL
REMARK 922        TOTAL FREE ENERGY PREDICTED BY IDOCK:   -6.50 KCAL/MOL
REMARK 923 INTER-LIGAND FREE ENERGY PREDICTED BY IDOCK:   -5.77 KCAL/MOL
REMARK 924 INTRA-LIGAND FREE ENERGY PREDICTED BY IDOCK:   -0.73 KCAL/MOL
REMARK 927      BINDING AFFINITY PREDICTED BY RF-SCORE:    0.00 PKD
ROOT
HETATM    1  C   UNL     1      -7.735   4.795  70.844  1.00  0.00    -0.073 C  
HETATM    2  N   UNL     1      -9.043   5.520  71.190  1.00  0.00    -0.141 N  
HETATM    3  C   UNL     1      -9.951   4.524  71.910  1.00  0.00    -0.191 C  
HETATM    4  C   UNL     1      -8.710   6.683  72.117  1.00  0.00    -0.130 C  
ENDROOT
BRANCH   2   5
HETATM    5  C   UNL     1      -9.684   6.007  69.868  1.00  0.00    -0.163 C  
BRANCH   5   6
HETATM    6  C   UNL     1     -11.217   6.138  69.929  1.00  0.00    -0.414 C  
BRANCH   6   7
HETATM    7  O   UNL     1     -11.667   7.432  70.374  1.00  0.00    -0.237 OA 
BRANCH   7   8
HETATM    8  C   UNL     1     -12.353   7.420  71.552  1.00  0.00    -0.353 C  
HETATM    9  O   UNL     1     -12.784   6.402  72.073  1.00  0.00    -0.281 OA 
BRANCH   8  10
HETATM   10  C   UNL     1     -12.378   8.785  72.188  1.00  0.00    -0.458 C  
BRANCH  10  11
HETATM   11  C   UNL     1     -13.332   9.735  71.488  1.00  0.00    -0.468 C  
BRANCH  11  12
HETATM   12  C   UNL     1     -12.793  11.139  71.404  1.00  0.00    -0.439 C  
HETATM   13  O   UNL     1     -13.290  12.109  71.960  1.00  0.00    -0.503 OA 
BRANCH  12  14
HETATM   14  O   UNL     1     -11.756  11.224  70.527  1.00  0.00    -0.329 OA 
BRANCH  14  15
HETATM   15  C   UNL     1     -12.017  12.034  69.365  1.00  0.00    -0.275 C  
BRANCH  15  16
HETATM   16  C   UNL     1     -11.492  11.421  68.055  1.00  0.00    -0.307 C  
BRANCH  16  17
HETATM   17  N   UNL     1     -10.615  12.387  67.218  1.00  0.00    -0.221 N  
HETATM   18  C   UNL     1      -9.798  11.641  66.169  1.00  0.00    -0.223 C  
HETATM   19  C   UNL     1      -9.641  13.091  68.170  1.00  0.00    -0.227 C  
HETATM   20  C   UNL     1     -11.467  13.460  66.543  1.00  0.00    -0.341 C  
ENDBRANCH  16  17
ENDBRANCH  15  16
ENDBRANCH  14  15
ENDBRANCH  12  14
ENDBRANCH  11  12
ENDBRANCH  10  11
ENDBRANCH   8  10
ENDBRANCH   7   8
ENDBRANCH   6   7
ENDBRANCH   5   6
ENDBRANCH   2   5
TORSDOF 11
ENDMDL
MODEL      115
REMARK 921   NORMALIZED FREE ENERGY PREDICTED BY IDOCK:   -3.47 KCAL/MOL
REMARK 922        TOTAL FREE ENERGY PREDICTED BY IDOCK:   -6.46 KCAL/MOL
REMARK 923 INTER-LIGAND FREE ENERGY PREDICTED BY IDOCK:   -5.80 KCAL/MOL
REMARK 924 INTRA-LIGAND FREE ENERGY PREDICTED BY IDOCK:   -0.65 KCAL/MOL
REMARK 927      BINDING AFFINITY PREDICTED BY RF-SCORE:    0.00 PKD
ROOT
HETATM    1  C   UNL     1      -9.440  19.248  68.615  1.00  0.00    -0.405 C  
HETATM    2  N   UNL     1      -9.583  17.924  67.853  1.00  0.00    -0.278 N  
HETATM    3  C   UNL     1     -10.684  17.111  68.534  1.00  0.00    -0.326 C  
HETATM    4  C   UNL     1      -9.986  18.242  66.418  1.00  0.00    -0.380 C  
ENDROOT
BRANCH   2   5
HETATM    5  C   UNL     1      -8.224  17.186  67.915  1.00  0.00    -0.202 C  
BRANCH   5   6
HETATM    6  C   UNL     1      -7.956  16.267  66.709  1.00  0.00    -0.271 C  
BRANCH   6   7
HETATM    7  O   UNL     1      -7.957  14.866  67.041  1.00  0.00    -0.207 OA 
BRANCH   7   8
HETATM    8  C   UNL     1      -9.195  14.301  67.114  1.00  0.00    -0.223 C  
HETATM    9  O   UNL     1     -10.041  14.408  66.238  1.00  0.00    -0.276 OA 
BRANCH   8  10
HETATM   10  C   UNL     1      -9.327  13.420  68.329  1.00  0.00    -0.205 C  
BRANCH  10  11
HETATM   11  C   UNL     1     -10.772  13.099  68.660  1.00  0.00    -0.274 C  
BRANCH  11  12
HETATM   12  C   UNL     1     -11.128  11.665  68.368  1.00  0.00    -0.234 C  
HETATM   13  O   UNL     1     -12.024  11.311  67.612  1.00  0.00    -0.634 OA 
BRANCH  12  14
HETATM   14  O   UNL     1     -10.417  10.805  69.147  1.00  0.00    -0.199 OA 
BRANCH  14  15
HETATM   15  C   UNL     1     -11.087  10.395  70.355  1.00  0.00    -0.296 C  
BRANCH  15  16
HETATM   16  C   UNL     1     -11.707   8.990  70.270  1.00  0.00     0.014 C  
BRANCH  16  17
HETATM   17  N   UNL     1     -12.024   8.359  71.650  1.00  0.00    -0.290 N  
HETATM   18  C   UNL     1     -10.772   8.224  72.509  1.00  0.00    -0.341 C  
HETATM   19  C   UNL     1     -12.595   6.956  71.412  1.00  0.00    -0.353 C  
HETATM   20  C   UNL     1     -13.079   9.172  72.397  1.00  0.00    -0.423 C  
ENDBRANCH  16  17
ENDBRANCH  15  16
ENDBRANCH  14  15
ENDBRANCH  12  14
ENDBRANCH  11  12
ENDBRANCH  10  11
ENDBRANCH   8  10
ENDBRANCH   7   8
ENDBRANCH   6   7
ENDBRANCH   5   6
ENDBRANCH   2   5
TORSDOF 11
ENDMDL
MODEL      116
REMARK 921   NORMALIZED FREE ENERGY PREDICTED BY IDOCK:   -3.45 KCAL/MOL
REMARK 922        TOTAL FREE ENERGY PREDICTED BY IDOCK:   -6.43 KCAL/MOL
REMARK 923 INTER-LIGAND FREE ENERGY PREDICTED BY IDOCK:   -5.64 KCAL/MOL
REMARK 924 INTRA-LIGAND FREE ENERGY PREDICTED BY IDOCK:   -0.78 KCAL/MOL
REMARK 927      BINDING AFFINITY PREDICTED BY RF-SCORE:    0.00 PKD
ROOT
HETATM    1  C   UNL     1     -10.424   9.992  67.455  1.00  0.00    -0.260 C  
HETATM    2  N   UNL     1     -10.394  11.522  67.343  1.00  0.00    -0.202 N  
HETATM    3  C   UNL     1      -9.116  12.013  68.021  1.00  0.00    -0.188 C  
HETATM    4  C   UNL     1     -10.370  11.890  65.864  1.00  0.00    -0.242 C  
ENDROOT
BRANCH   2   5
HETATM    5  C   UNL     1     -11.652  12.079  68.051  1.00  0.00    -0.342 C  
BRANCH   5   6
HETATM    6  C   UNL     1     -12.136  11.220  69.233  1.00  0.00    -0.303 C  
BRANCH   6   7
HETATM    7  O   UNL     1     -12.049  11.888  70.505  1.00  0.00    -0.366 OA 
BRANCH   7   8
HETATM    8  C   UNL     1     -12.935  11.445  71.441  1.00  0.00    -0.365 C  
HETATM    9  O   UNL     1     -13.395  12.152  72.325  1.00  0.00    -0.500 OA 
BRANCH   8  10
HETATM   10  C   UNL     1     -13.377  10.033  71.155  1.00  0.00    -0.379 C  
BRANCH  10  11
HETATM   11  C   UNL     1     -12.923   9.055  72.222  1.00  0.00    -0.490 C  
BRANCH  11  12
HETATM   12  C   UNL     1     -11.594   8.423  71.900  1.00  0.00    -0.329 C  
HETATM   13  O   UNL     1     -10.676   8.291  72.698  1.00  0.00    -0.343 OA 
BRANCH  12  14
HETATM   14  O   UNL     1     -11.488   8.132  70.574  1.00  0.00    -0.259 OA 
BRANCH  14  15
HETATM   15  C   UNL     1     -11.099   6.774  70.287  1.00  0.00    -0.310 C  
BRANCH  15  16
HETATM   16  C   UNL     1     -10.369   6.613  68.943  1.00  0.00    -0.193 C  
BRANCH  16  17
HETATM   17  N   UNL     1      -9.311   5.480  68.936  1.00  0.00    -0.122 N  
HETATM   18  C   UNL     1      -7.931   5.994  69.327  1.00  0.00    -0.103 C  
HETATM   19  C   UNL     1      -9.226   4.918  67.512  1.00  0.00    -0.123 C  
HETATM   20  C   UNL     1      -9.721   4.339  69.864  1.00  0.00    -0.221 C  
ENDBRANCH  16  17
ENDBRANCH  15  16
ENDBRANCH  14  15
ENDBRANCH  12  14
ENDBRANCH  11  12
ENDBRANCH  10  11
ENDBRANCH   8  10
ENDBRANCH   7   8
ENDBRANCH   6   7
ENDBRANCH   5   6
ENDBRANCH   2   5
TORSDOF 11
ENDMDL
MODEL      117
REMARK 921   NORMALIZED FREE ENERGY PREDICTED BY IDOCK:   -3.44 KCAL/MOL
REMARK 922        TOTAL FREE ENERGY PREDICTED BY IDOCK:   -6.41 KCAL/MOL
REMARK 923 INTER-LIGAND FREE ENERGY PREDICTED BY IDOCK:   -5.80 KCAL/MOL
REMARK 924 INTRA-LIGAND FREE ENERGY PREDICTED BY IDOCK:   -0.61 KCAL/MOL
REMARK 927      BINDING AFFINITY PREDICTED BY RF-SCORE:    0.00 PKD
ROOT
HETATM    1  C   UNL     1     -11.754  15.572  72.312  1.00  0.00    -0.482 C  
HETATM    2  N   UNL     1     -12.558  14.967  71.154  1.00  0.00    -0.319 N  
HETATM    3  C   UNL     1     -14.031  15.302  71.385  1.00  0.00    -0.508 C  
HETATM    4  C   UNL     1     -12.077  15.607  69.857  1.00  0.00    -0.341 C  
ENDROOT
BRANCH   2   5
HETATM    5  C   UNL     1     -12.325  13.437  71.158  1.00  0.00    -0.259 C  
BRANCH   5   6
HETATM    6  C   UNL     1     -13.488  12.630  71.764  1.00  0.00    -0.221 C  
BRANCH   6   7
HETATM    7  O   UNL     1     -13.071  11.408  72.402  1.00  0.00    -0.194 OA 
BRANCH   7   8
HETATM    8  C   UNL     1     -13.155  10.300  71.614  1.00  0.00    -0.449 C  
HETATM    9  O   UNL     1     -13.144  10.335  70.392  1.00  0.00    -0.258 OA 
BRANCH   8  10
HETATM   10  C   UNL     1     -13.114   9.037  72.435  1.00  0.00    -0.487 C  
BRANCH  10  11
HETATM   11  C   UNL     1     -11.758   8.358  72.389  1.00  0.00    -0.452 C  
BRANCH  11  12
HETATM   12  C   UNL     1     -11.801   7.027  71.686  1.00  0.00    -0.313 C  
HETATM   13  O   UNL     1     -11.954   5.949  72.245  1.00  0.00    -0.295 OA 
BRANCH  12  14
HETATM   14  O   UNL     1     -11.518   7.154  70.360  1.00  0.00    -0.291 OA 
BRANCH  14  15
HETATM   15  C   UNL     1     -10.481   8.105  70.055  1.00  0.00    -0.231 C  
BRANCH  15  16
HETATM   16  C   UNL     1     -10.545   8.648  68.617  1.00  0.00    -0.129 C  
BRANCH  16  17
HETATM   17  N   UNL     1      -9.353   8.211  67.727  1.00  0.00    -0.134 N  
HETATM   18  C   UNL     1      -8.248   7.555  68.548  1.00  0.00    -0.125 C  
HETATM   19  C   UNL     1      -8.773   9.463  67.059  1.00  0.00    -0.127 C  
HETATM   20  C   UNL     1      -9.810   7.261  66.622  1.00  0.00    -0.187 C  
ENDBRANCH  16  17
ENDBRANCH  15  16
ENDBRANCH  14  15
ENDBRANCH  12  14
ENDBRANCH  11  12
ENDBRANCH  10  11
ENDBRANCH   8  10
ENDBRANCH   7   8
ENDBRANCH   6   7
ENDBRANCH   5   6
ENDBRANCH   2   5
TORSDOF 11
ENDMDL
MODEL      118
REMARK 921   NORMALIZED FREE ENERGY PREDICTED BY IDOCK:   -3.44 KCAL/MOL
REMARK 922        TOTAL FREE ENERGY PREDICTED BY IDOCK:   -6.41 KCAL/MOL
REMARK 923 INTER-LIGAND FREE ENERGY PREDICTED BY IDOCK:   -5.68 KCAL/MOL
REMARK 924 INTRA-LIGAND FREE ENERGY PREDICTED BY IDOCK:   -0.73 KCAL/MOL
REMARK 927      BINDING AFFINITY PREDICTED BY RF-SCORE:    0.00 PKD
ROOT
HETATM    1  C   UNL     1     -11.031   7.707  72.953  1.00  0.00    -0.400 C  
HETATM    2  N   UNL     1     -11.892   8.082  71.740  1.00  0.00    -0.281 N  
HETATM    3  C   UNL     1     -12.241   6.791  71.000  1.00  0.00    -0.352 C  
HETATM    4  C   UNL     1     -13.165   8.749  72.249  1.00  0.00    -0.412 C  
ENDROOT
BRANCH   2   5
HETATM    5  C   UNL     1     -11.067   9.035  70.843  1.00  0.00    -0.280 C  
BRANCH   5   6
HETATM    6  C   UNL     1     -10.379   8.337  69.656  1.00  0.00    -0.218 C  
BRANCH   6   7
HETATM    7  O   UNL     1     -10.647   8.961  68.386  1.00  0.00    -0.206 OA 
BRANCH   7   8
HETATM    8  C   UNL     1     -10.475   8.147  67.306  1.00  0.00    -0.309 C  
HETATM    9  O   UNL     1     -10.870   6.991  67.260  1.00  0.00    -0.310 OA 
BRANCH   8  10
HETATM   10  C   UNL     1      -9.878   8.896  66.143  1.00  0.00    -0.326 C  
BRANCH  10  11
HETATM   11  C   UNL     1      -8.897   9.967  66.583  1.00  0.00    -0.149 C  
BRANCH  11  12
HETATM   12  C   UNL     1      -9.386  11.358  66.281  1.00  0.00    -0.212 C  
HETATM   13  O   UNL     1     -10.125  11.649  65.350  1.00  0.00    -0.239 OA 
BRANCH  12  14
HETATM   14  O   UNL     1      -8.802  12.281  67.094  1.00  0.00    -0.180 OA 
BRANCH  14  15
HETATM   15  C   UNL     1      -9.617  12.707  68.203  1.00  0.00    -0.219 C  
BRANCH  15  16
HETATM   16  C   UNL     1      -9.869  14.224  68.236  1.00  0.00    -0.235 C  
BRANCH  16  17
HETATM   17  N   UNL     1     -11.370  14.610  68.226  1.00  0.00    -0.283 N  
HETATM   18  C   UNL     1     -12.050  14.203  66.924  1.00  0.00    -0.432 C  
HETATM   19  C   UNL     1     -11.471  16.134  68.361  1.00  0.00    -0.298 C  
HETATM   20  C   UNL     1     -12.107  13.988  69.411  1.00  0.00    -0.340 C  
ENDBRANCH  16  17
ENDBRANCH  15  16
ENDBRANCH  14  15
ENDBRANCH  12  14
ENDBRANCH  11  12
ENDBRANCH  10  11
ENDBRANCH   8  10
ENDBRANCH   7   8
ENDBRANCH   6   7
ENDBRANCH   5   6
ENDBRANCH   2   5
TORSDOF 11
ENDMDL
MODEL      119
REMARK 921   NORMALIZED FREE ENERGY PREDICTED BY IDOCK:   -3.43 KCAL/MOL
REMARK 922        TOTAL FREE ENERGY PREDICTED BY IDOCK:   -6.38 KCAL/MOL
REMARK 923 INTER-LIGAND FREE ENERGY PREDICTED BY IDOCK:   -5.63 KCAL/MOL
REMARK 924 INTRA-LIGAND FREE ENERGY PREDICTED BY IDOCK:   -0.76 KCAL/MOL
REMARK 927      BINDING AFFINITY PREDICTED BY RF-SCORE:    0.00 PKD
ROOT
HETATM    1  C   UNL     1     -10.356  14.454  65.660  1.00  0.00    -0.342 C  
HETATM    2  N   UNL     1     -10.251  14.930  67.115  1.00  0.00    -0.244 N  
HETATM    3  C   UNL     1      -9.855  16.406  67.094  1.00  0.00    -0.249 C  
HETATM    4  C   UNL     1     -11.619  14.770  67.767  1.00  0.00    -0.357 C  
ENDROOT
BRANCH   2   5
HETATM    5  C   UNL     1      -9.175  14.073  67.824  1.00  0.00    -0.195 C  
BRANCH   5   6
HETATM    6  C   UNL     1      -8.972  12.682  67.196  1.00  0.00    -0.205 C  
BRANCH   6   7
HETATM    7  O   UNL     1      -9.498  11.606  67.996  1.00  0.00    -0.172 OA 
BRANCH   7   8
HETATM    8  C   UNL     1     -10.685  11.102  67.557  1.00  0.00    -0.236 C  
HETATM    9  O   UNL     1     -11.055  11.156  66.394  1.00  0.00    -0.247 OA 
BRANCH   8  10
HETATM   10  C   UNL     1     -11.400  10.348  68.649  1.00  0.00    -0.277 C  
BRANCH  10  11
HETATM   11  C   UNL     1     -12.089  11.272  69.637  1.00  0.00    -0.391 C  
BRANCH  11  12
HETATM   12  C   UNL     1     -12.344  10.611  70.966  1.00  0.00    -0.403 C  
HETATM   13  O   UNL     1     -13.211  10.955  71.758  1.00  0.00    -0.444 OA 
BRANCH  12  14
HETATM   14  O   UNL     1     -11.408   9.662  71.240  1.00  0.00    -0.344 OA 
BRANCH  14  15
HETATM   15  C   UNL     1     -11.862   8.603  72.105  1.00  0.00    -0.377 C  
BRANCH  15  16
HETATM   16  C   UNL     1     -11.783   7.207  71.463  1.00  0.00    -0.290 C  
BRANCH  16  17
HETATM   17  N   UNL     1     -10.715   6.282  72.100  1.00  0.00    -0.223 N  
HETATM   18  C   UNL     1      -9.817   5.647  71.045  1.00  0.00    -0.178 C  
HETATM   19  C   UNL     1     -11.443   5.159  72.848  1.00  0.00    -0.254 C  
HETATM   20  C   UNL     1      -9.863   7.043  73.114  1.00  0.00    -0.197 C  
ENDBRANCH  16  17
ENDBRANCH  15  16
ENDBRANCH  14  15
ENDBRANCH  12  14
ENDBRANCH  11  12
ENDBRANCH  10  11
ENDBRANCH   8  10
ENDBRANCH   7   8
ENDBRANCH   6   7
ENDBRANCH   5   6
ENDBRANCH   2   5
TORSDOF 11
ENDMDL
MODEL      120
REMARK 921   NORMALIZED FREE ENERGY PREDICTED BY IDOCK:   -3.42 KCAL/MOL
REMARK 922        TOTAL FREE ENERGY PREDICTED BY IDOCK:   -6.37 KCAL/MOL
REMARK 923 INTER-LIGAND FREE ENERGY PREDICTED BY IDOCK:   -5.94 KCAL/MOL
REMARK 924 INTRA-LIGAND FREE ENERGY PREDICTED BY IDOCK:   -0.43 KCAL/MOL
REMARK 927      BINDING AFFINITY PREDICTED BY RF-SCORE:    0.00 PKD
ROOT
HETATM    1  C   UNL     1      -8.531  19.139  66.112  1.00  0.00    -0.232 C  
HETATM    2  N   UNL     1      -9.303  18.335  67.166  1.00  0.00    -0.259 N  
HETATM    3  C   UNL     1      -8.497  18.373  68.464  1.00  0.00    -0.325 C  
HETATM    4  C   UNL     1     -10.657  19.003  67.377  1.00  0.00    -0.474 C  
ENDROOT
BRANCH   2   5
HETATM    5  C   UNL     1      -9.456  16.885  66.646  1.00  0.00    -0.265 C  
BRANCH   5   6
HETATM    6  C   UNL     1     -10.639  16.690  65.680  1.00  0.00    -0.270 C  
BRANCH   6   7
HETATM    7  O   UNL     1     -10.564  15.472  64.915  1.00  0.00    -0.423 OA 
BRANCH   7   8
HETATM    8  C   UNL     1     -11.766  14.998  64.482  1.00  0.00    -0.368 C  
HETATM    9  O   UNL     1     -12.574  15.671  63.859  1.00  0.00    -0.697 OA 
BRANCH   8  10
HETATM   10  C   UNL     1     -11.899  13.520  64.740  1.00  0.00    -0.412 C  
BRANCH  10  11
HETATM   11  C   UNL     1     -10.557  12.842  64.945  1.00  0.00    -0.342 C  
BRANCH  11  12
HETATM   12  C   UNL     1     -10.276  12.541  66.393  1.00  0.00    -0.244 C  
HETATM   13  O   UNL     1      -9.910  13.368  67.218  1.00  0.00    -0.226 OA 
BRANCH  12  14
HETATM   14  O   UNL     1     -10.354  11.206  66.650  1.00  0.00    -0.223 OA 
BRANCH  14  15
HETATM   15  C   UNL     1     -10.145  10.360  65.503  1.00  0.00    -0.283 C  
BRANCH  15  16
HETATM   16  C   UNL     1      -8.895   9.470  65.612  1.00  0.00    -0.161 C  
BRANCH  16  17
HETATM   17  N   UNL     1      -9.048   8.293  66.609  1.00  0.00    -0.156 N  
HETATM   18  C   UNL     1      -8.376   8.593  67.944  1.00  0.00    -0.123 C  
HETATM   19  C   UNL     1      -8.370   7.061  65.999  1.00  0.00    -0.134 C  
HETATM   20  C   UNL     1     -10.520   7.952  66.836  1.00  0.00    -0.318 C  
ENDBRANCH  16  17
ENDBRANCH  15  16
ENDBRANCH  14  15
ENDBRANCH  12  14
ENDBRANCH  11  12
ENDBRANCH  10  11
ENDBRANCH   8  10
ENDBRANCH   7   8
ENDBRANCH   6   7
ENDBRANCH   5   6
ENDBRANCH   2   5
TORSDOF 11
ENDMDL
MODEL      121
REMARK 921   NORMALIZED FREE ENERGY PREDICTED BY IDOCK:   -3.41 KCAL/MOL
REMARK 922        TOTAL FREE ENERGY PREDICTED BY IDOCK:   -6.36 KCAL/MOL
REMARK 923 INTER-LIGAND FREE ENERGY PREDICTED BY IDOCK:   -5.72 KCAL/MOL
REMARK 924 INTRA-LIGAND FREE ENERGY PREDICTED BY IDOCK:   -0.64 KCAL/MOL
REMARK 927      BINDING AFFINITY PREDICTED BY RF-SCORE:    0.00 PKD
ROOT
HETATM    1  C   UNL     1     -10.823   7.676  72.957  1.00  0.00    -0.400 C  
HETATM    2  N   UNL     1     -11.492   7.940  71.603  1.00  0.00    -0.255 N  
HETATM    3  C   UNL     1     -12.832   7.206  71.594  1.00  0.00    -0.379 C  
HETATM    4  C   UNL     1     -11.722   9.441  71.471  1.00  0.00    -0.394 C  
ENDROOT
BRANCH   2   5
HETATM    5  C   UNL     1     -10.554   7.406  70.493  1.00  0.00    -0.224 C  
BRANCH   5   6
HETATM    6  C   UNL     1     -10.458   8.324  69.261  1.00  0.00    -0.210 C  
BRANCH   6   7
HETATM    7  O   UNL     1      -9.218   8.193  68.540  1.00  0.00    -0.137 OA 
BRANCH   7   8
HETATM    8  C   UNL     1      -8.995   9.166  67.613  1.00  0.00    -0.123 C  
HETATM    9  O   UNL     1      -7.951   9.796  67.530  1.00  0.00    -0.105 OA 
BRANCH   8  10
HETATM   10  C   UNL     1     -10.131   9.258  66.627  1.00  0.00    -0.341 C  
BRANCH  10  11
HETATM   11  C   UNL     1     -10.531  10.692  66.334  1.00  0.00    -0.276 C  
BRANCH  11  12
HETATM   12  C   UNL     1     -11.055  11.407  67.550  1.00  0.00    -0.281 C  
HETATM   13  O   UNL     1     -12.153  11.212  68.053  1.00  0.00    -0.635 OA 
BRANCH  12  14
HETATM   14  O   UNL     1     -10.208  12.395  67.952  1.00  0.00    -0.202 OA 
BRANCH  14  15
HETATM   15  C   UNL     1     -10.463  13.683  67.359  1.00  0.00    -0.251 C  
BRANCH  15  16
HETATM   16  C   UNL     1     -11.349  14.596  68.224  1.00  0.00    -0.297 C  
BRANCH  16  17
HETATM   17  N   UNL     1     -10.578  15.756  68.904  1.00  0.00    -0.222 N  
HETATM   18  C   UNL     1     -11.265  16.215  70.185  1.00  0.00    -0.370 C  
HETATM   19  C   UNL     1     -10.542  16.939  67.930  1.00  0.00    -0.361 C  
HETATM   20  C   UNL     1      -9.135  15.355  69.206  1.00  0.00    -0.260 C  
ENDBRANCH  16  17
ENDBRANCH  15  16
ENDBRANCH  14  15
ENDBRANCH  12  14
ENDBRANCH  11  12
ENDBRANCH  10  11
ENDBRANCH   8  10
ENDBRANCH   7   8
ENDBRANCH   6   7
ENDBRANCH   5   6
ENDBRANCH   2   5
TORSDOF 11
ENDMDL
MODEL      122
REMARK 921   NORMALIZED FREE ENERGY PREDICTED BY IDOCK:   -3.39 KCAL/MOL
REMARK 922        TOTAL FREE ENERGY PREDICTED BY IDOCK:   -6.32 KCAL/MOL
REMARK 923 INTER-LIGAND FREE ENERGY PREDICTED BY IDOCK:   -5.62 KCAL/MOL
REMARK 924 INTRA-LIGAND FREE ENERGY PREDICTED BY IDOCK:   -0.71 KCAL/MOL
REMARK 927      BINDING AFFINITY PREDICTED BY RF-SCORE:    0.00 PKD
ROOT
HETATM    1  C   UNL     1      -7.887  10.565  66.085  1.00  0.00    -0.145 C  
HETATM    2  N   UNL     1      -9.212   9.819  65.878  1.00  0.00    -0.172 N  
HETATM    3  C   UNL     1      -9.858  10.361  64.604  1.00  0.00    -0.338 C  
HETATM    4  C   UNL     1      -8.902   8.336  65.711  1.00  0.00    -0.155 C  
ENDROOT
BRANCH   2   5
HETATM    5  C   UNL     1     -10.107  10.081  67.114  1.00  0.00    -0.212 C  
BRANCH   5   6
HETATM    6  C   UNL     1      -9.944   9.038  68.235  1.00  0.00    -0.173 C  
BRANCH   6   7
HETATM    7  O   UNL     1     -10.989   9.088  69.224  1.00  0.00    -0.161 OA 
BRANCH   7   8
HETATM    8  C   UNL     1     -10.592   9.543  70.446  1.00  0.00    -0.276 C  
HETATM    9  O   UNL     1      -9.436   9.502  70.841  1.00  0.00    -0.239 OA 
BRANCH   8  10
HETATM   10  C   UNL     1     -11.722  10.228  71.172  1.00  0.00    -0.430 C  
BRANCH  10  11
HETATM   11  C   UNL     1     -12.334  11.355  70.361  1.00  0.00    -0.404 C  
BRANCH  11  12
HETATM   12  C   UNL     1     -12.514  12.615  71.166  1.00  0.00    -0.228 C  
HETATM   13  O   UNL     1     -13.205  12.705  72.172  1.00  0.00    -0.478 OA 
BRANCH  12  14
HETATM   14  O   UNL     1     -11.916  13.681  70.565  1.00  0.00    -0.322 OA 
BRANCH  14  15
HETATM   15  C   UNL     1     -12.283  13.876  69.186  1.00  0.00    -0.267 C  
BRANCH  15  16
HETATM   16  C   UNL     1     -11.622  15.107  68.541  1.00  0.00    -0.335 C  
BRANCH  16  17
HETATM   17  N   UNL     1     -10.947  14.814  67.177  1.00  0.00    -0.312 N  
HETATM   18  C   UNL     1     -10.431  16.087  66.518  1.00  0.00    -0.302 C  
HETATM   19  C   UNL     1     -11.997  14.187  66.252  1.00  0.00    -0.429 C  
HETATM   20  C   UNL     1      -9.804  13.812  67.332  1.00  0.00    -0.238 C  
ENDBRANCH  16  17
ENDBRANCH  15  16
ENDBRANCH  14  15
ENDBRANCH  12  14
ENDBRANCH  11  12
ENDBRANCH  10  11
ENDBRANCH   8  10
ENDBRANCH   7   8
ENDBRANCH   6   7
ENDBRANCH   5   6
ENDBRANCH   2   5
TORSDOF 11
ENDMDL
MODEL      123
REMARK 921   NORMALIZED FREE ENERGY PREDICTED BY IDOCK:   -3.39 KCAL/MOL
REMARK 922        TOTAL FREE ENERGY PREDICTED BY IDOCK:   -6.32 KCAL/MOL
REMARK 923 INTER-LIGAND FREE ENERGY PREDICTED BY IDOCK:   -5.72 KCAL/MOL
REMARK 924 INTRA-LIGAND FREE ENERGY PREDICTED BY IDOCK:   -0.60 KCAL/MOL
REMARK 927      BINDING AFFINITY PREDICTED BY RF-SCORE:    0.00 PKD
ROOT
HETATM    1  C   UNL     1     -13.014  11.257  71.860  1.00  0.00    -0.365 C  
HETATM    2  N   UNL     1     -12.591  10.006  71.080  1.00  0.00    -0.347 N  
HETATM    3  C   UNL     1     -11.421   9.365  71.825  1.00  0.00    -0.343 C  
HETATM    4  C   UNL     1     -13.773   9.044  71.046  1.00  0.00     0.032 C  
ENDROOT
BRANCH   2   5
HETATM    5  C   UNL     1     -12.172  10.448  69.657  1.00  0.00    -0.048 C  
BRANCH   5   6
HETATM    6  C   UNL     1     -11.761  11.928  69.558  1.00  0.00    -0.345 C  
BRANCH   6   7
HETATM    7  O   UNL     1     -10.580  12.146  68.763  1.00  0.00    -0.229 OA 
BRANCH   7   8
HETATM    8  C   UNL     1     -10.823  12.413  67.449  1.00  0.00    -0.238 C  
HETATM    9  O   UNL     1     -10.210  11.892  66.528  1.00  0.00    -0.199 OA 
BRANCH   8  10
HETATM   10  C   UNL     1     -12.025  13.305  67.281  1.00  0.00    -0.393 C  
BRANCH  10  11
HETATM   11  C   UNL     1     -11.646  14.763  67.099  1.00  0.00    -0.373 C  
BRANCH  11  12
HETATM   12  C   UNL     1     -11.457  15.479  68.410  1.00  0.00    -0.363 C  
HETATM   13  O   UNL     1     -12.267  15.477  69.327  1.00  0.00    -0.301 OA 
BRANCH  12  14
HETATM   14  O   UNL     1     -10.328  16.241  68.405  1.00  0.00    -0.250 OA 
BRANCH  14  15
HETATM   15  C   UNL     1     -10.510  17.581  67.911  1.00  0.00    -0.384 C  
BRANCH  15  16
HETATM   16  C   UNL     1      -9.651  18.629  68.640  1.00  0.00    -0.368 C  
BRANCH  16  17
HETATM   17  N   UNL     1      -8.438  19.130  67.816  1.00  0.00    -0.294 N  
HETATM   18  C   UNL     1      -7.221  19.381  68.700  1.00  0.00    -0.339 C  
HETATM   19  C   UNL     1      -8.827  20.455  67.151  1.00  0.00    -0.327 C  
HETATM   20  C   UNL     1      -8.078  18.141  66.710  1.00  0.00    -0.246 C  
ENDBRANCH  16  17
ENDBRANCH  15  16
ENDBRANCH  14  15
ENDBRANCH  12  14
ENDBRANCH  11  12
ENDBRANCH  10  11
ENDBRANCH   8  10
ENDBRANCH   7   8
ENDBRANCH   6   7
ENDBRANCH   5   6
ENDBRANCH   2   5
TORSDOF 11
ENDMDL
MODEL      124
REMARK 921   NORMALIZED FREE ENERGY PREDICTED BY IDOCK:   -3.36 KCAL/MOL
REMARK 922        TOTAL FREE ENERGY PREDICTED BY IDOCK:   -6.27 KCAL/MOL
REMARK 923 INTER-LIGAND FREE ENERGY PREDICTED BY IDOCK:   -5.51 KCAL/MOL
REMARK 924 INTRA-LIGAND FREE ENERGY PREDICTED BY IDOCK:   -0.77 KCAL/MOL
REMARK 927      BINDING AFFINITY PREDICTED BY RF-SCORE:    0.00 PKD
ROOT
HETATM    1  C   UNL     1     -12.618  13.897  65.652  1.00  0.00    -0.517 C  
HETATM    2  N   UNL     1     -11.225  14.314  65.164  1.00  0.00    -0.328 N  
HETATM    3  C   UNL     1     -10.703  13.209  64.246  1.00  0.00    -0.409 C  
HETATM    4  C   UNL     1     -11.365  15.615  64.382  1.00  0.00    -0.263 C  
ENDROOT
BRANCH   2   5
HETATM    5  C   UNL     1     -10.315  14.488  66.404  1.00  0.00    -0.293 C  
BRANCH   5   6
HETATM    6  C   UNL     1      -9.664  13.180  66.889  1.00  0.00    -0.243 C  
BRANCH   6   7
HETATM    7  O   UNL     1     -10.186  12.708  68.145  1.00  0.00    -0.226 OA 
BRANCH   7   8
HETATM    8  C   UNL     1     -10.789  11.487  68.086  1.00  0.00    -0.215 C  
HETATM    9  O   UNL     1     -11.950  11.321  67.741  1.00  0.00    -0.637 OA 
BRANCH   8  10
HETATM   10  C   UNL     1      -9.808  10.375  68.355  1.00  0.00    -0.173 C  
BRANCH  10  11
HETATM   11  C   UNL     1      -9.877   9.873  69.785  1.00  0.00    -0.268 C  
BRANCH  11  12
HETATM   12  C   UNL     1     -10.937   8.821  69.978  1.00  0.00    -0.209 C  
HETATM   13  O   UNL     1     -11.791   8.846  70.855  1.00  0.00    -0.282 OA 
BRANCH  12  14
HETATM   14  O   UNL     1     -10.754   7.766  69.137  1.00  0.00    -0.208 OA 
BRANCH  14  15
HETATM   15  C   UNL     1      -9.834   6.767  69.619  1.00  0.00    -0.165 C  
BRANCH  15  16
HETATM   16  C   UNL     1     -10.525   5.549  70.256  1.00  0.00    -0.295 C  
BRANCH  16  17
HETATM   17  N   UNL     1     -10.192   5.354  71.757  1.00  0.00    -0.200 N  
HETATM   18  C   UNL     1     -11.247   5.990  72.656  1.00  0.00    -0.285 C  
HETATM   19  C   UNL     1      -8.849   6.036  72.040  1.00  0.00    -0.137 C  
HETATM   20  C   UNL     1     -10.045   3.873  72.101  1.00  0.00    -0.155 C  
ENDBRANCH  16  17
ENDBRANCH  15  16
ENDBRANCH  14  15
ENDBRANCH  12  14
ENDBRANCH  11  12
ENDBRANCH  10  11
ENDBRANCH   8  10
ENDBRANCH   7   8
ENDBRANCH   6   7
ENDBRANCH   5   6
ENDBRANCH   2   5
TORSDOF 11
ENDMDL
MODEL      125
REMARK 921   NORMALIZED FREE ENERGY PREDICTED BY IDOCK:   -3.36 KCAL/MOL
REMARK 922        TOTAL FREE ENERGY PREDICTED BY IDOCK:   -6.27 KCAL/MOL
REMARK 923 INTER-LIGAND FREE ENERGY PREDICTED BY IDOCK:   -5.52 KCAL/MOL
REMARK 924 INTRA-LIGAND FREE ENERGY PREDICTED BY IDOCK:   -0.75 KCAL/MOL
REMARK 927      BINDING AFFINITY PREDICTED BY RF-SCORE:    0.00 PKD
ROOT
HETATM    1  C   UNL     1     -12.370  14.100  66.018  1.00  0.00    -0.445 C  
HETATM    2  N   UNL     1     -11.652  12.980  65.255  1.00  0.00    -0.315 N  
HETATM    3  C   UNL     1     -12.635  12.406  64.236  1.00  0.00    -0.401 C  
HETATM    4  C   UNL     1     -10.454  13.587  64.534  1.00  0.00    -0.407 C  
ENDROOT
BRANCH   2   5
HETATM    5  C   UNL     1     -11.218  11.904  66.279  1.00  0.00    -0.337 C  
BRANCH   5   6
HETATM    6  C   UNL     1     -10.444  12.466  67.486  1.00  0.00    -0.215 C  
BRANCH   6   7
HETATM    7  O   UNL     1     -11.176  12.393  68.724  1.00  0.00    -0.238 OA 
BRANCH   7   8
HETATM    8  C   UNL     1     -11.197  11.157  69.298  1.00  0.00    -0.267 C  
HETATM    9  O   UNL     1     -12.220  10.602  69.672  1.00  0.00    -0.290 OA 
BRANCH   8  10
HETATM   10  C   UNL     1      -9.834  10.514  69.271  1.00  0.00    -0.225 C  
BRANCH  10  11
HETATM   11  C   UNL     1      -9.687   9.422  70.314  1.00  0.00    -0.292 C  
BRANCH  11  12
HETATM   12  C   UNL     1      -9.590   8.049  69.704  1.00  0.00    -0.168 C  
HETATM   13  O   UNL     1      -8.547   7.520  69.345  1.00  0.00    -0.132 OA 
BRANCH  12  14
HETATM   14  O   UNL     1     -10.821   7.513  69.479  1.00  0.00    -0.234 OA 
BRANCH  14  15
HETATM   15  C   UNL     1     -11.491   7.030  70.660  1.00  0.00    -0.324 C  
BRANCH  15  16
HETATM   16  C   UNL     1     -10.849   5.766  71.259  1.00  0.00    -0.247 C  
BRANCH  16  17
HETATM   17  N   UNL     1     -10.273   5.969  72.683  1.00  0.00    -0.179 N  
HETATM   18  C   UNL     1      -8.774   5.702  72.729  1.00  0.00    -0.119 C  
HETATM   19  C   UNL     1     -10.966   4.975  73.623  1.00  0.00    -0.314 C  
HETATM   20  C   UNL     1     -10.563   7.378  73.198  1.00  0.00    -0.374 C  
ENDBRANCH  16  17
ENDBRANCH  15  16
ENDBRANCH  14  15
ENDBRANCH  12  14
ENDBRANCH  11  12
ENDBRANCH  10  11
ENDBRANCH   8  10
ENDBRANCH   7   8
ENDBRANCH   6   7
ENDBRANCH   5   6
ENDBRANCH   2   5
TORSDOF 11
ENDMDL
MODEL      126
REMARK 921   NORMALIZED FREE ENERGY PREDICTED BY IDOCK:   -3.36 KCAL/MOL
REMARK 922        TOTAL FREE ENERGY PREDICTED BY IDOCK:   -6.27 KCAL/MOL
REMARK 923 INTER-LIGAND FREE ENERGY PREDICTED BY IDOCK:   -5.69 KCAL/MOL
REMARK 924 INTRA-LIGAND FREE ENERGY PREDICTED BY IDOCK:   -0.57 KCAL/MOL
REMARK 927      BINDING AFFINITY PREDICTED BY RF-SCORE:    0.00 PKD
ROOT
HETATM    1  C   UNL     1     -10.075   7.629  69.301  1.00  0.00    -0.190 C  
HETATM    2  N   UNL     1      -9.659   8.978  68.701  1.00  0.00    -0.151 N  
HETATM    3  C   UNL     1      -9.099   9.839  69.832  1.00  0.00    -0.229 C  
HETATM    4  C   UNL     1      -8.576   8.721  67.660  1.00  0.00    -0.128 C  
ENDROOT
BRANCH   2   5
HETATM    5  C   UNL     1     -10.914   9.630  68.071  1.00  0.00    -0.140 C  
BRANCH   5   6
HETATM    6  C   UNL     1     -10.598  10.758  67.073  1.00  0.00    -0.260 C  
BRANCH   6   7
HETATM    7  O   UNL     1     -10.835  12.077  67.600  1.00  0.00    -0.215 OA 
BRANCH   7   8
HETATM    8  C   UNL     1     -11.783  12.793  66.934  1.00  0.00    -0.380 C  
HETATM    9  O   UNL     1     -12.407  12.362  65.974  1.00  0.00    -0.627 OA 
BRANCH   8  10
HETATM   10  C   UNL     1     -12.063  14.107  67.617  1.00  0.00    -0.337 C  
BRANCH  10  11
HETATM   11  C   UNL     1     -11.524  14.150  69.035  1.00  0.00    -0.322 C  
BRANCH  11  12
HETATM   12  C   UNL     1     -11.924  15.403  69.767  1.00  0.00    -0.358 C  
HETATM   13  O   UNL     1     -12.974  15.547  70.378  1.00  0.00    -0.383 OA 
BRANCH  12  14
HETATM   14  O   UNL     1     -11.030  16.409  69.561  1.00  0.00    -0.309 OA 
BRANCH  14  15
HETATM   15  C   UNL     1      -9.702  15.971  69.212  1.00  0.00    -0.257 C  
BRANCH  15  16
HETATM   16  C   UNL     1      -8.870  17.043  68.487  1.00  0.00    -0.253 C  
BRANCH  16  17
HETATM   17  N   UNL     1      -9.030  17.024  66.945  1.00  0.00    -0.221 N  
HETATM   18  C   UNL     1      -8.899  15.614  66.382  1.00  0.00    -0.330 C  
HETATM   19  C   UNL     1      -7.916  17.886  66.340  1.00  0.00    -0.267 C  
HETATM   20  C   UNL     1     -10.368  17.627  66.523  1.00  0.00    -0.337 C  
ENDBRANCH  16  17
ENDBRANCH  15  16
ENDBRANCH  14  15
ENDBRANCH  12  14
ENDBRANCH  11  12
ENDBRANCH  10  11
ENDBRANCH   8  10
ENDBRANCH   7   8
ENDBRANCH   6   7
ENDBRANCH   5   6
ENDBRANCH   2   5
TORSDOF 11
ENDMDL
MODEL      127
REMARK 921   NORMALIZED FREE ENERGY PREDICTED BY IDOCK:   -3.35 KCAL/MOL
REMARK 922        TOTAL FREE ENERGY PREDICTED BY IDOCK:   -6.26 KCAL/MOL
REMARK 923 INTER-LIGAND FREE ENERGY PREDICTED BY IDOCK:   -5.68 KCAL/MOL
REMARK 924 INTRA-LIGAND FREE ENERGY PREDICTED BY IDOCK:   -0.58 KCAL/MOL
REMARK 927      BINDING AFFINITY PREDICTED BY RF-SCORE:    0.00 PKD
ROOT
HETATM    1  C   UNL     1      -9.650  13.738  68.436  1.00  0.00    -0.206 C  
HETATM    2  N   UNL     1     -10.979  14.340  68.910  1.00  0.00    -0.250 N  
HETATM    3  C   UNL     1     -11.940  13.185  69.191  1.00  0.00    -0.281 C  
HETATM    4  C   UNL     1     -10.717  15.119  70.193  1.00  0.00    -0.221 C  
ENDROOT
BRANCH   2   5
HETATM    5  C   UNL     1     -11.520  15.255  67.785  1.00  0.00    -0.303 C  
BRANCH   5   6
HETATM    6  C   UNL     1     -11.288  14.705  66.366  1.00  0.00    -0.348 C  
BRANCH   6   7
HETATM    7  O   UNL     1     -12.441  14.048  65.808  1.00  0.00    -0.463 OA 
BRANCH   7   8
HETATM    8  C   UNL     1     -12.500  14.065  64.446  1.00  0.00    -0.289 C  
HETATM    9  O   UNL     1     -12.518  15.091  63.783  1.00  0.00    -0.745 OA 
BRANCH   8  10
HETATM   10  C   UNL     1     -12.390  12.676  63.873  1.00  0.00    -0.546 C  
BRANCH  10  11
HETATM   11  C   UNL     1     -10.950  12.250  63.656  1.00  0.00    -0.532 C  
BRANCH  11  12
HETATM   12  C   UNL     1     -10.458  11.306  64.720  1.00  0.00    -0.323 C  
HETATM   13  O   UNL     1     -10.614  11.472  65.923  1.00  0.00    -0.254 OA 
BRANCH  12  14
HETATM   14  O   UNL     1      -9.703  10.304  64.190  1.00  0.00    -0.303 OA 
BRANCH  14  15
HETATM   15  C   UNL     1      -9.131   9.406  65.160  1.00  0.00    -0.225 C  
BRANCH  15  16
HETATM   16  C   UNL     1      -7.633   9.650  65.417  1.00  0.00    -0.111 C  
BRANCH  16  17
HETATM   17  N   UNL     1      -6.772   8.362  65.374  1.00  0.00    -0.056 N  
HETATM   18  C   UNL     1      -5.902   8.306  64.124  1.00  0.00    -0.065 C  
HETATM   19  C   UNL     1      -7.719   7.156  65.352  1.00  0.00    -0.111 C  
HETATM   20  C   UNL     1      -5.896   8.244  66.619  1.00  0.00    -0.044 C  
ENDBRANCH  16  17
ENDBRANCH  15  16
ENDBRANCH  14  15
ENDBRANCH  12  14
ENDBRANCH  11  12
ENDBRANCH  10  11
ENDBRANCH   8  10
ENDBRANCH   7   8
ENDBRANCH   6   7
ENDBRANCH   5   6
ENDBRANCH   2   5
TORSDOF 11
ENDMDL
MODEL      128
REMARK 921   NORMALIZED FREE ENERGY PREDICTED BY IDOCK:   -3.35 KCAL/MOL
REMARK 922        TOTAL FREE ENERGY PREDICTED BY IDOCK:   -6.25 KCAL/MOL
REMARK 923 INTER-LIGAND FREE ENERGY PREDICTED BY IDOCK:   -5.45 KCAL/MOL
REMARK 924 INTRA-LIGAND FREE ENERGY PREDICTED BY IDOCK:   -0.80 KCAL/MOL
REMARK 927      BINDING AFFINITY PREDICTED BY RF-SCORE:    0.00 PKD
ROOT
HETATM    1  C   UNL     1     -10.342   6.138  66.778  1.00  0.00    -0.231 C  
HETATM    2  N   UNL     1      -9.309   5.947  67.896  1.00  0.00    -0.108 N  
HETATM    3  C   UNL     1      -8.123   5.183  67.309  1.00  0.00    -0.104 C  
HETATM    4  C   UNL     1      -8.857   7.325  68.365  1.00  0.00    -0.128 C  
ENDROOT
BRANCH   2   5
HETATM    5  C   UNL     1      -9.981   5.146  69.037  1.00  0.00    -0.195 C  
BRANCH   5   6
HETATM    6  C   UNL     1     -10.335   5.995  70.272  1.00  0.00    -0.222 C  
BRANCH   6   7
HETATM    7  O   UNL     1     -11.720   6.386  70.324  1.00  0.00    -0.411 OA 
BRANCH   7   8
HETATM    8  C   UNL     1     -12.214   6.558  71.582  1.00  0.00    -0.300 C  
HETATM    9  O   UNL     1     -11.759   6.000  72.570  1.00  0.00    -0.292 OA 
BRANCH   8  10
HETATM   10  C   UNL     1     -13.280   7.623  71.614  1.00  0.00    -0.395 C  
BRANCH  10  11
HETATM   11  C   UNL     1     -12.838   8.864  72.368  1.00  0.00    -0.446 C  
BRANCH  11  12
HETATM   12  C   UNL     1     -11.930   9.744  71.551  1.00  0.00    -0.407 C  
HETATM   13  O   UNL     1     -10.709   9.658  71.534  1.00  0.00    -0.301 OA 
BRANCH  12  14
HETATM   14  O   UNL     1     -12.623  10.737  70.929  1.00  0.00    -0.341 OA 
BRANCH  14  15
HETATM   15  C   UNL     1     -12.253  10.958  69.555  1.00  0.00    -0.261 C  
BRANCH  15  16
HETATM   16  C   UNL     1     -11.773  12.391  69.268  1.00  0.00    -0.329 C  
BRANCH  16  17
HETATM   17  N   UNL     1     -10.774  12.493  68.088  1.00  0.00    -0.219 N  
HETATM   18  C   UNL     1     -11.376  11.964  66.792  1.00  0.00    -0.330 C  
HETATM   19  C   UNL     1      -9.546  11.640  68.428  1.00  0.00    -0.195 C  
HETATM   20  C   UNL     1     -10.302  13.932  67.889  1.00  0.00    -0.240 C  
ENDBRANCH  16  17
ENDBRANCH  15  16
ENDBRANCH  14  15
ENDBRANCH  12  14
ENDBRANCH  11  12
ENDBRANCH  10  11
ENDBRANCH   8  10
ENDBRANCH   7   8
ENDBRANCH   6   7
ENDBRANCH   5   6
ENDBRANCH   2   5
TORSDOF 11
ENDMDL
MODEL      129
REMARK 921   NORMALIZED FREE ENERGY PREDICTED BY IDOCK:   -3.34 KCAL/MOL
REMARK 922        TOTAL FREE ENERGY PREDICTED BY IDOCK:   -6.24 KCAL/MOL
REMARK 923 INTER-LIGAND FREE ENERGY PREDICTED BY IDOCK:   -5.65 KCAL/MOL
REMARK 924 INTRA-LIGAND FREE ENERGY PREDICTED BY IDOCK:   -0.59 KCAL/MOL
REMARK 927      BINDING AFFINITY PREDICTED BY RF-SCORE:    0.00 PKD
ROOT
HETATM    1  C   UNL     1     -10.750  15.939  67.634  1.00  0.00    -0.312 C  
HETATM    2  N   UNL     1     -10.050  16.593  66.436  1.00  0.00    -0.301 N  
HETATM    3  C   UNL     1     -10.273  18.101  66.533  1.00  0.00    -0.391 C  
HETATM    4  C   UNL     1      -8.561  16.281  66.527  1.00  0.00    -0.297 C  
ENDROOT
BRANCH   2   5
HETATM    5  C   UNL     1     -10.677  16.017  65.143  1.00  0.00    -0.409 C  
BRANCH   5   6
HETATM    6  C   UNL     1     -10.576  14.485  65.028  1.00  0.00    -0.437 C  
BRANCH   6   7
HETATM    7  O   UNL     1     -11.850  13.834  64.870  1.00  0.00    -0.344 OA 
BRANCH   7   8
HETATM    8  C   UNL     1     -11.910  12.946  63.839  1.00  0.00    -0.473 C  
HETATM    9  O   UNL     1     -12.933  12.698  63.217  1.00  0.00    -0.595 OA 
BRANCH   8  10
HETATM   10  C   UNL     1     -10.541  12.431  63.476  1.00  0.00    -0.451 C  
BRANCH  10  11
HETATM   11  C   UNL     1     -10.320  10.999  63.928  1.00  0.00    -0.436 C  
BRANCH  11  12
HETATM   12  C   UNL     1      -8.983  10.800  64.590  1.00  0.00    -0.175 C  
HETATM   13  O   UNL     1      -8.022  10.253  64.066  1.00  0.00    -0.156 OA 
BRANCH  12  14
HETATM   14  O   UNL     1      -9.008  11.189  65.895  1.00  0.00    -0.194 OA 
BRANCH  14  15
HETATM   15  C   UNL     1      -9.072  10.107  66.843  1.00  0.00    -0.142 C  
BRANCH  15  16
HETATM   16  C   UNL     1      -7.732   9.821  67.543  1.00  0.00    -0.095 C  
BRANCH  16  17
HETATM   17  N   UNL     1      -7.846   8.837  68.736  1.00  0.00    -0.100 N  
HETATM   18  C   UNL     1      -7.780   9.563  70.074  1.00  0.00    -0.142 C  
HETATM   19  C   UNL     1      -6.664   7.862  68.662  1.00  0.00    -0.058 C  
HETATM   20  C   UNL     1      -9.132   8.018  68.654  1.00  0.00    -0.140 C  
ENDBRANCH  16  17
ENDBRANCH  15  16
ENDBRANCH  14  15
ENDBRANCH  12  14
ENDBRANCH  11  12
ENDBRANCH  10  11
ENDBRANCH   8  10
ENDBRANCH   7   8
ENDBRANCH   6   7
ENDBRANCH   5   6
ENDBRANCH   2   5
TORSDOF 11
ENDMDL
MODEL      130
REMARK 921   NORMALIZED FREE ENERGY PREDICTED BY IDOCK:   -3.34 KCAL/MOL
REMARK 922        TOTAL FREE ENERGY PREDICTED BY IDOCK:   -6.24 KCAL/MOL
REMARK 923 INTER-LIGAND FREE ENERGY PREDICTED BY IDOCK:   -5.37 KCAL/MOL
REMARK 924 INTRA-LIGAND FREE ENERGY PREDICTED BY IDOCK:   -0.87 KCAL/MOL
REMARK 927      BINDING AFFINITY PREDICTED BY RF-SCORE:    0.00 PKD
ROOT
HETATM    1  C   UNL     1      -8.506   6.044  67.650  1.00  0.00    -0.107 C  
HETATM    2  N   UNL     1      -9.842   5.304  67.799  1.00  0.00    -0.143 N  
HETATM    3  C   UNL     1     -10.505   5.259  66.423  1.00  0.00    -0.292 C  
HETATM    4  C   UNL     1      -9.549   3.888  68.280  1.00  0.00    -0.114 C  
ENDROOT
BRANCH   2   5
HETATM    5  C   UNL     1     -10.712   6.084  68.813  1.00  0.00    -0.308 C  
BRANCH   5   6
HETATM    6  C   UNL     1     -10.172   7.486  69.152  1.00  0.00    -0.202 C  
BRANCH   6   7
HETATM    7  O   UNL     1     -11.147   8.344  69.772  1.00  0.00    -0.185 OA 
BRANCH   7   8
HETATM    8  C   UNL     1     -10.621   9.401  70.452  1.00  0.00    -0.261 C  
HETATM    9  O   UNL     1      -9.569   9.352  71.072  1.00  0.00    -0.268 OA 
BRANCH   8  10
HETATM   10  C   UNL     1     -11.420  10.658  70.219  1.00  0.00    -0.422 C  
BRANCH  10  11
HETATM   11  C   UNL     1     -11.608  10.961  68.744  1.00  0.00    -0.378 C  
BRANCH  11  12
HETATM   12  C   UNL     1     -10.330  11.393  68.075  1.00  0.00    -0.184 C  
HETATM   13  O   UNL     1      -9.665  10.690  67.327  1.00  0.00    -0.164 OA 
BRANCH  12  14
HETATM   14  O   UNL     1      -9.931  12.622  68.505  1.00  0.00    -0.219 OA 
BRANCH  14  15
HETATM   15  C   UNL     1     -10.667  13.724  67.939  1.00  0.00    -0.247 C  
BRANCH  15  16
HETATM   16  C   UNL     1     -10.068  14.254  66.625  1.00  0.00    -0.273 C  
BRANCH  16  17
HETATM   17  N   UNL     1     -11.030  14.158  65.413  1.00  0.00    -0.313 N  
HETATM   18  C   UNL     1     -11.186  15.501  64.709  1.00  0.00    -0.390 C  
HETATM   19  C   UNL     1     -12.406  13.726  65.932  1.00  0.00    -0.476 C  
HETATM   20  C   UNL     1     -10.555  13.103  64.416  1.00  0.00    -0.421 C  
ENDBRANCH  16  17
ENDBRANCH  15  16
ENDBRANCH  14  15
ENDBRANCH  12  14
ENDBRANCH  11  12
ENDBRANCH  10  11
ENDBRANCH   8  10
ENDBRANCH   7   8
ENDBRANCH   6   7
ENDBRANCH   5   6
ENDBRANCH   2   5
TORSDOF 11
ENDMDL
MODEL      131
REMARK 921   NORMALIZED FREE ENERGY PREDICTED BY IDOCK:   -3.33 KCAL/MOL
REMARK 922        TOTAL FREE ENERGY PREDICTED BY IDOCK:   -6.23 KCAL/MOL
REMARK 923 INTER-LIGAND FREE ENERGY PREDICTED BY IDOCK:   -5.69 KCAL/MOL
REMARK 924 INTRA-LIGAND FREE ENERGY PREDICTED BY IDOCK:   -0.54 KCAL/MOL
REMARK 927      BINDING AFFINITY PREDICTED BY RF-SCORE:    0.00 PKD
ROOT
HETATM    1  C   UNL     1     -12.130  15.124  72.693  1.00  0.00    -0.385 C  
HETATM    2  N   UNL     1     -13.031  14.506  71.617  1.00  0.00    -0.319 N  
HETATM    3  C   UNL     1     -14.408  15.157  71.732  1.00  0.00    -0.597 C  
HETATM    4  C   UNL     1     -12.424  14.816  70.253  1.00  0.00    -0.340 C  
ENDROOT
BRANCH   2   5
HETATM    5  C   UNL     1     -13.109  12.982  71.874  1.00  0.00    -0.384 C  
BRANCH   5   6
HETATM    6  C   UNL     1     -12.312  12.135  70.865  1.00  0.00    -0.273 C  
BRANCH   6   7
HETATM    7  O   UNL     1     -12.830  10.803  70.694  1.00  0.00    -0.340 OA 
BRANCH   7   8
HETATM    8  C   UNL     1     -12.430   9.912  71.642  1.00  0.00    -0.415 C  
HETATM    9  O   UNL     1     -13.173   9.452  72.496  1.00  0.00    -0.426 OA 
BRANCH   8  10
HETATM   10  C   UNL     1     -11.010   9.462  71.410  1.00  0.00    -0.443 C  
BRANCH  10  11
HETATM   11  C   UNL     1     -10.790   8.011  71.794  1.00  0.00    -0.297 C  
BRANCH  11  12
HETATM   12  C   UNL     1      -9.646   7.833  72.756  1.00  0.00    -0.221 C  
HETATM   13  O   UNL     1      -8.765   8.661  72.950  1.00  0.00    -0.384 OA 
BRANCH  12  14
HETATM   14  O   UNL     1      -9.635   6.583  73.295  1.00  0.00    -0.148 OA 
BRANCH  14  15
HETATM   15  C   UNL     1      -9.587   5.514  72.330  1.00  0.00    -0.150 C  
BRANCH  15  16
HETATM   16  C   UNL     1      -8.280   5.473  71.520  1.00  0.00    -0.119 C  
BRANCH  16  17
HETATM   17  N   UNL     1      -8.460   4.967  70.066  1.00  0.00    -0.090 N  
HETATM   18  C   UNL     1      -8.142   6.055  69.047  1.00  0.00    -0.107 C  
HETATM   19  C   UNL     1      -9.925   4.554  69.883  1.00  0.00    -0.203 C  
HETATM   20  C   UNL     1      -7.592   3.739  69.799  1.00  0.00    -0.052 C  
ENDBRANCH  16  17
ENDBRANCH  15  16
ENDBRANCH  14  15
ENDBRANCH  12  14
ENDBRANCH  11  12
ENDBRANCH  10  11
ENDBRANCH   8  10
ENDBRANCH   7   8
ENDBRANCH   6   7
ENDBRANCH   5   6
ENDBRANCH   2   5
TORSDOF 11
ENDMDL
MODEL      132
REMARK 921   NORMALIZED FREE ENERGY PREDICTED BY IDOCK:   -3.33 KCAL/MOL
REMARK 922        TOTAL FREE ENERGY PREDICTED BY IDOCK:   -6.23 KCAL/MOL
REMARK 923 INTER-LIGAND FREE ENERGY PREDICTED BY IDOCK:   -5.37 KCAL/MOL
REMARK 924 INTRA-LIGAND FREE ENERGY PREDICTED BY IDOCK:   -0.86 KCAL/MOL
REMARK 927      BINDING AFFINITY PREDICTED BY RF-SCORE:    0.00 PKD
ROOT
HETATM    1  C   UNL     1      -8.053   9.949  64.285  1.00  0.00    -0.152 C  
HETATM    2  N   UNL     1      -9.120  10.406  65.288  1.00  0.00    -0.181 N  
HETATM    3  C   UNL     1     -10.229  11.106  64.503  1.00  0.00    -0.324 C  
HETATM    4  C   UNL     1      -9.678   9.170  65.984  1.00  0.00    -0.287 C  
ENDROOT
BRANCH   2   5
HETATM    5  C   UNL     1      -8.451  11.374  66.293  1.00  0.00    -0.138 C  
BRANCH   5   6
HETATM    6  C   UNL     1      -8.854  11.132  67.759  1.00  0.00    -0.135 C  
BRANCH   6   7
HETATM    7  O   UNL     1      -9.930  11.977  68.207  1.00  0.00    -0.194 OA 
BRANCH   7   8
HETATM    8  C   UNL     1     -11.054  11.309  68.591  1.00  0.00    -0.232 C  
HETATM    9  O   UNL     1     -12.084  11.284  67.933  1.00  0.00    -0.634 OA 
BRANCH   8  10
HETATM   10  C   UNL     1     -10.814  10.498  69.838  1.00  0.00    -0.334 C  
BRANCH  10  11
HETATM   11  C   UNL     1     -12.069  10.333  70.674  1.00  0.00    -0.433 C  
BRANCH  11  12
HETATM   12  C   UNL     1     -11.929   9.262  71.723  1.00  0.00    -0.385 C  
HETATM   13  O   UNL     1     -12.856   8.805  72.379  1.00  0.00    -0.385 OA 
BRANCH  12  14
HETATM   14  O   UNL     1     -10.623   8.950  71.947  1.00  0.00    -0.327 OA 
BRANCH  14  15
HETATM   15  C   UNL     1     -10.334   7.538  71.947  1.00  0.00    -0.193 C  
BRANCH  15  16
HETATM   16  C   UNL     1      -9.374   7.106  70.825  1.00  0.00    -0.160 C  
BRANCH  16  17
HETATM   17  N   UNL     1      -9.937   5.983  69.917  1.00  0.00    -0.169 N  
HETATM   18  C   UNL     1     -11.299   6.352  69.341  1.00  0.00    -0.377 C  
HETATM   19  C   UNL     1     -10.105   4.720  70.770  1.00  0.00    -0.216 C  
HETATM   20  C   UNL     1      -8.968   5.655  68.783  1.00  0.00    -0.115 C  
ENDBRANCH  16  17
ENDBRANCH  15  16
ENDBRANCH  14  15
ENDBRANCH  12  14
ENDBRANCH  11  12
ENDBRANCH  10  11
ENDBRANCH   8  10
ENDBRANCH   7   8
ENDBRANCH   6   7
ENDBRANCH   5   6
ENDBRANCH   2   5
TORSDOF 11
ENDMDL
MODEL      133
REMARK 921   NORMALIZED FREE ENERGY PREDICTED BY IDOCK:   -3.33 KCAL/MOL
REMARK 922        TOTAL FREE ENERGY PREDICTED BY IDOCK:   -6.22 KCAL/MOL
REMARK 923 INTER-LIGAND FREE ENERGY PREDICTED BY IDOCK:   -5.54 KCAL/MOL
REMARK 924 INTRA-LIGAND FREE ENERGY PREDICTED BY IDOCK:   -0.68 KCAL/MOL
REMARK 927      BINDING AFFINITY PREDICTED BY RF-SCORE:    0.00 PKD
ROOT
HETATM    1  C   UNL     1     -10.444   8.345  68.771  1.00  0.00    -0.178 C  
HETATM    2  N   UNL     1      -9.954   7.689  67.473  1.00  0.00    -0.163 N  
HETATM    3  C   UNL     1      -8.621   7.005  67.771  1.00  0.00    -0.122 C  
HETATM    4  C   UNL     1     -10.986   6.651  67.047  1.00  0.00    -0.393 C  
ENDROOT
BRANCH   2   5
HETATM    5  C   UNL     1      -9.787   8.800  66.409  1.00  0.00    -0.282 C  
BRANCH   5   6
HETATM    6  C   UNL     1      -9.916  10.228  66.970  1.00  0.00    -0.201 C  
BRANCH   6   7
HETATM    7  O   UNL     1     -10.818  11.063  66.221  1.00  0.00    -0.247 OA 
BRANCH   7   8
HETATM    8  C   UNL     1     -10.564  12.398  66.313  1.00  0.00    -0.249 C  
HETATM    9  O   UNL     1      -9.440  12.878  66.277  1.00  0.00    -0.254 OA 
BRANCH   8  10
HETATM   10  C   UNL     1     -11.839  13.202  66.313  1.00  0.00    -0.455 C  
BRANCH  10  11
HETATM   11  C   UNL     1     -11.637  14.611  66.839  1.00  0.00    -0.374 C  
BRANCH  11  12
HETATM   12  C   UNL     1     -11.841  14.708  68.328  1.00  0.00    -0.298 C  
HETATM   13  O   UNL     1     -12.005  13.750  69.071  1.00  0.00    -0.334 OA 
BRANCH  12  14
HETATM   14  O   UNL     1     -11.950  16.003  68.734  1.00  0.00    -0.340 OA 
BRANCH  14  15
HETATM   15  C   UNL     1     -10.773  16.532  69.375  1.00  0.00    -0.330 C  
BRANCH  15  16
HETATM   16  C   UNL     1      -9.972  17.501  68.487  1.00  0.00    -0.344 C  
BRANCH  16  17
HETATM   17  N   UNL     1      -8.593  16.949  68.043  1.00  0.00    -0.209 N  
HETATM   18  C   UNL     1      -8.577  16.603  66.559  1.00  0.00    -0.285 C  
HETATM   19  C   UNL     1      -8.315  15.667  68.836  1.00  0.00    -0.210 C  
HETATM   20  C   UNL     1      -7.476  17.943  68.355  1.00  0.00    -0.272 C  
ENDBRANCH  16  17
ENDBRANCH  15  16
ENDBRANCH  14  15
ENDBRANCH  12  14
ENDBRANCH  11  12
ENDBRANCH  10  11
ENDBRANCH   8  10
ENDBRANCH   7   8
ENDBRANCH   6   7
ENDBRANCH   5   6
ENDBRANCH   2   5
TORSDOF 11
ENDMDL
MODEL      134
REMARK 921   NORMALIZED FREE ENERGY PREDICTED BY IDOCK:   -3.32 KCAL/MOL
REMARK 922        TOTAL FREE ENERGY PREDICTED BY IDOCK:   -6.21 KCAL/MOL
REMARK 923 INTER-LIGAND FREE ENERGY PREDICTED BY IDOCK:   -5.64 KCAL/MOL
REMARK 924 INTRA-LIGAND FREE ENERGY PREDICTED BY IDOCK:   -0.56 KCAL/MOL
REMARK 927      BINDING AFFINITY PREDICTED BY RF-SCORE:    0.00 PKD
ROOT
HETATM    1  C   UNL     1     -10.368  14.443  68.572  1.00  0.00    -0.248 C  
HETATM    2  N   UNL     1     -10.341  15.213  67.246  1.00  0.00    -0.257 N  
HETATM    3  C   UNL     1     -10.492  16.700  67.567  1.00  0.00    -0.317 C  
HETATM    4  C   UNL     1      -8.994  14.962  66.578  1.00  0.00    -0.253 C  
ENDROOT
BRANCH   2   5
HETATM    5  C   UNL     1     -11.515  14.708  66.373  1.00  0.00    -0.347 C  
BRANCH   5   6
HETATM    6  C   UNL     1     -12.224  13.464  66.940  1.00  0.00    -0.289 C  
BRANCH   6   7
HETATM    7  O   UNL     1     -12.321  12.378  66.000  1.00  0.00    -0.627 OA 
BRANCH   7   8
HETATM    8  C   UNL     1     -11.136  11.999  65.445  1.00  0.00    -0.320 C  
HETATM    9  O   UNL     1     -10.762  12.357  64.338  1.00  0.00    -0.297 OA 
BRANCH   8  10
HETATM   10  C   UNL     1     -10.296  11.217  66.422  1.00  0.00    -0.291 C  
BRANCH  10  11
HETATM   11  C   UNL     1     -11.134  10.359  67.352  1.00  0.00    -0.297 C  
BRANCH  11  12
HETATM   12  C   UNL     1     -10.813  10.595  68.804  1.00  0.00    -0.229 C  
HETATM   13  O   UNL     1      -9.696  10.844  69.237  1.00  0.00    -0.170 OA 
BRANCH  12  14
HETATM   14  O   UNL     1     -11.895  10.371  69.598  1.00  0.00    -0.241 OA 
BRANCH  14  15
HETATM   15  C   UNL     1     -11.603   9.689  70.833  1.00  0.00    -0.344 C  
BRANCH  15  16
HETATM   16  C   UNL     1     -11.826   8.168  70.765  1.00  0.00    -0.159 C  
BRANCH  16  17
HETATM   17  N   UNL     1     -10.773   7.344  71.551  1.00  0.00    -0.222 N  
HETATM   18  C   UNL     1     -11.430   6.376  72.527  1.00  0.00    -0.247 C  
HETATM   19  C   UNL     1      -9.907   8.321  72.355  1.00  0.00    -0.304 C  
HETATM   20  C   UNL     1      -9.854   6.578  70.602  1.00  0.00    -0.183 C  
ENDBRANCH  16  17
ENDBRANCH  15  16
ENDBRANCH  14  15
ENDBRANCH  12  14
ENDBRANCH  11  12
ENDBRANCH  10  11
ENDBRANCH   8  10
ENDBRANCH   7   8
ENDBRANCH   6   7
ENDBRANCH   5   6
ENDBRANCH   2   5
TORSDOF 11
ENDMDL
MODEL      135
REMARK 921   NORMALIZED FREE ENERGY PREDICTED BY IDOCK:   -3.32 KCAL/MOL
REMARK 922        TOTAL FREE ENERGY PREDICTED BY IDOCK:   -6.20 KCAL/MOL
REMARK 923 INTER-LIGAND FREE ENERGY PREDICTED BY IDOCK:   -5.52 KCAL/MOL
REMARK 924 INTRA-LIGAND FREE ENERGY PREDICTED BY IDOCK:   -0.68 KCAL/MOL
REMARK 927      BINDING AFFINITY PREDICTED BY RF-SCORE:    0.00 PKD
ROOT
HETATM    1  C   UNL     1      -9.164   9.847  70.005  1.00  0.00    -0.183 C  
HETATM    2  N   UNL     1     -10.645   9.448  69.964  1.00  0.00    -0.220 N  
HETATM    3  C   UNL     1     -10.735   8.053  69.348  1.00  0.00    -0.159 C  
HETATM    4  C   UNL     1     -11.168   9.418  71.395  1.00  0.00    -0.381 C  
ENDROOT
BRANCH   2   5
HETATM    5  C   UNL     1     -11.398  10.490  69.102  1.00  0.00    -0.257 C  
BRANCH   5   6
HETATM    6  C   UNL     1     -11.914  11.703  69.896  1.00  0.00    -0.340 C  
BRANCH   6   7
HETATM    7  O   UNL     1     -11.426  12.965  69.402  1.00  0.00    -0.273 OA 
BRANCH   7   8
HETATM    8  C   UNL     1     -11.950  14.058  70.024  1.00  0.00    -0.339 C  
HETATM    9  O   UNL     1     -12.429  14.033  71.148  1.00  0.00    -0.334 OA 
BRANCH   8  10
HETATM   10  C   UNL     1     -11.728  15.310  69.215  1.00  0.00    -0.359 C  
BRANCH  10  11
HETATM   11  C   UNL     1     -10.459  16.041  69.611  1.00  0.00    -0.300 C  
BRANCH  11  12
HETATM   12  C   UNL     1      -9.347  15.854  68.613  1.00  0.00    -0.212 C  
HETATM   13  O   UNL     1      -9.482  15.341  67.511  1.00  0.00    -0.200 OA 
BRANCH  12  14
HETATM   14  O   UNL     1      -8.141  16.209  69.136  1.00  0.00    -0.229 OA 
BRANCH  14  15
HETATM   15  C   UNL     1      -7.391  17.142  68.335  1.00  0.00    -0.220 C  
BRANCH  15  16
HETATM   16  C   UNL     1      -7.603  18.611  68.740  1.00  0.00    -0.298 C  
BRANCH  16  17
HETATM   17  N   UNL     1      -8.241  19.483  67.629  1.00  0.00    -0.289 N  
HETATM   18  C   UNL     1      -8.143  18.815  66.262  1.00  0.00    -0.251 C  
HETATM   19  C   UNL     1      -7.477  20.811  67.567  1.00  0.00    -0.289 C  
HETATM   20  C   UNL     1      -9.701  19.798  67.947  1.00  0.00    -0.389 C  
ENDBRANCH  16  17
ENDBRANCH  15  16
ENDBRANCH  14  15
ENDBRANCH  12  14
ENDBRANCH  11  12
ENDBRANCH  10  11
ENDBRANCH   8  10
ENDBRANCH   7   8
ENDBRANCH   6   7
ENDBRANCH   5   6
ENDBRANCH   2   5
TORSDOF 11
ENDMDL
MODEL      136
REMARK 921   NORMALIZED FREE ENERGY PREDICTED BY IDOCK:   -3.31 KCAL/MOL
REMARK 922        TOTAL FREE ENERGY PREDICTED BY IDOCK:   -6.20 KCAL/MOL
REMARK 923 INTER-LIGAND FREE ENERGY PREDICTED BY IDOCK:   -5.43 KCAL/MOL
REMARK 924 INTRA-LIGAND FREE ENERGY PREDICTED BY IDOCK:   -0.77 KCAL/MOL
REMARK 927      BINDING AFFINITY PREDICTED BY RF-SCORE:    0.00 PKD
ROOT
HETATM    1  C   UNL     1     -11.509  15.508  71.997  1.00  0.00    -0.428 C  
HETATM    2  N   UNL     1     -12.402  14.993  70.862  1.00  0.00    -0.306 N  
HETATM    3  C   UNL     1     -13.839  15.408  71.175  1.00  0.00    -0.365 C  
HETATM    4  C   UNL     1     -11.945  15.648  69.564  1.00  0.00    -0.345 C  
ENDROOT
BRANCH   2   5
HETATM    5  C   UNL     1     -12.265  13.453  70.805  1.00  0.00    -0.328 C  
BRANCH   5   6
HETATM    6  C   UNL     1     -12.226  12.881  69.375  1.00  0.00    -0.091 C  
BRANCH   6   7
HETATM    7  O   UNL     1     -10.948  12.327  69.011  1.00  0.00    -0.233 OA 
BRANCH   7   8
HETATM    8  C   UNL     1     -10.796  12.079  67.680  1.00  0.00    -0.231 C  
HETATM    9  O   UNL     1     -11.701  12.177  66.865  1.00  0.00    -0.483 OA 
BRANCH   8  10
HETATM   10  C   UNL     1      -9.353  11.818  67.330  1.00  0.00    -0.174 C  
BRANCH  10  11
HETATM   11  C   UNL     1      -8.392  12.437  68.328  1.00  0.00    -0.169 C  
BRANCH  11  12
HETATM   12  C   UNL     1      -7.836  13.754  67.855  1.00  0.00    -0.159 C  
HETATM   13  O   UNL     1      -6.758  13.892  67.294  1.00  0.00    -0.237 OA 
BRANCH  12  14
HETATM   14  O   UNL     1      -8.622  14.796  68.243  1.00  0.00    -0.151 OA 
BRANCH  14  15
HETATM   15  C   UNL     1      -8.166  16.089  67.800  1.00  0.00    -0.149 C  
BRANCH  15  16
HETATM   16  C   UNL     1      -9.028  17.255  68.312  1.00  0.00    -0.262 C  
BRANCH  16  17
HETATM   17  N   UNL     1      -9.544  18.193  67.191  1.00  0.00    -0.271 N  
HETATM   18  C   UNL     1      -8.410  18.985  66.552  1.00  0.00    -0.305 C  
HETATM   19  C   UNL     1     -10.528  19.188  67.818  1.00  0.00    -0.419 C  
HETATM   20  C   UNL     1     -10.295  17.408  66.118  1.00  0.00    -0.327 C  
ENDBRANCH  16  17
ENDBRANCH  15  16
ENDBRANCH  14  15
ENDBRANCH  12  14
ENDBRANCH  11  12
ENDBRANCH  10  11
ENDBRANCH   8  10
ENDBRANCH   7   8
ENDBRANCH   6   7
ENDBRANCH   5   6
ENDBRANCH   2   5
TORSDOF 11
ENDMDL
MODEL      137
REMARK 921   NORMALIZED FREE ENERGY PREDICTED BY IDOCK:   -3.31 KCAL/MOL
REMARK 922        TOTAL FREE ENERGY PREDICTED BY IDOCK:   -6.19 KCAL/MOL
REMARK 923 INTER-LIGAND FREE ENERGY PREDICTED BY IDOCK:   -5.54 KCAL/MOL
REMARK 924 INTRA-LIGAND FREE ENERGY PREDICTED BY IDOCK:   -0.65 KCAL/MOL
REMARK 927      BINDING AFFINITY PREDICTED BY RF-SCORE:    0.00 PKD
ROOT
HETATM    1  C   UNL     1      -7.544  17.475  66.280  1.00  0.00    -0.308 C  
HETATM    2  N   UNL     1      -8.605  18.393  66.901  1.00  0.00    -0.263 N  
HETATM    3  C   UNL     1      -8.370  18.422  68.410  1.00  0.00    -0.308 C  
HETATM    4  C   UNL     1      -8.421  19.791  66.320  1.00  0.00    -0.361 C  
ENDROOT
BRANCH   2   5
HETATM    5  C   UNL     1      -9.999  17.812  66.563  1.00  0.00    -0.346 C  
BRANCH   5   6
HETATM    6  C   UNL     1     -10.495  16.755  67.566  1.00  0.00    -0.319 C  
BRANCH   6   7
HETATM    7  O   UNL     1     -10.237  15.401  67.151  1.00  0.00    -0.244 OA 
BRANCH   7   8
HETATM    8  C   UNL     1     -11.270  14.537  67.360  1.00  0.00    -0.327 C  
HETATM    9  O   UNL     1     -11.996  14.574  68.342  1.00  0.00    -0.321 OA 
BRANCH   8  10
HETATM   10  C   UNL     1     -11.487  13.641  66.168  1.00  0.00    -0.342 C  
BRANCH  10  11
HETATM   11  C   UNL     1     -11.586  12.176  66.552  1.00  0.00    -0.425 C  
BRANCH  11  12
HETATM   12  C   UNL     1     -10.404  11.709  67.359  1.00  0.00    -0.205 C  
HETATM   13  O   UNL     1      -9.264  11.602  66.926  1.00  0.00    -0.175 OA 
BRANCH  12  14
HETATM   14  O   UNL     1     -10.779  11.292  68.600  1.00  0.00    -0.185 OA 
BRANCH  14  15
HETATM   15  C   UNL     1      -9.933  10.277  69.174  1.00  0.00    -0.222 C  
BRANCH  15  16
HETATM   16  C   UNL     1     -10.680   8.981  69.531  1.00  0.00    -0.206 C  
BRANCH  16  17
HETATM   17  N   UNL     1     -10.222   7.747  68.712  1.00  0.00    -0.198 N  
HETATM   18  C   UNL     1     -10.520   7.914  67.227  1.00  0.00    -0.320 C  
HETATM   19  C   UNL     1     -10.995   6.525  69.220  1.00  0.00    -0.331 C  
HETATM   20  C   UNL     1      -8.733   7.474  68.913  1.00  0.00    -0.132 C  
ENDBRANCH  16  17
ENDBRANCH  15  16
ENDBRANCH  14  15
ENDBRANCH  12  14
ENDBRANCH  11  12
ENDBRANCH  10  11
ENDBRANCH   8  10
ENDBRANCH   7   8
ENDBRANCH   6   7
ENDBRANCH   5   6
ENDBRANCH   2   5
TORSDOF 11
ENDMDL
MODEL      138
REMARK 921   NORMALIZED FREE ENERGY PREDICTED BY IDOCK:   -3.30 KCAL/MOL
REMARK 922        TOTAL FREE ENERGY PREDICTED BY IDOCK:   -6.18 KCAL/MOL
REMARK 923 INTER-LIGAND FREE ENERGY PREDICTED BY IDOCK:   -5.64 KCAL/MOL
REMARK 924 INTRA-LIGAND FREE ENERGY PREDICTED BY IDOCK:   -0.53 KCAL/MOL
REMARK 927      BINDING AFFINITY PREDICTED BY RF-SCORE:    0.00 PKD
ROOT
HETATM    1  C   UNL     1     -11.129  14.257  65.901  1.00  0.00    -0.310 C  
HETATM    2  N   UNL     1     -10.970  13.141  66.942  1.00  0.00    -0.272 N  
HETATM    3  C   UNL     1     -10.986  11.805  66.199  1.00  0.00    -0.307 C  
HETATM    4  C   UNL     1      -9.629  13.330  67.640  1.00  0.00    -0.213 C  
ENDROOT
BRANCH   2   5
HETATM    5  C   UNL     1     -12.152  13.241  67.936  1.00  0.00    -0.228 C  
BRANCH   5   6
HETATM    6  C   UNL     1     -11.739  13.104  69.413  1.00  0.00    -0.327 C  
BRANCH   6   7
HETATM    7  O   UNL     1     -12.084  11.832  69.993  1.00  0.00    -0.319 OA 
BRANCH   7   8
HETATM    8  C   UNL     1     -12.678  11.908  71.216  1.00  0.00    -0.298 C  
HETATM    9  O   UNL     1     -13.068  12.954  71.715  1.00  0.00    -0.399 OA 
BRANCH   8  10
HETATM   10  C   UNL     1     -12.921  10.539  71.796  1.00  0.00    -0.582 C  
BRANCH  10  11
HETATM   11  C   UNL     1     -12.072   9.469  71.135  1.00  0.00    -0.429 C  
BRANCH  11  12
HETATM   12  C   UNL     1     -12.269   8.110  71.753  1.00  0.00    -0.319 C  
HETATM   13  O   UNL     1     -13.157   7.327  71.443  1.00  0.00    -0.376 OA 
BRANCH  12  14
HETATM   14  O   UNL     1     -11.415   7.906  72.793  1.00  0.00    -0.390 OA 
BRANCH  14  15
HETATM   15  C   UNL     1     -10.030   8.166  72.493  1.00  0.00    -0.302 C  
BRANCH  15  16
HETATM   16  C   UNL     1      -9.108   8.090  73.723  1.00  0.00    -0.174 C  
BRANCH  16  17
HETATM   17  N   UNL     1      -7.740   7.418  73.441  1.00  0.00    -0.093 N  
HETATM   18  C   UNL     1      -7.608   6.999  71.981  1.00  0.00    -0.091 C  
HETATM   19  C   UNL     1      -7.639   6.160  74.310  1.00  0.00    -0.092 C  
HETATM   20  C   UNL     1      -6.585   8.342  73.820  1.00  0.00    -0.122 C  
ENDBRANCH  16  17
ENDBRANCH  15  16
ENDBRANCH  14  15
ENDBRANCH  12  14
ENDBRANCH  11  12
ENDBRANCH  10  11
ENDBRANCH   8  10
ENDBRANCH   7   8
ENDBRANCH   6   7
ENDBRANCH   5   6
ENDBRANCH   2   5
TORSDOF 11
ENDMDL
MODEL      139
REMARK 921   NORMALIZED FREE ENERGY PREDICTED BY IDOCK:   -3.28 KCAL/MOL
REMARK 922        TOTAL FREE ENERGY PREDICTED BY IDOCK:   -6.14 KCAL/MOL
REMARK 923 INTER-LIGAND FREE ENERGY PREDICTED BY IDOCK:   -5.19 KCAL/MOL
REMARK 924 INTRA-LIGAND FREE ENERGY PREDICTED BY IDOCK:   -0.95 KCAL/MOL
REMARK 927      BINDING AFFINITY PREDICTED BY RF-SCORE:    0.00 PKD
ROOT
HETATM    1  C   UNL     1     -13.267   7.446  71.385  1.00  0.00    -0.339 C  
HETATM    2  N   UNL     1     -11.754   7.219  71.261  1.00  0.00    -0.283 N  
HETATM    3  C   UNL     1     -11.291   6.477  72.513  1.00  0.00    -0.262 C  
HETATM    4  C   UNL     1     -11.502   6.362  70.027  1.00  0.00    -0.428 C  
ENDROOT
BRANCH   2   5
HETATM    5  C   UNL     1     -11.071   8.603  71.146  1.00  0.00    -0.266 C  
BRANCH   5   6
HETATM    6  C   UNL     1      -9.679   8.668  71.800  1.00  0.00    -0.291 C  
BRANCH   6   7
HETATM    7  O   UNL     1      -8.614   8.923  70.865  1.00  0.00    -0.163 OA 
BRANCH   7   8
HETATM    8  C   UNL     1      -8.199   7.830  70.165  1.00  0.00    -0.123 C  
HETATM    9  O   UNL     1      -8.191   6.697  70.623  1.00  0.00    -0.121 OA 
BRANCH   8  10
HETATM   10  C   UNL     1      -7.900   8.177  68.730  1.00  0.00    -0.113 C  
BRANCH  10  11
HETATM   11  C   UNL     1      -8.801   9.276  68.198  1.00  0.00    -0.129 C  
BRANCH  11  12
HETATM   12  C   UNL     1      -9.990   8.737  67.448  1.00  0.00    -0.208 C  
HETATM   13  O   UNL     1     -10.021   7.653  66.880  1.00  0.00    -0.210 OA 
BRANCH  12  14
HETATM   14  O   UNL     1     -10.990   9.657  67.369  1.00  0.00    -0.247 OA 
BRANCH  14  15
HETATM   15  C   UNL     1     -10.545  11.027  67.358  1.00  0.00    -0.237 C  
BRANCH  15  16
HETATM   16  C   UNL     1     -11.115  11.852  66.190  1.00  0.00    -0.326 C  
BRANCH  16  17
HETATM   17  N   UNL     1     -11.505  13.301  66.577  1.00  0.00    -0.323 N  
HETATM   18  C   UNL     1     -12.626  13.838  65.695  1.00  0.00    -0.509 C  
HETATM   19  C   UNL     1     -10.274  14.193  66.383  1.00  0.00    -0.290 C  
HETATM   20  C   UNL     1     -11.917  13.387  68.046  1.00  0.00    -0.322 C  
ENDBRANCH  16  17
ENDBRANCH  15  16
ENDBRANCH  14  15
ENDBRANCH  12  14
ENDBRANCH  11  12
ENDBRANCH  10  11
ENDBRANCH   8  10
ENDBRANCH   7   8
ENDBRANCH   6   7
ENDBRANCH   5   6
ENDBRANCH   2   5
TORSDOF 11
ENDMDL
MODEL      140
REMARK 921   NORMALIZED FREE ENERGY PREDICTED BY IDOCK:   -3.27 KCAL/MOL
REMARK 922        TOTAL FREE ENERGY PREDICTED BY IDOCK:   -6.13 KCAL/MOL
REMARK 923 INTER-LIGAND FREE ENERGY PREDICTED BY IDOCK:   -5.41 KCAL/MOL
REMARK 924 INTRA-LIGAND FREE ENERGY PREDICTED BY IDOCK:   -0.71 KCAL/MOL
REMARK 927      BINDING AFFINITY PREDICTED BY RF-SCORE:    0.00 PKD
ROOT
HETATM    1  C   UNL     1     -11.575  15.526  68.229  1.00  0.00    -0.334 C  
HETATM    2  N   UNL     1     -11.408  14.007  68.369  1.00  0.00    -0.274 N  
HETATM    3  C   UNL     1      -9.920  13.688  68.234  1.00  0.00    -0.236 C  
HETATM    4  C   UNL     1     -11.902  13.601  69.753  1.00  0.00    -0.327 C  
ENDROOT
BRANCH   2   5
HETATM    5  C   UNL     1     -12.230  13.329  67.247  1.00  0.00    -0.205 C  
BRANCH   5   6
HETATM    6  C   UNL     1     -12.386  14.189  65.980  1.00  0.00    -0.445 C  
BRANCH   6   7
HETATM    7  O   UNL     1     -11.534  13.777  64.894  1.00  0.00    -0.321 OA 
BRANCH   7   8
HETATM    8  C   UNL     1     -11.887  12.597  64.312  1.00  0.00    -0.393 C  
HETATM    9  O   UNL     1     -12.878  12.458  63.611  1.00  0.00    -0.743 OA 
BRANCH   8  10
HETATM   10  C   UNL     1     -10.832  11.542  64.523  1.00  0.00    -0.390 C  
BRANCH  10  11
HETATM   11  C   UNL     1     -10.300  10.984  63.216  1.00  0.00    -0.317 C  
BRANCH  11  12
HETATM   12  C   UNL     1      -8.919  10.400  63.356  1.00  0.00    -0.229 C  
HETATM   13  O   UNL     1      -7.923  10.824  62.786  1.00  0.00    -0.137 OA 
BRANCH  12  14
HETATM   14  O   UNL     1      -8.933   9.257  64.097  1.00  0.00    -0.191 OA 
BRANCH  14  15
HETATM   15  C   UNL     1      -8.017   9.251  65.209  1.00  0.00    -0.107 C  
BRANCH  15  16
HETATM   16  C   UNL     1      -8.271   8.111  66.210  1.00  0.00    -0.114 C  
BRANCH  16  17
HETATM   17  N   UNL     1      -9.096   8.538  67.451  1.00  0.00    -0.133 N  
HETATM   18  C   UNL     1      -8.835   9.991  67.828  1.00  0.00    -0.125 C  
HETATM   19  C   UNL     1      -8.673   7.654  68.631  1.00  0.00    -0.128 C  
HETATM   20  C   UNL     1     -10.590   8.323  67.220  1.00  0.00    -0.265 C  
ENDBRANCH  16  17
ENDBRANCH  15  16
ENDBRANCH  14  15
ENDBRANCH  12  14
ENDBRANCH  11  12
ENDBRANCH  10  11
ENDBRANCH   8  10
ENDBRANCH   7   8
ENDBRANCH   6   7
ENDBRANCH   5   6
ENDBRANCH   2   5
TORSDOF 11
ENDMDL
MODEL      141
REMARK 921   NORMALIZED FREE ENERGY PREDICTED BY IDOCK:   -3.26 KCAL/MOL
REMARK 922        TOTAL FREE ENERGY PREDICTED BY IDOCK:   -6.12 KCAL/MOL
REMARK 923 INTER-LIGAND FREE ENERGY PREDICTED BY IDOCK:   -5.37 KCAL/MOL
REMARK 924 INTRA-LIGAND FREE ENERGY PREDICTED BY IDOCK:   -0.74 KCAL/MOL
REMARK 927      BINDING AFFINITY PREDICTED BY RF-SCORE:    0.00 PKD
ROOT
HETATM    1  C   UNL     1     -11.436   5.729  72.621  1.00  0.00    -0.287 C  
HETATM    2  N   UNL     1     -11.099   6.943  71.745  1.00  0.00    -0.238 N  
HETATM    3  C   UNL     1     -11.859   8.145  72.304  1.00  0.00    -0.382 C  
HETATM    4  C   UNL     1      -9.598   7.191  71.834  1.00  0.00    -0.149 C  
ENDROOT
BRANCH   2   5
HETATM    5  C   UNL     1     -11.541   6.626  70.296  1.00  0.00    -0.395 C  
BRANCH   5   6
HETATM    6  C   UNL     1     -10.422   6.786  69.252  1.00  0.00    -0.215 C  
BRANCH   6   7
HETATM    7  O   UNL     1     -10.623   7.897  68.357  1.00  0.00    -0.188 OA 
BRANCH   7   8
HETATM    8  C   UNL     1      -9.689   8.883  68.459  1.00  0.00    -0.161 C  
HETATM    9  O   UNL     1      -8.662   8.914  67.797  1.00  0.00    -0.125 OA 
BRANCH   8  10
HETATM   10  C   UNL     1     -10.154   9.990  69.370  1.00  0.00    -0.235 C  
BRANCH  10  11
HETATM   11  C   UNL     1     -11.621  10.324  69.176  1.00  0.00    -0.166 C  
BRANCH  11  12
HETATM   12  C   UNL     1     -11.887  11.805  69.213  1.00  0.00    -0.326 C  
HETATM   13  O   UNL     1     -12.090  12.450  70.233  1.00  0.00    -0.348 OA 
BRANCH  12  14
HETATM   14  O   UNL     1     -12.004  12.324  67.959  1.00  0.00    -0.425 OA 
BRANCH  14  15
HETATM   15  C   UNL     1     -11.861  13.755  67.886  1.00  0.00    -0.378 C  
BRANCH  15  16
HETATM   16  C   UNL     1     -10.414  14.219  67.642  1.00  0.00    -0.248 C  
BRANCH  16  17
HETATM   17  N   UNL     1     -10.229  15.756  67.705  1.00  0.00    -0.261 N  
HETATM   18  C   UNL     1      -8.901  16.139  68.346  1.00  0.00    -0.188 C  
HETATM   19  C   UNL     1     -11.359  16.337  68.563  1.00  0.00    -0.330 C  
HETATM   20  C   UNL     1     -10.331  16.380  66.314  1.00  0.00    -0.329 C  
ENDBRANCH  16  17
ENDBRANCH  15  16
ENDBRANCH  14  15
ENDBRANCH  12  14
ENDBRANCH  11  12
ENDBRANCH  10  11
ENDBRANCH   8  10
ENDBRANCH   7   8
ENDBRANCH   6   7
ENDBRANCH   5   6
ENDBRANCH   2   5
TORSDOF 11
ENDMDL
MODEL      142
REMARK 921   NORMALIZED FREE ENERGY PREDICTED BY IDOCK:   -3.26 KCAL/MOL
REMARK 922        TOTAL FREE ENERGY PREDICTED BY IDOCK:   -6.12 KCAL/MOL
REMARK 923 INTER-LIGAND FREE ENERGY PREDICTED BY IDOCK:   -5.64 KCAL/MOL
REMARK 924 INTRA-LIGAND FREE ENERGY PREDICTED BY IDOCK:   -0.48 KCAL/MOL
REMARK 927      BINDING AFFINITY PREDICTED BY RF-SCORE:    0.00 PKD
ROOT
HETATM    1  C   UNL     1      -8.245  16.302  66.346  1.00  0.00    -0.319 C  
HETATM    2  N   UNL     1      -9.370  16.961  67.155  1.00  0.00    -0.231 N  
HETATM    3  C   UNL     1      -8.911  17.043  68.610  1.00  0.00    -0.267 C  
HETATM    4  C   UNL     1      -9.594  18.363  66.602  1.00  0.00    -0.320 C  
ENDROOT
BRANCH   2   5
HETATM    5  C   UNL     1     -10.637  16.082  67.017  1.00  0.00    -0.302 C  
BRANCH   5   6
HETATM    6  C   UNL     1     -10.785  15.410  65.640  1.00  0.00    -0.369 C  
BRANCH   6   7
HETATM    7  O   UNL     1     -11.609  14.230  65.660  1.00  0.00    -0.333 OA 
BRANCH   7   8
HETATM    8  C   UNL     1     -10.986  13.110  66.122  1.00  0.00    -0.283 C  
HETATM    9  O   UNL     1      -9.886  12.740  65.737  1.00  0.00    -0.262 OA 
BRANCH   8  10
HETATM   10  C   UNL     1     -11.752  12.481  67.257  1.00  0.00    -0.431 C  
BRANCH  10  11
HETATM   11  C   UNL     1     -11.166  11.149  67.686  1.00  0.00    -0.364 C  
BRANCH  11  12
HETATM   12  C   UNL     1     -11.518  10.792  69.105  1.00  0.00    -0.298 C  
HETATM   13  O   UNL     1     -12.578  11.070  69.650  1.00  0.00    -0.238 OA 
BRANCH  12  14
HETATM   14  O   UNL     1     -10.461  10.233  69.757  1.00  0.00    -0.241 OA 
BRANCH  14  15
HETATM   15  C   UNL     1     -10.301   8.818  69.540  1.00  0.00    -0.213 C  
BRANCH  15  16
HETATM   16  C   UNL     1     -11.267   7.955  70.370  1.00  0.00    -0.234 C  
BRANCH  16  17
HETATM   17  N   UNL     1     -10.576   6.793  71.129  1.00  0.00    -0.222 N  
HETATM   18  C   UNL     1      -9.106   7.092  71.399  1.00  0.00    -0.143 C  
HETATM   19  C   UNL     1     -10.655   5.538  70.252  1.00  0.00    -0.287 C  
HETATM   20  C   UNL     1     -11.292   6.491  72.443  1.00  0.00    -0.279 C  
ENDBRANCH  16  17
ENDBRANCH  15  16
ENDBRANCH  14  15
ENDBRANCH  12  14
ENDBRANCH  11  12
ENDBRANCH  10  11
ENDBRANCH   8  10
ENDBRANCH   7   8
ENDBRANCH   6   7
ENDBRANCH   5   6
ENDBRANCH   2   5
TORSDOF 11
ENDMDL
MODEL      143
REMARK 921   NORMALIZED FREE ENERGY PREDICTED BY IDOCK:   -3.26 KCAL/MOL
REMARK 922        TOTAL FREE ENERGY PREDICTED BY IDOCK:   -6.11 KCAL/MOL
REMARK 923 INTER-LIGAND FREE ENERGY PREDICTED BY IDOCK:   -5.35 KCAL/MOL
REMARK 924 INTRA-LIGAND FREE ENERGY PREDICTED BY IDOCK:   -0.76 KCAL/MOL
REMARK 927      BINDING AFFINITY PREDICTED BY RF-SCORE:    0.00 PKD
ROOT
HETATM    1  C   UNL     1     -11.672  14.858  67.258  1.00  0.00    -0.291 C  
HETATM    2  N   UNL     1     -11.221  14.012  68.455  1.00  0.00    -0.251 N  
HETATM    3  C   UNL     1      -9.723  14.243  68.651  1.00  0.00    -0.213 C  
HETATM    4  C   UNL     1     -11.984  14.486  69.686  1.00  0.00    -0.328 C  
ENDROOT
BRANCH   2   5
HETATM    5  C   UNL     1     -11.520  12.528  68.133  1.00  0.00    -0.319 C  
BRANCH   5   6
HETATM    6  C   UNL     1     -11.596  12.218  66.627  1.00  0.00    -0.375 C  
BRANCH   6   7
HETATM    7  O   UNL     1     -10.324  11.881  66.043  1.00  0.00    -0.220 OA 
BRANCH   7   8
HETATM    8  C   UNL     1     -10.264  10.635  65.495  1.00  0.00    -0.262 C  
HETATM    9  O   UNL     1     -10.096  10.427  64.302  1.00  0.00    -0.334 OA 
BRANCH   8  10
HETATM   10  C   UNL     1     -10.280   9.565  66.557  1.00  0.00    -0.307 C  
BRANCH  10  11
HETATM   11  C   UNL     1      -8.889   9.220  67.055  1.00  0.00    -0.135 C  
BRANCH  11  12
HETATM   12  C   UNL     1      -8.742   9.416  68.540  1.00  0.00    -0.128 C  
HETATM   13  O   UNL     1      -7.740   9.859  69.087  1.00  0.00    -0.083 OA 
BRANCH  12  14
HETATM   14  O   UNL     1      -9.812   8.920  69.219  1.00  0.00    -0.169 OA 
BRANCH  14  15
HETATM   15  C   UNL     1     -10.127   9.619  70.438  1.00  0.00    -0.276 C  
BRANCH  15  16
HETATM   16  C   UNL     1     -11.634   9.680  70.742  1.00  0.00    -0.321 C  
BRANCH  16  17
HETATM   17  N   UNL     1     -12.122   8.579  71.719  1.00  0.00    -0.311 N  
HETATM   18  C   UNL     1     -13.305   9.052  72.556  1.00  0.00    -0.423 C  
HETATM   19  C   UNL     1     -10.968   8.242  72.671  1.00  0.00    -0.316 C  
HETATM   20  C   UNL     1     -12.495   7.303  70.968  1.00  0.00    -0.285 C  
ENDBRANCH  16  17
ENDBRANCH  15  16
ENDBRANCH  14  15
ENDBRANCH  12  14
ENDBRANCH  11  12
ENDBRANCH  10  11
ENDBRANCH   8  10
ENDBRANCH   7   8
ENDBRANCH   6   7
ENDBRANCH   5   6
ENDBRANCH   2   5
TORSDOF 11
ENDMDL
MODEL      144
REMARK 921   NORMALIZED FREE ENERGY PREDICTED BY IDOCK:   -3.26 KCAL/MOL
REMARK 922        TOTAL FREE ENERGY PREDICTED BY IDOCK:   -6.11 KCAL/MOL
REMARK 923 INTER-LIGAND FREE ENERGY PREDICTED BY IDOCK:   -5.49 KCAL/MOL
REMARK 924 INTRA-LIGAND FREE ENERGY PREDICTED BY IDOCK:   -0.62 KCAL/MOL
REMARK 927      BINDING AFFINITY PREDICTED BY RF-SCORE:    0.00 PKD
ROOT
HETATM    1  C   UNL     1      -8.109   5.569  67.593  1.00  0.00    -0.101 C  
HETATM    2  N   UNL     1      -9.582   5.256  67.886  1.00  0.00    -0.128 N  
HETATM    3  C   UNL     1     -10.270   4.964  66.553  1.00  0.00    -0.270 C  
HETATM    4  C   UNL     1      -9.638   4.022  68.778  1.00  0.00    -0.130 C  
ENDROOT
BRANCH   2   5
HETATM    5  C   UNL     1     -10.207   6.491  68.578  1.00  0.00    -0.172 C  
BRANCH   5   6
HETATM    6  C   UNL     1     -11.144   6.144  69.749  1.00  0.00    -0.416 C  
BRANCH   6   7
HETATM    7  O   UNL     1     -11.888   7.273  70.245  1.00  0.00    -0.190 OA 
BRANCH   7   8
HETATM    8  C   UNL     1     -12.184   7.218  71.574  1.00  0.00    -0.352 C  
HETATM    9  O   UNL     1     -12.277   6.175  72.204  1.00  0.00    -0.319 OA 
BRANCH   8  10
HETATM   10  C   UNL     1     -12.231   8.595  72.185  1.00  0.00    -0.453 C  
BRANCH  10  11
HETATM   11  C   UNL     1     -13.224   9.505  71.487  1.00  0.00    -0.468 C  
BRANCH  11  12
HETATM   12  C   UNL     1     -12.816  10.954  71.538  1.00  0.00    -0.454 C  
HETATM   13  O   UNL     1     -13.428  11.829  72.135  1.00  0.00    -0.446 OA 
BRANCH  12  14
HETATM   14  O   UNL     1     -11.748  11.201  70.729  1.00  0.00    -0.295 OA 
BRANCH  14  15
HETATM   15  C   UNL     1     -11.964  10.888  69.339  1.00  0.00    -0.322 C  
BRANCH  15  16
HETATM   16  C   UNL     1     -11.064  11.689  68.381  1.00  0.00    -0.234 C  
BRANCH  16  17
HETATM   17  N   UNL     1      -9.869  10.877  67.818  1.00  0.00    -0.173 N  
HETATM   18  C   UNL     1      -9.135  10.118  68.917  1.00  0.00    -0.165 C  
HETATM   19  C   UNL     1      -8.884  11.862  67.178  1.00  0.00    -0.180 C  
HETATM   20  C   UNL     1     -10.327   9.904  66.734  1.00  0.00    -0.217 C  
ENDBRANCH  16  17
ENDBRANCH  15  16
ENDBRANCH  14  15
ENDBRANCH  12  14
ENDBRANCH  11  12
ENDBRANCH  10  11
ENDBRANCH   8  10
ENDBRANCH   7   8
ENDBRANCH   6   7
ENDBRANCH   5   6
ENDBRANCH   2   5
TORSDOF 11
ENDMDL
MODEL      145
REMARK 921   NORMALIZED FREE ENERGY PREDICTED BY IDOCK:   -3.25 KCAL/MOL
REMARK 922        TOTAL FREE ENERGY PREDICTED BY IDOCK:   -6.09 KCAL/MOL
REMARK 923 INTER-LIGAND FREE ENERGY PREDICTED BY IDOCK:   -5.54 KCAL/MOL
REMARK 924 INTRA-LIGAND FREE ENERGY PREDICTED BY IDOCK:   -0.56 KCAL/MOL
REMARK 927      BINDING AFFINITY PREDICTED BY RF-SCORE:    0.00 PKD
ROOT
HETATM    1  C   UNL     1      -9.426   6.535  71.105  1.00  0.00    -0.167 C  
HETATM    2  N   UNL     1      -9.964   7.097  69.782  1.00  0.00    -0.176 N  
HETATM    3  C   UNL     1      -8.797   7.170  68.799  1.00  0.00    -0.130 C  
HETATM    4  C   UNL     1     -11.026   6.140  69.256  1.00  0.00    -0.381 C  
ENDROOT
BRANCH   2   5
HETATM    5  C   UNL     1     -10.548   8.503  70.061  1.00  0.00    -0.227 C  
BRANCH   5   6
HETATM    6  C   UNL     1     -10.029   9.596  69.109  1.00  0.00    -0.185 C  
BRANCH   6   7
HETATM    7  O   UNL     1     -10.983   9.983  68.102  1.00  0.00    -0.255 OA 
BRANCH   7   8
HETATM    8  C   UNL     1     -11.702  11.101  68.403  1.00  0.00    -0.279 C  
HETATM    9  O   UNL     1     -12.531  11.151  69.300  1.00  0.00    -0.377 OA 
BRANCH   8  10
HETATM   10  C   UNL     1     -11.241  12.286  67.594  1.00  0.00    -0.346 C  
BRANCH  10  11
HETATM   11  C   UNL     1     -11.247  12.009  66.103  1.00  0.00    -0.394 C  
BRANCH  11  12
HETATM   12  C   UNL     1     -10.865  13.217  65.289  1.00  0.00    -0.297 C  
HETATM   13  O   UNL     1     -10.331  13.173  64.188  1.00  0.00    -0.421 OA 
BRANCH  12  14
HETATM   14  O   UNL     1     -11.066  14.371  65.982  1.00  0.00    -0.313 OA 
BRANCH  14  15
HETATM   15  C   UNL     1     -10.166  15.442  65.639  1.00  0.00    -0.376 C  
BRANCH  15  16
HETATM   16  C   UNL     1     -10.126  16.572  66.684  1.00  0.00    -0.294 C  
BRANCH  16  17
HETATM   17  N   UNL     1      -9.103  16.335  67.824  1.00  0.00    -0.194 N  
HETATM   18  C   UNL     1      -9.724  15.577  68.991  1.00  0.00    -0.237 C  
HETATM   19  C   UNL     1      -8.637  17.703  68.336  1.00  0.00    -0.284 C  
HETATM   20  C   UNL     1      -7.875  15.584  67.315  1.00  0.00    -0.204 C  
ENDBRANCH  16  17
ENDBRANCH  15  16
ENDBRANCH  14  15
ENDBRANCH  12  14
ENDBRANCH  11  12
ENDBRANCH  10  11
ENDBRANCH   8  10
ENDBRANCH   7   8
ENDBRANCH   6   7
ENDBRANCH   5   6
ENDBRANCH   2   5
TORSDOF 11
ENDMDL
MODEL      146
REMARK 921   NORMALIZED FREE ENERGY PREDICTED BY IDOCK:   -3.25 KCAL/MOL
REMARK 922        TOTAL FREE ENERGY PREDICTED BY IDOCK:   -6.09 KCAL/MOL
REMARK 923 INTER-LIGAND FREE ENERGY PREDICTED BY IDOCK:   -5.49 KCAL/MOL
REMARK 924 INTRA-LIGAND FREE ENERGY PREDICTED BY IDOCK:   -0.60 KCAL/MOL
REMARK 927      BINDING AFFINITY PREDICTED BY RF-SCORE:    0.00 PKD
ROOT
HETATM    1  C   UNL     1      -8.545   7.053  66.103  1.00  0.00    -0.143 C  
HETATM    2  N   UNL     1      -7.693   7.674  64.989  1.00  0.00    -0.101 N  
HETATM    3  C   UNL     1      -6.352   8.080  65.599  1.00  0.00    -0.042 C  
HETATM    4  C   UNL     1      -7.474   6.617  63.913  1.00  0.00    -0.094 C  
ENDROOT
BRANCH   2   5
HETATM    5  C   UNL     1      -8.451   8.904  64.436  1.00  0.00    -0.153 C  
BRANCH   5   6
HETATM    6  C   UNL     1      -9.017   9.832  65.527  1.00  0.00    -0.176 C  
BRANCH   6   7
HETATM    7  O   UNL     1     -10.409  10.153  65.345  1.00  0.00    -0.257 OA 
BRANCH   7   8
HETATM    8  C   UNL     1     -10.644  11.405  64.864  1.00  0.00    -0.307 C  
HETATM    9  O   UNL     1     -10.119  11.853  63.854  1.00  0.00    -0.323 OA 
BRANCH   8  10
HETATM   10  C   UNL     1     -11.731  12.099  65.643  1.00  0.00    -0.385 C  
BRANCH  10  11
HETATM   11  C   UNL     1     -12.650  12.918  64.756  1.00  0.00    -0.493 C  
BRANCH  11  12
HETATM   12  C   UNL     1     -12.321  14.387  64.782  1.00  0.00    -0.414 C  
HETATM   13  O   UNL     1     -12.624  15.183  63.903  1.00  0.00    -0.794 OA 
BRANCH  12  14
HETATM   14  O   UNL     1     -11.530  14.704  65.844  1.00  0.00    -0.344 OA 
BRANCH  14  15
HETATM   15  C   UNL     1     -10.351  15.461  65.510  1.00  0.00    -0.387 C  
BRANCH  15  16
HETATM   16  C   UNL     1      -9.103  15.041  66.305  1.00  0.00    -0.253 C  
BRANCH  16  17
HETATM   17  N   UNL     1      -8.420  16.209  67.062  1.00  0.00    -0.190 N  
HETATM   18  C   UNL     1      -7.759  17.192  66.104  1.00  0.00    -0.267 C  
HETATM   19  C   UNL     1      -7.332  15.618  67.967  1.00  0.00    -0.127 C  
HETATM   20  C   UNL     1      -9.418  16.945  67.953  1.00  0.00    -0.239 C  
ENDBRANCH  16  17
ENDBRANCH  15  16
ENDBRANCH  14  15
ENDBRANCH  12  14
ENDBRANCH  11  12
ENDBRANCH  10  11
ENDBRANCH   8  10
ENDBRANCH   7   8
ENDBRANCH   6   7
ENDBRANCH   5   6
ENDBRANCH   2   5
TORSDOF 11
ENDMDL
MODEL      147
REMARK 921   NORMALIZED FREE ENERGY PREDICTED BY IDOCK:   -3.24 KCAL/MOL
REMARK 922        TOTAL FREE ENERGY PREDICTED BY IDOCK:   -6.08 KCAL/MOL
REMARK 923 INTER-LIGAND FREE ENERGY PREDICTED BY IDOCK:   -5.06 KCAL/MOL
REMARK 924 INTRA-LIGAND FREE ENERGY PREDICTED BY IDOCK:   -1.02 KCAL/MOL
REMARK 927      BINDING AFFINITY PREDICTED BY RF-SCORE:    0.00 PKD
ROOT
HETATM    1  C   UNL     1     -12.403  12.796  63.920  1.00  0.00    -0.426 C  
HETATM    2  N   UNL     1     -11.354  13.065  65.007  1.00  0.00    -0.290 N  
HETATM    3  C   UNL     1     -10.171  12.131  64.754  1.00  0.00    -0.281 C  
HETATM    4  C   UNL     1     -10.904  14.516  64.885  1.00  0.00    -0.421 C  
ENDROOT
BRANCH   2   5
HETATM    5  C   UNL     1     -12.006  12.782  66.382  1.00  0.00    -0.375 C  
BRANCH   5   6
HETATM    6  C   UNL     1     -11.545  13.736  67.500  1.00  0.00    -0.354 C  
BRANCH   6   7
HETATM    7  O   UNL     1     -10.689  13.111  68.474  1.00  0.00    -0.247 OA 
BRANCH   7   8
HETATM    8  C   UNL     1      -9.382  13.017  68.104  1.00  0.00    -0.217 C  
HETATM    9  O   UNL     1      -8.733  13.955  67.665  1.00  0.00    -0.165 OA 
BRANCH   8  10
HETATM   10  C   UNL     1      -8.810  11.664  68.442  1.00  0.00    -0.161 C  
BRANCH  10  11
HETATM   11  C   UNL     1      -9.797  10.787  69.189  1.00  0.00    -0.194 C  
BRANCH  11  12
HETATM   12  C   UNL     1     -10.211   9.577  68.394  1.00  0.00    -0.194 C  
HETATM   13  O   UNL     1     -11.012   9.593  67.469  1.00  0.00    -0.260 OA 
BRANCH  12  14
HETATM   14  O   UNL     1      -9.685   8.433  68.914  1.00  0.00    -0.162 OA 
BRANCH  14  15
HETATM   15  C   UNL     1      -9.753   8.339  70.349  1.00  0.00    -0.168 C  
BRANCH  15  16
HETATM   16  C   UNL     1     -10.643   7.187  70.849  1.00  0.00    -0.220 C  
BRANCH  16  17
HETATM   17  N   UNL     1     -11.695   7.619  71.902  1.00  0.00    -0.278 N  
HETATM   18  C   UNL     1     -12.290   8.984  71.578  1.00  0.00    -0.331 C  
HETATM   19  C   UNL     1     -10.996   7.714  73.263  1.00  0.00    -0.274 C  
HETATM   20  C   UNL     1     -12.811   6.584  72.022  1.00  0.00    -0.041 C  
ENDBRANCH  16  17
ENDBRANCH  15  16
ENDBRANCH  14  15
ENDBRANCH  12  14
ENDBRANCH  11  12
ENDBRANCH  10  11
ENDBRANCH   8  10
ENDBRANCH   7   8
ENDBRANCH   6   7
ENDBRANCH   5   6
ENDBRANCH   2   5
TORSDOF 11
ENDMDL
MODEL      148
REMARK 921   NORMALIZED FREE ENERGY PREDICTED BY IDOCK:   -3.24 KCAL/MOL
REMARK 922        TOTAL FREE ENERGY PREDICTED BY IDOCK:   -6.08 KCAL/MOL
REMARK 923 INTER-LIGAND FREE ENERGY PREDICTED BY IDOCK:   -5.50 KCAL/MOL
REMARK 924 INTRA-LIGAND FREE ENERGY PREDICTED BY IDOCK:   -0.57 KCAL/MOL
REMARK 927      BINDING AFFINITY PREDICTED BY RF-SCORE:    0.00 PKD
ROOT
HETATM    1  C   UNL     1      -9.065  15.928  69.376  1.00  0.00    -0.222 C  
HETATM    2  N   UNL     1     -10.585  15.849  69.180  1.00  0.00    -0.228 N  
HETATM    3  C   UNL     1     -11.237  15.936  70.559  1.00  0.00    -0.377 C  
HETATM    4  C   UNL     1     -11.016  17.036  68.327  1.00  0.00    -0.269 C  
ENDROOT
BRANCH   2   5
HETATM    5  C   UNL     1     -10.909  14.501  68.492  1.00  0.00    -0.249 C  
BRANCH   5   6
HETATM    6  C   UNL     1     -11.975  13.666  69.225  1.00  0.00    -0.336 C  
BRANCH   6   7
HETATM    7  O   UNL     1     -11.426  12.583  69.999  1.00  0.00    -0.172 OA 
BRANCH   7   8
HETATM    8  C   UNL     1     -11.614  11.347  69.458  1.00  0.00    -0.331 C  
HETATM    9  O   UNL     1     -12.495  11.088  68.650  1.00  0.00    -0.462 OA 
BRANCH   8  10
HETATM   10  C   UNL     1     -10.519  10.395  69.865  1.00  0.00    -0.266 C  
BRANCH  10  11
HETATM   11  C   UNL     1      -9.435  10.272  68.811  1.00  0.00    -0.176 C  
BRANCH  11  12
HETATM   12  C   UNL     1      -9.812   9.329  67.700  1.00  0.00    -0.176 C  
HETATM   13  O   UNL     1      -9.486   8.151  67.646  1.00  0.00    -0.141 OA 
BRANCH  12  14
HETATM   14  O   UNL     1     -10.455   9.979  66.690  1.00  0.00    -0.223 OA 
BRANCH  14  15
HETATM   15  C   UNL     1      -9.588  10.691  65.786  1.00  0.00    -0.210 C  
BRANCH  15  16
HETATM   16  C   UNL     1      -9.687  12.221  65.914  1.00  0.00    -0.235 C  
BRANCH  16  17
HETATM   17  N   UNL     1     -10.666  12.873  64.904  1.00  0.00    -0.299 N  
HETATM   18  C   UNL     1     -10.300  14.325  64.623  1.00  0.00    -0.224 C  
HETATM   19  C   UNL     1     -12.071  12.843  65.516  1.00  0.00    -0.458 C  
HETATM   20  C   UNL     1     -10.709  12.087  63.595  1.00  0.00    -0.449 C  
ENDBRANCH  16  17
ENDBRANCH  15  16
ENDBRANCH  14  15
ENDBRANCH  12  14
ENDBRANCH  11  12
ENDBRANCH  10  11
ENDBRANCH   8  10
ENDBRANCH   7   8
ENDBRANCH   6   7
ENDBRANCH   5   6
ENDBRANCH   2   5
TORSDOF 11
ENDMDL
MODEL      149
REMARK 921   NORMALIZED FREE ENERGY PREDICTED BY IDOCK:   -3.24 KCAL/MOL
REMARK 922        TOTAL FREE ENERGY PREDICTED BY IDOCK:   -6.07 KCAL/MOL
REMARK 923 INTER-LIGAND FREE ENERGY PREDICTED BY IDOCK:   -5.44 KCAL/MOL
REMARK 924 INTRA-LIGAND FREE ENERGY PREDICTED BY IDOCK:   -0.62 KCAL/MOL
REMARK 927      BINDING AFFINITY PREDICTED BY RF-SCORE:    0.00 PKD
ROOT
HETATM    1  C   UNL     1      -6.884   5.784  66.434  1.00  0.00    -0.059 C  
HETATM    2  N   UNL     1      -8.236   5.897  65.718  1.00  0.00    -0.124 N  
HETATM    3  C   UNL     1      -7.965   6.320  64.275  1.00  0.00    -0.108 C  
HETATM    4  C   UNL     1      -8.901   4.526  65.739  1.00  0.00    -0.124 C  
ENDROOT
BRANCH   2   5
HETATM    5  C   UNL     1      -9.084   6.956  66.461  1.00  0.00    -0.155 C  
BRANCH   5   6
HETATM    6  C   UNL     1      -8.615   8.405  66.234  1.00  0.00    -0.135 C  
BRANCH   6   7
HETATM    7  O   UNL     1      -9.503   9.174  65.401  1.00  0.00    -0.241 OA 
BRANCH   7   8
HETATM    8  C   UNL     1      -8.886  10.115  64.632  1.00  0.00    -0.196 C  
HETATM    9  O   UNL     1      -7.974   9.865  63.858  1.00  0.00    -0.136 OA 
BRANCH   8  10
HETATM   10  C   UNL     1      -9.567  11.454  64.750  1.00  0.00    -0.239 C  
BRANCH  10  11
HETATM   11  C   UNL     1     -10.901  11.494  64.029  1.00  0.00    -0.453 C  
BRANCH  11  12
HETATM   12  C   UNL     1     -11.526  12.863  64.043  1.00  0.00    -0.422 C  
HETATM   13  O   UNL     1     -12.519  13.181  63.402  1.00  0.00    -0.730 OA 
BRANCH  12  14
HETATM   14  O   UNL     1     -10.777  13.748  64.757  1.00  0.00    -0.371 OA 
BRANCH  14  15
HETATM   15  C   UNL     1     -11.529  14.582  65.658  1.00  0.00    -0.341 C  
BRANCH  15  16
HETATM   16  C   UNL     1     -12.076  13.830  66.884  1.00  0.00    -0.413 C  
BRANCH  16  17
HETATM   17  N   UNL     1     -11.399  14.232  68.219  1.00  0.00    -0.274 N  
HETATM   18  C   UNL     1     -12.127  13.642  69.421  1.00  0.00    -0.314 C  
HETATM   19  C   UNL     1     -11.445  15.760  68.336  1.00  0.00    -0.365 C  
HETATM   20  C   UNL     1      -9.932  13.806  68.243  1.00  0.00    -0.243 C  
ENDBRANCH  16  17
ENDBRANCH  15  16
ENDBRANCH  14  15
ENDBRANCH  12  14
ENDBRANCH  11  12
ENDBRANCH  10  11
ENDBRANCH   8  10
ENDBRANCH   7   8
ENDBRANCH   6   7
ENDBRANCH   5   6
ENDBRANCH   2   5
TORSDOF 11
ENDMDL
MODEL      150
REMARK 921   NORMALIZED FREE ENERGY PREDICTED BY IDOCK:   -3.23 KCAL/MOL
REMARK 922        TOTAL FREE ENERGY PREDICTED BY IDOCK:   -6.06 KCAL/MOL
REMARK 923 INTER-LIGAND FREE ENERGY PREDICTED BY IDOCK:   -5.34 KCAL/MOL
REMARK 924 INTRA-LIGAND FREE ENERGY PREDICTED BY IDOCK:   -0.72 KCAL/MOL
REMARK 927      BINDING AFFINITY PREDICTED BY RF-SCORE:    0.00 PKD
ROOT
HETATM    1  C   UNL     1      -8.737   9.922  64.505  1.00  0.00    -0.198 C  
HETATM    2  N   UNL     1      -9.602  10.639  65.549  1.00  0.00    -0.205 N  
HETATM    3  C   UNL     1     -10.655  11.456  64.801  1.00  0.00    -0.316 C  
HETATM    4  C   UNL     1     -10.282   9.581  66.410  1.00  0.00    -0.232 C  
ENDROOT
BRANCH   2   5
HETATM    5  C   UNL     1      -8.679  11.553  66.390  1.00  0.00    -0.179 C  
BRANCH   5   6
HETATM    6  C   UNL     1      -9.144  11.742  67.845  1.00  0.00    -0.181 C  
BRANCH   6   7
HETATM    7  O   UNL     1      -9.730  13.032  68.100  1.00  0.00    -0.218 OA 
BRANCH   7   8
HETATM    8  C   UNL     1     -11.036  12.996  68.485  1.00  0.00    -0.266 C  
HETATM    9  O   UNL     1     -11.855  13.852  68.183  1.00  0.00    -0.339 OA 
BRANCH   8  10
HETATM   10  C   UNL     1     -11.366  11.707  69.192  1.00  0.00    -0.345 C  
BRANCH  10  11
HETATM   11  C   UNL     1     -12.229  11.923  70.421  1.00  0.00    -0.399 C  
BRANCH  11  12
HETATM   12  C   UNL     1     -12.423  10.662  71.221  1.00  0.00    -0.410 C  
HETATM   13  O   UNL     1     -13.289  10.505  72.071  1.00  0.00    -0.434 OA 
BRANCH  12  14
HETATM   14  O   UNL     1     -11.435   9.758  70.976  1.00  0.00    -0.322 OA 
BRANCH  14  15
HETATM   15  C   UNL     1     -11.218   8.805  72.035  1.00  0.00    -0.373 C  
BRANCH  15  16
HETATM   16  C   UNL     1      -9.733   8.478  72.274  1.00  0.00    -0.310 C  
BRANCH  16  17
HETATM   17  N   UNL     1      -9.430   6.959  72.344  1.00  0.00    -0.140 N  
HETATM   18  C   UNL     1      -9.128   6.510  73.769  1.00  0.00    -0.136 C  
HETATM   19  C   UNL     1      -8.192   6.681  71.483  1.00  0.00    -0.112 C  
HETATM   20  C   UNL     1     -10.587   6.140  71.778  1.00  0.00    -0.223 C  
ENDBRANCH  16  17
ENDBRANCH  15  16
ENDBRANCH  14  15
ENDBRANCH  12  14
ENDBRANCH  11  12
ENDBRANCH  10  11
ENDBRANCH   8  10
ENDBRANCH   7   8
ENDBRANCH   6   7
ENDBRANCH   5   6
ENDBRANCH   2   5
TORSDOF 11
ENDMDL
MODEL      151
REMARK 921   NORMALIZED FREE ENERGY PREDICTED BY IDOCK:   -3.22 KCAL/MOL
REMARK 922        TOTAL FREE ENERGY PREDICTED BY IDOCK:   -6.04 KCAL/MOL
REMARK 923 INTER-LIGAND FREE ENERGY PREDICTED BY IDOCK:   -5.28 KCAL/MOL
REMARK 924 INTRA-LIGAND FREE ENERGY PREDICTED BY IDOCK:   -0.77 KCAL/MOL
REMARK 927      BINDING AFFINITY PREDICTED BY RF-SCORE:    0.00 PKD
ROOT
HETATM    1  C   UNL     1     -11.754  14.837  67.414  1.00  0.00    -0.350 C  
HETATM    2  N   UNL     1     -11.279  13.620  68.218  1.00  0.00    -0.259 N  
HETATM    3  C   UNL     1      -9.776  13.770  68.446  1.00  0.00    -0.219 C  
HETATM    4  C   UNL     1     -12.009  13.620  69.556  1.00  0.00    -0.341 C  
ENDROOT
BRANCH   2   5
HETATM    5  C   UNL     1     -11.595  12.349  67.394  1.00  0.00    -0.365 C  
BRANCH   5   6
HETATM    6  C   UNL     1     -11.591  12.575  65.871  1.00  0.00    -0.405 C  
BRANCH   6   7
HETATM    7  O   UNL     1     -10.275  12.547  65.288  1.00  0.00    -0.279 OA 
BRANCH   7   8
HETATM    8  C   UNL     1     -10.103  11.602  64.321  1.00  0.00    -0.287 C  
HETATM    9  O   UNL     1      -9.944  11.866  63.138  1.00  0.00    -0.422 OA 
BRANCH   8  10
HETATM   10  C   UNL     1      -9.986  10.222  64.914  1.00  0.00    -0.393 C  
BRANCH  10  11
HETATM   11  C   UNL     1      -8.661  10.005  65.622  1.00  0.00    -0.171 C  
BRANCH  11  12
HETATM   12  C   UNL     1      -8.790  10.059  67.121  1.00  0.00    -0.135 C  
HETATM   13  O   UNL     1      -8.013  10.642  67.865  1.00  0.00    -0.104 OA 
BRANCH  12  14
HETATM   14  O   UNL     1      -9.808   9.270  67.564  1.00  0.00    -0.158 OA 
BRANCH  14  15
HETATM   15  C   UNL     1      -9.406   8.224  68.469  1.00  0.00    -0.138 C  
BRANCH  15  16
HETATM   16  C   UNL     1     -10.183   8.225  69.797  1.00  0.00    -0.204 C  
BRANCH  16  17
HETATM   17  N   UNL     1     -10.774   6.844  70.179  1.00  0.00    -0.227 N  
HETATM   18  C   UNL     1      -9.792   6.020  71.004  1.00  0.00    -0.183 C  
HETATM   19  C   UNL     1     -11.071   6.078  68.884  1.00  0.00    -0.279 C  
HETATM   20  C   UNL     1     -12.088   6.999  70.942  1.00  0.00    -0.357 C  
ENDBRANCH  16  17
ENDBRANCH  15  16
ENDBRANCH  14  15
ENDBRANCH  12  14
ENDBRANCH  11  12
ENDBRANCH  10  11
ENDBRANCH   8  10
ENDBRANCH   7   8
ENDBRANCH   6   7
ENDBRANCH   5   6
ENDBRANCH   2   5
TORSDOF 11
ENDMDL
MODEL      152
REMARK 921   NORMALIZED FREE ENERGY PREDICTED BY IDOCK:   -3.21 KCAL/MOL
REMARK 922        TOTAL FREE ENERGY PREDICTED BY IDOCK:   -6.03 KCAL/MOL
REMARK 923 INTER-LIGAND FREE ENERGY PREDICTED BY IDOCK:   -5.35 KCAL/MOL
REMARK 924 INTRA-LIGAND FREE ENERGY PREDICTED BY IDOCK:   -0.68 KCAL/MOL
REMARK 927      BINDING AFFINITY PREDICTED BY RF-SCORE:    0.00 PKD
ROOT
HETATM    1  C   UNL     1      -9.981   4.549  70.801  1.00  0.00    -0.199 C  
HETATM    2  N   UNL     1      -9.574   5.508  69.675  1.00  0.00    -0.149 N  
HETATM    3  C   UNL     1      -8.789   6.659  70.303  1.00  0.00    -0.152 C  
HETATM    4  C   UNL     1      -8.686   4.746  68.699  1.00  0.00    -0.097 C  
ENDROOT
BRANCH   2   5
HETATM    5  C   UNL     1     -10.866   6.020  68.993  1.00  0.00    -0.342 C  
BRANCH   5   6
HETATM    6  C   UNL     1     -10.692   6.361  67.502  1.00  0.00    -0.319 C  
BRANCH   6   7
HETATM    7  O   UNL     1     -11.092   7.703  67.167  1.00  0.00    -0.173 OA 
BRANCH   7   8
HETATM    8  C   UNL     1     -10.122   8.644  67.338  1.00  0.00    -0.229 C  
HETATM    9  O   UNL     1      -9.189   8.804  66.564  1.00  0.00    -0.154 OA 
BRANCH   8  10
HETATM   10  C   UNL     1     -10.429   9.545  68.507  1.00  0.00    -0.247 C  
BRANCH  10  11
HETATM   11  C   UNL     1     -11.464  10.602  68.169  1.00  0.00    -0.303 C  
BRANCH  11  12
HETATM   12  C   UNL     1     -11.861  11.425  69.366  1.00  0.00    -0.351 C  
HETATM   13  O   UNL     1     -12.659  11.067  70.222  1.00  0.00    -0.297 OA 
BRANCH  12  14
HETATM   14  O   UNL     1     -11.324  12.675  69.313  1.00  0.00    -0.260 OA 
BRANCH  14  15
HETATM   15  C   UNL     1     -11.885  13.528  68.297  1.00  0.00    -0.366 C  
BRANCH  15  16
HETATM   16  C   UNL     1     -10.833  14.134  67.352  1.00  0.00    -0.287 C  
BRANCH  16  17
HETATM   17  N   UNL     1     -11.031  13.749  65.863  1.00  0.00    -0.282 N  
HETATM   18  C   UNL     1     -10.709  14.912  64.932  1.00  0.00    -0.405 C  
HETATM   19  C   UNL     1     -12.502  13.368  65.662  1.00  0.00    -0.464 C  
HETATM   20  C   UNL     1     -10.180  12.537  65.490  1.00  0.00    -0.275 C  
ENDBRANCH  16  17
ENDBRANCH  15  16
ENDBRANCH  14  15
ENDBRANCH  12  14
ENDBRANCH  11  12
ENDBRANCH  10  11
ENDBRANCH   8  10
ENDBRANCH   7   8
ENDBRANCH   6   7
ENDBRANCH   5   6
ENDBRANCH   2   5
TORSDOF 11
ENDMDL
MODEL      153
REMARK 921   NORMALIZED FREE ENERGY PREDICTED BY IDOCK:   -3.19 KCAL/MOL
REMARK 922        TOTAL FREE ENERGY PREDICTED BY IDOCK:   -6.00 KCAL/MOL
REMARK 923 INTER-LIGAND FREE ENERGY PREDICTED BY IDOCK:   -5.57 KCAL/MOL
REMARK 924 INTRA-LIGAND FREE ENERGY PREDICTED BY IDOCK:   -0.43 KCAL/MOL
REMARK 927      BINDING AFFINITY PREDICTED BY RF-SCORE:    0.00 PKD
ROOT
HETATM    1  C   UNL     1      -8.553   8.222  64.770  1.00  0.00    -0.020 C  
HETATM    2  N   UNL     1      -7.946   9.558  64.323  1.00  0.00    -0.128 N  
HETATM    3  C   UNL     1      -6.449   9.338  64.104  1.00  0.00    -0.090 C  
HETATM    4  C   UNL     1      -8.607   9.965  63.011  1.00  0.00    -0.197 C  
ENDROOT
BRANCH   2   5
HETATM    5  C   UNL     1      -8.201  10.598  65.439  1.00  0.00    -0.125 C  
BRANCH   5   6
HETATM    6  C   UNL     1      -9.463  10.320  66.276  1.00  0.00    -0.177 C  
BRANCH   6   7
HETATM    7  O   UNL     1     -10.564  11.193  65.966  1.00  0.00    -0.256 OA 
BRANCH   7   8
HETATM    8  C   UNL     1     -11.342  11.527  67.033  1.00  0.00    -0.269 C  
HETATM    9  O   UNL     1     -11.663  10.738  67.910  1.00  0.00    -0.543 OA 
BRANCH   8  10
HETATM   10  C   UNL     1     -11.625  13.007  67.067  1.00  0.00    -0.413 C  
BRANCH  10  11
HETATM   11  C   UNL     1     -12.015  13.493  68.451  1.00  0.00    -0.378 C  
BRANCH  11  12
HETATM   12  C   UNL     1     -11.743  14.960  68.647  1.00  0.00    -0.330 C  
HETATM   13  O   UNL     1     -12.146  15.622  69.595  1.00  0.00    -0.364 OA 
BRANCH  12  14
HETATM   14  O   UNL     1     -11.101  15.498  67.573  1.00  0.00    -0.321 OA 
BRANCH  14  15
HETATM   15  C   UNL     1     -10.034  16.407  67.905  1.00  0.00    -0.243 C  
BRANCH  15  16
HETATM   16  C   UNL     1      -9.771  17.470  66.824  1.00  0.00    -0.295 C  
BRANCH  16  17
HETATM   17  N   UNL     1      -9.218  18.806  67.380  1.00  0.00    -0.281 N  
HETATM   18  C   UNL     1     -10.311  19.636  68.043  1.00  0.00    -0.453 C  
HETATM   19  C   UNL     1      -8.651  19.613  66.206  1.00  0.00    -0.366 C  
HETATM   20  C   UNL     1      -8.082  18.562  68.371  1.00  0.00    -0.323 C  
ENDBRANCH  16  17
ENDBRANCH  15  16
ENDBRANCH  14  15
ENDBRANCH  12  14
ENDBRANCH  11  12
ENDBRANCH  10  11
ENDBRANCH   8  10
ENDBRANCH   7   8
ENDBRANCH   6   7
ENDBRANCH   5   6
ENDBRANCH   2   5
TORSDOF 11
ENDMDL
MODEL      154
REMARK 921   NORMALIZED FREE ENERGY PREDICTED BY IDOCK:   -3.19 KCAL/MOL
REMARK 922        TOTAL FREE ENERGY PREDICTED BY IDOCK:   -5.99 KCAL/MOL
REMARK 923 INTER-LIGAND FREE ENERGY PREDICTED BY IDOCK:   -5.34 KCAL/MOL
REMARK 924 INTRA-LIGAND FREE ENERGY PREDICTED BY IDOCK:   -0.65 KCAL/MOL
REMARK 927      BINDING AFFINITY PREDICTED BY RF-SCORE:    0.00 PKD
ROOT
HETATM    1  C   UNL     1     -10.540  14.197  64.737  1.00  0.00    -0.418 C  
HETATM    2  N   UNL     1     -11.712  13.213  64.851  1.00  0.00    -0.326 N  
HETATM    3  C   UNL     1     -12.762  13.843  65.766  1.00  0.00    -0.461 C  
HETATM    4  C   UNL     1     -12.295  13.005  63.459  1.00  0.00    -0.417 C  
ENDROOT
BRANCH   2   5
HETATM    5  C   UNL     1     -11.171  11.891  65.448  1.00  0.00    -0.295 C  
BRANCH   5   6
HETATM    6  C   UNL     1      -9.738  11.995  66.000  1.00  0.00    -0.239 C  
BRANCH   6   7
HETATM    7  O   UNL     1      -9.676  12.459  67.362  1.00  0.00    -0.189 OA 
BRANCH   7   8
HETATM    8  C   UNL     1      -8.512  13.081  67.697  1.00  0.00    -0.187 C  
HETATM    9  O   UNL     1      -7.463  12.929  67.088  1.00  0.00    -0.115 OA 
BRANCH   8  10
HETATM   10  C   UNL     1      -8.721  14.079  68.807  1.00  0.00    -0.028 C  
BRANCH  10  11
HETATM   11  C   UNL     1     -10.171  14.505  68.940  1.00  0.00    -0.229 C  
BRANCH  11  12
HETATM   12  C   UNL     1     -10.358  15.987  68.755  1.00  0.00    -0.237 C  
HETATM   13  O   UNL     1     -11.427  16.527  68.505  1.00  0.00    -0.317 OA 
BRANCH  12  14
HETATM   14  O   UNL     1      -9.167  16.647  68.772  1.00  0.00    -0.238 OA 
BRANCH  14  15
HETATM   15  C   UNL     1      -9.150  17.874  68.017  1.00  0.00    -0.267 C  
BRANCH  15  16
HETATM   16  C   UNL     1      -8.162  18.920  68.562  1.00  0.00    -0.353 C  
BRANCH  16  17
HETATM   17  N   UNL     1      -7.084  19.357  67.538  1.00  0.00    -0.212 N  
HETATM   18  C   UNL     1      -5.675  19.088  68.053  1.00  0.00    -0.195 C  
HETATM   19  C   UNL     1      -7.229  20.866  67.309  1.00  0.00    -0.350 C  
HETATM   20  C   UNL     1      -7.286  18.660  66.194  1.00  0.00    -0.262 C  
ENDBRANCH  16  17
ENDBRANCH  15  16
ENDBRANCH  14  15
ENDBRANCH  12  14
ENDBRANCH  11  12
ENDBRANCH  10  11
ENDBRANCH   8  10
ENDBRANCH   7   8
ENDBRANCH   6   7
ENDBRANCH   5   6
ENDBRANCH   2   5
TORSDOF 11
ENDMDL
MODEL      155
REMARK 921   NORMALIZED FREE ENERGY PREDICTED BY IDOCK:   -3.18 KCAL/MOL
REMARK 922        TOTAL FREE ENERGY PREDICTED BY IDOCK:   -5.98 KCAL/MOL
REMARK 923 INTER-LIGAND FREE ENERGY PREDICTED BY IDOCK:   -5.44 KCAL/MOL
REMARK 924 INTRA-LIGAND FREE ENERGY PREDICTED BY IDOCK:   -0.54 KCAL/MOL
REMARK 927      BINDING AFFINITY PREDICTED BY RF-SCORE:    0.00 PKD
ROOT
HETATM    1  C   UNL     1     -10.722  19.618  65.706  1.00  0.00    -0.392 C  
HETATM    2  N   UNL     1     -10.015  18.735  66.741  1.00  0.00    -0.336 N  
HETATM    3  C   UNL     1      -8.529  18.700  66.386  1.00  0.00    -0.272 C  
HETATM    4  C   UNL     1     -10.204  19.367  68.115  1.00  0.00    -0.431 C  
ENDROOT
BRANCH   2   5
HETATM    5  C   UNL     1     -10.639  17.321  66.671  1.00  0.00    -0.179 C  
BRANCH   5   6
HETATM    6  C   UNL     1     -10.684  16.590  68.026  1.00  0.00    -0.343 C  
BRANCH   6   7
HETATM    7  O   UNL     1     -10.366  15.188  67.935  1.00  0.00    -0.237 OA 
BRANCH   7   8
HETATM    8  C   UNL     1     -11.215  14.369  68.616  1.00  0.00    -0.259 C  
HETATM    9  O   UNL     1     -11.357  14.400  69.830  1.00  0.00    -0.256 OA 
BRANCH   8  10
HETATM   10  C   UNL     1     -12.049  13.537  67.677  1.00  0.00    -0.321 C  
BRANCH  10  11
HETATM   11  C   UNL     1     -11.701  13.780  66.221  1.00  0.00    -0.400 C  
BRANCH  11  12
HETATM   12  C   UNL     1     -10.903  12.653  65.621  1.00  0.00    -0.274 C  
HETATM   13  O   UNL     1     -10.392  12.677  64.509  1.00  0.00    -0.325 OA 
BRANCH  12  14
HETATM   14  O   UNL     1     -10.924  11.547  66.415  1.00  0.00    -0.282 OA 
BRANCH  14  15
HETATM   15  C   UNL     1      -9.708  10.775  66.402  1.00  0.00    -0.199 C  
BRANCH  15  16
HETATM   16  C   UNL     1      -9.087  10.581  67.796  1.00  0.00    -0.138 C  
BRANCH  16  17
HETATM   17  N   UNL     1      -9.827   9.541  68.674  1.00  0.00    -0.158 N  
HETATM   18  C   UNL     1     -10.936  10.185  69.498  1.00  0.00    -0.256 C  
HETATM   19  C   UNL     1      -8.810   8.923  69.641  1.00  0.00    -0.142 C  
HETATM   20  C   UNL     1     -10.405   8.413  67.822  1.00  0.00    -0.235 C  
ENDBRANCH  16  17
ENDBRANCH  15  16
ENDBRANCH  14  15
ENDBRANCH  12  14
ENDBRANCH  11  12
ENDBRANCH  10  11
ENDBRANCH   8  10
ENDBRANCH   7   8
ENDBRANCH   6   7
ENDBRANCH   5   6
ENDBRANCH   2   5
TORSDOF 11
ENDMDL
MODEL      156
REMARK 921   NORMALIZED FREE ENERGY PREDICTED BY IDOCK:   -3.18 KCAL/MOL
REMARK 922        TOTAL FREE ENERGY PREDICTED BY IDOCK:   -5.98 KCAL/MOL
REMARK 923 INTER-LIGAND FREE ENERGY PREDICTED BY IDOCK:   -5.35 KCAL/MOL
REMARK 924 INTRA-LIGAND FREE ENERGY PREDICTED BY IDOCK:   -0.63 KCAL/MOL
REMARK 927      BINDING AFFINITY PREDICTED BY RF-SCORE:    0.00 PKD
ROOT
HETATM    1  C   UNL     1      -7.794  10.985  68.823  1.00  0.00    -0.138 C  
HETATM    2  N   UNL     1      -8.136   9.966  67.729  1.00  0.00    -0.109 N  
HETATM    3  C   UNL     1      -7.026  10.018  66.680  1.00  0.00    -0.087 C  
HETATM    4  C   UNL     1      -8.183   8.582  68.365  1.00  0.00    -0.123 C  
ENDROOT
BRANCH   2   5
HETATM    5  C   UNL     1      -9.502  10.360  67.117  1.00  0.00    -0.159 C  
BRANCH   5   6
HETATM    6  C   UNL     1      -9.395  11.063  65.751  1.00  0.00    -0.211 C  
BRANCH   6   7
HETATM    7  O   UNL     1      -9.824  12.437  65.775  1.00  0.00    -0.254 OA 
BRANCH   7   8
HETATM    8  C   UNL     1     -10.847  12.727  64.923  1.00  0.00    -0.299 C  
HETATM    9  O   UNL     1     -10.852  12.416  63.741  1.00  0.00    -0.384 OA 
BRANCH   8  10
HETATM   10  C   UNL     1     -12.015  13.339  65.653  1.00  0.00    -0.455 C  
BRANCH  10  11
HETATM   11  C   UNL     1     -11.694  14.711  66.215  1.00  0.00    -0.325 C  
BRANCH  11  12
HETATM   12  C   UNL     1     -11.616  14.717  67.718  1.00  0.00    -0.359 C  
HETATM   13  O   UNL     1     -11.819  13.742  68.429  1.00  0.00    -0.341 OA 
BRANCH  12  14
HETATM   14  O   UNL     1     -11.418  15.974  68.204  1.00  0.00    -0.338 OA 
BRANCH  14  15
HETATM   15  C   UNL     1     -10.845  16.899  67.260  1.00  0.00    -0.131 C  
BRANCH  15  16
HETATM   16  C   UNL     1      -9.412  17.333  67.613  1.00  0.00    -0.246 C  
BRANCH  16  17
HETATM   17  N   UNL     1      -9.225  18.869  67.696  1.00  0.00    -0.284 N  
HETATM   18  C   UNL     1     -10.129  19.492  68.752  1.00  0.00    -0.430 C  
HETATM   19  C   UNL     1      -9.597  19.468  66.334  1.00  0.00    -0.390 C  
HETATM   20  C   UNL     1      -7.769  19.232  67.982  1.00  0.00    -0.288 C  
ENDBRANCH  16  17
ENDBRANCH  15  16
ENDBRANCH  14  15
ENDBRANCH  12  14
ENDBRANCH  11  12
ENDBRANCH  10  11
ENDBRANCH   8  10
ENDBRANCH   7   8
ENDBRANCH   6   7
ENDBRANCH   5   6
ENDBRANCH   2   5
TORSDOF 11
ENDMDL
MODEL      157
REMARK 921   NORMALIZED FREE ENERGY PREDICTED BY IDOCK:   -3.17 KCAL/MOL
REMARK 922        TOTAL FREE ENERGY PREDICTED BY IDOCK:   -5.96 KCAL/MOL
REMARK 923 INTER-LIGAND FREE ENERGY PREDICTED BY IDOCK:   -4.91 KCAL/MOL
REMARK 924 INTRA-LIGAND FREE ENERGY PREDICTED BY IDOCK:   -1.05 KCAL/MOL
REMARK 927      BINDING AFFINITY PREDICTED BY RF-SCORE:    0.00 PKD
ROOT
HETATM    1  C   UNL     1      -7.952   8.172  67.208  1.00  0.00    -0.113 C  
HETATM    2  N   UNL     1      -8.390   9.637  67.326  1.00  0.00    -0.114 N  
HETATM    3  C   UNL     1      -7.131  10.503  67.314  1.00  0.00    -0.088 C  
HETATM    4  C   UNL     1      -9.260   9.972  66.119  1.00  0.00    -0.165 C  
ENDROOT
BRANCH   2   5
HETATM    5  C   UNL     1      -9.168   9.800  68.654  1.00  0.00    -0.137 C  
BRANCH   5   6
HETATM    6  C   UNL     1     -10.637   9.345  68.577  1.00  0.00    -0.197 C  
BRANCH   6   7
HETATM    7  O   UNL     1     -11.498  10.016  69.516  1.00  0.00    -0.208 OA 
BRANCH   7   8
HETATM    8  C   UNL     1     -11.792  11.307  69.194  1.00  0.00    -0.355 C  
HETATM    9  O   UNL     1     -12.195  11.655  68.095  1.00  0.00    -0.537 OA 
BRANCH   8  10
HETATM   10  C   UNL     1     -11.698  12.209  70.398  1.00  0.00    -0.150 C  
BRANCH  10  11
HETATM   11  C   UNL     1     -12.675  13.368  70.332  1.00  0.00    -0.136 C  
BRANCH  11  12
HETATM   12  C   UNL     1     -12.006  14.702  70.533  1.00  0.00    -0.310 C  
HETATM   13  O   UNL     1     -11.353  15.011  71.521  1.00  0.00    -0.350 OA 
BRANCH  12  14
HETATM   14  O   UNL     1     -12.322  15.575  69.537  1.00  0.00    -0.292 OA 
BRANCH  14  15
HETATM   15  C   UNL     1     -11.239  15.877  68.637  1.00  0.00    -0.360 C  
BRANCH  15  16
HETATM   16  C   UNL     1     -11.278  15.063  67.331  1.00  0.00    -0.335 C  
BRANCH  16  17
HETATM   17  N   UNL     1      -9.906  14.467  66.923  1.00  0.00    -0.254 N  
HETATM   18  C   UNL     1      -9.209  13.797  68.101  1.00  0.00    -0.199 C  
HETATM   19  C   UNL     1      -9.016  15.614  66.429  1.00  0.00    -0.326 C  
HETATM   20  C   UNL     1     -10.059  13.469  65.777  1.00  0.00    -0.287 C  
ENDBRANCH  16  17
ENDBRANCH  15  16
ENDBRANCH  14  15
ENDBRANCH  12  14
ENDBRANCH  11  12
ENDBRANCH  10  11
ENDBRANCH   8  10
ENDBRANCH   7   8
ENDBRANCH   6   7
ENDBRANCH   5   6
ENDBRANCH   2   5
TORSDOF 11
ENDMDL
MODEL      158
REMARK 921   NORMALIZED FREE ENERGY PREDICTED BY IDOCK:   -3.16 KCAL/MOL
REMARK 922        TOTAL FREE ENERGY PREDICTED BY IDOCK:   -5.95 KCAL/MOL
REMARK 923 INTER-LIGAND FREE ENERGY PREDICTED BY IDOCK:   -5.20 KCAL/MOL
REMARK 924 INTRA-LIGAND FREE ENERGY PREDICTED BY IDOCK:   -0.75 KCAL/MOL
REMARK 927      BINDING AFFINITY PREDICTED BY RF-SCORE:    0.00 PKD
ROOT
HETATM    1  C   UNL     1      -9.671   4.620  71.367  1.00  0.00    -0.179 C  
HETATM    2  N   UNL     1     -10.515   5.857  71.704  1.00  0.00    -0.225 N  
HETATM    3  C   UNL     1     -11.442   5.486  72.861  1.00  0.00    -0.267 C  
HETATM    4  C   UNL     1      -9.570   6.973  72.133  1.00  0.00    -0.146 C  
ENDROOT
BRANCH   2   5
HETATM    5  C   UNL     1     -11.323   6.244  70.443  1.00  0.00    -0.372 C  
BRANCH   5   6
HETATM    6  C   UNL     1     -10.762   5.654  69.136  1.00  0.00    -0.255 C  
BRANCH   6   7
HETATM    7  O   UNL     1      -9.812   6.512  68.477  1.00  0.00    -0.135 OA 
BRANCH   7   8
HETATM    8  C   UNL     1     -10.339   7.289  67.489  1.00  0.00    -0.242 C  
HETATM    9  O   UNL     1     -11.261   6.936  66.770  1.00  0.00    -0.279 OA 
BRANCH   8  10
HETATM   10  C   UNL     1      -9.742   8.673  67.501  1.00  0.00    -0.212 C  
BRANCH  10  11
HETATM   11  C   UNL     1     -10.666   9.698  68.133  1.00  0.00    -0.266 C  
BRANCH  11  12
HETATM   12  C   UNL     1     -10.185  10.154  69.485  1.00  0.00    -0.236 C  
HETATM   13  O   UNL     1      -9.196   9.714  70.056  1.00  0.00    -0.212 OA 
BRANCH  12  14
HETATM   14  O   UNL     1     -11.059  11.027  70.058  1.00  0.00    -0.251 OA 
BRANCH  14  15
HETATM   15  C   UNL     1     -11.790  11.844  69.124  1.00  0.00    -0.311 C  
BRANCH  15  16
HETATM   16  C   UNL     1     -11.661  13.354  69.393  1.00  0.00    -0.325 C  
BRANCH  16  17
HETATM   17  N   UNL     1     -11.175  14.170  68.168  1.00  0.00    -0.265 N  
HETATM   18  C   UNL     1      -9.677  14.006  67.940  1.00  0.00    -0.229 C  
HETATM   19  C   UNL     1     -11.458  15.652  68.441  1.00  0.00    -0.369 C  
HETATM   20  C   UNL     1     -11.937  13.774  66.905  1.00  0.00    -0.421 C  
ENDBRANCH  16  17
ENDBRANCH  15  16
ENDBRANCH  14  15
ENDBRANCH  12  14
ENDBRANCH  11  12
ENDBRANCH  10  11
ENDBRANCH   8  10
ENDBRANCH   7   8
ENDBRANCH   6   7
ENDBRANCH   5   6
ENDBRANCH   2   5
TORSDOF 11
ENDMDL
MODEL      159
REMARK 921   NORMALIZED FREE ENERGY PREDICTED BY IDOCK:   -3.15 KCAL/MOL
REMARK 922        TOTAL FREE ENERGY PREDICTED BY IDOCK:   -5.93 KCAL/MOL
REMARK 923 INTER-LIGAND FREE ENERGY PREDICTED BY IDOCK:   -5.39 KCAL/MOL
REMARK 924 INTRA-LIGAND FREE ENERGY PREDICTED BY IDOCK:   -0.55 KCAL/MOL
REMARK 927      BINDING AFFINITY PREDICTED BY RF-SCORE:    0.00 PKD
ROOT
HETATM    1  C   UNL     1      -8.176   7.916  64.875  1.00  0.00    -0.124 C  
HETATM    2  N   UNL     1      -8.511   9.369  64.514  1.00  0.00    -0.166 N  
HETATM    3  C   UNL     1      -7.295  10.227  64.859  1.00  0.00    -0.110 C  
HETATM    4  C   UNL     1      -8.784   9.435  63.016  1.00  0.00    -0.218 C  
ENDROOT
BRANCH   2   5
HETATM    5  C   UNL     1      -9.748   9.795  65.341  1.00  0.00    -0.313 C  
BRANCH   5   6
HETATM    6  C   UNL     1     -10.005   8.917  66.579  1.00  0.00    -0.288 C  
BRANCH   6   7
HETATM    7  O   UNL     1     -10.874   9.530  67.550  1.00  0.00    -0.280 OA 
BRANCH   7   8
HETATM    8  C   UNL     1     -10.654   9.137  68.836  1.00  0.00    -0.191 C  
HETATM    9  O   UNL     1     -10.189   8.049  69.141  1.00  0.00    -0.207 OA 
BRANCH   8  10
HETATM   10  C   UNL     1     -10.917  10.259  69.807  1.00  0.00    -0.338 C  
BRANCH  10  11
HETATM   11  C   UNL     1     -12.102  11.115  69.399  1.00  0.00    -0.396 C  
BRANCH  11  12
HETATM   12  C   UNL     1     -11.972  12.542  69.861  1.00  0.00    -0.301 C  
HETATM   13  O   UNL     1     -12.467  12.988  70.887  1.00  0.00    -0.367 OA 
BRANCH  12  14
HETATM   14  O   UNL     1     -11.342  13.313  68.932  1.00  0.00    -0.255 OA 
BRANCH  14  15
HETATM   15  C   UNL     1     -11.001  14.638  69.383  1.00  0.00    -0.257 C  
BRANCH  15  16
HETATM   16  C   UNL     1     -11.510  15.755  68.455  1.00  0.00    -0.379 C  
BRANCH  16  17
HETATM   17  N   UNL     1     -10.385  16.492  67.686  1.00  0.00    -0.284 N  
HETATM   18  C   UNL     1     -10.215  15.945  66.274  1.00  0.00    -0.311 C  
HETATM   19  C   UNL     1      -9.070  16.277  68.444  1.00  0.00    -0.203 C  
HETATM   20  C   UNL     1     -10.650  17.995  67.629  1.00  0.00    -0.399 C  
ENDBRANCH  16  17
ENDBRANCH  15  16
ENDBRANCH  14  15
ENDBRANCH  12  14
ENDBRANCH  11  12
ENDBRANCH  10  11
ENDBRANCH   8  10
ENDBRANCH   7   8
ENDBRANCH   6   7
ENDBRANCH   5   6
ENDBRANCH   2   5
TORSDOF 11
ENDMDL
MODEL      160
REMARK 921   NORMALIZED FREE ENERGY PREDICTED BY IDOCK:   -3.15 KCAL/MOL
REMARK 922        TOTAL FREE ENERGY PREDICTED BY IDOCK:   -5.92 KCAL/MOL
REMARK 923 INTER-LIGAND FREE ENERGY PREDICTED BY IDOCK:   -5.16 KCAL/MOL
REMARK 924 INTRA-LIGAND FREE ENERGY PREDICTED BY IDOCK:   -0.76 KCAL/MOL
REMARK 927      BINDING AFFINITY PREDICTED BY RF-SCORE:    0.00 PKD
ROOT
HETATM    1  C   UNL     1      -9.804   8.841  71.817  1.00  0.00    -0.321 C  
HETATM    2  N   UNL     1      -9.357   7.617  72.626  1.00  0.00    -0.157 N  
HETATM    3  C   UNL     1      -8.499   8.115  73.789  1.00  0.00    -0.244 C  
HETATM    4  C   UNL     1     -10.603   6.921  73.162  1.00  0.00    -0.302 C  
ENDROOT
BRANCH   2   5
HETATM    5  C   UNL     1      -8.544   6.693  71.688  1.00  0.00    -0.123 C  
BRANCH   5   6
HETATM    6  C   UNL     1      -9.383   5.591  71.016  1.00  0.00    -0.153 C  
BRANCH   6   7
HETATM    7  O   UNL     1      -9.663   5.846  69.626  1.00  0.00    -0.149 OA 
BRANCH   7   8
HETATM    8  C   UNL     1     -10.958   6.175  69.360  1.00  0.00    -0.385 C  
HETATM    9  O   UNL     1     -11.824   6.264  70.217  1.00  0.00    -0.344 OA 
BRANCH   8  10
HETATM   10  C   UNL     1     -11.143   6.553  67.913  1.00  0.00    -0.352 C  
BRANCH  10  11
HETATM   11  C   UNL     1      -9.868   7.083  67.284  1.00  0.00    -0.214 C  
BRANCH  11  12
HETATM   12  C   UNL     1      -9.685   8.561  67.504  1.00  0.00    -0.162 C  
HETATM   13  O   UNL     1      -9.008   9.052  68.397  1.00  0.00    -0.133 OA 
BRANCH  12  14
HETATM   14  O   UNL     1     -10.470   9.292  66.666  1.00  0.00    -0.237 OA 
BRANCH  14  15
HETATM   15  C   UNL     1     -10.864  10.578  67.182  1.00  0.00    -0.259 C  
BRANCH  15  16
HETATM   16  C   UNL     1     -10.174  11.761  66.481  1.00  0.00    -0.208 C  
BRANCH  16  17
HETATM   17  N   UNL     1     -11.074  13.014  66.332  1.00  0.00    -0.281 N  
HETATM   18  C   UNL     1     -11.823  13.327  67.622  1.00  0.00    -0.357 C  
HETATM   19  C   UNL     1     -12.108  12.730  65.236  1.00  0.00    -0.457 C  
HETATM   20  C   UNL     1     -10.258  14.231  65.900  1.00  0.00    -0.324 C  
ENDBRANCH  16  17
ENDBRANCH  15  16
ENDBRANCH  14  15
ENDBRANCH  12  14
ENDBRANCH  11  12
ENDBRANCH  10  11
ENDBRANCH   8  10
ENDBRANCH   7   8
ENDBRANCH   6   7
ENDBRANCH   5   6
ENDBRANCH   2   5
TORSDOF 11
ENDMDL
MODEL      161
REMARK 921   NORMALIZED FREE ENERGY PREDICTED BY IDOCK:   -3.14 KCAL/MOL
REMARK 922        TOTAL FREE ENERGY PREDICTED BY IDOCK:   -5.91 KCAL/MOL
REMARK 923 INTER-LIGAND FREE ENERGY PREDICTED BY IDOCK:   -5.30 KCAL/MOL
REMARK 924 INTRA-LIGAND FREE ENERGY PREDICTED BY IDOCK:   -0.61 KCAL/MOL
REMARK 927      BINDING AFFINITY PREDICTED BY RF-SCORE:    0.00 PKD
ROOT
HETATM    1  C   UNL     1      -7.111   3.811  70.939  1.00  0.00    -0.033 C  
HETATM    2  N   UNL     1      -8.301   4.578  71.529  1.00  0.00    -0.100 N  
HETATM    3  C   UNL     1      -9.518   3.656  71.487  1.00  0.00    -0.150 C  
HETATM    4  C   UNL     1      -7.968   4.932  72.974  1.00  0.00    -0.101 C  
ENDROOT
BRANCH   2   5
HETATM    5  C   UNL     1      -8.529   5.844  70.669  1.00  0.00    -0.129 C  
BRANCH   5   6
HETATM    6  C   UNL     1     -10.011   6.223  70.495  1.00  0.00    -0.186 C  
BRANCH   6   7
HETATM    7  O   UNL     1     -10.234   7.641  70.378  1.00  0.00    -0.199 OA 
BRANCH   7   8
HETATM    8  C   UNL     1     -11.358   8.092  71.002  1.00  0.00    -0.269 C  
HETATM    9  O   UNL     1     -12.182   7.358  71.526  1.00  0.00    -0.305 OA 
BRANCH   8  10
HETATM   10  C   UNL     1     -11.372   9.597  71.088  1.00  0.00    -0.456 C  
BRANCH  10  11
HETATM   11  C   UNL     1     -10.558  10.250  69.986  1.00  0.00    -0.321 C  
BRANCH  11  12
HETATM   12  C   UNL     1     -11.420  10.845  68.905  1.00  0.00    -0.300 C  
HETATM   13  O   UNL     1     -11.646  10.315  67.825  1.00  0.00    -0.331 OA 
BRANCH  12  14
HETATM   14  O   UNL     1     -11.816  12.109  69.220  1.00  0.00    -0.304 OA 
BRANCH  14  15
HETATM   15  C   UNL     1     -11.054  13.153  68.586  1.00  0.00    -0.269 C  
BRANCH  15  16
HETATM   16  C   UNL     1     -11.844  13.932  67.519  1.00  0.00    -0.396 C  
BRANCH  16  17
HETATM   17  N   UNL     1     -11.315  13.731  66.076  1.00  0.00    -0.309 N  
HETATM   18  C   UNL     1     -11.011  15.061  65.397  1.00  0.00    -0.373 C  
HETATM   19  C   UNL     1     -12.403  13.018  65.265  1.00  0.00    -0.486 C  
HETATM   20  C   UNL     1     -10.069  12.848  66.064  1.00  0.00    -0.285 C  
ENDBRANCH  16  17
ENDBRANCH  15  16
ENDBRANCH  14  15
ENDBRANCH  12  14
ENDBRANCH  11  12
ENDBRANCH  10  11
ENDBRANCH   8  10
ENDBRANCH   7   8
ENDBRANCH   6   7
ENDBRANCH   5   6
ENDBRANCH   2   5
TORSDOF 11
ENDMDL
MODEL      162
REMARK 921   NORMALIZED FREE ENERGY PREDICTED BY IDOCK:   -3.14 KCAL/MOL
REMARK 922        TOTAL FREE ENERGY PREDICTED BY IDOCK:   -5.91 KCAL/MOL
REMARK 923 INTER-LIGAND FREE ENERGY PREDICTED BY IDOCK:   -5.28 KCAL/MOL
REMARK 924 INTRA-LIGAND FREE ENERGY PREDICTED BY IDOCK:   -0.62 KCAL/MOL
REMARK 927      BINDING AFFINITY PREDICTED BY RF-SCORE:    0.00 PKD
ROOT
HETATM    1  C   UNL     1      -5.657  10.217  68.092  1.00  0.00    -0.037 C  
HETATM    2  N   UNL     1      -6.211  11.557  68.593  1.00  0.00    -0.050 N  
HETATM    3  C   UNL     1      -5.841  11.691  70.070  1.00  0.00    -0.141 C  
HETATM    4  C   UNL     1      -5.555  12.674  67.790  1.00  0.00    -0.122 C  
ENDROOT
BRANCH   2   5
HETATM    5  C   UNL     1      -7.747  11.541  68.401  1.00  0.00    -0.129 C  
BRANCH   5   6
HETATM    6  C   UNL     1      -8.208  10.854  67.103  1.00  0.00    -0.126 C  
BRANCH   6   7
HETATM    7  O   UNL     1      -8.833  11.751  66.167  1.00  0.00    -0.188 OA 
BRANCH   7   8
HETATM    8  C   UNL     1      -9.711  11.157  65.311  1.00  0.00    -0.241 C  
HETATM    9  O   UNL     1      -9.539  10.048  64.826  1.00  0.00    -0.283 OA 
BRANCH   8  10
HETATM   10  C   UNL     1     -10.971  11.971  65.162  1.00  0.00    -0.359 C  
BRANCH  10  11
HETATM   11  C   UNL     1     -10.693  13.396  64.721  1.00  0.00    -0.403 C  
BRANCH  11  12
HETATM   12  C   UNL     1     -11.924  14.261  64.751  1.00  0.00    -0.440 C  
HETATM   13  O   UNL     1     -13.068  13.840  64.865  1.00  0.00    -0.716 OA 
BRANCH  12  14
HETATM   14  O   UNL     1     -11.624  15.566  64.506  1.00  0.00    -0.399 OA 
BRANCH  14  15
HETATM   15  C   UNL     1     -10.412  16.031  65.129  1.00  0.00    -0.303 C  
BRANCH  15  16
HETATM   16  C   UNL     1     -10.628  17.206  66.099  1.00  0.00    -0.201 C  
BRANCH  16  17
HETATM   17  N   UNL     1     -10.026  16.974  67.509  1.00  0.00    -0.266 N  
HETATM   18  C   UNL     1      -8.796  16.076  67.456  1.00  0.00    -0.189 C  
HETATM   19  C   UNL     1     -11.088  16.281  68.372  1.00  0.00    -0.362 C  
HETATM   20  C   UNL     1      -9.671  18.299  68.180  1.00  0.00    -0.327 C  
ENDBRANCH  16  17
ENDBRANCH  15  16
ENDBRANCH  14  15
ENDBRANCH  12  14
ENDBRANCH  11  12
ENDBRANCH  10  11
ENDBRANCH   8  10
ENDBRANCH   7   8
ENDBRANCH   6   7
ENDBRANCH   5   6
ENDBRANCH   2   5
TORSDOF 11
ENDMDL
MODEL      163
REMARK 921   NORMALIZED FREE ENERGY PREDICTED BY IDOCK:   -3.13 KCAL/MOL
REMARK 922        TOTAL FREE ENERGY PREDICTED BY IDOCK:   -5.90 KCAL/MOL
REMARK 923 INTER-LIGAND FREE ENERGY PREDICTED BY IDOCK:   -5.42 KCAL/MOL
REMARK 924 INTRA-LIGAND FREE ENERGY PREDICTED BY IDOCK:   -0.47 KCAL/MOL
REMARK 927      BINDING AFFINITY PREDICTED BY RF-SCORE:    0.00 PKD
ROOT
HETATM    1  C   UNL     1     -10.687  17.043  67.809  1.00  0.00    -0.318 C  
HETATM    2  N   UNL     1     -10.116  17.379  66.425  1.00  0.00    -0.315 N  
HETATM    3  C   UNL     1     -10.494  18.824  66.103  1.00  0.00    -0.446 C  
HETATM    4  C   UNL     1      -8.600  17.241  66.491  1.00  0.00    -0.264 C  
ENDROOT
BRANCH   2   5
HETATM    5  C   UNL     1     -10.736  16.398  65.401  1.00  0.00    -0.296 C  
BRANCH   5   6
HETATM    6  C   UNL     1     -11.036  15.001  65.975  1.00  0.00    -0.329 C  
BRANCH   6   7
HETATM    7  O   UNL     1     -12.213  14.389  65.416  1.00  0.00    -0.387 OA 
BRANCH   7   8
HETATM    8  C   UNL     1     -11.968  13.504  64.409  1.00  0.00    -0.422 C  
HETATM    9  O   UNL     1     -12.676  13.391  63.420  1.00  0.00    -0.687 OA 
BRANCH   8  10
HETATM   10  C   UNL     1     -10.649  12.801  64.604  1.00  0.00    -0.371 C  
BRANCH  10  11
HETATM   11  C   UNL     1     -10.708  11.747  65.694  1.00  0.00    -0.328 C  
BRANCH  11  12
HETATM   12  C   UNL     1      -9.364  11.486  66.320  1.00  0.00    -0.213 C  
HETATM   13  O   UNL     1      -8.590  10.607  65.964  1.00  0.00    -0.160 OA 
BRANCH  12  14
HETATM   14  O   UNL     1      -9.164  12.266  67.418  1.00  0.00    -0.172 OA 
BRANCH  14  15
HETATM   15  C   UNL     1      -7.804  12.702  67.604  1.00  0.00    -0.162 C  
BRANCH  15  16
HETATM   16  C   UNL     1      -7.686  14.131  68.164  1.00  0.00    -0.140 C  
BRANCH  16  17
HETATM   17  N   UNL     1      -6.326  14.428  68.845  1.00  0.00    -0.087 N  
HETATM   18  C   UNL     1      -6.400  14.247  70.356  1.00  0.00    -0.128 C  
HETATM   19  C   UNL     1      -5.957  15.888  68.555  1.00  0.00    -0.102 C  
HETATM   20  C   UNL     1      -5.219  13.545  68.272  1.00  0.00    -0.097 C  
ENDBRANCH  16  17
ENDBRANCH  15  16
ENDBRANCH  14  15
ENDBRANCH  12  14
ENDBRANCH  11  12
ENDBRANCH  10  11
ENDBRANCH   8  10
ENDBRANCH   7   8
ENDBRANCH   6   7
ENDBRANCH   5   6
ENDBRANCH   2   5
TORSDOF 11
ENDMDL
MODEL      164
REMARK 921   NORMALIZED FREE ENERGY PREDICTED BY IDOCK:   -3.13 KCAL/MOL
REMARK 922        TOTAL FREE ENERGY PREDICTED BY IDOCK:   -5.90 KCAL/MOL
REMARK 923 INTER-LIGAND FREE ENERGY PREDICTED BY IDOCK:   -5.27 KCAL/MOL
REMARK 924 INTRA-LIGAND FREE ENERGY PREDICTED BY IDOCK:   -0.63 KCAL/MOL
REMARK 927      BINDING AFFINITY PREDICTED BY RF-SCORE:    0.00 PKD
ROOT
HETATM    1  C   UNL     1     -11.709  12.235  66.385  1.00  0.00    -0.365 C  
HETATM    2  N   UNL     1     -10.934  13.502  66.000  1.00  0.00    -0.276 N  
HETATM    3  C   UNL     1     -11.431  13.954  64.628  1.00  0.00    -0.377 C  
HETATM    4  C   UNL     1     -11.233  14.576  67.040  1.00  0.00    -0.337 C  
ENDROOT
BRANCH   2   5
HETATM    5  C   UNL     1      -9.428  13.149  65.961  1.00  0.00    -0.089 C  
BRANCH   5   6
HETATM    6  C   UNL     1      -9.115  11.697  66.366  1.00  0.00    -0.206 C  
BRANCH   6   7
HETATM    7  O   UNL     1      -8.762  11.549  67.754  1.00  0.00    -0.134 OA 
BRANCH   7   8
HETATM    8  C   UNL     1      -8.148  10.373  68.062  1.00  0.00    -0.110 C  
HETATM    9  O   UNL     1      -7.202   9.920  67.435  1.00  0.00    -0.085 OA 
BRANCH   8  10
HETATM   10  C   UNL     1      -8.685   9.790  69.343  1.00  0.00    -0.178 C  
BRANCH  10  11
HETATM   11  C   UNL     1     -10.167   9.474  69.261  1.00  0.00    -0.212 C  
BRANCH  11  12
HETATM   12  C   UNL     1     -10.998  10.363  70.148  1.00  0.00    -0.300 C  
HETATM   13  O   UNL     1     -11.520  10.008  71.196  1.00  0.00    -0.357 OA 
BRANCH  12  14
HETATM   14  O   UNL     1     -11.209  11.582  69.578  1.00  0.00    -0.254 OA 
BRANCH  14  15
HETATM   15  C   UNL     1     -12.246  12.365  70.200  1.00  0.00    -0.229 C  
BRANCH  15  16
HETATM   16  C   UNL     1     -11.787  13.772  70.620  1.00  0.00    -0.185 C  
BRANCH  16  17
HETATM   17  N   UNL     1     -12.726  14.458  71.644  1.00  0.00    -0.327 N  
HETATM   18  C   UNL     1     -11.943  15.240  72.692  1.00  0.00    -0.431 C  
HETATM   19  C   UNL     1     -13.528  13.366  72.362  1.00  0.00    -0.584 C  
HETATM   20  C   UNL     1     -13.721  15.383  70.945  1.00  0.00    -0.236 C  
ENDBRANCH  16  17
ENDBRANCH  15  16
ENDBRANCH  14  15
ENDBRANCH  12  14
ENDBRANCH  11  12
ENDBRANCH  10  11
ENDBRANCH   8  10
ENDBRANCH   7   8
ENDBRANCH   6   7
ENDBRANCH   5   6
ENDBRANCH   2   5
TORSDOF 11
ENDMDL
MODEL      165
REMARK 921   NORMALIZED FREE ENERGY PREDICTED BY IDOCK:   -3.12 KCAL/MOL
REMARK 922        TOTAL FREE ENERGY PREDICTED BY IDOCK:   -5.87 KCAL/MOL
REMARK 923 INTER-LIGAND FREE ENERGY PREDICTED BY IDOCK:   -5.16 KCAL/MOL
REMARK 924 INTRA-LIGAND FREE ENERGY PREDICTED BY IDOCK:   -0.71 KCAL/MOL
REMARK 927      BINDING AFFINITY PREDICTED BY RF-SCORE:    0.00 PKD
ROOT
HETATM    1  C   UNL     1      -8.372   9.102  64.974  1.00  0.00    -0.158 C  
HETATM    2  N   UNL     1      -9.322   9.693  66.023  1.00  0.00    -0.190 N  
HETATM    3  C   UNL     1     -10.257  10.668  65.309  1.00  0.00    -0.282 C  
HETATM    4  C   UNL     1     -10.129   8.551  66.630  1.00  0.00    -0.294 C  
ENDROOT
BRANCH   2   5
HETATM    5  C   UNL     1      -8.466  10.418  67.089  1.00  0.00    -0.126 C  
BRANCH   5   6
HETATM    6  C   UNL     1      -9.013  10.290  68.523  1.00  0.00    -0.134 C  
BRANCH   6   7
HETATM    7  O   UNL     1      -9.992  11.292  68.858  1.00  0.00    -0.203 OA 
BRANCH   7   8
HETATM    8  C   UNL     1     -11.192  10.796  69.272  1.00  0.00    -0.272 C  
HETATM    9  O   UNL     1     -12.245  10.996  68.685  1.00  0.00    -0.571 OA 
BRANCH   8  10
HETATM   10  C   UNL     1     -11.027   9.862  70.443  1.00  0.00    -0.379 C  
BRANCH  10  11
HETATM   11  C   UNL     1     -12.351   9.510  71.095  1.00  0.00    -0.410 C  
BRANCH  11  12
HETATM   12  C   UNL     1     -12.373   8.105  71.637  1.00  0.00    -0.314 C  
HETATM   13  O   UNL     1     -12.997   7.177  71.138  1.00  0.00    -0.366 OA 
BRANCH  12  14
HETATM   14  O   UNL     1     -11.718   8.018  72.827  1.00  0.00    -0.396 OA 
BRANCH  14  15
HETATM   15  C   UNL     1     -10.929   6.824  72.992  1.00  0.00    -0.260 C  
BRANCH  15  16
HETATM   16  C   UNL     1      -9.847   6.945  74.079  1.00  0.00    -0.320 C  
BRANCH  16  17
HETATM   17  N   UNL     1      -8.404   6.735  73.554  1.00  0.00    -0.116 N  
HETATM   18  C   UNL     1      -8.394   6.293  72.095  1.00  0.00    -0.109 C  
HETATM   19  C   UNL     1      -7.748   5.631  74.392  1.00  0.00    -0.098 C  
HETATM   20  C   UNL     1      -7.569   8.003  73.716  1.00  0.00    -0.167 C  
ENDBRANCH  16  17
ENDBRANCH  15  16
ENDBRANCH  14  15
ENDBRANCH  12  14
ENDBRANCH  11  12
ENDBRANCH  10  11
ENDBRANCH   8  10
ENDBRANCH   7   8
ENDBRANCH   6   7
ENDBRANCH   5   6
ENDBRANCH   2   5
TORSDOF 11
ENDMDL
MODEL      166
REMARK 921   NORMALIZED FREE ENERGY PREDICTED BY IDOCK:   -3.11 KCAL/MOL
REMARK 922        TOTAL FREE ENERGY PREDICTED BY IDOCK:   -5.87 KCAL/MOL
REMARK 923 INTER-LIGAND FREE ENERGY PREDICTED BY IDOCK:   -5.15 KCAL/MOL
REMARK 924 INTRA-LIGAND FREE ENERGY PREDICTED BY IDOCK:   -0.71 KCAL/MOL
REMARK 927      BINDING AFFINITY PREDICTED BY RF-SCORE:    0.00 PKD
ROOT
HETATM    1  C   UNL     1     -10.835  15.394  66.566  1.00  0.00    -0.298 C  
HETATM    2  N   UNL     1     -11.470  13.998  66.537  1.00  0.00    -0.342 N  
HETATM    3  C   UNL     1     -11.954  13.676  67.950  1.00  0.00    -0.347 C  
HETATM    4  C   UNL     1     -12.656  14.036  65.580  1.00  0.00    -0.516 C  
ENDROOT
BRANCH   2   5
HETATM    5  C   UNL     1     -10.392  12.990  66.072  1.00  0.00    -0.285 C  
BRANCH   5   6
HETATM    6  C   UNL     1     -10.801  11.515  66.240  1.00  0.00    -0.282 C  
BRANCH   6   7
HETATM    7  O   UNL     1     -10.009  10.804  67.209  1.00  0.00    -0.178 OA 
BRANCH   7   8
HETATM    8  C   UNL     1      -9.044  10.003  66.676  1.00  0.00    -0.147 C  
HETATM    9  O   UNL     1      -7.847  10.225  66.780  1.00  0.00    -0.110 OA 
BRANCH   8  10
HETATM   10  C   UNL     1      -9.635   8.751  66.080  1.00  0.00    -0.323 C  
BRANCH  10  11
HETATM   11  C   UNL     1     -10.359   7.904  67.110  1.00  0.00    -0.398 C  
BRANCH  11  12
HETATM   12  C   UNL     1      -9.420   7.269  68.101  1.00  0.00    -0.133 C  
HETATM   13  O   UNL     1      -8.639   6.364  67.837  1.00  0.00    -0.117 OA 
BRANCH  12  14
HETATM   14  O   UNL     1      -9.633   7.735  69.362  1.00  0.00    -0.156 OA 
BRANCH  14  15
HETATM   15  C   UNL     1     -10.962   7.506  69.870  1.00  0.00    -0.211 C  
BRANCH  15  16
HETATM   16  C   UNL     1     -11.104   6.187  70.651  1.00  0.00    -0.317 C  
BRANCH  16  17
HETATM   17  N   UNL     1     -10.839   6.327  72.171  1.00  0.00    -0.231 N  
HETATM   18  C   UNL     1     -11.321   7.670  72.707  1.00  0.00    -0.367 C  
HETATM   19  C   UNL     1      -9.326   6.236  72.401  1.00  0.00    -0.141 C  
HETATM   20  C   UNL     1     -11.498   5.192  72.952  1.00  0.00    -0.254 C  
ENDBRANCH  16  17
ENDBRANCH  15  16
ENDBRANCH  14  15
ENDBRANCH  12  14
ENDBRANCH  11  12
ENDBRANCH  10  11
ENDBRANCH   8  10
ENDBRANCH   7   8
ENDBRANCH   6   7
ENDBRANCH   5   6
ENDBRANCH   2   5
TORSDOF 11
ENDMDL
MODEL      167
REMARK 921   NORMALIZED FREE ENERGY PREDICTED BY IDOCK:   -3.11 KCAL/MOL
REMARK 922        TOTAL FREE ENERGY PREDICTED BY IDOCK:   -5.86 KCAL/MOL
REMARK 923 INTER-LIGAND FREE ENERGY PREDICTED BY IDOCK:   -5.40 KCAL/MOL
REMARK 924 INTRA-LIGAND FREE ENERGY PREDICTED BY IDOCK:   -0.46 KCAL/MOL
REMARK 927      BINDING AFFINITY PREDICTED BY RF-SCORE:    0.00 PKD
ROOT
HETATM    1  C   UNL     1     -14.388  15.294  71.972  1.00  0.00    -0.589 C  
HETATM    2  N   UNL     1     -12.965  14.734  71.854  1.00  0.00    -0.311 N  
HETATM    3  C   UNL     1     -12.434  15.100  70.469  1.00  0.00    -0.379 C  
HETATM    4  C   UNL     1     -12.106  15.388  72.929  1.00  0.00    -0.437 C  
ENDROOT
BRANCH   2   5
HETATM    5  C   UNL     1     -13.039  13.199  72.037  1.00  0.00    -0.376 C  
BRANCH   5   6
HETATM    6  C   UNL     1     -12.372  12.401  70.901  1.00  0.00    -0.262 C  
BRANCH   6   7
HETATM    7  O   UNL     1     -12.705  11.001  70.907  1.00  0.00    -0.354 OA 
BRANCH   7   8
HETATM    8  C   UNL     1     -11.694  10.175  70.518  1.00  0.00    -0.322 C  
HETATM    9  O   UNL     1     -11.269  10.117  69.373  1.00  0.00    -0.230 OA 
BRANCH   8  10
HETATM   10  C   UNL     1     -11.079   9.464  71.696  1.00  0.00    -0.409 C  
BRANCH  10  11
HETATM   11  C   UNL     1     -11.608   8.052  71.864  1.00  0.00    -0.348 C  
BRANCH  11  12
HETATM   12  C   UNL     1     -10.613   7.136  72.524  1.00  0.00    -0.240 C  
HETATM   13  O   UNL     1     -10.330   7.158  73.714  1.00  0.00    -0.351 OA 
BRANCH  12  14
HETATM   14  O   UNL     1      -9.965   6.361  71.611  1.00  0.00    -0.175 OA 
BRANCH  14  15
HETATM   15  C   UNL     1      -8.635   5.963  71.996  1.00  0.00    -0.137 C  
BRANCH  15  16
HETATM   16  C   UNL     1      -8.215   4.593  71.437  1.00  0.00    -0.102 C  
BRANCH  16  17
HETATM   17  N   UNL     1      -8.576   3.401  72.361  1.00  0.00    -0.083 N  
HETATM   18  C   UNL     1      -7.485   2.336  72.359  1.00  0.00    -0.043 C  
HETATM   19  C   UNL     1      -9.867   2.764  71.833  1.00  0.00    -0.159 C  
HETATM   20  C   UNL     1      -8.838   3.872  73.790  1.00  0.00    -0.092 C  
ENDBRANCH  16  17
ENDBRANCH  15  16
ENDBRANCH  14  15
ENDBRANCH  12  14
ENDBRANCH  11  12
ENDBRANCH  10  11
ENDBRANCH   8  10
ENDBRANCH   7   8
ENDBRANCH   6   7
ENDBRANCH   5   6
ENDBRANCH   2   5
TORSDOF 11
ENDMDL
MODEL      168
REMARK 921   NORMALIZED FREE ENERGY PREDICTED BY IDOCK:   -3.11 KCAL/MOL
REMARK 922        TOTAL FREE ENERGY PREDICTED BY IDOCK:   -5.86 KCAL/MOL
REMARK 923 INTER-LIGAND FREE ENERGY PREDICTED BY IDOCK:   -5.43 KCAL/MOL
REMARK 924 INTRA-LIGAND FREE ENERGY PREDICTED BY IDOCK:   -0.43 KCAL/MOL
REMARK 927      BINDING AFFINITY PREDICTED BY RF-SCORE:    0.00 PKD
ROOT
HETATM    1  C   UNL     1     -10.042   4.285  71.185  1.00  0.00    -0.103 C  
HETATM    2  N   UNL     1     -10.551   5.497  71.975  1.00  0.00    -0.222 N  
HETATM    3  C   UNL     1     -11.449   4.978  73.097  1.00  0.00    -0.282 C  
HETATM    4  C   UNL     1      -9.347   6.220  72.567  1.00  0.00    -0.146 C  
ENDROOT
BRANCH   2   5
HETATM    5  C   UNL     1     -11.341   6.405  71.002  1.00  0.00    -0.328 C  
BRANCH   5   6
HETATM    6  C   UNL     1     -11.044   6.137  69.516  1.00  0.00    -0.420 C  
BRANCH   6   7
HETATM    7  O   UNL     1     -10.008   6.978  68.974  1.00  0.00    -0.158 OA 
BRANCH   7   8
HETATM    8  C   UNL     1     -10.384   7.715  67.891  1.00  0.00    -0.212 C  
HETATM    9  O   UNL     1     -11.155   7.312  67.033  1.00  0.00    -0.308 OA 
BRANCH   8  10
HETATM   10  C   UNL     1      -9.848   9.121  67.969  1.00  0.00    -0.197 C  
BRANCH  10  11
HETATM   11  C   UNL     1     -10.531  10.058  66.990  1.00  0.00    -0.302 C  
BRANCH  11  12
HETATM   12  C   UNL     1     -11.216  11.211  67.675  1.00  0.00    -0.297 C  
HETATM   13  O   UNL     1     -12.294  11.138  68.250  1.00  0.00    -0.532 OA 
BRANCH  12  14
HETATM   14  O   UNL     1     -10.552  12.381  67.467  1.00  0.00    -0.214 OA 
BRANCH  14  15
HETATM   15  C   UNL     1     -11.265  13.560  67.888  1.00  0.00    -0.274 C  
BRANCH  15  16
HETATM   16  C   UNL     1     -10.547  14.874  67.536  1.00  0.00    -0.266 C  
BRANCH  16  17
HETATM   17  N   UNL     1     -10.452  15.873  68.717  1.00  0.00    -0.227 N  
HETATM   18  C   UNL     1     -10.724  17.304  68.269  1.00  0.00    -0.349 C  
HETATM   19  C   UNL     1      -9.027  15.810  69.280  1.00  0.00    -0.266 C  
HETATM   20  C   UNL     1     -11.414  15.491  69.840  1.00  0.00    -0.327 C  
ENDBRANCH  16  17
ENDBRANCH  15  16
ENDBRANCH  14  15
ENDBRANCH  12  14
ENDBRANCH  11  12
ENDBRANCH  10  11
ENDBRANCH   8  10
ENDBRANCH   7   8
ENDBRANCH   6   7
ENDBRANCH   5   6
ENDBRANCH   2   5
TORSDOF 11
ENDMDL
MODEL      169
REMARK 921   NORMALIZED FREE ENERGY PREDICTED BY IDOCK:   -3.10 KCAL/MOL
REMARK 922        TOTAL FREE ENERGY PREDICTED BY IDOCK:   -5.85 KCAL/MOL
REMARK 923 INTER-LIGAND FREE ENERGY PREDICTED BY IDOCK:   -5.17 KCAL/MOL
REMARK 924 INTRA-LIGAND FREE ENERGY PREDICTED BY IDOCK:   -0.68 KCAL/MOL
REMARK 927      BINDING AFFINITY PREDICTED BY RF-SCORE:    0.00 PKD
ROOT
HETATM    1  C   UNL     1      -7.464   7.572  64.985  1.00  0.00    -0.084 C  
HETATM    2  N   UNL     1      -7.914   8.939  64.454  1.00  0.00    -0.129 N  
HETATM    3  C   UNL     1      -6.746   9.911  64.620  1.00  0.00    -0.123 C  
HETATM    4  C   UNL     1      -8.256   8.786  62.977  1.00  0.00    -0.188 C  
ENDROOT
BRANCH   2   5
HETATM    5  C   UNL     1      -9.141   9.394  65.281  1.00  0.00    -0.232 C  
BRANCH   5   6
HETATM    6  C   UNL     1      -9.419   8.522  66.519  1.00  0.00    -0.218 C  
BRANCH   6   7
HETATM    7  O   UNL     1     -10.558   8.955  67.285  1.00  0.00    -0.283 OA 
BRANCH   7   8
HETATM    8  C   UNL     1     -10.493   8.662  68.614  1.00  0.00    -0.177 C  
HETATM    9  O   UNL     1     -10.149   7.573  69.051  1.00  0.00    -0.181 OA 
BRANCH   8  10
HETATM   10  C   UNL     1     -10.753   9.881  69.461  1.00  0.00    -0.265 C  
BRANCH  10  11
HETATM   11  C   UNL     1     -11.697  10.862  68.791  1.00  0.00    -0.355 C  
BRANCH  11  12
HETATM   12  C   UNL     1     -11.433  12.288  69.198  1.00  0.00    -0.296 C  
HETATM   13  O   UNL     1     -12.010  12.869  70.108  1.00  0.00    -0.341 OA 
BRANCH  12  14
HETATM   14  O   UNL     1     -10.565  12.898  68.346  1.00  0.00    -0.241 OA 
BRANCH  14  15
HETATM   15  C   UNL     1     -11.095  14.060  67.678  1.00  0.00    -0.282 C  
BRANCH  15  16
HETATM   16  C   UNL     1     -12.030  13.722  66.504  1.00  0.00    -0.434 C  
BRANCH  16  17
HETATM   17  N   UNL     1     -11.409  13.994  65.110  1.00  0.00    -0.317 N  
HETATM   18  C   UNL     1     -11.011  12.701  64.408  1.00  0.00    -0.351 C  
HETATM   19  C   UNL     1     -10.145  14.839  65.308  1.00  0.00    -0.354 C  
HETATM   20  C   UNL     1     -12.368  14.788  64.225  1.00  0.00    -0.320 C  
ENDBRANCH  16  17
ENDBRANCH  15  16
ENDBRANCH  14  15
ENDBRANCH  12  14
ENDBRANCH  11  12
ENDBRANCH  10  11
ENDBRANCH   8  10
ENDBRANCH   7   8
ENDBRANCH   6   7
ENDBRANCH   5   6
ENDBRANCH   2   5
TORSDOF 11
ENDMDL
MODEL      170
REMARK 921   NORMALIZED FREE ENERGY PREDICTED BY IDOCK:   -3.10 KCAL/MOL
REMARK 922        TOTAL FREE ENERGY PREDICTED BY IDOCK:   -5.85 KCAL/MOL
REMARK 923 INTER-LIGAND FREE ENERGY PREDICTED BY IDOCK:   -5.25 KCAL/MOL
REMARK 924 INTRA-LIGAND FREE ENERGY PREDICTED BY IDOCK:   -0.60 KCAL/MOL
REMARK 927      BINDING AFFINITY PREDICTED BY RF-SCORE:    0.00 PKD
ROOT
HETATM    1  C   UNL     1     -10.484   4.028  64.434  1.00  0.00    -0.197 C  
HETATM    2  N   UNL     1      -9.479   4.286  65.564  1.00  0.00    -0.163 N  
HETATM    3  C   UNL     1      -8.719   2.985  65.817  1.00  0.00    -0.130 C  
HETATM    4  C   UNL     1      -8.513   5.370  65.101  1.00  0.00    -0.150 C  
ENDROOT
BRANCH   2   5
HETATM    5  C   UNL     1     -10.271   4.724  66.819  1.00  0.00    -0.213 C  
BRANCH   5   6
HETATM    6  C   UNL     1     -10.815   6.163  66.744  1.00  0.00    -0.285 C  
BRANCH   6   7
HETATM    7  O   UNL     1     -10.394   6.996  67.841  1.00  0.00    -0.175 OA 
BRANCH   7   8
HETATM    8  C   UNL     1      -9.627   8.062  67.481  1.00  0.00    -0.153 C  
HETATM    9  O   UNL     1      -8.440   8.166  67.755  1.00  0.00    -0.129 OA 
BRANCH   8  10
HETATM   10  C   UNL     1     -10.385   9.009  66.587  1.00  0.00    -0.289 C  
BRANCH  10  11
HETATM   11  C   UNL     1      -9.883  10.437  66.695  1.00  0.00    -0.251 C  
BRANCH  11  12
HETATM   12  C   UNL     1     -10.799  11.313  67.508  1.00  0.00    -0.245 C  
HETATM   13  O   UNL     1     -11.924  10.995  67.871  1.00  0.00    -0.620 OA 
BRANCH  12  14
HETATM   14  O   UNL     1     -10.275  12.557  67.685  1.00  0.00    -0.213 OA 
BRANCH  14  15
HETATM   15  C   UNL     1      -9.556  13.072  66.548  1.00  0.00    -0.260 C  
BRANCH  15  16
HETATM   16  C   UNL     1     -10.118  14.401  66.014  1.00  0.00    -0.322 C  
BRANCH  16  17
HETATM   17  N   UNL     1     -11.320  14.232  65.050  1.00  0.00    -0.348 N  
HETATM   18  C   UNL     1     -11.040  13.185  63.978  1.00  0.00    -0.361 C  
HETATM   19  C   UNL     1     -11.565  15.576  64.354  1.00  0.00    -0.258 C  
HETATM   20  C   UNL     1     -12.590  13.863  65.814  1.00  0.00    -0.494 C  
ENDBRANCH  16  17
ENDBRANCH  15  16
ENDBRANCH  14  15
ENDBRANCH  12  14
ENDBRANCH  11  12
ENDBRANCH  10  11
ENDBRANCH   8  10
ENDBRANCH   7   8
ENDBRANCH   6   7
ENDBRANCH   5   6
ENDBRANCH   2   5
TORSDOF 11
ENDMDL
MODEL      171
REMARK 921   NORMALIZED FREE ENERGY PREDICTED BY IDOCK:   -3.10 KCAL/MOL
REMARK 922        TOTAL FREE ENERGY PREDICTED BY IDOCK:   -5.85 KCAL/MOL
REMARK 923 INTER-LIGAND FREE ENERGY PREDICTED BY IDOCK:   -5.36 KCAL/MOL
REMARK 924 INTRA-LIGAND FREE ENERGY PREDICTED BY IDOCK:   -0.49 KCAL/MOL
REMARK 927      BINDING AFFINITY PREDICTED BY RF-SCORE:    0.00 PKD
ROOT
HETATM    1  C   UNL     1     -11.035   6.556  67.010  1.00  0.00    -0.396 C  
HETATM    2  N   UNL     1      -9.829   7.351  67.527  1.00  0.00    -0.149 N  
HETATM    3  C   UNL     1      -9.335   6.672  68.803  1.00  0.00    -0.131 C  
HETATM    4  C   UNL     1      -8.740   7.309  66.462  1.00  0.00    -0.133 C  
ENDROOT
BRANCH   2   5
HETATM    5  C   UNL     1     -10.297   8.799  67.810  1.00  0.00    -0.237 C  
BRANCH   5   6
HETATM    6  C   UNL     1     -10.472   9.658  66.544  1.00  0.00    -0.143 C  
BRANCH   6   7
HETATM    7  O   UNL     1      -9.980  11.004  66.688  1.00  0.00    -0.198 OA 
BRANCH   7   8
HETATM    8  C   UNL     1     -10.912  11.907  67.103  1.00  0.00    -0.269 C  
HETATM    9  O   UNL     1     -12.115  11.690  67.097  1.00  0.00    -0.575 OA 
BRANCH   8  10
HETATM   10  C   UNL     1     -10.264  13.129  67.702  1.00  0.00    -0.224 C  
BRANCH  10  11
HETATM   11  C   UNL     1      -9.007  13.543  66.960  1.00  0.00    -0.237 C  
BRANCH  11  12
HETATM   12  C   UNL     1      -8.914  15.033  66.765  1.00  0.00    -0.265 C  
HETATM   13  O   UNL     1      -7.885  15.636  66.492  1.00  0.00    -0.184 OA 
BRANCH  12  14
HETATM   14  O   UNL     1     -10.092  15.650  67.057  1.00  0.00    -0.244 OA 
BRANCH  14  15
HETATM   15  C   UNL     1     -10.206  16.996  66.556  1.00  0.00    -0.320 C  
BRANCH  15  16
HETATM   16  C   UNL     1     -10.209  18.066  67.661  1.00  0.00    -0.368 C  
BRANCH  16  17
HETATM   17  N   UNL     1      -9.191  19.211  67.427  1.00  0.00    -0.295 N  
HETATM   18  C   UNL     1      -9.884  20.560  67.273  1.00  0.00    -0.441 C  
HETATM   19  C   UNL     1      -8.429  18.914  66.130  1.00  0.00    -0.183 C  
HETATM   20  C   UNL     1      -8.171  19.281  68.562  1.00  0.00    -0.366 C  
ENDBRANCH  16  17
ENDBRANCH  15  16
ENDBRANCH  14  15
ENDBRANCH  12  14
ENDBRANCH  11  12
ENDBRANCH  10  11
ENDBRANCH   8  10
ENDBRANCH   7   8
ENDBRANCH   6   7
ENDBRANCH   5   6
ENDBRANCH   2   5
TORSDOF 11
ENDMDL
MODEL      172
REMARK 921   NORMALIZED FREE ENERGY PREDICTED BY IDOCK:   -3.09 KCAL/MOL
REMARK 922        TOTAL FREE ENERGY PREDICTED BY IDOCK:   -5.83 KCAL/MOL
REMARK 923 INTER-LIGAND FREE ENERGY PREDICTED BY IDOCK:   -5.19 KCAL/MOL
REMARK 924 INTRA-LIGAND FREE ENERGY PREDICTED BY IDOCK:   -0.64 KCAL/MOL
REMARK 927      BINDING AFFINITY PREDICTED BY RF-SCORE:    0.00 PKD
ROOT
HETATM    1  C   UNL     1      -5.874  10.080  68.138  1.00  0.00    -0.042 C  
HETATM    2  N   UNL     1      -6.363  11.508  68.407  1.00  0.00    -0.049 N  
HETATM    3  C   UNL     1      -6.037  11.846  69.861  1.00  0.00    -0.153 C  
HETATM    4  C   UNL     1      -5.612  12.451  67.475  1.00  0.00    -0.130 C  
ENDROOT
BRANCH   2   5
HETATM    5  C   UNL     1      -7.889  11.548  68.153  1.00  0.00    -0.128 C  
BRANCH   5   6
HETATM    6  C   UNL     1      -8.333  10.781  66.894  1.00  0.00    -0.132 C  
BRANCH   6   7
HETATM    7  O   UNL     1      -8.838  11.633  65.848  1.00  0.00    -0.164 OA 
BRANCH   7   8
HETATM    8  C   UNL     1      -9.056  11.004  64.660  1.00  0.00    -0.122 C  
HETATM    9  O   UNL     1      -8.227  10.294  64.107  1.00  0.00    -0.160 OA 
BRANCH   8  10
HETATM   10  C   UNL     1     -10.481  11.175  64.199  1.00  0.00    -0.442 C  
BRANCH  10  11
HETATM   11  C   UNL     1     -10.862  12.632  64.022  1.00  0.00    -0.452 C  
BRANCH  11  12
HETATM   12  C   UNL     1     -12.235  12.940  64.557  1.00  0.00    -0.426 C  
HETATM   13  O   UNL     1     -13.253  12.334  64.251  1.00  0.00    -0.785 OA 
BRANCH  12  14
HETATM   14  O   UNL     1     -12.231  14.063  65.329  1.00  0.00    -0.396 OA 
BRANCH  14  15
HETATM   15  C   UNL     1     -11.419  13.972  66.515  1.00  0.00    -0.357 C  
BRANCH  15  16
HETATM   16  C   UNL     1     -12.100  14.541  67.772  1.00  0.00    -0.234 C  
BRANCH  16  17
HETATM   17  N   UNL     1     -11.387  14.165  69.096  1.00  0.00    -0.265 N  
HETATM   18  C   UNL     1     -12.223  14.541  70.314  1.00  0.00    -0.330 C  
HETATM   19  C   UNL     1     -10.067  14.941  69.164  1.00  0.00    -0.226 C  
HETATM   20  C   UNL     1     -11.055  12.674  69.138  1.00  0.00    -0.195 C  
ENDBRANCH  16  17
ENDBRANCH  15  16
ENDBRANCH  14  15
ENDBRANCH  12  14
ENDBRANCH  11  12
ENDBRANCH  10  11
ENDBRANCH   8  10
ENDBRANCH   7   8
ENDBRANCH   6   7
ENDBRANCH   5   6
ENDBRANCH   2   5
TORSDOF 11
ENDMDL
MODEL      173
REMARK 921   NORMALIZED FREE ENERGY PREDICTED BY IDOCK:   -3.08 KCAL/MOL
REMARK 922        TOTAL FREE ENERGY PREDICTED BY IDOCK:   -5.81 KCAL/MOL
REMARK 923 INTER-LIGAND FREE ENERGY PREDICTED BY IDOCK:   -5.02 KCAL/MOL
REMARK 924 INTRA-LIGAND FREE ENERGY PREDICTED BY IDOCK:   -0.79 KCAL/MOL
REMARK 927      BINDING AFFINITY PREDICTED BY RF-SCORE:    0.00 PKD
ROOT
HETATM    1  C   UNL     1      -9.821  14.400  68.105  1.00  0.00    -0.223 C  
HETATM    2  N   UNL     1     -11.318  14.736  68.102  1.00  0.00    -0.293 N  
HETATM    3  C   UNL     1     -11.935  14.125  69.360  1.00  0.00    -0.337 C  
HETATM    4  C   UNL     1     -11.464  16.253  68.138  1.00  0.00    -0.173 C  
ENDROOT
BRANCH   2   5
HETATM    5  C   UNL     1     -11.943  14.131  66.822  1.00  0.00    -0.447 C  
BRANCH   5   6
HETATM    6  C   UNL     1     -11.439  14.774  65.517  1.00  0.00    -0.329 C  
BRANCH   6   7
HETATM    7  O   UNL     1     -10.416  14.008  64.855  1.00  0.00    -0.393 OA 
BRANCH   7   8
HETATM    8  C   UNL     1     -10.877  12.941  64.144  1.00  0.00    -0.416 C  
HETATM    9  O   UNL     1     -11.861  12.984  63.420  1.00  0.00    -0.524 OA 
BRANCH   8  10
HETATM   10  C   UNL     1      -9.942  11.764  64.250  1.00  0.00    -0.287 C  
BRANCH  10  11
HETATM   11  C   UNL     1     -10.547  10.610  65.028  1.00  0.00    -0.187 C  
BRANCH  11  12
HETATM   12  C   UNL     1     -10.528  10.842  66.515  1.00  0.00    -0.240 C  
HETATM   13  O   UNL     1     -11.485  10.669  67.258  1.00  0.00    -0.412 OA 
BRANCH  12  14
HETATM   14  O   UNL     1      -9.351  11.393  66.921  1.00  0.00    -0.175 OA 
BRANCH  14  15
HETATM   15  C   UNL     1      -8.471  10.488  67.614  1.00  0.00    -0.115 C  
BRANCH  15  16
HETATM   16  C   UNL     1      -7.185  11.155  68.132  1.00  0.00    -0.080 C  
BRANCH  16  17
HETATM   17  N   UNL     1      -6.537  10.419  69.333  1.00  0.00    -0.055 N  
HETATM   18  C   UNL     1      -7.588   9.838  70.272  1.00  0.00    -0.172 C  
HETATM   19  C   UNL     1      -5.702  11.436  70.120  1.00  0.00    -0.129 C  
HETATM   20  C   UNL     1      -5.598   9.312  68.859  1.00  0.00    -0.037 C  
ENDBRANCH  16  17
ENDBRANCH  15  16
ENDBRANCH  14  15
ENDBRANCH  12  14
ENDBRANCH  11  12
ENDBRANCH  10  11
ENDBRANCH   8  10
ENDBRANCH   7   8
ENDBRANCH   6   7
ENDBRANCH   5   6
ENDBRANCH   2   5
TORSDOF 11
ENDMDL
MODEL      174
REMARK 921   NORMALIZED FREE ENERGY PREDICTED BY IDOCK:   -3.08 KCAL/MOL
REMARK 922        TOTAL FREE ENERGY PREDICTED BY IDOCK:   -5.81 KCAL/MOL
REMARK 923 INTER-LIGAND FREE ENERGY PREDICTED BY IDOCK:   -4.92 KCAL/MOL
REMARK 924 INTRA-LIGAND FREE ENERGY PREDICTED BY IDOCK:   -0.88 KCAL/MOL
REMARK 927      BINDING AFFINITY PREDICTED BY RF-SCORE:    0.00 PKD
ROOT
HETATM    1  C   UNL     1      -7.174  17.651  65.980  1.00  0.00    -0.281 C  
HETATM    2  N   UNL     1      -8.162  18.607  66.660  1.00  0.00    -0.269 N  
HETATM    3  C   UNL     1      -7.924  18.527  68.168  1.00  0.00    -0.289 C  
HETATM    4  C   UNL     1      -7.874  20.019  66.165  1.00  0.00    -0.293 C  
ENDROOT
BRANCH   2   5
HETATM    5  C   UNL     1      -9.596  18.153  66.296  1.00  0.00    -0.239 C  
BRANCH   5   6
HETATM    6  C   UNL     1     -10.262  17.268  67.365  1.00  0.00    -0.325 C  
BRANCH   6   7
HETATM    7  O   UNL     1     -10.490  15.914  66.931  1.00  0.00    -0.301 OA 
BRANCH   7   8
HETATM    8  C   UNL     1     -11.483  15.263  67.599  1.00  0.00    -0.280 C  
HETATM    9  O   UNL     1     -11.886  15.596  68.704  1.00  0.00    -0.372 OA 
BRANCH   8  10
HETATM   10  C   UNL     1     -12.110  14.191  66.746  1.00  0.00    -0.474 C  
BRANCH  10  11
HETATM   11  C   UNL     1     -11.682  12.795  67.160  1.00  0.00    -0.443 C  
BRANCH  11  12
HETATM   12  C   UNL     1     -10.275  12.471  66.732  1.00  0.00    -0.231 C  
HETATM   13  O   UNL     1      -9.918  12.325  65.571  1.00  0.00    -0.252 OA 
BRANCH  12  14
HETATM   14  O   UNL     1      -9.470  12.230  67.803  1.00  0.00    -0.185 OA 
BRANCH  14  15
HETATM   15  C   UNL     1      -8.064  12.170  67.496  1.00  0.00    -0.163 C  
BRANCH  15  16
HETATM   16  C   UNL     1      -7.403  13.552  67.358  1.00  0.00    -0.109 C  
BRANCH  16  17
HETATM   17  N   UNL     1      -6.884  14.136  68.696  1.00  0.00    -0.093 N  
HETATM   18  C   UNL     1      -7.912  15.053  69.348  1.00  0.00    -0.170 C  
HETATM   19  C   UNL     1      -5.626  14.961  68.400  1.00  0.00    -0.109 C  
HETATM   20  C   UNL     1      -6.494  13.023  69.667  1.00  0.00    -0.044 C  
ENDBRANCH  16  17
ENDBRANCH  15  16
ENDBRANCH  14  15
ENDBRANCH  12  14
ENDBRANCH  11  12
ENDBRANCH  10  11
ENDBRANCH   8  10
ENDBRANCH   7   8
ENDBRANCH   6   7
ENDBRANCH   5   6
ENDBRANCH   2   5
TORSDOF 11
ENDMDL
MODEL      175
REMARK 921   NORMALIZED FREE ENERGY PREDICTED BY IDOCK:   -3.07 KCAL/MOL
REMARK 922        TOTAL FREE ENERGY PREDICTED BY IDOCK:   -5.79 KCAL/MOL
REMARK 923 INTER-LIGAND FREE ENERGY PREDICTED BY IDOCK:   -5.22 KCAL/MOL
REMARK 924 INTRA-LIGAND FREE ENERGY PREDICTED BY IDOCK:   -0.58 KCAL/MOL
REMARK 927      BINDING AFFINITY PREDICTED BY RF-SCORE:    0.00 PKD
ROOT
HETATM    1  C   UNL     1     -10.489   8.102  69.709  1.00  0.00    -0.227 C  
HETATM    2  N   UNL     1     -10.190   7.080  68.604  1.00  0.00    -0.170 N  
HETATM    3  C   UNL     1      -8.801   6.501  68.868  1.00  0.00    -0.126 C  
HETATM    4  C   UNL     1     -11.237   5.975  68.683  1.00  0.00    -0.083 C  
ENDROOT
BRANCH   2   5
HETATM    5  C   UNL     1     -10.239   7.818  67.245  1.00  0.00    -0.273 C  
BRANCH   5   6
HETATM    6  C   UNL     1      -9.042   8.755  66.999  1.00  0.00    -0.133 C  
BRANCH   6   7
HETATM    7  O   UNL     1      -9.388   9.957  66.286  1.00  0.00    -0.160 OA 
BRANCH   7   8
HETATM    8  C   UNL     1      -9.769  10.997  67.080  1.00  0.00    -0.174 C  
HETATM    9  O   UNL     1      -9.560  11.042  68.284  1.00  0.00    -0.158 OA 
BRANCH   8  10
HETATM   10  C   UNL     1     -10.338  12.130  66.267  1.00  0.00    -0.250 C  
BRANCH  10  11
HETATM   11  C   UNL     1     -10.364  13.440  67.033  1.00  0.00    -0.247 C  
BRANCH  11  12
HETATM   12  C   UNL     1     -11.675  14.166  66.894  1.00  0.00    -0.414 C  
HETATM   13  O   UNL     1     -12.022  14.792  65.901  1.00  0.00    -0.281 OA 
BRANCH  12  14
HETATM   14  O   UNL     1     -12.379  14.153  68.059  1.00  0.00    -0.233 OA 
BRANCH  14  15
HETATM   15  C   UNL     1     -11.581  14.327  69.246  1.00  0.00    -0.306 C  
BRANCH  15  16
HETATM   16  C   UNL     1     -12.102  15.430  70.183  1.00  0.00    -0.369 C  
BRANCH  16  17
HETATM   17  N   UNL     1     -12.790  14.892  71.463  1.00  0.00    -0.312 N  
HETATM   18  C   UNL     1     -14.205  15.438  71.615  1.00  0.00    -0.515 C  
HETATM   19  C   UNL     1     -11.968  15.350  72.674  1.00  0.00    -0.449 C  
HETATM   20  C   UNL     1     -12.821  13.365  71.471  1.00  0.00    -0.337 C  
ENDBRANCH  16  17
ENDBRANCH  15  16
ENDBRANCH  14  15
ENDBRANCH  12  14
ENDBRANCH  11  12
ENDBRANCH  10  11
ENDBRANCH   8  10
ENDBRANCH   7   8
ENDBRANCH   6   7
ENDBRANCH   5   6
ENDBRANCH   2   5
TORSDOF 11
ENDMDL
MODEL      176
REMARK 921   NORMALIZED FREE ENERGY PREDICTED BY IDOCK:   -3.07 KCAL/MOL
REMARK 922        TOTAL FREE ENERGY PREDICTED BY IDOCK:   -5.79 KCAL/MOL
REMARK 923 INTER-LIGAND FREE ENERGY PREDICTED BY IDOCK:   -5.11 KCAL/MOL
REMARK 924 INTRA-LIGAND FREE ENERGY PREDICTED BY IDOCK:   -0.68 KCAL/MOL
REMARK 927      BINDING AFFINITY PREDICTED BY RF-SCORE:    0.00 PKD
ROOT
HETATM    1  C   UNL     1     -11.780  14.895  67.628  1.00  0.00    -0.307 C  
HETATM    2  N   UNL     1     -11.524  13.812  66.573  1.00  0.00    -0.334 N  
HETATM    3  C   UNL     1     -12.659  13.876  65.553  1.00  0.00    -0.526 C  
HETATM    4  C   UNL     1     -10.195  14.118  65.891  1.00  0.00    -0.319 C  
ENDROOT
BRANCH   2   5
HETATM    5  C   UNL     1     -11.495  12.441  67.292  1.00  0.00    -0.354 C  
BRANCH   5   6
HETATM    6  C   UNL     1     -11.024  11.278  66.400  1.00  0.00    -0.227 C  
BRANCH   6   7
HETATM    7  O   UNL     1      -9.698  10.812  66.714  1.00  0.00    -0.179 OA 
BRANCH   7   8
HETATM    8  C   UNL     1      -9.542  10.360  67.990  1.00  0.00    -0.143 C  
HETATM    9  O   UNL     1      -8.771  10.859  68.796  1.00  0.00    -0.154 OA 
BRANCH   8  10
HETATM   10  C   UNL     1     -10.539   9.277  68.315  1.00  0.00    -0.237 C  
BRANCH  10  11
HETATM   11  C   UNL     1     -10.020   8.305  69.358  1.00  0.00    -0.188 C  
BRANCH  11  12
HETATM   12  C   UNL     1     -10.479   8.650  70.750  1.00  0.00    -0.204 C  
HETATM   13  O   UNL     1      -9.767   9.138  71.617  1.00  0.00    -0.292 OA 
BRANCH  12  14
HETATM   14  O   UNL     1     -11.756   8.233  70.972  1.00  0.00    -0.281 OA 
BRANCH  14  15
HETATM   15  C   UNL     1     -11.945   6.807  70.895  1.00  0.00    -0.383 C  
BRANCH  15  16
HETATM   16  C   UNL     1     -11.506   6.057  72.165  1.00  0.00    -0.302 C  
BRANCH  16  17
HETATM   17  N   UNL     1     -10.310   5.097  71.945  1.00  0.00    -0.208 N  
HETATM   18  C   UNL     1     -10.508   3.773  72.673  1.00  0.00    -0.116 C  
HETATM   19  C   UNL     1      -9.051   5.768  72.507  1.00  0.00    -0.136 C  
HETATM   20  C   UNL     1     -10.077   4.840  70.458  1.00  0.00    -0.220 C  
ENDBRANCH  16  17
ENDBRANCH  15  16
ENDBRANCH  14  15
ENDBRANCH  12  14
ENDBRANCH  11  12
ENDBRANCH  10  11
ENDBRANCH   8  10
ENDBRANCH   7   8
ENDBRANCH   6   7
ENDBRANCH   5   6
ENDBRANCH   2   5
TORSDOF 11
ENDMDL
MODEL      177
REMARK 921   NORMALIZED FREE ENERGY PREDICTED BY IDOCK:   -3.06 KCAL/MOL
REMARK 922        TOTAL FREE ENERGY PREDICTED BY IDOCK:   -5.79 KCAL/MOL
REMARK 923 INTER-LIGAND FREE ENERGY PREDICTED BY IDOCK:   -5.30 KCAL/MOL
REMARK 924 INTRA-LIGAND FREE ENERGY PREDICTED BY IDOCK:   -0.48 KCAL/MOL
REMARK 927      BINDING AFFINITY PREDICTED BY RF-SCORE:    0.00 PKD
ROOT
HETATM    1  C   UNL     1     -10.627  19.554  66.248  1.00  0.00    -0.481 C  
HETATM    2  N   UNL     1      -9.551  18.822  67.061  1.00  0.00    -0.295 N  
HETATM    3  C   UNL     1      -8.228  19.559  66.852  1.00  0.00    -0.285 C  
HETATM    4  C   UNL     1      -9.948  18.875  68.531  1.00  0.00    -0.406 C  
ENDROOT
BRANCH   2   5
HETATM    5  C   UNL     1      -9.467  17.366  66.542  1.00  0.00    -0.273 C  
BRANCH   5   6
HETATM    6  C   UNL     1      -8.297  16.559  67.133  1.00  0.00    -0.180 C  
BRANCH   6   7
HETATM    7  O   UNL     1      -8.199  15.220  66.613  1.00  0.00    -0.226 OA 
BRANCH   7   8
HETATM    8  C   UNL     1      -7.773  14.291  67.514  1.00  0.00    -0.191 C  
HETATM    9  O   UNL     1      -6.619  14.210  67.908  1.00  0.00    -0.134 OA 
BRANCH   8  10
HETATM   10  C   UNL     1      -8.924  13.487  68.062  1.00  0.00    -0.189 C  
BRANCH  10  11
HETATM   11  C   UNL     1      -9.912  13.080  66.985  1.00  0.00    -0.242 C  
BRANCH  11  12
HETATM   12  C   UNL     1     -11.084  12.311  67.536  1.00  0.00    -0.275 C  
HETATM   13  O   UNL     1     -12.112  12.073  66.918  1.00  0.00    -0.608 OA 
BRANCH  12  14
HETATM   14  O   UNL     1     -10.915  12.021  68.856  1.00  0.00    -0.221 OA 
BRANCH  14  15
HETATM   15  C   UNL     1     -11.289  10.680  69.228  1.00  0.00    -0.282 C  
BRANCH  15  16
HETATM   16  C   UNL     1     -10.220   9.951  70.061  1.00  0.00    -0.271 C  
BRANCH  16  17
HETATM   17  N   UNL     1     -10.448   8.422  70.173  1.00  0.00    -0.222 N  
HETATM   18  C   UNL     1      -9.269   7.724  70.840  1.00  0.00    -0.152 C  
HETATM   19  C   UNL     1     -10.600   7.857  68.756  1.00  0.00    -0.127 C  
HETATM   20  C   UNL     1     -11.733   8.112  70.939  1.00  0.00    -0.244 C  
ENDBRANCH  16  17
ENDBRANCH  15  16
ENDBRANCH  14  15
ENDBRANCH  12  14
ENDBRANCH  11  12
ENDBRANCH  10  11
ENDBRANCH   8  10
ENDBRANCH   7   8
ENDBRANCH   6   7
ENDBRANCH   5   6
ENDBRANCH   2   5
TORSDOF 11
ENDMDL
MODEL      178
REMARK 921   NORMALIZED FREE ENERGY PREDICTED BY IDOCK:   -3.06 KCAL/MOL
REMARK 922        TOTAL FREE ENERGY PREDICTED BY IDOCK:   -5.78 KCAL/MOL
REMARK 923 INTER-LIGAND FREE ENERGY PREDICTED BY IDOCK:   -5.23 KCAL/MOL
REMARK 924 INTRA-LIGAND FREE ENERGY PREDICTED BY IDOCK:   -0.55 KCAL/MOL
REMARK 927      BINDING AFFINITY PREDICTED BY RF-SCORE:    0.00 PKD
ROOT
HETATM    1  C   UNL     1     -12.828  13.494  65.563  1.00  0.00    -0.350 C  
HETATM    2  N   UNL     1     -11.702  13.777  64.560  1.00  0.00    -0.389 N  
HETATM    3  C   UNL     1     -11.980  12.956  63.302  1.00  0.00    -0.440 C  
HETATM    4  C   UNL     1     -11.726  15.264  64.225  1.00  0.00    -0.215 C  
ENDROOT
BRANCH   2   5
HETATM    5  C   UNL     1     -10.362  13.360  65.214  1.00  0.00    -0.319 C  
BRANCH   5   6
HETATM    6  C   UNL     1     -10.523  12.670  66.581  1.00  0.00    -0.245 C  
BRANCH   6   7
HETATM    7  O   UNL     1      -9.667  13.213  67.605  1.00  0.00    -0.203 OA 
BRANCH   7   8
HETATM    8  C   UNL     1     -10.325  13.820  68.631  1.00  0.00    -0.224 C  
HETATM    9  O   UNL     1      -9.922  14.829  69.191  1.00  0.00    -0.220 OA 
BRANCH   8  10
HETATM   10  C   UNL     1     -11.667  13.181  68.880  1.00  0.00    -0.368 C  
BRANCH  10  11
HETATM   11  C   UNL     1     -11.813  12.671  70.301  1.00  0.00    -0.295 C  
BRANCH  11  12
HETATM   12  C   UNL     1     -12.200  11.217  70.358  1.00  0.00    -0.365 C  
HETATM   13  O   UNL     1     -13.340  10.807  70.529  1.00  0.00    -0.089 OA 
BRANCH  12  14
HETATM   14  O   UNL     1     -11.106  10.407  70.325  1.00  0.00    -0.288 OA 
BRANCH  14  15
HETATM   15  C   UNL     1     -11.375   9.023  70.620  1.00  0.00    -0.265 C  
BRANCH  15  16
HETATM   16  C   UNL     1     -10.472   8.042  69.852  1.00  0.00    -0.233 C  
BRANCH  16  17
HETATM   17  N   UNL     1      -9.849   6.936  70.741  1.00  0.00    -0.182 N  
HETATM   18  C   UNL     1      -9.506   7.456  72.132  1.00  0.00    -0.139 C  
HETATM   19  C   UNL     1      -8.552   6.464  70.073  1.00  0.00    -0.135 C  
HETATM   20  C   UNL     1     -10.781   5.731  70.854  1.00  0.00    -0.264 C  
ENDBRANCH  16  17
ENDBRANCH  15  16
ENDBRANCH  14  15
ENDBRANCH  12  14
ENDBRANCH  11  12
ENDBRANCH  10  11
ENDBRANCH   8  10
ENDBRANCH   7   8
ENDBRANCH   6   7
ENDBRANCH   5   6
ENDBRANCH   2   5
TORSDOF 11
ENDMDL
MODEL      179
REMARK 921   NORMALIZED FREE ENERGY PREDICTED BY IDOCK:   -3.05 KCAL/MOL
REMARK 922        TOTAL FREE ENERGY PREDICTED BY IDOCK:   -5.77 KCAL/MOL
REMARK 923 INTER-LIGAND FREE ENERGY PREDICTED BY IDOCK:   -5.10 KCAL/MOL
REMARK 924 INTRA-LIGAND FREE ENERGY PREDICTED BY IDOCK:   -0.67 KCAL/MOL
REMARK 927      BINDING AFFINITY PREDICTED BY RF-SCORE:    0.00 PKD
ROOT
HETATM    1  C   UNL     1     -10.152   5.799  72.075  1.00  0.00    -0.185 C  
HETATM    2  N   UNL     1     -11.272   6.832  71.899  1.00  0.00    -0.250 N  
HETATM    3  C   UNL     1     -12.569   6.206  72.410  1.00  0.00     0.163 C  
HETATM    4  C   UNL     1     -10.923   8.057  72.737  1.00  0.00    -0.382 C  
ENDROOT
BRANCH   2   5
HETATM    5  C   UNL     1     -11.373   7.178  70.394  1.00  0.00    -0.289 C  
BRANCH   5   6
HETATM    6  C   UNL     1     -10.830   6.079  69.463  1.00  0.00    -0.369 C  
BRANCH   6   7
HETATM    7  O   UNL     1      -9.741   6.516  68.629  1.00  0.00    -0.128 OA 
BRANCH   7   8
HETATM    8  C   UNL     1     -10.121   7.054  67.436  1.00  0.00    -0.195 C  
HETATM    9  O   UNL     1     -11.113   6.697  66.817  1.00  0.00    -0.354 OA 
BRANCH   8  10
HETATM   10  C   UNL     1      -9.254   8.229  67.061  1.00  0.00    -0.187 C  
BRANCH  10  11
HETATM   11  C   UNL     1     -10.065   9.472  66.747  1.00  0.00    -0.312 C  
BRANCH  11  12
HETATM   12  C   UNL     1     -10.052  10.471  67.872  1.00  0.00    -0.176 C  
HETATM   13  O   UNL     1      -9.818  10.198  69.042  1.00  0.00    -0.184 OA 
BRANCH  12  14
HETATM   14  O   UNL     1     -10.459  11.701  67.454  1.00  0.00    -0.201 OA 
BRANCH  14  15
HETATM   15  C   UNL     1     -11.379  11.684  66.346  1.00  0.00    -0.245 C  
BRANCH  15  16
HETATM   16  C   UNL     1     -12.006  13.057  66.044  1.00  0.00    -0.440 C  
BRANCH  16  17
HETATM   17  N   UNL     1     -11.264  13.857  64.943  1.00  0.00    -0.340 N  
HETATM   18  C   UNL     1     -10.276  14.853  65.538  1.00  0.00    -0.374 C  
HETATM   19  C   UNL     1     -12.308  14.640  64.139  1.00  0.00    -0.265 C  
HETATM   20  C   UNL     1     -10.538  12.921  63.978  1.00  0.00    -0.389 C  
ENDBRANCH  16  17
ENDBRANCH  15  16
ENDBRANCH  14  15
ENDBRANCH  12  14
ENDBRANCH  11  12
ENDBRANCH  10  11
ENDBRANCH   8  10
ENDBRANCH   7   8
ENDBRANCH   6   7
ENDBRANCH   5   6
ENDBRANCH   2   5
TORSDOF 11
ENDMDL
MODEL      180
REMARK 921   NORMALIZED FREE ENERGY PREDICTED BY IDOCK:   -3.05 KCAL/MOL
REMARK 922        TOTAL FREE ENERGY PREDICTED BY IDOCK:   -5.77 KCAL/MOL
REMARK 923 INTER-LIGAND FREE ENERGY PREDICTED BY IDOCK:   -5.89 KCAL/MOL
REMARK 924 INTRA-LIGAND FREE ENERGY PREDICTED BY IDOCK:    0.13 KCAL/MOL
REMARK 927      BINDING AFFINITY PREDICTED BY RF-SCORE:    0.00 PKD
ROOT
HETATM    1  C   UNL     1     -10.370   7.346  66.768  1.00  0.00    -0.251 C  
HETATM    2  N   UNL     1      -9.397   8.494  67.067  1.00  0.00    -0.153 N  
HETATM    3  C   UNL     1      -8.633   8.138  68.341  1.00  0.00    -0.130 C  
HETATM    4  C   UNL     1      -8.428   8.614  65.897  1.00  0.00    -0.146 C  
ENDROOT
BRANCH   2   5
HETATM    5  C   UNL     1     -10.227   9.787  67.257  1.00  0.00    -0.232 C  
BRANCH   5   6
HETATM    6  C   UNL     1      -9.687  10.997  66.472  1.00  0.00    -0.198 C  
BRANCH   6   7
HETATM    7  O   UNL     1     -10.539  11.406  65.386  1.00  0.00    -0.272 OA 
BRANCH   7   8
HETATM    8  C   UNL     1     -11.510  12.297  65.731  1.00  0.00    -0.367 C  
HETATM    9  O   UNL     1     -12.135  12.245  66.780  1.00  0.00    -0.593 OA 
BRANCH   8  10
HETATM   10  C   UNL     1     -11.605  13.422  64.733  1.00  0.00    -0.367 C  
BRANCH  10  11
HETATM   11  C   UNL     1     -11.882  14.761  65.391  1.00  0.00    -0.249 C  
BRANCH  11  12
HETATM   12  C   UNL     1     -10.989  15.857  64.873  1.00  0.00    -0.411 C  
HETATM   13  O   UNL     1     -11.323  16.694  64.046  1.00  0.00    -1.120 OA 
BRANCH  12  14
HETATM   14  O   UNL     1      -9.716  15.727  65.341  1.00  0.00    -0.356 OA 
BRANCH  14  15
HETATM   15  C   UNL     1      -9.586  14.883  66.501  1.00  0.00    -0.276 C  
BRANCH  15  16
HETATM   16  C   UNL     1      -9.160  15.641  67.770  1.00  0.00    -0.181 C  
BRANCH  16  17
HETATM   17  N   UNL     1      -7.648  15.522  68.093  1.00  0.00    -0.117 N  
HETATM   18  C   UNL     1      -7.037  14.269  67.477  1.00  0.00    -0.167 C  
HETATM   19  C   UNL     1      -7.493  15.432  69.616  1.00  0.00    -0.170 C  
HETATM   20  C   UNL     1      -6.885  16.757  67.619  1.00  0.00    -0.137 C  
ENDBRANCH  16  17
ENDBRANCH  15  16
ENDBRANCH  14  15
ENDBRANCH  12  14
ENDBRANCH  11  12
ENDBRANCH  10  11
ENDBRANCH   8  10
ENDBRANCH   7   8
ENDBRANCH   6   7
ENDBRANCH   5   6
ENDBRANCH   2   5
TORSDOF 11
ENDMDL
MODEL      181
REMARK 921   NORMALIZED FREE ENERGY PREDICTED BY IDOCK:   -3.05 KCAL/MOL
REMARK 922        TOTAL FREE ENERGY PREDICTED BY IDOCK:   -5.76 KCAL/MOL
REMARK 923 INTER-LIGAND FREE ENERGY PREDICTED BY IDOCK:   -5.14 KCAL/MOL
REMARK 924 INTRA-LIGAND FREE ENERGY PREDICTED BY IDOCK:   -0.63 KCAL/MOL
REMARK 927      BINDING AFFINITY PREDICTED BY RF-SCORE:    0.00 PKD
ROOT
HETATM    1  C   UNL     1     -12.856  14.917  73.525  1.00  0.00    -0.463 C  
HETATM    2  N   UNL     1     -13.190  14.348  72.140  1.00  0.00    -0.354 N  
HETATM    3  C   UNL     1     -13.596  12.887  72.323  1.00  0.00    -0.515 C  
HETATM    4  C   UNL     1     -14.358  15.144  71.569  1.00  0.00    -0.559 C  
ENDROOT
BRANCH   2   5
HETATM    5  C   UNL     1     -11.926  14.471  71.255  1.00  0.00    -0.333 C  
BRANCH   5   6
HETATM    6  C   UNL     1     -12.204  15.018  69.843  1.00  0.00    -0.309 C  
BRANCH   6   7
HETATM    7  O   UNL     1     -11.192  15.926  69.367  1.00  0.00    -0.287 OA 
BRANCH   7   8
HETATM    8  C   UNL     1     -10.964  15.868  68.025  1.00  0.00    -0.336 C  
HETATM    9  O   UNL     1     -10.444  16.772  67.387  1.00  0.00    -0.308 OA 
BRANCH   8  10
HETATM   10  C   UNL     1     -11.296  14.507  67.468  1.00  0.00    -0.355 C  
BRANCH  10  11
HETATM   11  C   UNL     1     -11.229  14.468  65.953  1.00  0.00    -0.331 C  
BRANCH  11  12
HETATM   12  C   UNL     1     -10.374  13.339  65.441  1.00  0.00    -0.306 C  
HETATM   13  O   UNL     1     -10.696  12.576  64.540  1.00  0.00    -0.294 OA 
BRANCH  12  14
HETATM   14  O   UNL     1      -9.247  13.185  66.190  1.00  0.00    -0.135 OA 
BRANCH  14  15
HETATM   15  C   UNL     1      -8.806  11.822  66.338  1.00  0.00    -0.170 C  
BRANCH  15  16
HETATM   16  C   UNL     1      -7.278  11.658  66.270  1.00  0.00     0.236 C  
BRANCH  16  17
HETATM   17  N   UNL     1      -6.601  11.500  67.655  1.00  0.00    -0.071 N  
HETATM   18  C   UNL     1      -6.019  12.817  68.152  1.00  0.00    -0.086 C  
HETATM   19  C   UNL     1      -5.453  10.493  67.512  1.00  0.00    -0.044 C  
HETATM   20  C   UNL     1      -7.581  10.946  68.687  1.00  0.00    -0.114 C  
ENDBRANCH  16  17
ENDBRANCH  15  16
ENDBRANCH  14  15
ENDBRANCH  12  14
ENDBRANCH  11  12
ENDBRANCH  10  11
ENDBRANCH   8  10
ENDBRANCH   7   8
ENDBRANCH   6   7
ENDBRANCH   5   6
ENDBRANCH   2   5
TORSDOF 11
ENDMDL
MODEL      182
REMARK 921   NORMALIZED FREE ENERGY PREDICTED BY IDOCK:   -3.05 KCAL/MOL
REMARK 922        TOTAL FREE ENERGY PREDICTED BY IDOCK:   -5.76 KCAL/MOL
REMARK 923 INTER-LIGAND FREE ENERGY PREDICTED BY IDOCK:   -5.22 KCAL/MOL
REMARK 924 INTRA-LIGAND FREE ENERGY PREDICTED BY IDOCK:   -0.54 KCAL/MOL
REMARK 927      BINDING AFFINITY PREDICTED BY RF-SCORE:    0.00 PKD
ROOT
HETATM    1  C   UNL     1      -9.919  14.162  67.491  1.00  0.00    -0.236 C  
HETATM    2  N   UNL     1     -11.393  14.483  67.769  1.00  0.00    -0.302 N  
HETATM    3  C   UNL     1     -11.785  13.781  69.068  1.00  0.00    -0.331 C  
HETATM    4  C   UNL     1     -11.528  15.992  67.933  1.00  0.00    -0.140 C  
ENDROOT
BRANCH   2   5
HETATM    5  C   UNL     1     -12.230  13.960  66.577  1.00  0.00    -0.442 C  
BRANCH   5   6
HETATM    6  C   UNL     1     -11.905  14.646  65.237  1.00  0.00    -0.324 C  
BRANCH   6   7
HETATM    7  O   UNL     1     -10.871  13.982  64.486  1.00  0.00    -0.400 OA 
BRANCH   7   8
HETATM    8  C   UNL     1     -11.271  12.844  63.852  1.00  0.00    -0.423 C  
HETATM    9  O   UNL     1     -12.374  12.705  63.344  1.00  0.00    -0.602 OA 
BRANCH   8  10
HETATM   10  C   UNL     1     -10.142  11.854  63.734  1.00  0.00    -0.423 C  
BRANCH  10  11
HETATM   11  C   UNL     1     -10.397  10.584  64.524  1.00  0.00    -0.275 C  
BRANCH  11  12
HETATM   12  C   UNL     1     -10.298  10.798  66.011  1.00  0.00    -0.238 C  
HETATM   13  O   UNL     1     -11.256  10.961  66.756  1.00  0.00    -0.244 OA 
BRANCH  12  14
HETATM   14  O   UNL     1      -9.003  10.919  66.414  1.00  0.00    -0.164 OA 
BRANCH  14  15
HETATM   15  C   UNL     1      -8.327   9.668  66.643  1.00  0.00    -0.123 C  
BRANCH  15  16
HETATM   16  C   UNL     1      -8.848   8.901  67.871  1.00  0.00    -0.133 C  
BRANCH  16  17
HETATM   17  N   UNL     1      -8.083   7.584  68.159  1.00  0.00    -0.123 N  
HETATM   18  C   UNL     1      -6.748   7.536  67.426  1.00  0.00    -0.067 C  
HETATM   19  C   UNL     1      -8.943   6.415  67.664  1.00  0.00    -0.113 C  
HETATM   20  C   UNL     1      -7.857   7.396  69.658  1.00  0.00    -0.117 C  
ENDBRANCH  16  17
ENDBRANCH  15  16
ENDBRANCH  14  15
ENDBRANCH  12  14
ENDBRANCH  11  12
ENDBRANCH  10  11
ENDBRANCH   8  10
ENDBRANCH   7   8
ENDBRANCH   6   7
ENDBRANCH   5   6
ENDBRANCH   2   5
TORSDOF 11
ENDMDL
MODEL      183
REMARK 921   NORMALIZED FREE ENERGY PREDICTED BY IDOCK:   -3.04 KCAL/MOL
REMARK 922        TOTAL FREE ENERGY PREDICTED BY IDOCK:   -5.75 KCAL/MOL
REMARK 923 INTER-LIGAND FREE ENERGY PREDICTED BY IDOCK:   -5.41 KCAL/MOL
REMARK 924 INTRA-LIGAND FREE ENERGY PREDICTED BY IDOCK:   -0.34 KCAL/MOL
REMARK 927      BINDING AFFINITY PREDICTED BY RF-SCORE:    0.00 PKD
ROOT
HETATM    1  C   UNL     1      -8.635   6.041  72.809  1.00  0.00    -0.124 C  
HETATM    2  N   UNL     1      -9.811   6.586  71.988  1.00  0.00    -0.160 N  
HETATM    3  C   UNL     1      -9.309   6.845  70.569  1.00  0.00    -0.159 C  
HETATM    4  C   UNL     1     -10.906   5.526  71.966  1.00  0.00    -0.226 C  
ENDROOT
BRANCH   2   5
HETATM    5  C   UNL     1     -10.296   7.895  72.657  1.00  0.00    -0.308 C  
BRANCH   5   6
HETATM    6  C   UNL     1     -10.428   9.081  71.685  1.00  0.00    -0.355 C  
BRANCH   6   7
HETATM    7  O   UNL     1     -11.759   9.254  71.163  1.00  0.00    -0.283 OA 
BRANCH   7   8
HETATM    8  C   UNL     1     -12.133  10.551  70.981  1.00  0.00    -0.387 C  
HETATM    9  O   UNL     1     -12.814  11.178  71.779  1.00  0.00    -0.422 OA 
BRANCH   8  10
HETATM   10  C   UNL     1     -11.482  11.145  69.758  1.00  0.00    -0.388 C  
BRANCH  10  11
HETATM   11  C   UNL     1     -11.421  10.167  68.599  1.00  0.00    -0.105 C  
BRANCH  11  12
HETATM   12  C   UNL     1     -10.911  10.802  67.333  1.00  0.00    -0.300 C  
HETATM   13  O   UNL     1     -10.223  10.231  66.498  1.00  0.00    -0.220 OA 
BRANCH  12  14
HETATM   14  O   UNL     1     -11.201  12.132  67.288  1.00  0.00    -0.268 OA 
BRANCH  14  15
HETATM   15  C   UNL     1     -12.277  12.482  66.398  1.00  0.00    -0.027 C  
BRANCH  15  16
HETATM   16  C   UNL     1     -12.333  13.982  66.058  1.00  0.00    -0.473 C  
BRANCH  16  17
HETATM   17  N   UNL     1     -11.575  14.360  64.760  1.00  0.00    -0.388 N  
HETATM   18  C   UNL     1     -10.067  14.389  64.975  1.00  0.00    -0.286 C  
HETATM   19  C   UNL     1     -12.025  15.763  64.338  1.00  0.00    -0.081 C  
HETATM   20  C   UNL     1     -11.917  13.399  63.624  1.00  0.00    -0.446 C  
ENDBRANCH  16  17
ENDBRANCH  15  16
ENDBRANCH  14  15
ENDBRANCH  12  14
ENDBRANCH  11  12
ENDBRANCH  10  11
ENDBRANCH   8  10
ENDBRANCH   7   8
ENDBRANCH   6   7
ENDBRANCH   5   6
ENDBRANCH   2   5
TORSDOF 11
ENDMDL
MODEL      184
REMARK 921   NORMALIZED FREE ENERGY PREDICTED BY IDOCK:   -3.04 KCAL/MOL
REMARK 922        TOTAL FREE ENERGY PREDICTED BY IDOCK:   -5.75 KCAL/MOL
REMARK 923 INTER-LIGAND FREE ENERGY PREDICTED BY IDOCK:   -5.14 KCAL/MOL
REMARK 924 INTRA-LIGAND FREE ENERGY PREDICTED BY IDOCK:   -0.61 KCAL/MOL
REMARK 927      BINDING AFFINITY PREDICTED BY RF-SCORE:    0.00 PKD
ROOT
HETATM    1  C   UNL     1     -12.303  12.286  63.419  1.00  0.00    -0.517 C  
HETATM    2  N   UNL     1     -11.662  12.805  64.713  1.00  0.00    -0.335 N  
HETATM    3  C   UNL     1     -10.655  13.890  64.331  1.00  0.00    -0.234 C  
HETATM    4  C   UNL     1     -12.762  13.402  65.582  1.00  0.00    -0.370 C  
ENDROOT
BRANCH   2   5
HETATM    5  C   UNL     1     -10.963  11.615  65.412  1.00  0.00    -0.270 C  
BRANCH   5   6
HETATM    6  C   UNL     1      -9.614  11.976  66.061  1.00  0.00    -0.234 C  
BRANCH   6   7
HETATM    7  O   UNL     1      -8.888  10.834  66.555  1.00  0.00    -0.147 OA 
BRANCH   7   8
HETATM    8  C   UNL     1      -8.554   9.919  65.603  1.00  0.00    -0.145 C  
HETATM    9  O   UNL     1      -7.963  10.200  64.571  1.00  0.00    -0.145 OA 
BRANCH   8  10
HETATM   10  C   UNL     1      -8.873   8.516  66.052  1.00  0.00    -0.208 C  
BRANCH  10  11
HETATM   11  C   UNL     1      -9.697   8.488  67.327  1.00  0.00    -0.239 C  
BRANCH  11  12
HETATM   12  C   UNL     1     -10.391   7.169  67.537  1.00  0.00    -0.236 C  
HETATM   13  O   UNL     1     -11.352   6.777  66.888  1.00  0.00    -0.318 OA 
BRANCH  12  14
HETATM   14  O   UNL     1      -9.903   6.515  68.627  1.00  0.00    -0.136 OA 
BRANCH  14  15
HETATM   15  C   UNL     1      -9.414   7.375  69.674  1.00  0.00    -0.156 C  
BRANCH  15  16
HETATM   16  C   UNL     1      -9.630   6.807  71.088  1.00  0.00    -0.173 C  
BRANCH  16  17
HETATM   17  N   UNL     1     -10.671   7.592  71.927  1.00  0.00    -0.214 N  
HETATM   18  C   UNL     1     -10.439   7.416  73.422  1.00  0.00    -0.368 C  
HETATM   19  C   UNL     1     -12.063   7.043  71.591  1.00  0.00    -0.347 C  
HETATM   20  C   UNL     1     -10.657   9.077  71.572  1.00  0.00    -0.345 C  
ENDBRANCH  16  17
ENDBRANCH  15  16
ENDBRANCH  14  15
ENDBRANCH  12  14
ENDBRANCH  11  12
ENDBRANCH  10  11
ENDBRANCH   8  10
ENDBRANCH   7   8
ENDBRANCH   6   7
ENDBRANCH   5   6
ENDBRANCH   2   5
TORSDOF 11
ENDMDL
MODEL      185
REMARK 921   NORMALIZED FREE ENERGY PREDICTED BY IDOCK:   -3.04 KCAL/MOL
REMARK 922        TOTAL FREE ENERGY PREDICTED BY IDOCK:   -5.74 KCAL/MOL
REMARK 923 INTER-LIGAND FREE ENERGY PREDICTED BY IDOCK:   -5.03 KCAL/MOL
REMARK 924 INTRA-LIGAND FREE ENERGY PREDICTED BY IDOCK:   -0.71 KCAL/MOL
REMARK 927      BINDING AFFINITY PREDICTED BY RF-SCORE:    0.00 PKD
ROOT
HETATM    1  C   UNL     1     -10.841   8.201  72.524  1.00  0.00    -0.361 C  
HETATM    2  N   UNL     1     -11.828   8.340  71.358  1.00  0.00    -0.286 N  
HETATM    3  C   UNL     1     -12.839   7.200  71.466  1.00  0.00    -0.391 C  
HETATM    4  C   UNL     1     -12.541   9.680  71.496  1.00  0.00    -0.391 C  
ENDROOT
BRANCH   2   5
HETATM    5  C   UNL     1     -11.025   8.252  70.038  1.00  0.00    -0.197 C  
BRANCH   5   6
HETATM    6  C   UNL     1     -10.877   6.821  69.490  1.00  0.00    -0.273 C  
BRANCH   6   7
HETATM    7  O   UNL     1     -10.010   6.729  68.344  1.00  0.00    -0.144 OA 
BRANCH   7   8
HETATM    8  C   UNL     1      -8.690   6.930  68.614  1.00  0.00    -0.122 C  
HETATM    9  O   UNL     1      -8.091   6.368  69.518  1.00  0.00    -0.114 OA 
BRANCH   8  10
HETATM   10  C   UNL     1      -8.043   7.809  67.573  1.00  0.00    -0.124 C  
BRANCH  10  11
HETATM   11  C   UNL     1      -8.334   9.281  67.795  1.00  0.00    -0.116 C  
BRANCH  11  12
HETATM   12  C   UNL     1      -9.334   9.828  66.812  1.00  0.00    -0.152 C  
HETATM   13  O   UNL     1     -10.237   9.177  66.303  1.00  0.00    -0.276 OA 
BRANCH  12  14
HETATM   14  O   UNL     1      -9.035  11.108  66.454  1.00  0.00    -0.170 OA 
BRANCH  14  15
HETATM   15  C   UNL     1     -10.180  11.932  66.161  1.00  0.00    -0.226 C  
BRANCH  15  16
HETATM   16  C   UNL     1     -10.004  13.402  66.581  1.00  0.00    -0.277 C  
BRANCH  16  17
HETATM   17  N   UNL     1     -11.235  13.996  67.313  1.00  0.00    -0.302 N  
HETATM   18  C   UNL     1     -11.663  13.129  68.491  1.00  0.00    -0.352 C  
HETATM   19  C   UNL     1     -12.398  14.056  66.316  1.00  0.00    -0.448 C  
HETATM   20  C   UNL     1     -10.956  15.419  67.792  1.00  0.00    -0.311 C  
ENDBRANCH  16  17
ENDBRANCH  15  16
ENDBRANCH  14  15
ENDBRANCH  12  14
ENDBRANCH  11  12
ENDBRANCH  10  11
ENDBRANCH   8  10
ENDBRANCH   7   8
ENDBRANCH   6   7
ENDBRANCH   5   6
ENDBRANCH   2   5
TORSDOF 11
ENDMDL
MODEL      186
REMARK 921   NORMALIZED FREE ENERGY PREDICTED BY IDOCK:   -3.03 KCAL/MOL
REMARK 922        TOTAL FREE ENERGY PREDICTED BY IDOCK:   -5.73 KCAL/MOL
REMARK 923 INTER-LIGAND FREE ENERGY PREDICTED BY IDOCK:   -5.12 KCAL/MOL
REMARK 924 INTRA-LIGAND FREE ENERGY PREDICTED BY IDOCK:   -0.61 KCAL/MOL
REMARK 927      BINDING AFFINITY PREDICTED BY RF-SCORE:    0.00 PKD
ROOT
HETATM    1  C   UNL     1      -7.527   7.525  65.316  1.00  0.00    -0.084 C  
HETATM    2  N   UNL     1      -8.107   8.923  65.068  1.00  0.00    -0.129 N  
HETATM    3  C   UNL     1      -7.068   9.946  65.525  1.00  0.00    -0.118 C  
HETATM    4  C   UNL     1      -8.361   9.074  63.573  1.00  0.00    -0.181 C  
ENDROOT
BRANCH   2   5
HETATM    5  C   UNL     1      -9.415   9.052  65.886  1.00  0.00    -0.249 C  
BRANCH   5   6
HETATM    6  C   UNL     1      -9.767   7.795  66.702  1.00  0.00    -0.222 C  
BRANCH   6   7
HETATM    7  O   UNL     1     -10.794   8.016  67.686  1.00  0.00    -0.170 OA 
BRANCH   7   8
HETATM    8  C   UNL     1     -10.510   7.523  68.924  1.00  0.00    -0.203 C  
HETATM    9  O   UNL     1     -10.362   6.333  69.161  1.00  0.00    -0.181 OA 
BRANCH   8  10
HETATM   10  C   UNL     1     -10.258   8.632  69.914  1.00  0.00    -0.206 C  
BRANCH  10  11
HETATM   11  C   UNL     1     -11.061   9.881  69.602  1.00  0.00    -0.279 C  
BRANCH  11  12
HETATM   12  C   UNL     1     -11.813  10.399  70.800  1.00  0.00    -0.368 C  
HETATM   13  O   UNL     1     -12.240   9.699  71.709  1.00  0.00    -0.374 OA 
BRANCH  12  14
HETATM   14  O   UNL     1     -12.075  11.730  70.688  1.00  0.00    -0.368 OA 
BRANCH  14  15
HETATM   15  C   UNL     1     -11.724  12.306  69.415  1.00  0.00    -0.330 C  
BRANCH  15  16
HETATM   16  C   UNL     1     -12.004  13.817  69.324  1.00  0.00    -0.352 C  
BRANCH  16  17
HETATM   17  N   UNL     1     -11.303  14.514  68.130  1.00  0.00    -0.283 N  
HETATM   18  C   UNL     1      -9.830  14.133  68.041  1.00  0.00    -0.223 C  
HETATM   19  C   UNL     1     -11.394  16.029  68.344  1.00  0.00    -0.355 C  
HETATM   20  C   UNL     1     -12.003  14.186  66.813  1.00  0.00    -0.447 C  
ENDBRANCH  16  17
ENDBRANCH  15  16
ENDBRANCH  14  15
ENDBRANCH  12  14
ENDBRANCH  11  12
ENDBRANCH  10  11
ENDBRANCH   8  10
ENDBRANCH   7   8
ENDBRANCH   6   7
ENDBRANCH   5   6
ENDBRANCH   2   5
TORSDOF 11
ENDMDL
MODEL      187
REMARK 921   NORMALIZED FREE ENERGY PREDICTED BY IDOCK:   -3.03 KCAL/MOL
REMARK 922        TOTAL FREE ENERGY PREDICTED BY IDOCK:   -5.73 KCAL/MOL
REMARK 923 INTER-LIGAND FREE ENERGY PREDICTED BY IDOCK:   -5.20 KCAL/MOL
REMARK 924 INTRA-LIGAND FREE ENERGY PREDICTED BY IDOCK:   -0.53 KCAL/MOL
REMARK 927      BINDING AFFINITY PREDICTED BY RF-SCORE:    0.00 PKD
ROOT
HETATM    1  C   UNL     1     -12.230   7.450  71.406  1.00  0.00    -0.342 C  
HETATM    2  N   UNL     1     -10.699   7.431  71.504  1.00  0.00    -0.222 N  
HETATM    3  C   UNL     1     -10.322   7.731  72.954  1.00  0.00    -0.334 C  
HETATM    4  C   UNL     1     -10.215   6.038  71.119  1.00  0.00    -0.207 C  
ENDROOT
BRANCH   2   5
HETATM    5  C   UNL     1     -10.145   8.513  70.547  1.00  0.00    -0.192 C  
BRANCH   5   6
HETATM    6  C   UNL     1      -9.688   7.966  69.182  1.00  0.00    -0.162 C  
BRANCH   6   7
HETATM    7  O   UNL     1      -9.567   8.979  68.166  1.00  0.00    -0.145 OA 
BRANCH   7   8
HETATM    8  C   UNL     1     -10.196   8.685  66.994  1.00  0.00    -0.290 C  
HETATM    9  O   UNL     1     -10.897   7.697  66.831  1.00  0.00    -0.328 OA 
BRANCH   8  10
HETATM   10  C   UNL     1     -10.036   9.797  65.989  1.00  0.00    -0.342 C  
BRANCH  10  11
HETATM   11  C   UNL     1     -10.877  11.013  66.329  1.00  0.00    -0.234 C  
BRANCH  11  12
HETATM   12  C   UNL     1     -10.095  12.297  66.251  1.00  0.00    -0.234 C  
HETATM   13  O   UNL     1      -8.933  12.427  66.610  1.00  0.00    -0.212 OA 
BRANCH  12  14
HETATM   14  O   UNL     1     -10.879  13.336  65.849  1.00  0.00    -0.275 OA 
BRANCH  14  15
HETATM   15  C   UNL     1     -10.189  14.594  65.719  1.00  0.00    -0.340 C  
BRANCH  15  16
HETATM   16  C   UNL     1     -10.554  15.612  66.813  1.00  0.00    -0.307 C  
BRANCH  16  17
HETATM   17  N   UNL     1      -9.331  16.349  67.417  1.00  0.00    -0.220 N  
HETATM   18  C   UNL     1      -8.227  16.547  66.386  1.00  0.00    -0.329 C  
HETATM   19  C   UNL     1      -8.772  15.488  68.557  1.00  0.00    -0.184 C  
HETATM   20  C   UNL     1      -9.737  17.698  68.007  1.00  0.00    -0.301 C  
ENDBRANCH  16  17
ENDBRANCH  15  16
ENDBRANCH  14  15
ENDBRANCH  12  14
ENDBRANCH  11  12
ENDBRANCH  10  11
ENDBRANCH   8  10
ENDBRANCH   7   8
ENDBRANCH   6   7
ENDBRANCH   5   6
ENDBRANCH   2   5
TORSDOF 11
ENDMDL
MODEL      188
REMARK 921   NORMALIZED FREE ENERGY PREDICTED BY IDOCK:   -3.03 KCAL/MOL
REMARK 922        TOTAL FREE ENERGY PREDICTED BY IDOCK:   -5.73 KCAL/MOL
REMARK 923 INTER-LIGAND FREE ENERGY PREDICTED BY IDOCK:   -5.23 KCAL/MOL
REMARK 924 INTRA-LIGAND FREE ENERGY PREDICTED BY IDOCK:   -0.50 KCAL/MOL
REMARK 927      BINDING AFFINITY PREDICTED BY RF-SCORE:    0.00 PKD
ROOT
HETATM    1  C   UNL     1      -9.511   3.477  67.341  1.00  0.00    -0.190 C  
HETATM    2  N   UNL     1      -9.554   4.466  66.169  1.00  0.00    -0.172 N  
HETATM    3  C   UNL     1      -8.172   5.107  66.050  1.00  0.00    -0.114 C  
HETATM    4  C   UNL     1      -9.873   3.684  64.900  1.00  0.00    -0.164 C  
ENDROOT
BRANCH   2   5
HETATM    5  C   UNL     1     -10.638   5.526  66.476  1.00  0.00    -0.279 C  
BRANCH   5   6
HETATM    6  C   UNL     1     -10.085   6.830  67.078  1.00  0.00    -0.200 C  
BRANCH   6   7
HETATM    7  O   UNL     1     -10.844   7.999  66.719  1.00  0.00    -0.214 OA 
BRANCH   7   8
HETATM    8  C   UNL     1     -10.094   9.108  66.466  1.00  0.00    -0.287 C  
HETATM    9  O   UNL     1      -8.978   9.070  65.969  1.00  0.00    -0.160 OA 
BRANCH   8  10
HETATM   10  C   UNL     1     -10.869  10.371  66.737  1.00  0.00    -0.186 C  
BRANCH  10  11
HETATM   11  C   UNL     1     -10.425  11.525  65.858  1.00  0.00    -0.303 C  
BRANCH  11  12
HETATM   12  C   UNL     1     -11.519  12.535  65.631  1.00  0.00    -0.359 C  
HETATM   13  O   UNL     1     -12.623  12.272  65.175  1.00  0.00    -0.585 OA 
BRANCH  12  14
HETATM   14  O   UNL     1     -11.087  13.803  65.875  1.00  0.00    -0.286 OA 
BRANCH  14  15
HETATM   15  C   UNL     1     -11.966  14.588  66.703  1.00  0.00    -0.338 C  
BRANCH  15  16
HETATM   16  C   UNL     1     -11.886  14.231  68.198  1.00  0.00    -0.339 C  
BRANCH  16  17
HETATM   17  N   UNL     1     -10.915  15.130  69.005  1.00  0.00    -0.232 N  
HETATM   18  C   UNL     1     -11.288  15.178  70.482  1.00  0.00    -0.298 C  
HETATM   19  C   UNL     1     -11.005  16.553  68.443  1.00  0.00    -0.348 C  
HETATM   20  C   UNL     1      -9.471  14.657  68.852  1.00  0.00    -0.173 C  
ENDBRANCH  16  17
ENDBRANCH  15  16
ENDBRANCH  14  15
ENDBRANCH  12  14
ENDBRANCH  11  12
ENDBRANCH  10  11
ENDBRANCH   8  10
ENDBRANCH   7   8
ENDBRANCH   6   7
ENDBRANCH   5   6
ENDBRANCH   2   5
TORSDOF 11
ENDMDL
MODEL      189
REMARK 921   NORMALIZED FREE ENERGY PREDICTED BY IDOCK:   -3.00 KCAL/MOL
REMARK 922        TOTAL FREE ENERGY PREDICTED BY IDOCK:   -5.69 KCAL/MOL
REMARK 923 INTER-LIGAND FREE ENERGY PREDICTED BY IDOCK:   -5.17 KCAL/MOL
REMARK 924 INTRA-LIGAND FREE ENERGY PREDICTED BY IDOCK:   -0.52 KCAL/MOL
REMARK 927      BINDING AFFINITY PREDICTED BY RF-SCORE:    0.00 PKD
ROOT
HETATM    1  C   UNL     1      -7.205   4.777  67.226  1.00  0.00    -0.073 C  
HETATM    2  N   UNL     1      -7.413   6.273  66.958  1.00  0.00    -0.083 N  
HETATM    3  C   UNL     1      -6.101   6.990  67.274  1.00  0.00    -0.040 C  
HETATM    4  C   UNL     1      -7.758   6.449  65.484  1.00  0.00    -0.096 C  
ENDROOT
BRANCH   2   5
HETATM    5  C   UNL     1      -8.556   6.769  67.877  1.00  0.00    -0.122 C  
BRANCH   5   6
HETATM    6  C   UNL     1      -8.116   7.826  68.906  1.00  0.00    -0.126 C  
BRANCH   6   7
HETATM    7  O   UNL     1      -8.880   7.795  70.126  1.00  0.00    -0.143 OA 
BRANCH   7   8
HETATM    8  C   UNL     1      -8.922   8.979  70.799  1.00  0.00    -0.236 C  
HETATM    9  O   UNL     1      -7.954   9.710  70.944  1.00  0.00    -0.307 OA 
BRANCH   8  10
HETATM   10  C   UNL     1     -10.330   9.331  71.205  1.00  0.00    -0.392 C  
BRANCH  10  11
HETATM   11  C   UNL     1     -11.245   9.532  70.012  1.00  0.00    -0.243 C  
BRANCH  11  12
HETATM   12  C   UNL     1     -11.981  10.845  70.061  1.00  0.00    -0.350 C  
HETATM   13  O   UNL     1     -12.392  11.374  71.085  1.00  0.00    -0.353 OA 
BRANCH  12  14
HETATM   14  O   UNL     1     -12.249  11.315  68.811  1.00  0.00    -0.532 OA 
BRANCH  14  15
HETATM   15  C   UNL     1     -11.321  12.306  68.330  1.00  0.00    -0.292 C  
BRANCH  15  16
HETATM   16  C   UNL     1     -11.973  13.387  67.452  1.00  0.00    -0.346 C  
BRANCH  16  17
HETATM   17  N   UNL     1     -11.418  13.439  66.005  1.00  0.00    -0.318 N  
HETATM   18  C   UNL     1     -12.343  12.734  65.020  1.00  0.00    -0.499 C  
HETATM   19  C   UNL     1     -10.064  12.720  65.989  1.00  0.00    -0.268 C  
HETATM   20  C   UNL     1     -11.187  14.880  65.556  1.00  0.00    -0.348 C  
ENDBRANCH  16  17
ENDBRANCH  15  16
ENDBRANCH  14  15
ENDBRANCH  12  14
ENDBRANCH  11  12
ENDBRANCH  10  11
ENDBRANCH   8  10
ENDBRANCH   7   8
ENDBRANCH   6   7
ENDBRANCH   5   6
ENDBRANCH   2   5
TORSDOF 11
ENDMDL
MODEL      190
REMARK 921   NORMALIZED FREE ENERGY PREDICTED BY IDOCK:   -3.00 KCAL/MOL
REMARK 922        TOTAL FREE ENERGY PREDICTED BY IDOCK:   -5.69 KCAL/MOL
REMARK 923 INTER-LIGAND FREE ENERGY PREDICTED BY IDOCK:   -5.22 KCAL/MOL
REMARK 924 INTRA-LIGAND FREE ENERGY PREDICTED BY IDOCK:   -0.47 KCAL/MOL
REMARK 927      BINDING AFFINITY PREDICTED BY RF-SCORE:    0.00 PKD
ROOT
HETATM    1  C   UNL     1      -7.084   9.838  65.369  1.00  0.00    -0.113 C  
HETATM    2  N   UNL     1      -8.267   8.907  65.071  1.00  0.00    -0.143 N  
HETATM    3  C   UNL     1      -8.221   8.557  63.584  1.00  0.00    -0.128 C  
HETATM    4  C   UNL     1      -8.099   7.643  65.907  1.00  0.00    -0.122 C  
ENDROOT
BRANCH   2   5
HETATM    5  C   UNL     1      -9.571   9.660  65.428  1.00  0.00    -0.291 C  
BRANCH   5   6
HETATM    6  C   UNL     1     -10.172   9.259  66.788  1.00  0.00    -0.255 C  
BRANCH   6   7
HETATM    7  O   UNL     1     -11.043  10.258  67.350  1.00  0.00    -0.291 OA 
BRANCH   7   8
HETATM    8  C   UNL     1     -10.404  11.357  67.840  1.00  0.00    -0.182 C  
HETATM    9  O   UNL     1      -9.398  11.303  68.531  1.00  0.00    -0.176 OA 
BRANCH   8  10
HETATM   10  C   UNL     1     -11.007  12.629  67.301  1.00  0.00    -0.291 C  
BRANCH  10  11
HETATM   11  C   UNL     1     -10.354  13.078  66.007  1.00  0.00    -0.293 C  
BRANCH  11  12
HETATM   12  C   UNL     1     -10.451  14.565  65.796  1.00  0.00    -0.323 C  
HETATM   13  O   UNL     1     -11.024  15.098  64.855  1.00  0.00    -0.396 OA 
BRANCH  12  14
HETATM   14  O   UNL     1      -9.710  15.249  66.711  1.00  0.00    -0.223 OA 
BRANCH  14  15
HETATM   15  C   UNL     1      -9.411  16.610  66.346  1.00  0.00    -0.281 C  
BRANCH  15  16
HETATM   16  C   UNL     1     -10.080  17.654  67.257  1.00  0.00    -0.331 C  
BRANCH  16  17
HETATM   17  N   UNL     1      -9.453  19.068  67.155  1.00  0.00    -0.301 N  
HETATM   18  C   UNL     1      -9.705  19.888  68.415  1.00  0.00    -0.339 C  
HETATM   19  C   UNL     1     -10.106  19.794  65.973  1.00  0.00    -0.477 C  
HETATM   20  C   UNL     1      -7.953  18.987  66.882  1.00  0.00    -0.259 C  
ENDBRANCH  16  17
ENDBRANCH  15  16
ENDBRANCH  14  15
ENDBRANCH  12  14
ENDBRANCH  11  12
ENDBRANCH  10  11
ENDBRANCH   8  10
ENDBRANCH   7   8
ENDBRANCH   6   7
ENDBRANCH   5   6
ENDBRANCH   2   5
TORSDOF 11
ENDMDL
MODEL      191
REMARK 921   NORMALIZED FREE ENERGY PREDICTED BY IDOCK:   -3.00 KCAL/MOL
REMARK 922        TOTAL FREE ENERGY PREDICTED BY IDOCK:   -5.68 KCAL/MOL
REMARK 923 INTER-LIGAND FREE ENERGY PREDICTED BY IDOCK:   -5.21 KCAL/MOL
REMARK 924 INTRA-LIGAND FREE ENERGY PREDICTED BY IDOCK:   -0.47 KCAL/MOL
REMARK 927      BINDING AFFINITY PREDICTED BY RF-SCORE:    0.00 PKD
ROOT
HETATM    1  C   UNL     1     -10.495   5.728  66.891  1.00  0.00    -0.285 C  
HETATM    2  N   UNL     1      -9.034   5.261  66.931  1.00  0.00    -0.110 N  
HETATM    3  C   UNL     1      -8.805   4.561  68.270  1.00  0.00    -0.107 C  
HETATM    4  C   UNL     1      -8.819   4.276  65.788  1.00  0.00    -0.121 C  
ENDROOT
BRANCH   2   5
HETATM    5  C   UNL     1      -8.128   6.508  66.789  1.00  0.00    -0.109 C  
BRANCH   5   6
HETATM    6  C   UNL     1      -8.513   7.430  65.618  1.00  0.00    -0.130 C  
BRANCH   6   7
HETATM    7  O   UNL     1      -8.244   8.822  65.869  1.00  0.00    -0.108 OA 
BRANCH   7   8
HETATM    8  C   UNL     1      -8.629   9.664  64.869  1.00  0.00    -0.170 C  
HETATM    9  O   UNL     1      -7.937   9.920  63.895  1.00  0.00    -0.136 OA 
BRANCH   8  10
HETATM   10  C   UNL     1     -10.058  10.110  65.046  1.00  0.00    -0.305 C  
BRANCH  10  11
HETATM   11  C   UNL     1     -10.162  11.488  65.673  1.00  0.00    -0.292 C  
BRANCH  11  12
HETATM   12  C   UNL     1     -11.389  11.641  66.532  1.00  0.00    -0.263 C  
HETATM   13  O   UNL     1     -11.609  10.999  67.551  1.00  0.00    -0.529 OA 
BRANCH  12  14
HETATM   14  O   UNL     1     -12.291  12.491  65.969  1.00  0.00    -0.615 OA 
BRANCH  14  15
HETATM   15  C   UNL     1     -12.288  13.821  66.520  1.00  0.00    -0.386 C  
BRANCH  15  16
HETATM   16  C   UNL     1     -11.427  14.817  65.723  1.00  0.00    -0.322 C  
BRANCH  16  17
HETATM   17  N   UNL     1     -10.498  15.689  66.605  1.00  0.00    -0.296 N  
HETATM   18  C   UNL     1     -10.320  17.087  66.025  1.00  0.00    -0.315 C  
HETATM   19  C   UNL     1      -9.122  15.015  66.659  1.00  0.00    -0.280 C  
HETATM   20  C   UNL     1     -11.027  15.786  68.035  1.00  0.00    -0.330 C  
ENDBRANCH  16  17
ENDBRANCH  15  16
ENDBRANCH  14  15
ENDBRANCH  12  14
ENDBRANCH  11  12
ENDBRANCH  10  11
ENDBRANCH   8  10
ENDBRANCH   7   8
ENDBRANCH   6   7
ENDBRANCH   5   6
ENDBRANCH   2   5
TORSDOF 11
ENDMDL
MODEL      192
REMARK 921   NORMALIZED FREE ENERGY PREDICTED BY IDOCK:   -2.99 KCAL/MOL
REMARK 922        TOTAL FREE ENERGY PREDICTED BY IDOCK:   -5.66 KCAL/MOL
REMARK 923 INTER-LIGAND FREE ENERGY PREDICTED BY IDOCK:   -4.95 KCAL/MOL
REMARK 924 INTRA-LIGAND FREE ENERGY PREDICTED BY IDOCK:   -0.71 KCAL/MOL
REMARK 927      BINDING AFFINITY PREDICTED BY RF-SCORE:    0.00 PKD
ROOT
HETATM    1  C   UNL     1      -7.377  17.642  66.057  1.00  0.00    -0.266 C  
HETATM    2  N   UNL     1      -8.403  18.542  66.758  1.00  0.00    -0.261 N  
HETATM    3  C   UNL     1      -8.103  18.511  68.256  1.00  0.00    -0.303 C  
HETATM    4  C   UNL     1      -8.236  19.960  66.225  1.00  0.00    -0.329 C  
ENDROOT
BRANCH   2   5
HETATM    5  C   UNL     1      -9.815  17.981  66.460  1.00  0.00    -0.353 C  
BRANCH   5   6
HETATM    6  C   UNL     1     -10.287  16.911  67.460  1.00  0.00    -0.318 C  
BRANCH   6   7
HETATM    7  O   UNL     1     -10.454  15.607  66.872  1.00  0.00    -0.295 OA 
BRANCH   7   8
HETATM    8  C   UNL     1     -11.335  14.799  67.526  1.00  0.00    -0.344 C  
HETATM    9  O   UNL     1     -11.597  14.905  68.715  1.00  0.00    -0.293 OA 
BRANCH   8  10
HETATM   10  C   UNL     1     -12.044  13.872  66.572  1.00  0.00    -0.484 C  
BRANCH  10  11
HETATM   11  C   UNL     1     -11.772  12.410  66.874  1.00  0.00    -0.432 C  
BRANCH  11  12
HETATM   12  C   UNL     1     -10.340  12.023  66.617  1.00  0.00    -0.208 C  
HETATM   13  O   UNL     1      -9.796  12.056  65.520  1.00  0.00    -0.237 OA 
BRANCH  12  14
HETATM   14  O   UNL     1      -9.754  11.506  67.732  1.00  0.00    -0.168 OA 
BRANCH  14  15
HETATM   15  C   UNL     1      -8.383  11.100  67.556  1.00  0.00    -0.122 C  
BRANCH  15  16
HETATM   16  C   UNL     1      -8.204   9.580  67.398  1.00  0.00    -0.114 C  
BRANCH  16  17
HETATM   17  N   UNL     1      -7.410   9.170  66.132  1.00  0.00    -0.094 N  
HETATM   18  C   UNL     1      -8.328   8.956  64.935  1.00  0.00    -0.172 C  
HETATM   19  C   UNL     1      -6.692   7.848  66.427  1.00  0.00    -0.054 C  
HETATM   20  C   UNL     1      -6.347  10.211  65.788  1.00  0.00    -0.102 C  
ENDBRANCH  16  17
ENDBRANCH  15  16
ENDBRANCH  14  15
ENDBRANCH  12  14
ENDBRANCH  11  12
ENDBRANCH  10  11
ENDBRANCH   8  10
ENDBRANCH   7   8
ENDBRANCH   6   7
ENDBRANCH   5   6
ENDBRANCH   2   5
TORSDOF 11
ENDMDL
MODEL      193
REMARK 921   NORMALIZED FREE ENERGY PREDICTED BY IDOCK:   -2.97 KCAL/MOL
REMARK 922        TOTAL FREE ENERGY PREDICTED BY IDOCK:   -5.64 KCAL/MOL
REMARK 923 INTER-LIGAND FREE ENERGY PREDICTED BY IDOCK:   -5.06 KCAL/MOL
REMARK 924 INTRA-LIGAND FREE ENERGY PREDICTED BY IDOCK:   -0.57 KCAL/MOL
REMARK 927      BINDING AFFINITY PREDICTED BY RF-SCORE:    0.00 PKD
ROOT
HETATM    1  C   UNL     1      -8.527   8.977  69.006  1.00  0.00    -0.132 C  
HETATM    2  N   UNL     1     -10.030   8.807  69.263  1.00  0.00    -0.188 N  
HETATM    3  C   UNL     1     -10.232   7.472  69.977  1.00  0.00    -0.215 C  
HETATM    4  C   UNL     1     -10.491   9.950  70.160  1.00  0.00    -0.285 C  
ENDROOT
BRANCH   2   5
HETATM    5  C   UNL     1     -10.754   8.826  67.895  1.00  0.00    -0.107 C  
BRANCH   5   6
HETATM    6  C   UNL     1     -10.458  10.076  67.048  1.00  0.00    -0.238 C  
BRANCH   6   7
HETATM    7  O   UNL     1     -11.576  10.978  66.942  1.00  0.00    -0.378 OA 
BRANCH   7   8
HETATM    8  C   UNL     1     -11.374  12.037  66.108  1.00  0.00    -0.351 C  
HETATM    9  O   UNL     1     -10.865  11.939  65.001  1.00  0.00    -0.284 OA 
BRANCH   8  10
HETATM   10  C   UNL     1     -11.985  13.298  66.662  1.00  0.00    -0.446 C  
BRANCH  10  11
HETATM   11  C   UNL     1     -10.945  14.351  66.994  1.00  0.00    -0.304 C  
BRANCH  11  12
HETATM   12  C   UNL     1     -10.558  15.179  65.797  1.00  0.00    -0.351 C  
HETATM   13  O   UNL     1     -11.334  15.543  64.923  1.00  0.00    -0.379 OA 
BRANCH  12  14
HETATM   14  O   UNL     1      -9.211  15.369  65.735  1.00  0.00    -0.302 OA 
BRANCH  14  15
HETATM   15  C   UNL     1      -8.572  15.561  67.011  1.00  0.00    -0.233 C  
BRANCH  15  16
HETATM   16  C   UNL     1      -8.407  17.041  67.401  1.00  0.00    -0.191 C  
BRANCH  16  17
HETATM   17  N   UNL     1      -6.988  17.605  67.136  1.00  0.00    -0.160 N  
HETATM   18  C   UNL     1      -6.782  17.946  65.665  1.00  0.00    -0.146 C  
HETATM   19  C   UNL     1      -5.968  16.528  67.525  1.00  0.00    -0.149 C  
HETATM   20  C   UNL     1      -6.716  18.837  67.996  1.00  0.00    -0.224 C  
ENDBRANCH  16  17
ENDBRANCH  15  16
ENDBRANCH  14  15
ENDBRANCH  12  14
ENDBRANCH  11  12
ENDBRANCH  10  11
ENDBRANCH   8  10
ENDBRANCH   7   8
ENDBRANCH   6   7
ENDBRANCH   5   6
ENDBRANCH   2   5
TORSDOF 11
ENDMDL
MODEL      194
REMARK 921   NORMALIZED FREE ENERGY PREDICTED BY IDOCK:   -2.97 KCAL/MOL
REMARK 922        TOTAL FREE ENERGY PREDICTED BY IDOCK:   -5.63 KCAL/MOL
REMARK 923 INTER-LIGAND FREE ENERGY PREDICTED BY IDOCK:   -5.00 KCAL/MOL
REMARK 924 INTRA-LIGAND FREE ENERGY PREDICTED BY IDOCK:   -0.63 KCAL/MOL
REMARK 927      BINDING AFFINITY PREDICTED BY RF-SCORE:    0.00 PKD
ROOT
HETATM    1  C   UNL     1     -11.605  14.408  70.073  1.00  0.00    -0.275 C  
HETATM    2  N   UNL     1     -11.013  14.857  68.731  1.00  0.00    -0.243 N  
HETATM    3  C   UNL     1     -10.996  16.385  68.717  1.00  0.00    -0.344 C  
HETATM    4  C   UNL     1      -9.590  14.321  68.636  1.00  0.00    -0.192 C  
ENDROOT
BRANCH   2   5
HETATM    5  C   UNL     1     -11.911  14.298  67.601  1.00  0.00    -0.385 C  
BRANCH   5   6
HETATM    6  C   UNL     1     -11.889  12.763  67.487  1.00  0.00    -0.343 C  
BRANCH   6   7
HETATM    7  O   UNL     1     -12.262  12.277  66.184  1.00  0.00    -0.647 OA 
BRANCH   7   8
HETATM    8  C   UNL     1     -11.239  12.216  65.286  1.00  0.00    -0.332 C  
HETATM    9  O   UNL     1     -11.253  12.785  64.205  1.00  0.00    -0.341 OA 
BRANCH   8  10
HETATM   10  C   UNL     1     -10.048  11.491  65.858  1.00  0.00    -0.271 C  
BRANCH  10  11
HETATM   11  C   UNL     1     -10.124   9.991  65.642  1.00  0.00    -0.321 C  
BRANCH  11  12
HETATM   12  C   UNL     1     -10.231   9.225  66.934  1.00  0.00    -0.256 C  
HETATM   13  O   UNL     1     -10.212   9.733  68.047  1.00  0.00    -0.170 OA 
BRANCH  12  14
HETATM   14  O   UNL     1     -10.221   7.880  66.721  1.00  0.00    -0.277 OA 
BRANCH  14  15
HETATM   15  C   UNL     1      -8.910   7.283  66.715  1.00  0.00    -0.134 C  
BRANCH  15  16
HETATM   16  C   UNL     1      -8.898   5.828  66.215  1.00  0.00    -0.140 C  
BRANCH  16  17
HETATM   17  N   UNL     1      -7.791   5.532  65.171  1.00  0.00    -0.092 N  
HETATM   18  C   UNL     1      -7.903   6.446  63.957  1.00  0.00    -0.111 C  
HETATM   19  C   UNL     1      -7.959   4.084  64.697  1.00  0.00    -0.086 C  
HETATM   20  C   UNL     1      -6.401   5.663  65.790  1.00  0.00    -0.039 C  
ENDBRANCH  16  17
ENDBRANCH  15  16
ENDBRANCH  14  15
ENDBRANCH  12  14
ENDBRANCH  11  12
ENDBRANCH  10  11
ENDBRANCH   8  10
ENDBRANCH   7   8
ENDBRANCH   6   7
ENDBRANCH   5   6
ENDBRANCH   2   5
TORSDOF 11
ENDMDL
MODEL      195
REMARK 921   NORMALIZED FREE ENERGY PREDICTED BY IDOCK:   -2.96 KCAL/MOL
REMARK 922        TOTAL FREE ENERGY PREDICTED BY IDOCK:   -5.62 KCAL/MOL
REMARK 923 INTER-LIGAND FREE ENERGY PREDICTED BY IDOCK:   -5.20 KCAL/MOL
REMARK 924 INTRA-LIGAND FREE ENERGY PREDICTED BY IDOCK:   -0.43 KCAL/MOL
REMARK 927      BINDING AFFINITY PREDICTED BY RF-SCORE:    0.00 PKD
ROOT
HETATM    1  C   UNL     1      -9.152   1.714  64.842  1.00  0.00    -0.123 C  
HETATM    2  N   UNL     1      -9.403   3.222  64.718  1.00  0.00    -0.143 N  
HETATM    3  C   UNL     1      -8.226   3.828  63.954  1.00  0.00    -0.090 C  
HETATM    4  C   UNL     1     -10.692   3.426  63.931  1.00  0.00    -0.218 C  
ENDROOT
BRANCH   2   5
HETATM    5  C   UNL     1      -9.505   3.810  66.146  1.00  0.00    -0.175 C  
BRANCH   5   6
HETATM    6  C   UNL     1     -10.369   5.080  66.238  1.00  0.00    -0.291 C  
BRANCH   6   7
HETATM    7  O   UNL     1      -9.637   6.246  66.662  1.00  0.00    -0.151 OA 
BRANCH   7   8
HETATM    8  C   UNL     1     -10.389   7.188  67.298  1.00  0.00    -0.272 C  
HETATM    9  O   UNL     1     -11.147   6.937  68.223  1.00  0.00    -0.169 OA 
BRANCH   8  10
HETATM   10  C   UNL     1     -10.054   8.576  66.815  1.00  0.00    -0.369 C  
BRANCH  10  11
HETATM   11  C   UNL     1     -10.780   9.653  67.599  1.00  0.00    -0.324 C  
BRANCH  11  12
HETATM   12  C   UNL     1     -10.766  10.986  66.899  1.00  0.00    -0.274 C  
HETATM   13  O   UNL     1      -9.817  11.429  66.266  1.00  0.00    -0.206 OA 
BRANCH  12  14
HETATM   14  O   UNL     1     -11.894  11.702  67.163  1.00  0.00    -0.608 OA 
BRANCH  14  15
HETATM   15  C   UNL     1     -11.784  12.606  68.279  1.00  0.00    -0.342 C  
BRANCH  15  16
HETATM   16  C   UNL     1     -11.873  14.090  67.881  1.00  0.00    -0.376 C  
BRANCH  16  17
HETATM   17  N   UNL     1     -10.887  15.006  68.649  1.00  0.00    -0.241 N  
HETATM   18  C   UNL     1     -10.808  16.396  68.029  1.00  0.00    -0.342 C  
HETATM   19  C   UNL     1      -9.493  14.370  68.578  1.00  0.00    -0.212 C  
HETATM   20  C   UNL     1     -11.273  15.117  70.123  1.00  0.00    -0.273 C  
ENDBRANCH  16  17
ENDBRANCH  15  16
ENDBRANCH  14  15
ENDBRANCH  12  14
ENDBRANCH  11  12
ENDBRANCH  10  11
ENDBRANCH   8  10
ENDBRANCH   7   8
ENDBRANCH   6   7
ENDBRANCH   5   6
ENDBRANCH   2   5
TORSDOF 11
ENDMDL
MODEL      196
REMARK 921   NORMALIZED FREE ENERGY PREDICTED BY IDOCK:   -2.96 KCAL/MOL
REMARK 922        TOTAL FREE ENERGY PREDICTED BY IDOCK:   -5.62 KCAL/MOL
REMARK 923 INTER-LIGAND FREE ENERGY PREDICTED BY IDOCK:   -5.06 KCAL/MOL
REMARK 924 INTRA-LIGAND FREE ENERGY PREDICTED BY IDOCK:   -0.57 KCAL/MOL
REMARK 927      BINDING AFFINITY PREDICTED BY RF-SCORE:    0.00 PKD
ROOT
HETATM    1  C   UNL     1     -10.648   5.693  66.676  1.00  0.00    -0.295 C  
HETATM    2  N   UNL     1      -9.260   5.051  66.801  1.00  0.00    -0.117 N  
HETATM    3  C   UNL     1      -9.276   4.141  68.028  1.00  0.00    -0.147 C  
HETATM    4  C   UNL     1      -9.003   4.226  65.546  1.00  0.00    -0.132 C  
ENDROOT
BRANCH   2   5
HETATM    5  C   UNL     1      -8.220   6.186  66.961  1.00  0.00    -0.106 C  
BRANCH   5   6
HETATM    6  C   UNL     1      -8.379   7.329  65.941  1.00  0.00    -0.144 C  
BRANCH   6   7
HETATM    7  O   UNL     1      -8.247   8.641  66.520  1.00  0.00    -0.104 OA 
BRANCH   7   8
HETATM    8  C   UNL     1      -8.559   9.666  65.679  1.00  0.00    -0.136 C  
HETATM    9  O   UNL     1      -7.870   9.990  64.722  1.00  0.00    -0.136 OA 
BRANCH   8  10
HETATM   10  C   UNL     1      -9.917  10.240  65.990  1.00  0.00    -0.308 C  
BRANCH  10  11
HETATM   11  C   UNL     1     -10.521   9.651  67.252  1.00  0.00    -0.323 C  
BRANCH  11  12
HETATM   12  C   UNL     1     -11.165  10.694  68.126  1.00  0.00    -0.302 C  
HETATM   13  O   UNL     1     -12.118  11.387  67.794  1.00  0.00    -0.637 OA 
BRANCH  12  14
HETATM   14  O   UNL     1     -10.478  10.865  69.289  1.00  0.00    -0.216 OA 
BRANCH  14  15
HETATM   15  C   UNL     1     -11.169  10.409  70.467  1.00  0.00    -0.314 C  
BRANCH  15  16
HETATM   16  C   UNL     1     -10.485   9.218  71.161  1.00  0.00    -0.331 C  
BRANCH  16  17
HETATM   17  N   UNL     1     -11.469   8.124  71.645  1.00  0.00    -0.262 N  
HETATM   18  C   UNL     1     -10.974   7.441  72.914  1.00  0.00    -0.361 C  
HETATM   19  C   UNL     1     -11.582   7.063  70.544  1.00  0.00    -0.319 C  
HETATM   20  C   UNL     1     -12.863   8.702  71.880  1.00  0.00    -0.369 C  
ENDBRANCH  16  17
ENDBRANCH  15  16
ENDBRANCH  14  15
ENDBRANCH  12  14
ENDBRANCH  11  12
ENDBRANCH  10  11
ENDBRANCH   8  10
ENDBRANCH   7   8
ENDBRANCH   6   7
ENDBRANCH   5   6
ENDBRANCH   2   5
TORSDOF 11
ENDMDL
MODEL      197
REMARK 921   NORMALIZED FREE ENERGY PREDICTED BY IDOCK:   -2.96 KCAL/MOL
REMARK 922        TOTAL FREE ENERGY PREDICTED BY IDOCK:   -5.62 KCAL/MOL
REMARK 923 INTER-LIGAND FREE ENERGY PREDICTED BY IDOCK:   -4.99 KCAL/MOL
REMARK 924 INTRA-LIGAND FREE ENERGY PREDICTED BY IDOCK:   -0.63 KCAL/MOL
REMARK 927      BINDING AFFINITY PREDICTED BY RF-SCORE:    0.00 PKD
ROOT
HETATM    1  C   UNL     1     -10.913  15.198  64.598  1.00  0.00    -0.303 C  
HETATM    2  N   UNL     1     -11.542  13.860  65.004  1.00  0.00    -0.331 N  
HETATM    3  C   UNL     1     -12.880  14.159  65.679  1.00  0.00    -0.371 C  
HETATM    4  C   UNL     1     -11.771  13.039  63.741  1.00  0.00    -0.485 C  
ENDROOT
BRANCH   2   5
HETATM    5  C   UNL     1     -10.571  13.151  65.979  1.00  0.00    -0.281 C  
BRANCH   5   6
HETATM    6  C   UNL     1     -10.942  11.686  66.276  1.00  0.00    -0.289 C  
BRANCH   6   7
HETATM    7  O   UNL     1     -11.968  11.543  67.276  1.00  0.00    -0.605 OA 
BRANCH   7   8
HETATM    8  C   UNL     1     -11.518  11.590  68.561  1.00  0.00    -0.292 C  
HETATM    9  O   UNL     1     -11.800  12.485  69.344  1.00  0.00    -0.305 OA 
BRANCH   8  10
HETATM   10  C   UNL     1     -10.762  10.338  68.926  1.00  0.00    -0.256 C  
BRANCH  10  11
HETATM   11  C   UNL     1      -9.310  10.616  69.268  1.00  0.00    -0.136 C  
BRANCH  11  12
HETATM   12  C   UNL     1      -8.357   9.749  68.488  1.00  0.00    -0.110 C  
HETATM   13  O   UNL     1      -7.152   9.683  68.692  1.00  0.00    -0.070 OA 
BRANCH  12  14
HETATM   14  O   UNL     1      -8.977   9.142  67.440  1.00  0.00    -0.118 OA 
BRANCH  14  15
HETATM   15  C   UNL     1      -8.793   7.714  67.378  1.00  0.00    -0.124 C  
BRANCH  15  16
HETATM   16  C   UNL     1     -10.035   6.914  67.806  1.00  0.00    -0.148 C  
BRANCH  16  17
HETATM   17  N   UNL     1      -9.782   5.948  68.992  1.00  0.00    -0.131 N  
HETATM   18  C   UNL     1      -8.504   6.301  69.743  1.00  0.00    -0.126 C  
HETATM   19  C   UNL     1      -9.628   4.531  68.427  1.00  0.00    -0.145 C  
HETATM   20  C   UNL     1     -10.965   5.940  69.958  1.00  0.00    -0.360 C  
ENDBRANCH  16  17
ENDBRANCH  15  16
ENDBRANCH  14  15
ENDBRANCH  12  14
ENDBRANCH  11  12
ENDBRANCH  10  11
ENDBRANCH   8  10
ENDBRANCH   7   8
ENDBRANCH   6   7
ENDBRANCH   5   6
ENDBRANCH   2   5
TORSDOF 11
ENDMDL
MODEL      198
REMARK 921   NORMALIZED FREE ENERGY PREDICTED BY IDOCK:   -2.95 KCAL/MOL
REMARK 922        TOTAL FREE ENERGY PREDICTED BY IDOCK:   -5.61 KCAL/MOL
REMARK 923 INTER-LIGAND FREE ENERGY PREDICTED BY IDOCK:   -5.38 KCAL/MOL
REMARK 924 INTRA-LIGAND FREE ENERGY PREDICTED BY IDOCK:   -0.23 KCAL/MOL
REMARK 927      BINDING AFFINITY PREDICTED BY RF-SCORE:    0.00 PKD
ROOT
HETATM    1  C   UNL     1     -14.391  15.294  71.972  1.00  0.00    -0.589 C  
HETATM    2  N   UNL     1     -12.977  14.713  71.843  1.00  0.00    -0.315 N  
HETATM    3  C   UNL     1     -12.446  15.082  70.459  1.00  0.00    -0.371 C  
HETATM    4  C   UNL     1     -12.103  15.345  72.919  1.00  0.00    -0.437 C  
ENDROOT
BRANCH   2   5
HETATM    5  C   UNL     1     -13.074  13.177  72.013  1.00  0.00    -0.376 C  
BRANCH   5   6
HETATM    6  C   UNL     1     -12.426  12.380  70.867  1.00  0.00    -0.274 C  
BRANCH   6   7
HETATM    7  O   UNL     1     -12.785  10.985  70.860  1.00  0.00    -0.354 OA 
BRANCH   7   8
HETATM    8  C   UNL     1     -11.790  10.145  70.459  1.00  0.00    -0.321 C  
HETATM    9  O   UNL     1     -11.371  10.092  69.312  1.00  0.00    -0.203 OA 
BRANCH   8  10
HETATM   10  C   UNL     1     -11.184   9.411  71.628  1.00  0.00    -0.431 C  
BRANCH  10  11
HETATM   11  C   UNL     1     -11.741   8.008  71.784  1.00  0.00    -0.335 C  
BRANCH  11  12
HETATM   12  C   UNL     1     -10.761   7.066  72.431  1.00  0.00    -0.231 C  
HETATM   13  O   UNL     1     -10.471   7.072  73.620  1.00  0.00    -0.337 OA 
BRANCH  12  14
HETATM   14  O   UNL     1     -10.134   6.285  71.508  1.00  0.00    -0.187 OA 
BRANCH  14  15
HETATM   15  C   UNL     1     -10.024   6.875  70.198  1.00  0.00    -0.178 C  
BRANCH  15  16
HETATM   16  C   UNL     1      -8.769   6.432  69.426  1.00  0.00    -0.129 C  
BRANCH  16  17
HETATM   17  N   UNL     1      -7.532   7.334  69.668  1.00  0.00    -0.091 N  
HETATM   18  C   UNL     1      -6.719   7.530  68.394  1.00  0.00    -0.054 C  
HETATM   19  C   UNL     1      -6.638   6.648  70.707  1.00  0.00    -0.053 C  
HETATM   20  C   UNL     1      -7.944   8.693  70.232  1.00  0.00    -0.106 C  
ENDBRANCH  16  17
ENDBRANCH  15  16
ENDBRANCH  14  15
ENDBRANCH  12  14
ENDBRANCH  11  12
ENDBRANCH  10  11
ENDBRANCH   8  10
ENDBRANCH   7   8
ENDBRANCH   6   7
ENDBRANCH   5   6
ENDBRANCH   2   5
TORSDOF 11
ENDMDL
MODEL      199
REMARK 921   NORMALIZED FREE ENERGY PREDICTED BY IDOCK:   -2.95 KCAL/MOL
REMARK 922        TOTAL FREE ENERGY PREDICTED BY IDOCK:   -5.60 KCAL/MOL
REMARK 923 INTER-LIGAND FREE ENERGY PREDICTED BY IDOCK:   -5.03 KCAL/MOL
REMARK 924 INTRA-LIGAND FREE ENERGY PREDICTED BY IDOCK:   -0.57 KCAL/MOL
REMARK 927      BINDING AFFINITY PREDICTED BY RF-SCORE:    0.00 PKD
ROOT
HETATM    1  C   UNL     1      -8.996   3.053  65.966  1.00  0.00    -0.147 C  
HETATM    2  N   UNL     1      -9.675   4.153  65.140  1.00  0.00    -0.186 N  
HETATM    3  C   UNL     1      -8.590   5.121  64.672  1.00  0.00    -0.142 C  
HETATM    4  C   UNL     1     -10.342   3.499  63.935  1.00  0.00    -0.244 C  
ENDROOT
BRANCH   2   5
HETATM    5  C   UNL     1     -10.706   4.866  66.047  1.00  0.00    -0.190 C  
BRANCH   5   6
HETATM    6  C   UNL     1     -10.090   5.532  67.291  1.00  0.00    -0.183 C  
BRANCH   6   7
HETATM    7  O   UNL     1     -11.060   6.157  68.151  1.00  0.00    -0.332 OA 
BRANCH   7   8
HETATM    8  C   UNL     1     -10.662   6.302  69.446  1.00  0.00    -0.303 C  
HETATM    9  O   UNL     1      -9.491   6.300  69.798  1.00  0.00    -0.150 OA 
BRANCH   8  10
HETATM   10  C   UNL     1     -11.828   6.609  70.350  1.00  0.00    -0.407 C  
BRANCH  10  11
HETATM   11  C   UNL     1     -11.440   7.500  71.515  1.00  0.00    -0.293 C  
BRANCH  11  12
HETATM   12  C   UNL     1     -12.351   8.689  71.662  1.00  0.00    -0.333 C  
HETATM   13  O   UNL     1     -13.160   8.838  72.569  1.00  0.00    -0.401 OA 
BRANCH  12  14
HETATM   14  O   UNL     1     -12.260   9.524  70.590  1.00  0.00    -0.234 OA 
BRANCH  14  15
HETATM   15  C   UNL     1     -10.940  10.049  70.349  1.00  0.00    -0.320 C  
BRANCH  15  16
HETATM   16  C   UNL     1     -10.507   9.973  68.874  1.00  0.00    -0.210 C  
BRANCH  16  17
HETATM   17  N   UNL     1     -10.519  11.342  68.146  1.00  0.00    -0.182 N  
HETATM   18  C   UNL     1     -11.556  12.288  68.740  1.00  0.00    -0.330 C  
HETATM   19  C   UNL     1     -10.881  11.096  66.677  1.00  0.00    -0.253 C  
HETATM   20  C   UNL     1      -9.140  11.997  68.184  1.00  0.00    -0.191 C  
ENDBRANCH  16  17
ENDBRANCH  15  16
ENDBRANCH  14  15
ENDBRANCH  12  14
ENDBRANCH  11  12
ENDBRANCH  10  11
ENDBRANCH   8  10
ENDBRANCH   7   8
ENDBRANCH   6   7
ENDBRANCH   5   6
ENDBRANCH   2   5
TORSDOF 11
ENDMDL
MODEL      200
REMARK 921   NORMALIZED FREE ENERGY PREDICTED BY IDOCK:   -2.95 KCAL/MOL
REMARK 922        TOTAL FREE ENERGY PREDICTED BY IDOCK:   -5.60 KCAL/MOL
REMARK 923 INTER-LIGAND FREE ENERGY PREDICTED BY IDOCK:   -4.77 KCAL/MOL
REMARK 924 INTRA-LIGAND FREE ENERGY PREDICTED BY IDOCK:   -0.83 KCAL/MOL
REMARK 927      BINDING AFFINITY PREDICTED BY RF-SCORE:    0.00 PKD
ROOT
HETATM    1  C   UNL     1     -13.381  13.341  72.292  1.00  0.00    -0.533 C  
HETATM    2  N   UNL     1     -13.024  14.611  71.508  1.00  0.00    -0.319 N  
HETATM    3  C   UNL     1     -14.237  15.539  71.548  1.00  0.00    -0.366 C  
HETATM    4  C   UNL     1     -11.839  15.277  72.197  1.00  0.00    -0.439 C  
ENDROOT
BRANCH   2   5
HETATM    5  C   UNL     1     -12.683  14.197  70.057  1.00  0.00    -0.103 C  
BRANCH   5   6
HETATM    6  C   UNL     1     -11.550  13.161  69.952  1.00  0.00    -0.185 C  
BRANCH   6   7
HETATM    7  O   UNL     1     -11.942  11.943  69.291  1.00  0.00    -0.305 OA 
BRANCH   7   8
HETATM    8  C   UNL     1     -11.873  10.827  70.070  1.00  0.00    -0.344 C  
HETATM    9  O   UNL     1     -12.849  10.291  70.573  1.00  0.00    -0.315 OA 
BRANCH   8  10
HETATM   10  C   UNL     1     -10.474  10.266  70.105  1.00  0.00    -0.259 C  
BRANCH  10  11
HETATM   11  C   UNL     1     -10.343   8.983  69.306  1.00  0.00    -0.227 C  
BRANCH  11  12
HETATM   12  C   UNL     1     -10.157   9.235  67.833  1.00  0.00    -0.200 C  
HETATM   13  O   UNL     1     -10.788   8.676  66.947  1.00  0.00    -0.178 OA 
BRANCH  12  14
HETATM   14  O   UNL     1      -9.107  10.070  67.598  1.00  0.00    -0.134 OA 
BRANCH  14  15
HETATM   15  C   UNL     1      -7.940   9.426  67.052  1.00  0.00    -0.102 C  
BRANCH  15  16
HETATM   16  C   UNL     1      -7.333  10.168  65.848  1.00  0.00    -0.121 C  
BRANCH  16  17
HETATM   17  N   UNL     1      -7.873   9.686  64.477  1.00  0.00    -0.127 N  
HETATM   18  C   UNL     1      -8.138   8.186  64.472  1.00  0.00    -0.142 C  
HETATM   19  C   UNL     1      -6.810   9.988  63.414  1.00  0.00    -0.132 C  
HETATM   20  C   UNL     1      -9.145  10.438  64.091  1.00  0.00    -0.242 C  
ENDBRANCH  16  17
ENDBRANCH  15  16
ENDBRANCH  14  15
ENDBRANCH  12  14
ENDBRANCH  11  12
ENDBRANCH  10  11
ENDBRANCH   8  10
ENDBRANCH   7   8
ENDBRANCH   6   7
ENDBRANCH   5   6
ENDBRANCH   2   5
TORSDOF 11
ENDMDL
MODEL      201
REMARK 921   NORMALIZED FREE ENERGY PREDICTED BY IDOCK:   -2.94 KCAL/MOL
REMARK 922        TOTAL FREE ENERGY PREDICTED BY IDOCK:   -5.59 KCAL/MOL
REMARK 923 INTER-LIGAND FREE ENERGY PREDICTED BY IDOCK:   -5.20 KCAL/MOL
REMARK 924 INTRA-LIGAND FREE ENERGY PREDICTED BY IDOCK:   -0.40 KCAL/MOL
REMARK 927      BINDING AFFINITY PREDICTED BY RF-SCORE:    0.00 PKD
ROOT
HETATM    1  C   UNL     1      -8.649  16.126  66.143  1.00  0.00    -0.296 C  
HETATM    2  N   UNL     1     -10.005  16.538  66.730  1.00  0.00    -0.265 N  
HETATM    3  C   UNL     1      -9.828  16.703  68.239  1.00  0.00    -0.253 C  
HETATM    4  C   UNL     1     -10.408  17.870  66.107  1.00  0.00    -0.352 C  
ENDROOT
BRANCH   2   5
HETATM    5  C   UNL     1     -11.027  15.422  66.406  1.00  0.00    -0.277 C  
BRANCH   5   6
HETATM    6  C   UNL     1     -11.232  15.181  64.899  1.00  0.00    -0.417 C  
BRANCH   6   7
HETATM    7  O   UNL     1     -11.950  13.969  64.602  1.00  0.00    -0.387 OA 
BRANCH   7   8
HETATM    8  C   UNL     1     -11.178  12.847  64.561  1.00  0.00    -0.336 C  
HETATM    9  O   UNL     1     -10.327  12.643  63.709  1.00  0.00    -0.415 OA 
BRANCH   8  10
HETATM   10  C   UNL     1     -11.407  11.978  65.771  1.00  0.00    -0.384 C  
BRANCH  10  11
HETATM   11  C   UNL     1     -10.530  10.740  65.770  1.00  0.00    -0.256 C  
BRANCH  11  12
HETATM   12  C   UNL     1     -10.354  10.155  67.146  1.00  0.00    -0.238 C  
HETATM   13  O   UNL     1     -11.197  10.196  68.032  1.00  0.00    -0.270 OA 
BRANCH  12  14
HETATM   14  O   UNL     1      -9.089   9.685  67.332  1.00  0.00    -0.130 OA 
BRANCH  14  15
HETATM   15  C   UNL     1      -8.833   8.399  66.734  1.00  0.00    -0.138 C  
BRANCH  15  16
HETATM   16  C   UNL     1      -8.927   7.228  67.727  1.00  0.00    -0.126 C  
BRANCH  16  17
HETATM   17  N   UNL     1      -9.348   5.886  67.077  1.00  0.00    -0.118 N  
HETATM   18  C   UNL     1      -8.641   5.658  65.746  1.00  0.00    -0.148 C  
HETATM   19  C   UNL     1     -10.858   5.937  66.814  1.00  0.00    -0.270 C  
HETATM   20  C   UNL     1      -9.078   4.711  68.014  1.00  0.00    -0.120 C  
ENDBRANCH  16  17
ENDBRANCH  15  16
ENDBRANCH  14  15
ENDBRANCH  12  14
ENDBRANCH  11  12
ENDBRANCH  10  11
ENDBRANCH   8  10
ENDBRANCH   7   8
ENDBRANCH   6   7
ENDBRANCH   5   6
ENDBRANCH   2   5
TORSDOF 11
ENDMDL
MODEL      202
REMARK 921   NORMALIZED FREE ENERGY PREDICTED BY IDOCK:   -2.94 KCAL/MOL
REMARK 922        TOTAL FREE ENERGY PREDICTED BY IDOCK:   -5.58 KCAL/MOL
REMARK 923 INTER-LIGAND FREE ENERGY PREDICTED BY IDOCK:   -4.90 KCAL/MOL
REMARK 924 INTRA-LIGAND FREE ENERGY PREDICTED BY IDOCK:   -0.68 KCAL/MOL
REMARK 927      BINDING AFFINITY PREDICTED BY RF-SCORE:    0.00 PKD
ROOT
HETATM    1  C   UNL     1      -9.031   6.323  66.080  1.00  0.00    -0.137 C  
HETATM    2  N   UNL     1      -8.244   7.534  65.560  1.00  0.00    -0.131 N  
HETATM    3  C   UNL     1      -7.003   7.693  66.437  1.00  0.00    -0.066 C  
HETATM    4  C   UNL     1      -7.829   7.249  64.122  1.00  0.00    -0.118 C  
ENDROOT
BRANCH   2   5
HETATM    5  C   UNL     1      -9.160   8.777  65.656  1.00  0.00    -0.191 C  
BRANCH   5   6
HETATM    6  C   UNL     1      -9.131   9.470  67.031  1.00  0.00    -0.134 C  
BRANCH   6   7
HETATM    7  O   UNL     1     -10.387   9.409  67.733  1.00  0.00    -0.208 OA 
BRANCH   7   8
HETATM    8  C   UNL     1     -11.052  10.596  67.811  1.00  0.00    -0.321 C  
HETATM    9  O   UNL     1     -11.633  11.109  66.866  1.00  0.00    -0.428 OA 
BRANCH   8  10
HETATM   10  C   UNL     1     -11.101  11.107  69.228  1.00  0.00    -0.318 C  
BRANCH  10  11
HETATM   11  C   UNL     1     -12.517  11.389  69.694  1.00  0.00    -0.133 C  
BRANCH  11  12
HETATM   12  C   UNL     1     -12.821  10.766  71.031  1.00  0.00    -0.385 C  
HETATM   13  O   UNL     1     -13.168  11.389  72.026  1.00  0.00    -0.503 OA 
BRANCH  12  14
HETATM   14  O   UNL     1     -12.537   9.435  71.039  1.00  0.00    -0.294 OA 
BRANCH  14  15
HETATM   15  C   UNL     1     -11.978   8.947  72.274  1.00  0.00    -0.310 C  
BRANCH  15  16
HETATM   16  C   UNL     1     -10.460   8.702  72.210  1.00  0.00    -0.306 C  
BRANCH  16  17
HETATM   17  N   UNL     1     -10.063   7.206  72.270  1.00  0.00    -0.179 N  
HETATM   18  C   UNL     1     -10.986   6.342  71.418  1.00  0.00    -0.267 C  
HETATM   19  C   UNL     1     -10.182   6.740  73.726  1.00  0.00    -0.349 C  
HETATM   20  C   UNL     1      -8.614   7.002  71.832  1.00  0.00    -0.120 C  
ENDBRANCH  16  17
ENDBRANCH  15  16
ENDBRANCH  14  15
ENDBRANCH  12  14
ENDBRANCH  11  12
ENDBRANCH  10  11
ENDBRANCH   8  10
ENDBRANCH   7   8
ENDBRANCH   6   7
ENDBRANCH   5   6
ENDBRANCH   2   5
TORSDOF 11
ENDMDL
MODEL      203
REMARK 921   NORMALIZED FREE ENERGY PREDICTED BY IDOCK:   -2.93 KCAL/MOL
REMARK 922        TOTAL FREE ENERGY PREDICTED BY IDOCK:   -5.57 KCAL/MOL
REMARK 923 INTER-LIGAND FREE ENERGY PREDICTED BY IDOCK:   -4.77 KCAL/MOL
REMARK 924 INTRA-LIGAND FREE ENERGY PREDICTED BY IDOCK:   -0.80 KCAL/MOL
REMARK 927      BINDING AFFINITY PREDICTED BY RF-SCORE:    0.00 PKD
ROOT
HETATM    1  C   UNL     1      -9.678   8.886  66.184  1.00  0.00    -0.268 C  
HETATM    2  N   UNL     1      -8.181   8.648  65.947  1.00  0.00    -0.116 N  
HETATM    3  C   UNL     1      -8.034   7.337  65.175  1.00  0.00    -0.128 C  
HETATM    4  C   UNL     1      -7.642   9.804  65.113  1.00  0.00    -0.125 C  
ENDROOT
BRANCH   2   5
HETATM    5  C   UNL     1      -7.485   8.565  67.327  1.00  0.00    -0.093 C  
BRANCH   5   6
HETATM    6  C   UNL     1      -8.450   8.306  68.499  1.00  0.00    -0.126 C  
BRANCH   6   7
HETATM    7  O   UNL     1      -8.468   9.364  69.475  1.00  0.00    -0.130 OA 
BRANCH   7   8
HETATM    8  C   UNL     1      -8.837   8.975  70.727  1.00  0.00    -0.234 C  
HETATM    9  O   UNL     1      -8.110   9.065  71.706  1.00  0.00    -0.348 OA 
BRANCH   8  10
HETATM   10  C   UNL     1     -10.286   8.565  70.772  1.00  0.00    -0.238 C  
BRANCH  10  11
HETATM   11  C   UNL     1     -11.113   9.450  71.686  1.00  0.00    -0.409 C  
BRANCH  11  12
HETATM   12  C   UNL     1     -12.369   9.951  71.025  1.00  0.00    -0.357 C  
HETATM   13  O   UNL     1     -13.486   9.899  71.523  1.00  0.00    -0.361 OA 
BRANCH  12  14
HETATM   14  O   UNL     1     -12.134  10.355  69.746  1.00  0.00    -0.228 OA 
BRANCH  14  15
HETATM   15  C   UNL     1     -11.782  11.745  69.610  1.00  0.00    -0.344 C  
BRANCH  15  16
HETATM   16  C   UNL     1     -10.594  11.990  68.664  1.00  0.00    -0.229 C  
BRANCH  16  17
HETATM   17  N   UNL     1     -10.679  13.326  67.883  1.00  0.00    -0.235 N  
HETATM   18  C   UNL     1      -9.907  14.439  68.583  1.00  0.00    -0.231 C  
HETATM   19  C   UNL     1     -12.153  13.741  67.809  1.00  0.00    -0.290 C  
HETATM   20  C   UNL     1     -10.167  13.162  66.454  1.00  0.00    -0.286 C  
ENDBRANCH  16  17
ENDBRANCH  15  16
ENDBRANCH  14  15
ENDBRANCH  12  14
ENDBRANCH  11  12
ENDBRANCH  10  11
ENDBRANCH   8  10
ENDBRANCH   7   8
ENDBRANCH   6   7
ENDBRANCH   5   6
ENDBRANCH   2   5
TORSDOF 11
ENDMDL
MODEL      204
REMARK 921   NORMALIZED FREE ENERGY PREDICTED BY IDOCK:   -2.93 KCAL/MOL
REMARK 922        TOTAL FREE ENERGY PREDICTED BY IDOCK:   -5.57 KCAL/MOL
REMARK 923 INTER-LIGAND FREE ENERGY PREDICTED BY IDOCK:   -5.15 KCAL/MOL
REMARK 924 INTRA-LIGAND FREE ENERGY PREDICTED BY IDOCK:   -0.43 KCAL/MOL
REMARK 927      BINDING AFFINITY PREDICTED BY RF-SCORE:    0.00 PKD
ROOT
HETATM    1  C   UNL     1     -11.989  15.307  72.578  1.00  0.00    -0.424 C  
HETATM    2  N   UNL     1     -12.856  14.736  71.449  1.00  0.00    -0.314 N  
HETATM    3  C   UNL     1     -14.280  15.252  71.647  1.00  0.00    -0.552 C  
HETATM    4  C   UNL     1     -12.301  15.242  70.122  1.00  0.00    -0.353 C  
ENDROOT
BRANCH   2   5
HETATM    5  C   UNL     1     -12.803  13.192  71.539  1.00  0.00    -0.307 C  
BRANCH   5   6
HETATM    6  C   UNL     1     -11.946  12.531  70.443  1.00  0.00    -0.251 C  
BRANCH   6   7
HETATM    7  O   UNL     1     -12.367  11.195  70.110  1.00  0.00    -0.304 OA 
BRANCH   7   8
HETATM    8  C   UNL     1     -11.979  10.239  71.001  1.00  0.00    -0.385 C  
HETATM    9  O   UNL     1     -12.717   9.771  71.855  1.00  0.00    -0.384 OA 
BRANCH   8  10
HETATM   10  C   UNL     1     -10.590   9.739  70.700  1.00  0.00    -0.382 C  
BRANCH  10  11
HETATM   11  C   UNL     1     -10.434   8.256  70.980  1.00  0.00    -0.241 C  
BRANCH  11  12
HETATM   12  C   UNL     1      -9.011   7.872  71.290  1.00  0.00    -0.135 C  
HETATM   13  O   UNL     1      -8.181   8.622  71.787  1.00  0.00    -0.164 OA 
BRANCH  12  14
HETATM   14  O   UNL     1      -8.718   6.624  70.831  1.00  0.00    -0.137 OA 
BRANCH  14  15
HETATM   15  C   UNL     1      -9.483   6.212  69.682  1.00  0.00    -0.145 C  
BRANCH  15  16
HETATM   16  C   UNL     1      -8.903   4.981  68.964  1.00  0.00    -0.092 C  
BRANCH  16  17
HETATM   17  N   UNL     1      -9.021   5.042  67.420  1.00  0.00    -0.109 N  
HETATM   18  C   UNL     1      -7.717   5.492  66.772  1.00  0.00    -0.100 C  
HETATM   19  C   UNL     1     -10.108   6.062  67.065  1.00  0.00    -0.179 C  
HETATM   20  C   UNL     1      -9.443   3.691  66.847  1.00  0.00    -0.187 C  
ENDBRANCH  16  17
ENDBRANCH  15  16
ENDBRANCH  14  15
ENDBRANCH  12  14
ENDBRANCH  11  12
ENDBRANCH  10  11
ENDBRANCH   8  10
ENDBRANCH   7   8
ENDBRANCH   6   7
ENDBRANCH   5   6
ENDBRANCH   2   5
TORSDOF 11
ENDMDL
MODEL      205
REMARK 921   NORMALIZED FREE ENERGY PREDICTED BY IDOCK:   -2.93 KCAL/MOL
REMARK 922        TOTAL FREE ENERGY PREDICTED BY IDOCK:   -5.57 KCAL/MOL
REMARK 923 INTER-LIGAND FREE ENERGY PREDICTED BY IDOCK:   -4.83 KCAL/MOL
REMARK 924 INTRA-LIGAND FREE ENERGY PREDICTED BY IDOCK:   -0.74 KCAL/MOL
REMARK 927      BINDING AFFINITY PREDICTED BY RF-SCORE:    0.00 PKD
ROOT
HETATM    1  C   UNL     1     -11.777  13.051  67.026  1.00  0.00    -0.383 C  
HETATM    2  N   UNL     1     -10.305  12.703  66.770  1.00  0.00    -0.233 N  
HETATM    3  C   UNL     1     -10.234  11.908  65.467  1.00  0.00    -0.254 C  
HETATM    4  C   UNL     1      -9.527  14.005  66.626  1.00  0.00    -0.287 C  
ENDROOT
BRANCH   2   5
HETATM    5  C   UNL     1      -9.796  11.862  67.965  1.00  0.00    -0.190 C  
BRANCH   5   6
HETATM    6  C   UNL     1      -9.586  10.372  67.637  1.00  0.00    -0.149 C  
BRANCH   6   7
HETATM    7  O   UNL     1     -10.657   9.525  68.094  1.00  0.00    -0.213 OA 
BRANCH   7   8
HETATM    8  C   UNL     1     -10.466   8.195  67.864  1.00  0.00    -0.197 C  
HETATM    9  O   UNL     1     -10.425   7.700  66.748  1.00  0.00    -0.314 OA 
BRANCH   8  10
HETATM   10  C   UNL     1     -10.168   7.454  69.142  1.00  0.00    -0.196 C  
BRANCH  10  11
HETATM   11  C   UNL     1     -11.325   6.580  69.590  1.00  0.00    -0.443 C  
BRANCH  11  12
HETATM   12  C   UNL     1     -11.850   6.966  70.947  1.00  0.00    -0.376 C  
HETATM   13  O   UNL     1     -13.026   6.905  71.280  1.00  0.00    -0.350 OA 
BRANCH  12  14
HETATM   14  O   UNL     1     -10.875   7.516  71.722  1.00  0.00    -0.224 OA 
BRANCH  14  15
HETATM   15  C   UNL     1     -10.578   6.779  72.924  1.00  0.00    -0.250 C  
BRANCH  15  16
HETATM   16  C   UNL     1      -9.357   5.852  72.793  1.00  0.00    -0.145 C  
BRANCH  16  17
HETATM   17  N   UNL     1      -9.720   4.348  72.698  1.00  0.00    -0.144 N  
HETATM   18  C   UNL     1      -9.710   3.855  71.256  1.00  0.00    -0.177 C  
HETATM   19  C   UNL     1     -11.136   4.163  73.257  1.00  0.00    -0.222 C  
HETATM   20  C   UNL     1      -8.771   3.498  73.541  1.00  0.00    -0.082 C  
ENDBRANCH  16  17
ENDBRANCH  15  16
ENDBRANCH  14  15
ENDBRANCH  12  14
ENDBRANCH  11  12
ENDBRANCH  10  11
ENDBRANCH   8  10
ENDBRANCH   7   8
ENDBRANCH   6   7
ENDBRANCH   5   6
ENDBRANCH   2   5
TORSDOF 11
ENDMDL
MODEL      206
REMARK 921   NORMALIZED FREE ENERGY PREDICTED BY IDOCK:   -2.92 KCAL/MOL
REMARK 922        TOTAL FREE ENERGY PREDICTED BY IDOCK:   -5.55 KCAL/MOL
REMARK 923 INTER-LIGAND FREE ENERGY PREDICTED BY IDOCK:   -4.67 KCAL/MOL
REMARK 924 INTRA-LIGAND FREE ENERGY PREDICTED BY IDOCK:   -0.88 KCAL/MOL
REMARK 927      BINDING AFFINITY PREDICTED BY RF-SCORE:    0.00 PKD
ROOT
HETATM    1  C   UNL     1      -6.485   9.330  69.052  1.00  0.00    -0.047 C  
HETATM    2  N   UNL     1      -7.878   9.437  68.419  1.00  0.00    -0.090 N  
HETATM    3  C   UNL     1      -8.273   8.046  67.925  1.00  0.00    -0.129 C  
HETATM    4  C   UNL     1      -8.854   9.901  69.495  1.00  0.00    -0.197 C  
ENDROOT
BRANCH   2   5
HETATM    5  C   UNL     1      -7.797  10.444  67.247  1.00  0.00    -0.106 C  
BRANCH   5   6
HETATM    6  C   UNL     1      -8.378  11.832  67.575  1.00  0.00    -0.154 C  
BRANCH   6   7
HETATM    7  O   UNL     1      -7.549  12.923  67.133  1.00  0.00    -0.128 OA 
BRANCH   7   8
HETATM    8  C   UNL     1      -7.571  14.017  67.944  1.00  0.00    -0.155 C  
HETATM    9  O   UNL     1      -7.413  13.966  69.154  1.00  0.00    -0.081 OA 
BRANCH   8  10
HETATM   10  C   UNL     1      -7.666  15.292  67.145  1.00  0.00    -0.238 C  
BRANCH  10  11
HETATM   11  C   UNL     1      -9.043  15.498  66.542  1.00  0.00    -0.336 C  
BRANCH  11  12
HETATM   12  C   UNL     1     -10.087  15.816  67.580  1.00  0.00    -0.245 C  
HETATM   13  O   UNL     1     -10.250  16.917  68.089  1.00  0.00    -0.281 OA 
BRANCH  12  14
HETATM   14  O   UNL     1     -10.749  14.696  67.982  1.00  0.00    -0.241 OA 
BRANCH  14  15
HETATM   15  C   UNL     1     -11.950  14.409  67.241  1.00  0.00    -0.377 C  
BRANCH  15  16
HETATM   16  C   UNL     1     -11.902  13.071  66.483  1.00  0.00    -0.403 C  
BRANCH  16  17
HETATM   17  N   UNL     1     -11.738  13.224  64.949  1.00  0.00    -0.329 N  
HETATM   18  C   UNL     1     -12.718  12.340  64.186  1.00  0.00    -0.330 C  
HETATM   19  C   UNL     1     -10.315  12.793  64.576  1.00  0.00    -0.349 C  
HETATM   20  C   UNL     1     -11.913  14.680  64.520  1.00  0.00    -0.460 C  
ENDBRANCH  16  17
ENDBRANCH  15  16
ENDBRANCH  14  15
ENDBRANCH  12  14
ENDBRANCH  11  12
ENDBRANCH  10  11
ENDBRANCH   8  10
ENDBRANCH   7   8
ENDBRANCH   6   7
ENDBRANCH   5   6
ENDBRANCH   2   5
TORSDOF 11
ENDMDL
MODEL      207
REMARK 921   NORMALIZED FREE ENERGY PREDICTED BY IDOCK:   -2.91 KCAL/MOL
REMARK 922        TOTAL FREE ENERGY PREDICTED BY IDOCK:   -5.54 KCAL/MOL
REMARK 923 INTER-LIGAND FREE ENERGY PREDICTED BY IDOCK:   -4.84 KCAL/MOL
REMARK 924 INTRA-LIGAND FREE ENERGY PREDICTED BY IDOCK:   -0.70 KCAL/MOL
REMARK 927      BINDING AFFINITY PREDICTED BY RF-SCORE:    0.00 PKD
ROOT
HETATM    1  C   UNL     1      -9.967  14.453  68.334  1.00  0.00    -0.241 C  
HETATM    2  N   UNL     1     -11.323  13.749  68.199  1.00  0.00    -0.268 N  
HETATM    3  C   UNL     1     -12.154  14.099  69.432  1.00  0.00    -0.328 C  
HETATM    4  C   UNL     1     -12.010  14.275  66.944  1.00  0.00    -0.438 C  
ENDROOT
BRANCH   2   5
HETATM    5  C   UNL     1     -11.065  12.225  68.113  1.00  0.00    -0.240 C  
BRANCH   5   6
HETATM    6  C   UNL     1      -9.715  11.855  67.472  1.00  0.00    -0.181 C  
BRANCH   6   7
HETATM    7  O   UNL     1      -9.746  11.838  66.032  1.00  0.00    -0.221 OA 
BRANCH   7   8
HETATM    8  C   UNL     1     -10.079  10.634  65.487  1.00  0.00    -0.280 C  
HETATM    9  O   UNL     1     -10.400  10.487  64.317  1.00  0.00    -0.332 OA 
BRANCH   8  10
HETATM   10  C   UNL     1      -9.857   9.508  66.463  1.00  0.00    -0.305 C  
BRANCH  10  11
HETATM   11  C   UNL     1      -9.027   8.383  65.872  1.00  0.00    -0.223 C  
BRANCH  11  12
HETATM   12  C   UNL     1      -9.428   7.030  66.399  1.00  0.00    -0.124 C  
HETATM   13  O   UNL     1      -8.752   6.015  66.294  1.00  0.00    -0.128 OA 
BRANCH  12  14
HETATM   14  O   UNL     1     -10.695   7.043  66.896  1.00  0.00    -0.324 OA 
BRANCH  14  15
HETATM   15  C   UNL     1     -10.935   6.093  67.953  1.00  0.00    -0.304 C  
BRANCH  15  16
HETATM   16  C   UNL     1     -11.079   6.739  69.342  1.00  0.00    -0.261 C  
BRANCH  16  17
HETATM   17  N   UNL     1      -9.824   6.584  70.238  1.00  0.00    -0.168 N  
HETATM   18  C   UNL     1      -8.994   5.369  69.841  1.00  0.00    -0.125 C  
HETATM   19  C   UNL     1     -10.294   6.390  71.685  1.00  0.00    -0.205 C  
HETATM   20  C   UNL     1      -8.957   7.841  70.193  1.00  0.00    -0.146 C  
ENDBRANCH  16  17
ENDBRANCH  15  16
ENDBRANCH  14  15
ENDBRANCH  12  14
ENDBRANCH  11  12
ENDBRANCH  10  11
ENDBRANCH   8  10
ENDBRANCH   7   8
ENDBRANCH   6   7
ENDBRANCH   5   6
ENDBRANCH   2   5
TORSDOF 11
ENDMDL
MODEL      208
REMARK 921   NORMALIZED FREE ENERGY PREDICTED BY IDOCK:   -2.90 KCAL/MOL
REMARK 922        TOTAL FREE ENERGY PREDICTED BY IDOCK:   -5.51 KCAL/MOL
REMARK 923 INTER-LIGAND FREE ENERGY PREDICTED BY IDOCK:   -5.06 KCAL/MOL
REMARK 924 INTRA-LIGAND FREE ENERGY PREDICTED BY IDOCK:   -0.45 KCAL/MOL
REMARK 927      BINDING AFFINITY PREDICTED BY RF-SCORE:    0.00 PKD
ROOT
HETATM    1  C   UNL     1      -9.720   7.652  66.253  1.00  0.00    -0.056 C  
HETATM    2  N   UNL     1      -9.108   8.770  67.107  1.00  0.00    -0.130 N  
HETATM    3  C   UNL     1      -8.103   8.130  68.063  1.00  0.00    -0.128 C  
HETATM    4  C   UNL     1      -8.391   9.741  66.175  1.00  0.00    -0.120 C  
ENDROOT
BRANCH   2   5
HETATM    5  C   UNL     1     -10.254   9.463  67.882  1.00  0.00    -0.211 C  
BRANCH   5   6
HETATM    6  C   UNL     1     -10.636  10.848  67.328  1.00  0.00    -0.251 C  
BRANCH   6   7
HETATM    7  O   UNL     1     -11.961  11.272  67.699  1.00  0.00    -0.634 OA 
BRANCH   7   8
HETATM    8  C   UNL     1     -12.009  12.108  68.775  1.00  0.00    -0.239 C  
HETATM    9  O   UNL     1     -12.049  11.719  69.933  1.00  0.00    -0.305 OA 
BRANCH   8  10
HETATM   10  C   UNL     1     -11.857  13.549  68.359  1.00  0.00    -0.408 C  
BRANCH  10  11
HETATM   11  C   UNL     1     -10.761  14.262  69.129  1.00  0.00    -0.239 C  
BRANCH  11  12
HETATM   12  C   UNL     1     -11.123  15.684  69.466  1.00  0.00    -0.298 C  
HETATM   13  O   UNL     1     -11.312  16.104  70.600  1.00  0.00    -0.375 OA 
BRANCH  12  14
HETATM   14  O   UNL     1     -11.343  16.424  68.344  1.00  0.00    -0.366 OA 
BRANCH  14  15
HETATM   15  C   UNL     1     -10.162  16.706  67.569  1.00  0.00    -0.289 C  
BRANCH  15  16
HETATM   16  C   UNL     1      -8.956  17.140  68.421  1.00  0.00    -0.259 C  
BRANCH  16  17
HETATM   17  N   UNL     1      -7.606  16.547  67.945  1.00  0.00    -0.149 N  
HETATM   18  C   UNL     1      -7.738  15.076  67.568  1.00  0.00    -0.185 C  
HETATM   19  C   UNL     1      -6.604  16.656  69.101  1.00  0.00    -0.207 C  
HETATM   20  C   UNL     1      -7.043  17.334  66.764  1.00  0.00    -0.212 C  
ENDBRANCH  16  17
ENDBRANCH  15  16
ENDBRANCH  14  15
ENDBRANCH  12  14
ENDBRANCH  11  12
ENDBRANCH  10  11
ENDBRANCH   8  10
ENDBRANCH   7   8
ENDBRANCH   6   7
ENDBRANCH   5   6
ENDBRANCH   2   5
TORSDOF 11
ENDMDL
MODEL      209
REMARK 921   NORMALIZED FREE ENERGY PREDICTED BY IDOCK:   -2.88 KCAL/MOL
REMARK 922        TOTAL FREE ENERGY PREDICTED BY IDOCK:   -5.49 KCAL/MOL
REMARK 923 INTER-LIGAND FREE ENERGY PREDICTED BY IDOCK:   -5.07 KCAL/MOL
REMARK 924 INTRA-LIGAND FREE ENERGY PREDICTED BY IDOCK:   -0.43 KCAL/MOL
REMARK 927      BINDING AFFINITY PREDICTED BY RF-SCORE:    0.00 PKD
ROOT
HETATM    1  C   UNL     1     -12.587   7.301  70.907  1.00  0.00    -0.193 C  
HETATM    2  N   UNL     1     -11.339   7.156  71.787  1.00  0.00    -0.246 N  
HETATM    3  C   UNL     1     -11.421   8.211  72.890  1.00  0.00    -0.205 C  
HETATM    4  C   UNL     1     -11.351   5.762  72.402  1.00  0.00    -0.294 C  
ENDROOT
BRANCH   2   5
HETATM    5  C   UNL     1     -10.095   7.377  70.894  1.00  0.00    -0.188 C  
BRANCH   5   6
HETATM    6  C   UNL     1      -9.954   6.351  69.754  1.00  0.00    -0.166 C  
BRANCH   6   7
HETATM    7  O   UNL     1      -9.467   6.920  68.524  1.00  0.00    -0.134 OA 
BRANCH   7   8
HETATM    8  C   UNL     1     -10.394   7.000  67.529  1.00  0.00    -0.225 C  
HETATM    9  O   UNL     1     -11.231   6.136  67.312  1.00  0.00    -0.288 OA 
BRANCH   8  10
HETATM   10  C   UNL     1     -10.348   8.340  66.841  1.00  0.00    -0.391 C  
BRANCH  10  11
HETATM   11  C   UNL     1     -10.661   9.488  67.782  1.00  0.00    -0.302 C  
BRANCH  11  12
HETATM   12  C   UNL     1     -10.871  10.790  67.057  1.00  0.00    -0.252 C  
HETATM   13  O   UNL     1     -10.342  11.088  65.995  1.00  0.00    -0.244 OA 
BRANCH  12  14
HETATM   14  O   UNL     1     -11.624  11.656  67.791  1.00  0.00    -0.399 OA 
BRANCH  14  15
HETATM   15  C   UNL     1     -12.028  12.846  67.087  1.00  0.00    -0.310 C  
BRANCH  15  16
HETATM   16  C   UNL     1     -11.348  14.127  67.601  1.00  0.00    -0.319 C  
BRANCH  16  17
HETATM   17  N   UNL     1     -10.589  14.917  66.505  1.00  0.00    -0.299 N  
HETATM   18  C   UNL     1     -11.492  15.250  65.323  1.00  0.00    -0.217 C  
HETATM   19  C   UNL     1      -9.438  14.040  65.996  1.00  0.00    -0.136 C  
HETATM   20  C   UNL     1      -9.983  16.200  67.070  1.00  0.00    -0.258 C  
ENDBRANCH  16  17
ENDBRANCH  15  16
ENDBRANCH  14  15
ENDBRANCH  12  14
ENDBRANCH  11  12
ENDBRANCH  10  11
ENDBRANCH   8  10
ENDBRANCH   7   8
ENDBRANCH   6   7
ENDBRANCH   5   6
ENDBRANCH   2   5
TORSDOF 11
ENDMDL
MODEL      210
REMARK 921   NORMALIZED FREE ENERGY PREDICTED BY IDOCK:   -2.87 KCAL/MOL
REMARK 922        TOTAL FREE ENERGY PREDICTED BY IDOCK:   -5.47 KCAL/MOL
REMARK 923 INTER-LIGAND FREE ENERGY PREDICTED BY IDOCK:   -4.52 KCAL/MOL
REMARK 924 INTRA-LIGAND FREE ENERGY PREDICTED BY IDOCK:   -0.95 KCAL/MOL
REMARK 927      BINDING AFFINITY PREDICTED BY RF-SCORE:    0.00 PKD
ROOT
HETATM    1  C   UNL     1     -12.201   7.027  71.737  1.00  0.00    -0.351 C  
HETATM    2  N   UNL     1     -11.183   7.374  70.643  1.00  0.00    -0.267 N  
HETATM    3  C   UNL     1     -11.473   6.480  69.438  1.00  0.00    -0.281 C  
HETATM    4  C   UNL     1     -11.375   8.837  70.262  1.00  0.00    -0.147 C  
ENDROOT
BRANCH   2   5
HETATM    5  C   UNL     1      -9.766   7.111  71.207  1.00  0.00    -0.170 C  
BRANCH   5   6
HETATM    6  C   UNL     1      -8.700   6.859  70.125  1.00  0.00    -0.141 C  
BRANCH   6   7
HETATM    7  O   UNL     1      -8.133   8.066  69.582  1.00  0.00    -0.114 OA 
BRANCH   7   8
HETATM    8  C   UNL     1      -8.125   8.128  68.221  1.00  0.00    -0.128 C  
HETATM    9  O   UNL     1      -8.921   7.531  67.512  1.00  0.00    -0.126 OA 
BRANCH   8  10
HETATM   10  C   UNL     1      -7.115   9.129  67.722  1.00  0.00    -0.079 C  
BRANCH  10  11
HETATM   11  C   UNL     1      -7.352  10.520  68.280  1.00  0.00    -0.088 C  
BRANCH  11  12
HETATM   12  C   UNL     1      -8.568  11.181  67.688  1.00  0.00    -0.126 C  
HETATM   13  O   UNL     1      -9.561  11.508  68.325  1.00  0.00    -0.177 OA 
BRANCH  12  14
HETATM   14  O   UNL     1      -8.485  11.257  66.331  1.00  0.00    -0.167 OA 
BRANCH  14  15
HETATM   15  C   UNL     1      -9.663  10.811  65.633  1.00  0.00    -0.237 C  
BRANCH  15  16
HETATM   16  C   UNL     1     -10.004  11.659  64.395  1.00  0.00    -0.262 C  
BRANCH  16  17
HETATM   17  N   UNL     1     -11.056  12.766  64.664  1.00  0.00    -0.303 N  
HETATM   18  C   UNL     1     -10.404  14.131  64.846  1.00  0.00    -0.408 C  
HETATM   19  C   UNL     1     -11.797  12.414  65.959  1.00  0.00    -0.395 C  
HETATM   20  C   UNL     1     -12.087  12.830  63.539  1.00  0.00    -0.559 C  
ENDBRANCH  16  17
ENDBRANCH  15  16
ENDBRANCH  14  15
ENDBRANCH  12  14
ENDBRANCH  11  12
ENDBRANCH  10  11
ENDBRANCH   8  10
ENDBRANCH   7   8
ENDBRANCH   6   7
ENDBRANCH   5   6
ENDBRANCH   2   5
TORSDOF 11
ENDMDL
MODEL      211
REMARK 921   NORMALIZED FREE ENERGY PREDICTED BY IDOCK:   -2.87 KCAL/MOL
REMARK 922        TOTAL FREE ENERGY PREDICTED BY IDOCK:   -5.46 KCAL/MOL
REMARK 923 INTER-LIGAND FREE ENERGY PREDICTED BY IDOCK:   -4.55 KCAL/MOL
REMARK 924 INTRA-LIGAND FREE ENERGY PREDICTED BY IDOCK:   -0.91 KCAL/MOL
REMARK 927      BINDING AFFINITY PREDICTED BY RF-SCORE:    0.00 PKD
ROOT
HETATM    1  C   UNL     1     -11.669  14.931  67.653  1.00  0.00    -0.307 C  
HETATM    2  N   UNL     1     -11.144  14.194  66.414  1.00  0.00    -0.315 N  
HETATM    3  C   UNL     1     -12.272  14.155  65.384  1.00  0.00    -0.433 C  
HETATM    4  C   UNL     1      -9.962  14.980  65.859  1.00  0.00    -0.326 C  
ENDROOT
BRANCH   2   5
HETATM    5  C   UNL     1     -10.731  12.766  66.845  1.00  0.00    -0.253 C  
BRANCH   5   6
HETATM    6  C   UNL     1     -10.670  11.756  65.684  1.00  0.00    -0.280 C  
BRANCH   6   7
HETATM    7  O   UNL     1      -9.330  11.366  65.330  1.00  0.00    -0.217 OA 
BRANCH   7   8
HETATM    8  C   UNL     1      -8.758  10.466  66.177  1.00  0.00    -0.152 C  
HETATM    9  O   UNL     1      -7.787  10.716  66.876  1.00  0.00    -0.113 OA 
BRANCH   8  10
HETATM   10  C   UNL     1      -9.559   9.191  66.248  1.00  0.00    -0.321 C  
BRANCH  10  11
HETATM   11  C   UNL     1      -8.720   7.961  65.959  1.00  0.00    -0.182 C  
BRANCH  11  12
HETATM   12  C   UNL     1      -8.511   7.103  67.178  1.00  0.00    -0.121 C  
HETATM   13  O   UNL     1      -7.622   7.271  68.003  1.00  0.00    -0.109 OA 
BRANCH  12  14
HETATM   14  O   UNL     1      -9.354   6.034  67.188  1.00  0.00    -0.115 OA 
BRANCH  14  15
HETATM   15  C   UNL     1      -9.963   5.761  68.465  1.00  0.00    -0.154 C  
BRANCH  15  16
HETATM   16  C   UNL     1     -11.133   6.700  68.803  1.00  0.00    -0.227 C  
BRANCH  16  17
HETATM   17  N   UNL     1     -11.002   7.394  70.183  1.00  0.00    -0.256 N  
HETATM   18  C   UNL     1     -12.314   7.361  70.958  1.00  0.00    -0.268 C  
HETATM   19  C   UNL     1     -10.624   8.860  69.945  1.00  0.00    -0.221 C  
HETATM   20  C   UNL     1      -9.893   6.755  71.017  1.00  0.00    -0.182 C  
ENDBRANCH  16  17
ENDBRANCH  15  16
ENDBRANCH  14  15
ENDBRANCH  12  14
ENDBRANCH  11  12
ENDBRANCH  10  11
ENDBRANCH   8  10
ENDBRANCH   7   8
ENDBRANCH   6   7
ENDBRANCH   5   6
ENDBRANCH   2   5
TORSDOF 11
ENDMDL
MODEL      212
REMARK 921   NORMALIZED FREE ENERGY PREDICTED BY IDOCK:   -2.86 KCAL/MOL
REMARK 922        TOTAL FREE ENERGY PREDICTED BY IDOCK:   -5.45 KCAL/MOL
REMARK 923 INTER-LIGAND FREE ENERGY PREDICTED BY IDOCK:   -4.91 KCAL/MOL
REMARK 924 INTRA-LIGAND FREE ENERGY PREDICTED BY IDOCK:   -0.54 KCAL/MOL
REMARK 927      BINDING AFFINITY PREDICTED BY RF-SCORE:    0.00 PKD
ROOT
HETATM    1  C   UNL     1      -9.838  14.679  66.094  1.00  0.00    -0.312 C  
HETATM    2  N   UNL     1     -10.563  15.052  67.393  1.00  0.00    -0.266 N  
HETATM    3  C   UNL     1     -10.527  16.574  67.527  1.00  0.00    -0.310 C  
HETATM    4  C   UNL     1     -12.007  14.575  67.285  1.00  0.00    -0.344 C  
ENDROOT
BRANCH   2   5
HETATM    5  C   UNL     1      -9.822  14.370  68.568  1.00  0.00    -0.233 C  
BRANCH   5   6
HETATM    6  C   UNL     1      -8.886  13.226  68.137  1.00  0.00    -0.187 C  
BRANCH   6   7
HETATM    7  O   UNL     1      -9.405  11.915  68.431  1.00  0.00    -0.199 OA 
BRANCH   7   8
HETATM    8  C   UNL     1      -8.480  11.030  68.897  1.00  0.00    -0.122 C  
HETATM    9  O   UNL     1      -7.364  11.355  69.278  1.00  0.00    -0.109 OA 
BRANCH   8  10
HETATM   10  C   UNL     1      -9.058   9.644  69.020  1.00  0.00    -0.148 C  
BRANCH  10  11
HETATM   11  C   UNL     1      -9.303   8.996  67.670  1.00  0.00    -0.154 C  
BRANCH  11  12
HETATM   12  C   UNL     1     -10.233   7.815  67.756  1.00  0.00    -0.212 C  
HETATM   13  O   UNL     1     -10.480   7.055  66.829  1.00  0.00    -0.262 OA 
BRANCH  12  14
HETATM   14  O   UNL     1     -10.871   7.767  68.958  1.00  0.00    -0.151 OA 
BRANCH  14  15
HETATM   15  C   UNL     1     -11.157   6.438  69.434  1.00  0.00    -0.387 C  
BRANCH  15  16
HETATM   16  C   UNL     1     -10.433   6.084  70.745  1.00  0.00    -0.239 C  
BRANCH  16  17
HETATM   17  N   UNL     1     -11.216   6.485  72.021  1.00  0.00    -0.259 N  
HETATM   18  C   UNL     1     -10.542   7.638  72.757  1.00  0.00    -0.325 C  
HETATM   19  C   UNL     1     -11.249   5.273  72.960  1.00  0.00    -0.324 C  
HETATM   20  C   UNL     1     -12.659   6.857  71.688  1.00  0.00    -0.367 C  
ENDBRANCH  16  17
ENDBRANCH  15  16
ENDBRANCH  14  15
ENDBRANCH  12  14
ENDBRANCH  11  12
ENDBRANCH  10  11
ENDBRANCH   8  10
ENDBRANCH   7   8
ENDBRANCH   6   7
ENDBRANCH   5   6
ENDBRANCH   2   5
TORSDOF 11
ENDMDL
MODEL      213
REMARK 921   NORMALIZED FREE ENERGY PREDICTED BY IDOCK:   -2.82 KCAL/MOL
REMARK 922        TOTAL FREE ENERGY PREDICTED BY IDOCK:   -5.39 KCAL/MOL
REMARK 923 INTER-LIGAND FREE ENERGY PREDICTED BY IDOCK:   -4.49 KCAL/MOL
REMARK 924 INTRA-LIGAND FREE ENERGY PREDICTED BY IDOCK:   -0.90 KCAL/MOL
REMARK 927      BINDING AFFINITY PREDICTED BY RF-SCORE:    0.00 PKD
ROOT
HETATM    1  C   UNL     1     -11.681  12.321  67.591  1.00  0.00    -0.334 C  
HETATM    2  N   UNL     1     -10.354  12.330  66.822  1.00  0.00    -0.216 N  
HETATM    3  C   UNL     1     -10.163  13.729  66.240  1.00  0.00    -0.297 C  
HETATM    4  C   UNL     1      -9.233  12.019  67.806  1.00  0.00    -0.190 C  
ENDROOT
BRANCH   2   5
HETATM    5  C   UNL     1     -10.443  11.266  65.702  1.00  0.00    -0.261 C  
BRANCH   5   6
HETATM    6  C   UNL     1      -9.079  10.699  65.268  1.00  0.00    -0.195 C  
BRANCH   6   7
HETATM    7  O   UNL     1      -9.113   9.296  64.946  1.00  0.00    -0.218 OA 
BRANCH   7   8
HETATM    8  C   UNL     1      -8.081   8.570  65.460  1.00  0.00    -0.126 C  
HETATM    9  O   UNL     1      -7.127   9.067  66.041  1.00  0.00    -0.083 OA 
BRANCH   8  10
HETATM   10  C   UNL     1      -8.340   7.090  65.349  1.00  0.00    -0.121 C  
BRANCH  10  11
HETATM   11  C   UNL     1      -8.742   6.470  66.675  1.00  0.00    -0.128 C  
BRANCH  11  12
HETATM   12  C   UNL     1     -10.230   6.273  66.794  1.00  0.00    -0.202 C  
HETATM   13  O   UNL     1     -10.835   5.287  66.396  1.00  0.00    -0.292 OA 
BRANCH  12  14
HETATM   14  O   UNL     1     -10.844   7.386  67.283  1.00  0.00    -0.301 OA 
BRANCH  14  15
HETATM   15  C   UNL     1     -10.273   7.900  68.502  1.00  0.00    -0.205 C  
BRANCH  15  16
HETATM   16  C   UNL     1     -10.951   7.363  69.775  1.00  0.00    -0.200 C  
BRANCH  16  17
HETATM   17  N   UNL     1     -11.091   8.417  70.902  1.00  0.00    -0.249 N  
HETATM   18  C   UNL     1     -12.366   8.211  71.712  1.00  0.00    -0.321 C  
HETATM   19  C   UNL     1     -11.156   9.804  70.252  1.00  0.00    -0.292 C  
HETATM   20  C   UNL     1      -9.879   8.394  71.831  1.00  0.00    -0.258 C  
ENDBRANCH  16  17
ENDBRANCH  15  16
ENDBRANCH  14  15
ENDBRANCH  12  14
ENDBRANCH  11  12
ENDBRANCH  10  11
ENDBRANCH   8  10
ENDBRANCH   7   8
ENDBRANCH   6   7
ENDBRANCH   5   6
ENDBRANCH   2   5
TORSDOF 11
ENDMDL
MODEL      214
REMARK 921   NORMALIZED FREE ENERGY PREDICTED BY IDOCK:   -2.82 KCAL/MOL
REMARK 922        TOTAL FREE ENERGY PREDICTED BY IDOCK:   -5.39 KCAL/MOL
REMARK 923 INTER-LIGAND FREE ENERGY PREDICTED BY IDOCK:   -4.77 KCAL/MOL
REMARK 924 INTRA-LIGAND FREE ENERGY PREDICTED BY IDOCK:   -0.61 KCAL/MOL
REMARK 927      BINDING AFFINITY PREDICTED BY RF-SCORE:    0.00 PKD
ROOT
HETATM    1  C   UNL     1      -7.185  11.023  69.377  1.00  0.00    -0.114 C  
HETATM    2  N   UNL     1      -7.473   9.547  69.075  1.00  0.00    -0.072 N  
HETATM    3  C   UNL     1      -6.413   9.058  68.090  1.00  0.00    -0.060 C  
HETATM    4  C   UNL     1      -7.367   8.766  70.380  1.00  0.00    -0.063 C  
ENDROOT
BRANCH   2   5
HETATM    5  C   UNL     1      -8.891   9.451  68.464  1.00  0.00    -0.128 C  
BRANCH   5   6
HETATM    6  C   UNL     1      -8.906   9.381  66.926  1.00  0.00    -0.127 C  
BRANCH   6   7
HETATM    7  O   UNL     1      -9.036  10.667  66.292  1.00  0.00    -0.159 OA 
BRANCH   7   8
HETATM    8  C   UNL     1     -10.105  10.781  65.454  1.00  0.00    -0.285 C  
HETATM    9  O   UNL     1     -10.251  10.102  64.448  1.00  0.00    -0.221 OA 
BRANCH   8  10
HETATM   10  C   UNL     1     -11.136  11.732  66.004  1.00  0.00    -0.363 C  
BRANCH  10  11
HETATM   11  C   UNL     1     -10.620  13.156  66.101  1.00  0.00    -0.288 C  
BRANCH  11  12
HETATM   12  C   UNL     1     -10.945  13.973  64.879  1.00  0.00    -0.392 C  
HETATM   13  O   UNL     1     -11.483  13.533  63.871  1.00  0.00    -0.355 OA 
BRANCH  12  14
HETATM   14  O   UNL     1     -10.450  15.237  64.977  1.00  0.00    -0.399 OA 
BRANCH  14  15
HETATM   15  C   UNL     1     -10.592  15.839  66.278  1.00  0.00    -0.310 C  
BRANCH  15  16
HETATM   16  C   UNL     1     -10.403  17.365  66.276  1.00  0.00    -0.330 C  
BRANCH  16  17
HETATM   17  N   UNL     1      -9.125  17.840  67.013  1.00  0.00    -0.246 N  
HETATM   18  C   UNL     1      -7.859  17.409  66.281  1.00  0.00    -0.295 C  
HETATM   19  C   UNL     1      -9.113  17.200  68.406  1.00  0.00    -0.263 C  
HETATM   20  C   UNL     1      -9.126  19.356  67.196  1.00  0.00    -0.303 C  
ENDBRANCH  16  17
ENDBRANCH  15  16
ENDBRANCH  14  15
ENDBRANCH  12  14
ENDBRANCH  11  12
ENDBRANCH  10  11
ENDBRANCH   8  10
ENDBRANCH   7   8
ENDBRANCH   6   7
ENDBRANCH   5   6
ENDBRANCH   2   5
TORSDOF 11
ENDMDL
MODEL      215
REMARK 921   NORMALIZED FREE ENERGY PREDICTED BY IDOCK:   -2.81 KCAL/MOL
REMARK 922        TOTAL FREE ENERGY PREDICTED BY IDOCK:   -5.38 KCAL/MOL
REMARK 923 INTER-LIGAND FREE ENERGY PREDICTED BY IDOCK:   -4.78 KCAL/MOL
REMARK 924 INTRA-LIGAND FREE ENERGY PREDICTED BY IDOCK:   -0.60 KCAL/MOL
REMARK 927      BINDING AFFINITY PREDICTED BY RF-SCORE:    0.00 PKD
ROOT
HETATM    1  C   UNL     1     -13.359  13.193  72.512  1.00  0.00    -0.421 C  
HETATM    2  N   UNL     1     -12.956  14.226  71.451  1.00  0.00    -0.324 N  
HETATM    3  C   UNL     1     -14.139  15.172  71.250  1.00  0.00    -0.445 C  
HETATM    4  C   UNL     1     -11.754  15.003  71.976  1.00  0.00    -0.366 C  
ENDROOT
BRANCH   2   5
HETATM    5  C   UNL     1     -12.620  13.466  70.146  1.00  0.00    -0.077 C  
BRANCH   5   6
HETATM    6  C   UNL     1     -11.803  12.180  70.364  1.00  0.00    -0.187 C  
BRANCH   6   7
HETATM    7  O   UNL     1     -12.487  10.984  69.943  1.00  0.00    -0.299 OA 
BRANCH   7   8
HETATM    8  C   UNL     1     -12.760  10.104  70.947  1.00  0.00    -0.357 C  
HETATM    9  O   UNL     1     -13.888   9.726  71.228  1.00  0.00    -0.239 OA 
BRANCH   8  10
HETATM   10  C   UNL     1     -11.495   9.552  71.554  1.00  0.00    -0.466 C  
BRANCH  10  11
HETATM   11  C   UNL     1     -11.140   8.181  71.010  1.00  0.00    -0.281 C  
BRANCH  11  12
HETATM   12  C   UNL     1     -10.067   8.237  69.955  1.00  0.00    -0.196 C  
HETATM   13  O   UNL     1      -9.702   9.258  69.388  1.00  0.00    -0.163 OA 
BRANCH  12  14
HETATM   14  O   UNL     1      -9.638   6.991  69.612  1.00  0.00    -0.151 OA 
BRANCH  14  15
HETATM   15  C   UNL     1      -9.703   6.020  70.674  1.00  0.00    -0.174 C  
BRANCH  15  16
HETATM   16  C   UNL     1     -10.158   4.626  70.208  1.00  0.00    -0.206 C  
BRANCH  16  17
HETATM   17  N   UNL     1      -9.103   3.513  70.435  1.00  0.00    -0.112 N  
HETATM   18  C   UNL     1      -9.050   2.539  69.264  1.00  0.00    -0.124 C  
HETATM   19  C   UNL     1      -9.501   2.729  71.692  1.00  0.00    -0.141 C  
HETATM   20  C   UNL     1      -7.718   4.109  70.676  1.00  0.00    -0.048 C  
ENDBRANCH  16  17
ENDBRANCH  15  16
ENDBRANCH  14  15
ENDBRANCH  12  14
ENDBRANCH  11  12
ENDBRANCH  10  11
ENDBRANCH   8  10
ENDBRANCH   7   8
ENDBRANCH   6   7
ENDBRANCH   5   6
ENDBRANCH   2   5
TORSDOF 11
ENDMDL
MODEL      216
REMARK 921   NORMALIZED FREE ENERGY PREDICTED BY IDOCK:   -2.81 KCAL/MOL
REMARK 922        TOTAL FREE ENERGY PREDICTED BY IDOCK:   -5.37 KCAL/MOL
REMARK 923 INTER-LIGAND FREE ENERGY PREDICTED BY IDOCK:   -4.75 KCAL/MOL
REMARK 924 INTRA-LIGAND FREE ENERGY PREDICTED BY IDOCK:   -0.63 KCAL/MOL
REMARK 927      BINDING AFFINITY PREDICTED BY RF-SCORE:    0.00 PKD
ROOT
HETATM    1  C   UNL     1      -7.792   4.469  67.525  1.00  0.00    -0.089 C  
HETATM    2  N   UNL     1      -8.940   5.270  66.899  1.00  0.00    -0.110 N  
HETATM    3  C   UNL     1      -8.334   6.235  65.881  1.00  0.00    -0.142 C  
HETATM    4  C   UNL     1      -9.873   4.292  66.195  1.00  0.00    -0.221 C  
ENDROOT
BRANCH   2   5
HETATM    5  C   UNL     1      -9.664   6.036  68.033  1.00  0.00    -0.119 C  
BRANCH   5   6
HETATM    6  C   UNL     1      -9.296   7.529  68.112  1.00  0.00    -0.136 C  
BRANCH   6   7
HETATM    7  O   UNL     1      -9.769   8.177  69.308  1.00  0.00    -0.166 OA 
BRANCH   7   8
HETATM    8  C   UNL     1      -9.347   9.463  69.462  1.00  0.00    -0.180 C  
HETATM    9  O   UNL     1      -8.305   9.894  68.990  1.00  0.00    -0.114 OA 
BRANCH   8  10
HETATM   10  C   UNL     1     -10.389  10.305  70.151  1.00  0.00    -0.210 C  
BRANCH  10  11
HETATM   11  C   UNL     1     -11.598  10.567  69.273  1.00  0.00    -0.308 C  
BRANCH  11  12
HETATM   12  C   UNL     1     -11.728  12.015  68.883  1.00  0.00    -0.326 C  
HETATM   13  O   UNL     1     -11.677  12.954  69.667  1.00  0.00    -0.300 OA 
BRANCH  12  14
HETATM   14  O   UNL     1     -12.041  12.153  67.565  1.00  0.00    -0.534 OA 
BRANCH  14  15
HETATM   15  C   UNL     1     -10.909  12.132  66.674  1.00  0.00    -0.268 C  
BRANCH  15  16
HETATM   16  C   UNL     1     -11.107  11.226  65.447  1.00  0.00    -0.067 C  
BRANCH  16  17
HETATM   17  N   UNL     1     -11.204  11.998  64.106  1.00  0.00    -0.347 N  
HETATM   18  C   UNL     1     -10.107  11.580  63.134  1.00  0.00    -0.359 C  
HETATM   19  C   UNL     1     -11.034  13.492  64.405  1.00  0.00    -0.384 C  
HETATM   20  C   UNL     1     -12.573  11.805  63.457  1.00  0.00    -0.367 C  
ENDBRANCH  16  17
ENDBRANCH  15  16
ENDBRANCH  14  15
ENDBRANCH  12  14
ENDBRANCH  11  12
ENDBRANCH  10  11
ENDBRANCH   8  10
ENDBRANCH   7   8
ENDBRANCH   6   7
ENDBRANCH   5   6
ENDBRANCH   2   5
TORSDOF 11
ENDMDL
MODEL      217
REMARK 921   NORMALIZED FREE ENERGY PREDICTED BY IDOCK:   -2.79 KCAL/MOL
REMARK 922        TOTAL FREE ENERGY PREDICTED BY IDOCK:   -5.34 KCAL/MOL
REMARK 923 INTER-LIGAND FREE ENERGY PREDICTED BY IDOCK:   -4.49 KCAL/MOL
REMARK 924 INTRA-LIGAND FREE ENERGY PREDICTED BY IDOCK:   -0.86 KCAL/MOL
REMARK 927      BINDING AFFINITY PREDICTED BY RF-SCORE:    0.00 PKD
ROOT
HETATM    1  C   UNL     1     -12.161  14.164  66.543  1.00  0.00    -0.454 C  
HETATM    2  N   UNL     1     -10.755  14.047  65.940  1.00  0.00    -0.288 N  
HETATM    3  C   UNL     1     -10.742  12.824  65.023  1.00  0.00    -0.296 C  
HETATM    4  C   UNL     1     -10.480  15.307  65.128  1.00  0.00    -0.411 C  
ENDROOT
BRANCH   2   5
HETATM    5  C   UNL     1      -9.747  13.884  67.103  1.00  0.00    -0.244 C  
BRANCH   5   6
HETATM    6  C   UNL     1      -9.242  12.443  67.295  1.00  0.00    -0.187 C  
BRANCH   6   7
HETATM    7  O   UNL     1      -9.598  11.872  68.568  1.00  0.00    -0.200 OA 
BRANCH   7   8
HETATM    8  C   UNL     1     -10.032  10.582  68.510  1.00  0.00    -0.170 C  
HETATM    9  O   UNL     1     -10.861  10.182  67.707  1.00  0.00    -0.259 OA 
BRANCH   8  10
HETATM   10  C   UNL     1      -9.256   9.698  69.454  1.00  0.00    -0.196 C  
BRANCH  10  11
HETATM   11  C   UNL     1     -10.102   9.203  70.612  1.00  0.00    -0.307 C  
BRANCH  11  12
HETATM   12  C   UNL     1     -10.443   7.741  70.497  1.00  0.00    -0.217 C  
HETATM   13  O   UNL     1     -11.576   7.300  70.359  1.00  0.00    -0.279 OA 
BRANCH  12  14
HETATM   14  O   UNL     1      -9.348   6.956  70.695  1.00  0.00    -0.161 OA 
BRANCH  14  15
HETATM   15  C   UNL     1      -9.202   5.881  69.747  1.00  0.00    -0.145 C  
BRANCH  15  16
HETATM   16  C   UNL     1      -8.179   6.174  68.635  1.00  0.00    -0.108 C  
BRANCH  16  17
HETATM   17  N   UNL     1      -8.762   6.069  67.203  1.00  0.00    -0.110 N  
HETATM   18  C   UNL     1      -8.749   7.415  66.489  1.00  0.00    -0.140 C  
HETATM   19  C   UNL     1     -10.218   5.600  67.315  1.00  0.00    -0.206 C  
HETATM   20  C   UNL     1      -8.002   5.036  66.374  1.00  0.00    -0.107 C  
ENDBRANCH  16  17
ENDBRANCH  15  16
ENDBRANCH  14  15
ENDBRANCH  12  14
ENDBRANCH  11  12
ENDBRANCH  10  11
ENDBRANCH   8  10
ENDBRANCH   7   8
ENDBRANCH   6   7
ENDBRANCH   5   6
ENDBRANCH   2   5
TORSDOF 11
ENDMDL
MODEL      218
REMARK 921   NORMALIZED FREE ENERGY PREDICTED BY IDOCK:   -2.79 KCAL/MOL
REMARK 922        TOTAL FREE ENERGY PREDICTED BY IDOCK:   -5.34 KCAL/MOL
REMARK 923 INTER-LIGAND FREE ENERGY PREDICTED BY IDOCK:   -4.79 KCAL/MOL
REMARK 924 INTRA-LIGAND FREE ENERGY PREDICTED BY IDOCK:   -0.54 KCAL/MOL
REMARK 927      BINDING AFFINITY PREDICTED BY RF-SCORE:    0.00 PKD
ROOT
HETATM    1  C   UNL     1      -7.231   5.409  67.378  1.00  0.00    -0.075 C  
HETATM    2  N   UNL     1      -8.154   4.716  68.389  1.00  0.00    -0.083 N  
HETATM    3  C   UNL     1      -9.494   4.464  67.700  1.00  0.00    -0.165 C  
HETATM    4  C   UNL     1      -7.516   3.389  68.783  1.00  0.00    -0.049 C  
ENDROOT
BRANCH   2   5
HETATM    5  C   UNL     1      -8.320   5.655  69.608  1.00  0.00    -0.107 C  
BRANCH   5   6
HETATM    6  C   UNL     1      -9.489   5.275  70.535  1.00  0.00    -0.167 C  
BRANCH   6   7
HETATM    7  O   UNL     1     -10.322   6.392  70.898  1.00  0.00    -0.196 OA 
BRANCH   7   8
HETATM    8  C   UNL     1     -10.165   6.822  72.182  1.00  0.00    -0.193 C  
HETATM    9  O   UNL     1      -9.267   6.442  72.918  1.00  0.00    -0.138 OA 
BRANCH   8  10
HETATM   10  C   UNL     1     -11.140   7.922  72.516  1.00  0.00    -0.423 C  
BRANCH  10  11
HETATM   11  C   UNL     1     -11.801   8.507  71.282  1.00  0.00    -0.335 C  
BRANCH  11  12
HETATM   12  C   UNL     1     -12.313   9.905  71.508  1.00  0.00    -0.412 C  
HETATM   13  O   UNL     1     -13.281  10.187  72.201  1.00  0.00    -0.444 OA 
BRANCH  12  14
HETATM   14  O   UNL     1     -11.646  10.811  70.742  1.00  0.00    -0.322 OA 
BRANCH  14  15
HETATM   15  C   UNL     1     -12.333  11.201  69.537  1.00  0.00    -0.194 C  
BRANCH  15  16
HETATM   16  C   UNL     1     -11.503  10.989  68.259  1.00  0.00    -0.304 C  
BRANCH  16  17
HETATM   17  N   UNL     1     -11.147  12.303  67.517  1.00  0.00    -0.260 N  
HETATM   18  C   UNL     1      -9.639  12.490  67.394  1.00  0.00    -0.192 C  
HETATM   19  C   UNL     1     -11.709  13.475  68.330  1.00  0.00    -0.359 C  
HETATM   20  C   UNL     1     -11.788  12.345  66.132  1.00  0.00    -0.376 C  
ENDBRANCH  16  17
ENDBRANCH  15  16
ENDBRANCH  14  15
ENDBRANCH  12  14
ENDBRANCH  11  12
ENDBRANCH  10  11
ENDBRANCH   8  10
ENDBRANCH   7   8
ENDBRANCH   6   7
ENDBRANCH   5   6
ENDBRANCH   2   5
TORSDOF 11
ENDMDL
MODEL      219
REMARK 921   NORMALIZED FREE ENERGY PREDICTED BY IDOCK:   -2.79 KCAL/MOL
REMARK 922        TOTAL FREE ENERGY PREDICTED BY IDOCK:   -5.33 KCAL/MOL
REMARK 923 INTER-LIGAND FREE ENERGY PREDICTED BY IDOCK:   -4.30 KCAL/MOL
REMARK 924 INTRA-LIGAND FREE ENERGY PREDICTED BY IDOCK:   -1.03 KCAL/MOL
REMARK 927      BINDING AFFINITY PREDICTED BY RF-SCORE:    0.00 PKD
ROOT
HETATM    1  C   UNL     1     -11.255   7.836  72.810  1.00  0.00    -0.398 C  
HETATM    2  N   UNL     1     -12.154   8.207  71.624  1.00  0.00    -0.291 N  
HETATM    3  C   UNL     1     -13.219   7.119  71.488  1.00  0.00    -0.360 C  
HETATM    4  C   UNL     1     -12.817   9.545  71.930  1.00  0.00    -0.420 C  
ENDROOT
BRANCH   2   5
HETATM    5  C   UNL     1     -11.269   8.283  70.357  1.00  0.00    -0.219 C  
BRANCH   5   6
HETATM    6  C   UNL     1     -10.852   6.909  69.802  1.00  0.00    -0.259 C  
BRANCH   6   7
HETATM    7  O   UNL     1      -9.478   6.854  69.372  1.00  0.00    -0.149 OA 
BRANCH   7   8
HETATM    8  C   UNL     1      -8.568   6.804  70.385  1.00  0.00    -0.146 C  
HETATM    9  O   UNL     1      -8.669   6.059  71.349  1.00  0.00    -0.131 OA 
BRANCH   8  10
HETATM   10  C   UNL     1      -7.368   7.665  70.089  1.00  0.00    -0.076 C  
BRANCH  10  11
HETATM   11  C   UNL     1      -7.666   9.146  70.232  1.00  0.00    -0.115 C  
BRANCH  11  12
HETATM   12  C   UNL     1      -7.623   9.874  68.915  1.00  0.00    -0.083 C  
HETATM   13  O   UNL     1      -7.349   9.355  67.841  1.00  0.00    -0.082 OA 
BRANCH  12  14
HETATM   14  O   UNL     1      -7.801  11.214  69.079  1.00  0.00    -0.138 OA 
BRANCH  14  15
HETATM   15  C   UNL     1      -8.127  11.929  67.872  1.00  0.00    -0.147 C  
BRANCH  15  16
HETATM   16  C   UNL     1      -9.615  12.307  67.761  1.00  0.00    -0.200 C  
BRANCH  16  17
HETATM   17  N   UNL     1     -10.393  11.487  66.701  1.00  0.00    -0.219 N  
HETATM   18  C   UNL     1     -11.600  12.252  66.171  1.00  0.00    -0.390 C  
HETATM   19  C   UNL     1     -10.897  10.202  67.369  1.00  0.00    -0.261 C  
HETATM   20  C   UNL     1      -9.485  11.084  65.541  1.00  0.00    -0.216 C  
ENDBRANCH  16  17
ENDBRANCH  15  16
ENDBRANCH  14  15
ENDBRANCH  12  14
ENDBRANCH  11  12
ENDBRANCH  10  11
ENDBRANCH   8  10
ENDBRANCH   7   8
ENDBRANCH   6   7
ENDBRANCH   5   6
ENDBRANCH   2   5
TORSDOF 11
ENDMDL
MODEL      220
REMARK 921   NORMALIZED FREE ENERGY PREDICTED BY IDOCK:   -2.78 KCAL/MOL
REMARK 922        TOTAL FREE ENERGY PREDICTED BY IDOCK:   -5.33 KCAL/MOL
REMARK 923 INTER-LIGAND FREE ENERGY PREDICTED BY IDOCK:   -4.50 KCAL/MOL
REMARK 924 INTRA-LIGAND FREE ENERGY PREDICTED BY IDOCK:   -0.83 KCAL/MOL
REMARK 927      BINDING AFFINITY PREDICTED BY RF-SCORE:    0.00 PKD
ROOT
HETATM    1  C   UNL     1     -14.256   8.595  71.114  1.00  0.00    -0.065 C  
HETATM    2  N   UNL     1     -12.968   9.400  71.327  1.00  0.00    -0.322 N  
HETATM    3  C   UNL     1     -12.552   9.981  69.977  1.00  0.00     0.196 C  
HETATM    4  C   UNL     1     -13.269  10.528  72.307  1.00  0.00    -0.149 C  
ENDROOT
BRANCH   2   5
HETATM    5  C   UNL     1     -11.887   8.438  71.878  1.00  0.00    -0.336 C  
BRANCH   5   6
HETATM    6  C   UNL     1     -10.996   7.812  70.791  1.00  0.00    -0.252 C  
BRANCH   6   7
HETATM    7  O   UNL     1     -11.500   6.562  70.282  1.00  0.00    -0.359 OA 
BRANCH   7   8
HETATM    8  C   UNL     1     -10.780   6.038  69.250  1.00  0.00    -0.332 C  
HETATM    9  O   UNL     1     -10.024   5.086  69.368  1.00  0.00    -0.188 OA 
BRANCH   8  10
HETATM   10  C   UNL     1     -11.148   6.683  67.939  1.00  0.00    -0.310 C  
BRANCH  10  11
HETATM   11  C   UNL     1      -9.954   6.847  67.017  1.00  0.00    -0.257 C  
BRANCH  11  12
HETATM   12  C   UNL     1      -9.275   8.181  67.181  1.00  0.00    -0.145 C  
HETATM   13  O   UNL     1      -8.484   8.453  68.073  1.00  0.00    -0.129 OA 
BRANCH  12  14
HETATM   14  O   UNL     1      -9.746   9.094  66.287  1.00  0.00    -0.231 OA 
BRANCH  14  15
HETATM   15  C   UNL     1     -10.394  10.235  66.881  1.00  0.00    -0.239 C  
BRANCH  15  16
HETATM   16  C   UNL     1      -9.763  11.580  66.482  1.00  0.00    -0.203 C  
BRANCH  16  17
HETATM   17  N   UNL     1     -10.763  12.579  65.846  1.00  0.00    -0.258 N  
HETATM   18  C   UNL     1     -11.475  11.974  64.641  1.00  0.00    -0.308 C  
HETATM   19  C   UNL     1      -9.975  13.805  65.370  1.00  0.00    -0.229 C  
HETATM   20  C   UNL     1     -11.792  13.054  66.870  1.00  0.00    -0.380 C  
ENDBRANCH  16  17
ENDBRANCH  15  16
ENDBRANCH  14  15
ENDBRANCH  12  14
ENDBRANCH  11  12
ENDBRANCH  10  11
ENDBRANCH   8  10
ENDBRANCH   7   8
ENDBRANCH   6   7
ENDBRANCH   5   6
ENDBRANCH   2   5
TORSDOF 11
ENDMDL
MODEL      221
REMARK 921   NORMALIZED FREE ENERGY PREDICTED BY IDOCK:   -2.78 KCAL/MOL
REMARK 922        TOTAL FREE ENERGY PREDICTED BY IDOCK:   -5.32 KCAL/MOL
REMARK 923 INTER-LIGAND FREE ENERGY PREDICTED BY IDOCK:   -4.50 KCAL/MOL
REMARK 924 INTRA-LIGAND FREE ENERGY PREDICTED BY IDOCK:   -0.82 KCAL/MOL
REMARK 927      BINDING AFFINITY PREDICTED BY RF-SCORE:    0.00 PKD
ROOT
HETATM    1  C   UNL     1      -9.715  14.779  68.261  1.00  0.00    -0.218 C  
HETATM    2  N   UNL     1     -11.069  14.058  68.287  1.00  0.00    -0.245 N  
HETATM    3  C   UNL     1     -11.892  14.655  69.428  1.00  0.00    -0.329 C  
HETATM    4  C   UNL     1     -11.768  14.311  66.956  1.00  0.00    -0.403 C  
ENDROOT
BRANCH   2   5
HETATM    5  C   UNL     1     -10.805  12.551  68.517  1.00  0.00    -0.243 C  
BRANCH   5   6
HETATM    6  C   UNL     1      -9.447  12.065  67.977  1.00  0.00    -0.199 C  
BRANCH   6   7
HETATM    7  O   UNL     1      -9.541  11.381  66.713  1.00  0.00    -0.183 OA 
BRANCH   7   8
HETATM    8  C   UNL     1      -9.553  10.022  66.803  1.00  0.00    -0.181 C  
HETATM    9  O   UNL     1     -10.066   9.293  65.967  1.00  0.00    -0.297 OA 
BRANCH   8  10
HETATM   10  C   UNL     1      -8.735   9.541  67.973  1.00  0.00    -0.120 C  
BRANCH  10  11
HETATM   11  C   UNL     1      -7.664   8.547  67.563  1.00  0.00    -0.098 C  
BRANCH  11  12
HETATM   12  C   UNL     1      -7.850   7.198  68.206  1.00  0.00    -0.122 C  
HETATM   13  O   UNL     1      -6.985   6.334  68.272  1.00  0.00    -0.074 OA 
BRANCH  12  14
HETATM   14  O   UNL     1      -9.140   7.002  68.593  1.00  0.00    -0.134 OA 
BRANCH  14  15
HETATM   15  C   UNL     1      -9.293   6.392  69.889  1.00  0.00    -0.151 C  
BRANCH  15  16
HETATM   16  C   UNL     1      -9.361   7.405  71.044  1.00  0.00    -0.157 C  
BRANCH  16  17
HETATM   17  N   UNL     1     -10.804   7.775  71.470  1.00  0.00    -0.226 N  
HETATM   18  C   UNL     1     -11.137   9.224  71.136  1.00  0.00    -0.341 C  
HETATM   19  C   UNL     1     -10.913   7.597  72.989  1.00  0.00    -0.400 C  
HETATM   20  C   UNL     1     -11.826   6.846  70.817  1.00  0.00    -0.377 C  
ENDBRANCH  16  17
ENDBRANCH  15  16
ENDBRANCH  14  15
ENDBRANCH  12  14
ENDBRANCH  11  12
ENDBRANCH  10  11
ENDBRANCH   8  10
ENDBRANCH   7   8
ENDBRANCH   6   7
ENDBRANCH   5   6
ENDBRANCH   2   5
TORSDOF 11
ENDMDL
MODEL      222
REMARK 921   NORMALIZED FREE ENERGY PREDICTED BY IDOCK:   -2.77 KCAL/MOL
REMARK 922        TOTAL FREE ENERGY PREDICTED BY IDOCK:   -5.31 KCAL/MOL
REMARK 923 INTER-LIGAND FREE ENERGY PREDICTED BY IDOCK:   -4.75 KCAL/MOL
REMARK 924 INTRA-LIGAND FREE ENERGY PREDICTED BY IDOCK:   -0.56 KCAL/MOL
REMARK 927      BINDING AFFINITY PREDICTED BY RF-SCORE:    0.00 PKD
ROOT
HETATM    1  C   UNL     1     -10.031  19.952  69.339  1.00  0.00    -0.102 C  
HETATM    2  N   UNL     1      -9.844  18.817  68.324  1.00  0.00    -0.352 N  
HETATM    3  C   UNL     1     -10.005  17.494  69.070  1.00  0.00    -0.260 C  
HETATM    4  C   UNL     1     -10.929  18.948  67.261  1.00  0.00    -0.235 C  
ENDROOT
BRANCH   2   5
HETATM    5  C   UNL     1      -8.428  18.948  67.715  1.00  0.00    -0.284 C  
BRANCH   5   6
HETATM    6  C   UNL     1      -8.298  18.351  66.302  1.00  0.00    -0.207 C  
BRANCH   6   7
HETATM    7  O   UNL     1      -7.953  16.953  66.296  1.00  0.00    -0.286 OA 
BRANCH   7   8
HETATM    8  C   UNL     1      -8.974  16.117  65.956  1.00  0.00    -0.298 C  
HETATM    9  O   UNL     1      -9.905  16.445  65.235  1.00  0.00    -0.482 OA 
BRANCH   8  10
HETATM   10  C   UNL     1      -8.729  14.717  66.455  1.00  0.00    -0.115 C  
BRANCH  10  11
HETATM   11  C   UNL     1      -9.902  14.169  67.246  1.00  0.00    -0.238 C  
BRANCH  11  12
HETATM   12  C   UNL     1     -10.780  13.262  66.426  1.00  0.00    -0.285 C  
HETATM   13  O   UNL     1     -11.994  13.378  66.319  1.00  0.00    -0.372 OA 
BRANCH  12  14
HETATM   14  O   UNL     1     -10.077  12.213  65.916  1.00  0.00    -0.234 OA 
BRANCH  14  15
HETATM   15  C   UNL     1      -9.517  11.329  66.906  1.00  0.00    -0.177 C  
BRANCH  15  16
HETATM   16  C   UNL     1     -10.575  10.605  67.756  1.00  0.00    -0.236 C  
BRANCH  16  17
HETATM   17  N   UNL     1     -10.160   9.177  68.193  1.00  0.00    -0.181 N  
HETATM   18  C   UNL     1     -10.880   8.107  67.380  1.00  0.00    -0.055 C  
HETATM   19  C   UNL     1     -10.544   8.999  69.666  1.00  0.00    -0.224 C  
HETATM   20  C   UNL     1      -8.649   8.984  68.078  1.00  0.00    -0.129 C  
ENDBRANCH  16  17
ENDBRANCH  15  16
ENDBRANCH  14  15
ENDBRANCH  12  14
ENDBRANCH  11  12
ENDBRANCH  10  11
ENDBRANCH   8  10
ENDBRANCH   7   8
ENDBRANCH   6   7
ENDBRANCH   5   6
ENDBRANCH   2   5
TORSDOF 11
ENDMDL
MODEL      223
REMARK 921   NORMALIZED FREE ENERGY PREDICTED BY IDOCK:   -2.74 KCAL/MOL
REMARK 922        TOTAL FREE ENERGY PREDICTED BY IDOCK:   -5.26 KCAL/MOL
REMARK 923 INTER-LIGAND FREE ENERGY PREDICTED BY IDOCK:   -4.34 KCAL/MOL
REMARK 924 INTRA-LIGAND FREE ENERGY PREDICTED BY IDOCK:   -0.92 KCAL/MOL
REMARK 927      BINDING AFFINITY PREDICTED BY RF-SCORE:    0.00 PKD
ROOT
HETATM    1  C   UNL     1      -9.277   9.996  64.063  1.00  0.00    -0.272 C  
HETATM    2  N   UNL     1      -8.629   9.843  65.445  1.00  0.00    -0.144 N  
HETATM    3  C   UNL     1      -7.130  10.094  65.287  1.00  0.00    -0.137 C  
HETATM    4  C   UNL     1      -9.235  10.890  66.373  1.00  0.00    -0.174 C  
ENDROOT
BRANCH   2   5
HETATM    5  C   UNL     1      -8.905   8.405  65.947  1.00  0.00    -0.175 C  
BRANCH   5   6
HETATM    6  C   UNL     1     -10.237   8.253  66.705  1.00  0.00    -0.304 C  
BRANCH   6   7
HETATM    7  O   UNL     1     -10.105   7.587  67.975  1.00  0.00    -0.168 OA 
BRANCH   7   8
HETATM    8  C   UNL     1     -10.637   6.333  68.015  1.00  0.00    -0.262 C  
HETATM    9  O   UNL     1     -10.849   5.655  67.021  1.00  0.00    -0.275 OA 
BRANCH   8  10
HETATM   10  C   UNL     1     -10.786   5.844  69.433  1.00  0.00    -0.422 C  
BRANCH  10  11
HETATM   11  C   UNL     1     -11.829   6.627  70.210  1.00  0.00    -0.378 C  
BRANCH  11  12
HETATM   12  C   UNL     1     -11.248   7.335  71.405  1.00  0.00    -0.248 C  
HETATM   13  O   UNL     1     -11.901   7.974  72.219  1.00  0.00    -0.327 OA 
BRANCH  12  14
HETATM   14  O   UNL     1      -9.887   7.288  71.402  1.00  0.00    -0.185 OA 
BRANCH  14  15
HETATM   15  C   UNL     1      -9.243   8.538  71.712  1.00  0.00    -0.246 C  
BRANCH  15  16
HETATM   16  C   UNL     1      -8.856   9.358  70.469  1.00  0.00    -0.239 C  
BRANCH  16  17
HETATM   17  N   UNL     1      -7.332   9.390  70.188  1.00  0.00    -0.093 N  
HETATM   18  C   UNL     1      -6.952   8.476  69.030  1.00  0.00    -0.064 C  
HETATM   19  C   UNL     1      -6.606   8.896  71.445  1.00  0.00    -0.081 C  
HETATM   20  C   UNL     1      -6.855  10.813  69.902  1.00  0.00    -0.146 C  
ENDBRANCH  16  17
ENDBRANCH  15  16
ENDBRANCH  14  15
ENDBRANCH  12  14
ENDBRANCH  11  12
ENDBRANCH  10  11
ENDBRANCH   8  10
ENDBRANCH   7   8
ENDBRANCH   6   7
ENDBRANCH   5   6
ENDBRANCH   2   5
TORSDOF 11
ENDMDL
MODEL      224
REMARK 921   NORMALIZED FREE ENERGY PREDICTED BY IDOCK:   -2.74 KCAL/MOL
REMARK 922        TOTAL FREE ENERGY PREDICTED BY IDOCK:   -5.26 KCAL/MOL
REMARK 923 INTER-LIGAND FREE ENERGY PREDICTED BY IDOCK:   -4.16 KCAL/MOL
REMARK 924 INTRA-LIGAND FREE ENERGY PREDICTED BY IDOCK:   -1.10 KCAL/MOL
REMARK 927      BINDING AFFINITY PREDICTED BY RF-SCORE:    0.00 PKD
ROOT
HETATM    1  C   UNL     1     -12.009  11.770  68.863  1.00  0.00    -0.271 C  
HETATM    2  N   UNL     1     -11.010  11.903  67.707  1.00  0.00    -0.215 N  
HETATM    3  C   UNL     1     -11.682  12.717  66.602  1.00  0.00    -0.398 C  
HETATM    4  C   UNL     1      -9.782  12.644  68.223  1.00  0.00    -0.216 C  
ENDROOT
BRANCH   2   5
HETATM    5  C   UNL     1     -10.654  10.479  67.215  1.00  0.00    -0.264 C  
BRANCH   5   6
HETATM    6  C   UNL     1      -9.832  10.455  65.913  1.00  0.00    -0.235 C  
BRANCH   6   7
HETATM    7  O   UNL     1      -8.848   9.404  65.872  1.00  0.00    -0.144 OA 
BRANCH   7   8
HETATM    8  C   UNL     1      -7.695   9.681  66.542  1.00  0.00    -0.098 C  
HETATM    9  O   UNL     1      -7.111  10.752  66.473  1.00  0.00    -0.123 OA 
BRANCH   8  10
HETATM   10  C   UNL     1      -7.322   8.562  67.480  1.00  0.00    -0.089 C  
BRANCH  10  11
HETATM   11  C   UNL     1      -7.897   8.755  68.871  1.00  0.00    -0.104 C  
BRANCH  11  12
HETATM   12  C   UNL     1      -8.661   7.550  69.354  1.00  0.00    -0.137 C  
HETATM   13  O   UNL     1      -8.253   6.757  70.191  1.00  0.00    -0.128 OA 
BRANCH  12  14
HETATM   14  O   UNL     1      -9.814   7.375  68.650  1.00  0.00    -0.157 OA 
BRANCH  14  15
HETATM   15  C   UNL     1     -10.970   7.081  69.457  1.00  0.00    -0.220 C  
BRANCH  15  16
HETATM   16  C   UNL     1     -11.472   8.282  70.277  1.00  0.00    -0.065 C  
BRANCH  16  17
HETATM   17  N   UNL     1     -11.612   7.992  71.793  1.00  0.00    -0.271 N  
HETATM   18  C   UNL     1     -10.330   8.316  72.550  1.00  0.00    -0.331 C  
HETATM   19  C   UNL     1     -11.906   6.498  71.966  1.00  0.00    -0.329 C  
HETATM   20  C   UNL     1     -12.780   8.770  72.396  1.00  0.00    -0.368 C  
ENDBRANCH  16  17
ENDBRANCH  15  16
ENDBRANCH  14  15
ENDBRANCH  12  14
ENDBRANCH  11  12
ENDBRANCH  10  11
ENDBRANCH   8  10
ENDBRANCH   7   8
ENDBRANCH   6   7
ENDBRANCH   5   6
ENDBRANCH   2   5
TORSDOF 11
ENDMDL
MODEL      225
REMARK 921   NORMALIZED FREE ENERGY PREDICTED BY IDOCK:   -2.74 KCAL/MOL
REMARK 922        TOTAL FREE ENERGY PREDICTED BY IDOCK:   -5.26 KCAL/MOL
REMARK 923 INTER-LIGAND FREE ENERGY PREDICTED BY IDOCK:   -4.67 KCAL/MOL
REMARK 924 INTRA-LIGAND FREE ENERGY PREDICTED BY IDOCK:   -0.59 KCAL/MOL
REMARK 927      BINDING AFFINITY PREDICTED BY RF-SCORE:    0.00 PKD
ROOT
HETATM    1  C   UNL     1     -12.700  13.814  65.606  1.00  0.00    -0.478 C  
HETATM    2  N   UNL     1     -11.675  13.585  66.723  1.00  0.00    -0.369 N  
HETATM    3  C   UNL     1     -10.323  13.312  66.066  1.00  0.00    -0.289 C  
HETATM    4  C   UNL     1     -11.596  14.853  67.564  1.00  0.00    -0.339 C  
ENDROOT
BRANCH   2   5
HETATM    5  C   UNL     1     -12.143  12.371  67.561  1.00  0.00    -0.008 C  
BRANCH   5   6
HETATM    6  C   UNL     1     -11.031  11.733  68.414  1.00  0.00    -0.231 C  
BRANCH   6   7
HETATM    7  O   UNL     1     -11.213  11.918  69.830  1.00  0.00    -0.139 OA 
BRANCH   7   8
HETATM    8  C   UNL     1     -12.068  11.031  70.413  1.00  0.00    -0.373 C  
HETATM    9  O   UNL     1     -13.098  11.358  70.984  1.00  0.00    -0.245 OA 
BRANCH   8  10
HETATM   10  C   UNL     1     -11.658   9.607  70.134  1.00  0.00    -0.193 C  
BRANCH  10  11
HETATM   11  C   UNL     1     -11.255   8.862  71.392  1.00  0.00    -0.382 C  
BRANCH  11  12
HETATM   12  C   UNL     1     -12.219   7.761  71.747  1.00  0.00    -0.306 C  
HETATM   13  O   UNL     1     -13.386   7.716  71.384  1.00  0.00    -0.337 OA 
BRANCH  12  14
HETATM   14  O   UNL     1     -11.671   6.883  72.631  1.00  0.00    -0.202 OA 
BRANCH  14  15
HETATM   15  C   UNL     1     -11.602   5.523  72.162  1.00  0.00    -0.058 C  
BRANCH  15  16
HETATM   16  C   UNL     1     -10.518   4.684  72.861  1.00  0.00    -0.194 C  
BRANCH  16  17
HETATM   17  N   UNL     1      -9.245   4.463  72.003  1.00  0.00    -0.125 N  
HETATM   18  C   UNL     1      -8.587   3.122  72.307  1.00  0.00    -0.079 C  
HETATM   19  C   UNL     1      -8.245   5.575  72.341  1.00  0.00    -0.114 C  
HETATM   20  C   UNL     1      -9.563   4.558  70.512  1.00  0.00    -0.204 C  
ENDBRANCH  16  17
ENDBRANCH  15  16
ENDBRANCH  14  15
ENDBRANCH  12  14
ENDBRANCH  11  12
ENDBRANCH  10  11
ENDBRANCH   8  10
ENDBRANCH   7   8
ENDBRANCH   6   7
ENDBRANCH   5   6
ENDBRANCH   2   5
TORSDOF 11
ENDMDL
MODEL      226
REMARK 921   NORMALIZED FREE ENERGY PREDICTED BY IDOCK:   -2.74 KCAL/MOL
REMARK 922        TOTAL FREE ENERGY PREDICTED BY IDOCK:   -5.25 KCAL/MOL
REMARK 923 INTER-LIGAND FREE ENERGY PREDICTED BY IDOCK:   -4.87 KCAL/MOL
REMARK 924 INTRA-LIGAND FREE ENERGY PREDICTED BY IDOCK:   -0.38 KCAL/MOL
REMARK 927      BINDING AFFINITY PREDICTED BY RF-SCORE:    0.00 PKD
ROOT
HETATM    1  C   UNL     1      -9.095   1.853  64.971  1.00  0.00    -0.123 C  
HETATM    2  N   UNL     1      -9.731   2.634  63.814  1.00  0.00    -0.130 N  
HETATM    3  C   UNL     1      -8.611   3.057  62.865  1.00  0.00    -0.085 C  
HETATM    4  C   UNL     1     -10.700   1.706  63.091  1.00  0.00    -0.167 C  
ENDROOT
BRANCH   2   5
HETATM    5  C   UNL     1     -10.455   3.866  64.409  1.00  0.00    -0.224 C  
BRANCH   5   6
HETATM    6  C   UNL     1      -9.905   4.314  65.775  1.00  0.00    -0.223 C  
BRANCH   6   7
HETATM    7  O   UNL     1     -10.548   5.492  66.297  1.00  0.00    -0.233 OA 
BRANCH   7   8
HETATM    8  C   UNL     1      -9.694   6.480  66.684  1.00  0.00    -0.154 C  
HETATM    9  O   UNL     1      -8.477   6.367  66.671  1.00  0.00    -0.110 OA 
BRANCH   8  10
HETATM   10  C   UNL     1     -10.433   7.760  66.982  1.00  0.00    -0.419 C  
BRANCH  10  11
HETATM   11  C   UNL     1     -10.169   8.269  68.387  1.00  0.00    -0.242 C  
BRANCH  11  12
HETATM   12  C   UNL     1     -10.536   9.720  68.554  1.00  0.00    -0.210 C  
HETATM   13  O   UNL     1     -10.545  10.316  69.623  1.00  0.00    -0.224 OA 
BRANCH  12  14
HETATM   14  O   UNL     1     -10.983  10.261  67.388  1.00  0.00    -0.293 OA 
BRANCH  14  15
HETATM   15  C   UNL     1     -10.276  11.442  66.963  1.00  0.00    -0.213 C  
BRANCH  15  16
HETATM   16  C   UNL     1     -10.945  12.171  65.785  1.00  0.00    -0.297 C  
BRANCH  16  17
HETATM   17  N   UNL     1     -11.298  13.650  66.081  1.00  0.00    -0.307 N  
HETATM   18  C   UNL     1     -11.500  13.894  67.572  1.00  0.00    -0.340 C  
HETATM   19  C   UNL     1     -12.611  13.980  65.361  1.00  0.00    -0.505 C  
HETATM   20  C   UNL     1     -10.222  14.591  65.544  1.00  0.00    -0.370 C  
ENDBRANCH  16  17
ENDBRANCH  15  16
ENDBRANCH  14  15
ENDBRANCH  12  14
ENDBRANCH  11  12
ENDBRANCH  10  11
ENDBRANCH   8  10
ENDBRANCH   7   8
ENDBRANCH   6   7
ENDBRANCH   5   6
ENDBRANCH   2   5
TORSDOF 11
ENDMDL
MODEL      227
REMARK 921   NORMALIZED FREE ENERGY PREDICTED BY IDOCK:   -2.70 KCAL/MOL
REMARK 922        TOTAL FREE ENERGY PREDICTED BY IDOCK:   -5.20 KCAL/MOL
REMARK 923 INTER-LIGAND FREE ENERGY PREDICTED BY IDOCK:   -4.81 KCAL/MOL
REMARK 924 INTRA-LIGAND FREE ENERGY PREDICTED BY IDOCK:   -0.39 KCAL/MOL
REMARK 927      BINDING AFFINITY PREDICTED BY RF-SCORE:    0.00 PKD
ROOT
HETATM    1  C   UNL     1      -8.413   5.807  68.052  1.00  0.00    -0.106 C  
HETATM    2  N   UNL     1      -9.690   4.973  68.213  1.00  0.00    -0.140 N  
HETATM    3  C   UNL     1     -10.371   4.895  66.847  1.00  0.00    -0.186 C  
HETATM    4  C   UNL     1      -9.290   3.576  68.673  1.00  0.00    -0.166 C  
ENDROOT
BRANCH   2   5
HETATM    5  C   UNL     1     -10.597   5.679  69.250  1.00  0.00    -0.288 C  
BRANCH   5   6
HETATM    6  C   UNL     1     -10.184   7.130  69.555  1.00  0.00    -0.195 C  
BRANCH   6   7
HETATM    7  O   UNL     1     -11.299   8.031  69.690  1.00  0.00    -0.006 OA 
BRANCH   7   8
HETATM    8  C   UNL     1     -11.062   9.114  70.482  1.00  0.00    -0.260 C  
HETATM    9  O   UNL     1     -10.252   9.118  71.397  1.00  0.00    -0.302 OA 
BRANCH   8  10
HETATM   10  C   UNL     1     -11.809  10.328  69.992  1.00  0.00    -0.305 C  
BRANCH  10  11
HETATM   11  C   UNL     1     -11.078  11.047  68.873  1.00  0.00    -0.295 C  
BRANCH  11  12
HETATM   12  C   UNL     1     -11.517  12.479  68.723  1.00  0.00    -0.310 C  
HETATM   13  O   UNL     1     -11.834  13.001  67.662  1.00  0.00    -0.353 OA 
BRANCH  12  14
HETATM   14  O   UNL     1     -11.394  13.165  69.892  1.00  0.00    -0.139 OA 
BRANCH  14  15
HETATM   15  C   UNL     1     -12.623  13.730  70.388  1.00  0.00    -0.256 C  
BRANCH  15  16
HETATM   16  C   UNL     1     -12.481  15.183  70.875  1.00  0.00    -0.365 C  
BRANCH  16  17
HETATM   17  N   UNL     1     -12.853  15.384  72.366  1.00  0.00    -0.351 N  
HETATM   18  C   UNL     1     -11.861  16.297  73.077  1.00  0.00    -0.401 C  
HETATM   19  C   UNL     1     -12.819  14.014  73.054  1.00  0.00    -0.177 C  
HETATM   20  C   UNL     1     -14.267  15.943  72.511  1.00  0.00    -0.205 C  
ENDBRANCH  16  17
ENDBRANCH  15  16
ENDBRANCH  14  15
ENDBRANCH  12  14
ENDBRANCH  11  12
ENDBRANCH  10  11
ENDBRANCH   8  10
ENDBRANCH   7   8
ENDBRANCH   6   7
ENDBRANCH   5   6
ENDBRANCH   2   5
TORSDOF 11
ENDMDL
MODEL      228
REMARK 921   NORMALIZED FREE ENERGY PREDICTED BY IDOCK:   -2.68 KCAL/MOL
REMARK 922        TOTAL FREE ENERGY PREDICTED BY IDOCK:   -5.15 KCAL/MOL
REMARK 923 INTER-LIGAND FREE ENERGY PREDICTED BY IDOCK:   -4.23 KCAL/MOL
REMARK 924 INTRA-LIGAND FREE ENERGY PREDICTED BY IDOCK:   -0.92 KCAL/MOL
REMARK 927      BINDING AFFINITY PREDICTED BY RF-SCORE:    0.00 PKD
ROOT
HETATM    1  C   UNL     1     -10.628  18.694  65.956  1.00  0.00    -0.365 C  
HETATM    2  N   UNL     1      -9.640  17.954  66.866  1.00  0.00    -0.289 N  
HETATM    3  C   UNL     1      -8.441  18.872  67.096  1.00  0.00    -0.276 C  
HETATM    4  C   UNL     1     -10.337  17.669  68.192  1.00  0.00    -0.386 C  
ENDROOT
BRANCH   2   5
HETATM    5  C   UNL     1      -9.215  16.648  66.152  1.00  0.00    -0.277 C  
BRANCH   5   6
HETATM    6  C   UNL     1      -8.858  15.498  67.112  1.00  0.00    -0.212 C  
BRANCH   6   7
HETATM    7  O   UNL     1      -7.455  15.178  67.130  1.00  0.00    -0.203 OA 
BRANCH   7   8
HETATM    8  C   UNL     1      -6.789  15.607  68.239  1.00  0.00    -0.119 C  
HETATM    9  O   UNL     1      -6.146  16.645  68.283  1.00  0.00    -0.120 OA 
BRANCH   8  10
HETATM   10  C   UNL     1      -7.070  14.722  69.426  1.00  0.00    -0.170 C  
BRANCH  10  11
HETATM   11  C   UNL     1      -5.989  13.679  69.641  1.00  0.00    -0.115 C  
BRANCH  11  12
HETATM   12  C   UNL     1      -6.482  12.277  69.396  1.00  0.00    -0.105 C  
HETATM   13  O   UNL     1      -6.504  11.391  70.239  1.00  0.00    -0.206 OA 
BRANCH  12  14
HETATM   14  O   UNL     1      -6.780  12.074  68.083  1.00  0.00    -0.057 OA 
BRANCH  14  15
HETATM   15  C   UNL     1      -7.961  11.282  67.851  1.00  0.00    -0.118 C  
BRANCH  15  16
HETATM   16  C   UNL     1      -9.274  12.060  68.054  1.00  0.00    -0.192 C  
BRANCH  16  17
HETATM   17  N   UNL     1     -10.536  11.292  67.585  1.00  0.00    -0.202 N  
HETATM   18  C   UNL     1     -11.732  11.567  68.489  1.00  0.00    -0.313 C  
HETATM   19  C   UNL     1     -10.229   9.791  67.643  1.00  0.00    -0.213 C  
HETATM   20  C   UNL     1     -10.888  11.641  66.141  1.00  0.00    -0.294 C  
ENDBRANCH  16  17
ENDBRANCH  15  16
ENDBRANCH  14  15
ENDBRANCH  12  14
ENDBRANCH  11  12
ENDBRANCH  10  11
ENDBRANCH   8  10
ENDBRANCH   7   8
ENDBRANCH   6   7
ENDBRANCH   5   6
ENDBRANCH   2   5
TORSDOF 11
ENDMDL
MODEL      229
REMARK 921   NORMALIZED FREE ENERGY PREDICTED BY IDOCK:   -2.66 KCAL/MOL
REMARK 922        TOTAL FREE ENERGY PREDICTED BY IDOCK:   -5.13 KCAL/MOL
REMARK 923 INTER-LIGAND FREE ENERGY PREDICTED BY IDOCK:   -4.48 KCAL/MOL
REMARK 924 INTRA-LIGAND FREE ENERGY PREDICTED BY IDOCK:   -0.65 KCAL/MOL
REMARK 927      BINDING AFFINITY PREDICTED BY RF-SCORE:    0.00 PKD
ROOT
HETATM    1  C   UNL     1     -10.162   3.887  64.276  1.00  0.00    -0.226 C  
HETATM    2  N   UNL     1      -9.177   3.882  65.453  1.00  0.00    -0.142 N  
HETATM    3  C   UNL     1      -8.620   2.466  65.588  1.00  0.00    -0.115 C  
HETATM    4  C   UNL     1      -8.049   4.855  65.132  1.00  0.00    -0.112 C  
ENDROOT
BRANCH   2   5
HETATM    5  C   UNL     1      -9.950   4.303  66.726  1.00  0.00    -0.160 C  
BRANCH   5   6
HETATM    6  C   UNL     1     -10.859   5.530  66.528  1.00  0.00    -0.163 C  
BRANCH   6   7
HETATM    7  O   UNL     1     -10.894   6.411  67.666  1.00  0.00    -0.269 OA 
BRANCH   7   8
HETATM    8  C   UNL     1      -9.881   7.321  67.711  1.00  0.00    -0.149 C  
HETATM    9  O   UNL     1      -9.165   7.489  68.687  1.00  0.00    -0.144 OA 
BRANCH   8  10
HETATM   10  C   UNL     1      -9.669   7.974  66.370  1.00  0.00    -0.255 C  
BRANCH  10  11
HETATM   11  C   UNL     1     -10.269   9.366  66.300  1.00  0.00    -0.284 C  
BRANCH  11  12
HETATM   12  C   UNL     1      -9.707  10.183  65.168  1.00  0.00    -0.304 C  
HETATM   13  O   UNL     1      -8.828   9.803  64.405  1.00  0.00    -0.195 OA 
BRANCH  12  14
HETATM   14  O   UNL     1     -10.202  11.451  65.173  1.00  0.00    -0.250 OA 
BRANCH  14  15
HETATM   15  C   UNL     1     -11.285  11.670  66.098  1.00  0.00    -0.254 C  
BRANCH  15  16
HETATM   16  C   UNL     1     -11.479  13.147  66.481  1.00  0.00    -0.338 C  
BRANCH  16  17
HETATM   17  N   UNL     1     -11.006  13.490  67.916  1.00  0.00    -0.250 N  
HETATM   18  C   UNL     1      -9.497  13.337  68.065  1.00  0.00    -0.219 C  
HETATM   19  C   UNL     1     -11.684  12.516  68.887  1.00  0.00    -0.322 C  
HETATM   20  C   UNL     1     -11.423  14.906  68.310  1.00  0.00    -0.324 C  
ENDBRANCH  16  17
ENDBRANCH  15  16
ENDBRANCH  14  15
ENDBRANCH  12  14
ENDBRANCH  11  12
ENDBRANCH  10  11
ENDBRANCH   8  10
ENDBRANCH   7   8
ENDBRANCH   6   7
ENDBRANCH   5   6
ENDBRANCH   2   5
TORSDOF 11
ENDMDL
MODEL      230
REMARK 921   NORMALIZED FREE ENERGY PREDICTED BY IDOCK:   -2.65 KCAL/MOL
REMARK 922        TOTAL FREE ENERGY PREDICTED BY IDOCK:   -5.12 KCAL/MOL
REMARK 923 INTER-LIGAND FREE ENERGY PREDICTED BY IDOCK:   -4.63 KCAL/MOL
REMARK 924 INTRA-LIGAND FREE ENERGY PREDICTED BY IDOCK:   -0.48 KCAL/MOL
REMARK 927      BINDING AFFINITY PREDICTED BY RF-SCORE:    0.00 PKD
ROOT
HETATM    1  C   UNL     1      -9.747   8.988  65.810  1.00  0.00    -0.184 C  
HETATM    2  N   UNL     1      -9.832  10.519  65.865  1.00  0.00    -0.222 N  
HETATM    3  C   UNL     1      -8.411  11.059  66.020  1.00  0.00    -0.147 C  
HETATM    4  C   UNL     1     -10.432  11.009  64.552  1.00  0.00    -0.342 C  
ENDROOT
BRANCH   2   5
HETATM    5  C   UNL     1     -10.713  10.907  67.077  1.00  0.00    -0.271 C  
BRANCH   5   6
HETATM    6  C   UNL     1     -10.270  12.201  67.783  1.00  0.00    -0.201 C  
BRANCH   6   7
HETATM    7  O   UNL     1     -11.367  13.045  68.181  1.00  0.00    -0.258 OA 
BRANCH   7   8
HETATM    8  C   UNL     1     -11.067  13.938  69.165  1.00  0.00    -0.245 C  
HETATM    9  O   UNL     1     -10.150  14.743  69.092  1.00  0.00    -0.224 OA 
BRANCH   8  10
HETATM   10  C   UNL     1     -12.092  13.905  70.269  1.00  0.00    -0.423 C  
BRANCH  10  11
HETATM   11  C   UNL     1     -12.862  12.598  70.307  1.00  0.00     0.264 C  
BRANCH  11  12
HETATM   12  C   UNL     1     -13.127  12.123  71.711  1.00  0.00    -0.352 C  
HETATM   13  O   UNL     1     -13.097  12.837  72.704  1.00  0.00    -0.305 OA 
BRANCH  12  14
HETATM   14  O   UNL     1     -13.279  10.770  71.760  1.00  0.00    -0.445 OA 
BRANCH  14  15
HETATM   15  C   UNL     1     -12.050  10.033  71.911  1.00  0.00    -0.105 C  
BRANCH  15  16
HETATM   16  C   UNL     1     -11.390   9.657  70.573  1.00  0.00    -0.296 C  
BRANCH  16  17
HETATM   17  N   UNL     1     -10.386   8.481  70.679  1.00  0.00    -0.194 N  
HETATM   18  C   UNL     1     -10.600   7.455  69.572  1.00  0.00    -0.237 C  
HETATM   19  C   UNL     1     -10.608   7.784  72.026  1.00  0.00    -0.228 C  
HETATM   20  C   UNL     1      -8.944   8.983  70.646  1.00  0.00    -0.220 C  
ENDBRANCH  16  17
ENDBRANCH  15  16
ENDBRANCH  14  15
ENDBRANCH  12  14
ENDBRANCH  11  12
ENDBRANCH  10  11
ENDBRANCH   8  10
ENDBRANCH   7   8
ENDBRANCH   6   7
ENDBRANCH   5   6
ENDBRANCH   2   5
TORSDOF 11
ENDMDL
MODEL      231
REMARK 921   NORMALIZED FREE ENERGY PREDICTED BY IDOCK:   -2.65 KCAL/MOL
REMARK 922        TOTAL FREE ENERGY PREDICTED BY IDOCK:   -5.10 KCAL/MOL
REMARK 923 INTER-LIGAND FREE ENERGY PREDICTED BY IDOCK:   -4.89 KCAL/MOL
REMARK 924 INTRA-LIGAND FREE ENERGY PREDICTED BY IDOCK:   -0.22 KCAL/MOL
REMARK 927      BINDING AFFINITY PREDICTED BY RF-SCORE:    0.00 PKD
ROOT
HETATM    1  C   UNL     1      -9.093   9.607  69.099  1.00  0.00    -0.154 C  
HETATM    2  N   UNL     1     -10.196  10.531  68.568  1.00  0.00    -0.166 N  
HETATM    3  C   UNL     1     -10.832   9.849  67.357  1.00  0.00    -0.227 C  
HETATM    4  C   UNL     1     -11.236  10.710  69.667  1.00  0.00    -0.289 C  
ENDROOT
BRANCH   2   5
HETATM    5  C   UNL     1      -9.544  11.878  68.172  1.00  0.00    -0.195 C  
BRANCH   5   6
HETATM    6  C   UNL     1      -9.614  12.188  66.666  1.00  0.00    -0.220 C  
BRANCH   6   7
HETATM    7  O   UNL     1     -10.811  12.888  66.277  1.00  0.00    -0.271 OA 
BRANCH   7   8
HETATM    8  C   UNL     1     -10.594  14.037  65.578  1.00  0.00    -0.318 C  
HETATM    9  O   UNL     1     -10.421  14.071  64.369  1.00  0.00    -0.368 OA 
BRANCH   8  10
HETATM   10  C   UNL     1     -10.744  15.253  66.457  1.00  0.00    -0.311 C  
BRANCH  10  11
HETATM   11  C   UNL     1      -9.958  16.443  65.940  1.00  0.00    -0.358 C  
BRANCH  11  12
HETATM   12  C   UNL     1      -8.653  16.635  66.665  1.00  0.00    -0.258 C  
HETATM   13  O   UNL     1      -7.731  15.830  66.663  1.00  0.00    -0.217 OA 
BRANCH  12  14
HETATM   14  O   UNL     1      -8.668  17.759  67.434  1.00  0.00    -0.231 OA 
BRANCH  14  15
HETATM   15  C   UNL     1      -8.073  18.916  66.817  1.00  0.00    -0.269 C  
BRANCH  15  16
HETATM   16  C   UNL     1      -6.548  19.001  67.008  1.00  0.00    -0.196 C  
BRANCH  16  17
HETATM   17  N   UNL     1      -6.119  19.502  68.410  1.00  0.00    -0.228 N  
HETATM   18  C   UNL     1      -7.322  19.876  69.268  1.00  0.00    -0.156 C  
HETATM   19  C   UNL     1      -5.256  20.756  68.224  1.00  0.00    -0.269 C  
HETATM   20  C   UNL     1      -5.273  18.456  69.133  1.00  0.00    -0.189 C  
ENDBRANCH  16  17
ENDBRANCH  15  16
ENDBRANCH  14  15
ENDBRANCH  12  14
ENDBRANCH  11  12
ENDBRANCH  10  11
ENDBRANCH   8  10
ENDBRANCH   7   8
ENDBRANCH   6   7
ENDBRANCH   5   6
ENDBRANCH   2   5
TORSDOF 11
ENDMDL
MODEL      232
REMARK 921   NORMALIZED FREE ENERGY PREDICTED BY IDOCK:   -2.63 KCAL/MOL
REMARK 922        TOTAL FREE ENERGY PREDICTED BY IDOCK:   -5.08 KCAL/MOL
REMARK 923 INTER-LIGAND FREE ENERGY PREDICTED BY IDOCK:   -4.52 KCAL/MOL
REMARK 924 INTRA-LIGAND FREE ENERGY PREDICTED BY IDOCK:   -0.56 KCAL/MOL
REMARK 927      BINDING AFFINITY PREDICTED BY RF-SCORE:    0.00 PKD
ROOT
HETATM    1  C   UNL     1     -11.978  14.368  65.890  1.00  0.00    -0.359 C  
HETATM    2  N   UNL     1     -11.055  13.158  66.083  1.00  0.00    -0.280 N  
HETATM    3  C   UNL     1     -11.012  12.390  64.763  1.00  0.00    -0.301 C  
HETATM    4  C   UNL     1      -9.663  13.674  66.430  1.00  0.00    -0.292 C  
ENDROOT
BRANCH   2   5
HETATM    5  C   UNL     1     -11.641  12.286  67.219  1.00  0.00    -0.357 C  
BRANCH   5   6
HETATM    6  C   UNL     1     -10.905  12.433  68.563  1.00  0.00    -0.242 C  
BRANCH   6   7
HETATM    7  O   UNL     1     -11.769  12.313  69.709  1.00  0.00    -0.308 OA 
BRANCH   7   8
HETATM    8  C   UNL     1     -11.925  11.041  70.172  1.00  0.00    -0.360 C  
HETATM    9  O   UNL     1     -13.006  10.558  70.474  1.00  0.00    -0.345 OA 
BRANCH   8  10
HETATM   10  C   UNL     1     -10.628  10.274  70.120  1.00  0.00    -0.303 C  
BRANCH  10  11
HETATM   11  C   UNL     1     -10.805   8.871  69.571  1.00  0.00    -0.163 C  
BRANCH  11  12
HETATM   12  C   UNL     1      -9.553   8.042  69.687  1.00  0.00    -0.168 C  
HETATM   13  O   UNL     1      -9.193   7.465  70.704  1.00  0.00    -0.156 OA 
BRANCH  12  14
HETATM   14  O   UNL     1      -8.798   8.117  68.557  1.00  0.00    -0.134 OA 
BRANCH  14  15
HETATM   15  C   UNL     1      -9.363   7.451  67.412  1.00  0.00    -0.132 C  
BRANCH  15  16
HETATM   16  C   UNL     1      -9.801   6.003  67.695  1.00  0.00    -0.123 C  
BRANCH  16  17
HETATM   17  N   UNL     1      -8.749   4.939  67.294  1.00  0.00    -0.104 N  
HETATM   18  C   UNL     1      -7.590   4.891  68.282  1.00  0.00    -0.078 C  
HETATM   19  C   UNL     1      -8.188   5.319  65.918  1.00  0.00    -0.117 C  
HETATM   20  C   UNL     1      -9.384   3.555  67.173  1.00  0.00    -0.200 C  
ENDBRANCH  16  17
ENDBRANCH  15  16
ENDBRANCH  14  15
ENDBRANCH  12  14
ENDBRANCH  11  12
ENDBRANCH  10  11
ENDBRANCH   8  10
ENDBRANCH   7   8
ENDBRANCH   6   7
ENDBRANCH   5   6
ENDBRANCH   2   5
TORSDOF 11
ENDMDL
MODEL      233
REMARK 921   NORMALIZED FREE ENERGY PREDICTED BY IDOCK:   -2.63 KCAL/MOL
REMARK 922        TOTAL FREE ENERGY PREDICTED BY IDOCK:   -5.07 KCAL/MOL
REMARK 923 INTER-LIGAND FREE ENERGY PREDICTED BY IDOCK:   -4.50 KCAL/MOL
REMARK 924 INTRA-LIGAND FREE ENERGY PREDICTED BY IDOCK:   -0.57 KCAL/MOL
REMARK 927      BINDING AFFINITY PREDICTED BY RF-SCORE:    0.00 PKD
ROOT
HETATM    1  C   UNL     1     -10.387   5.036  66.385  1.00  0.00    -0.294 C  
HETATM    2  N   UNL     1      -9.345   5.473  67.422  1.00  0.00    -0.113 N  
HETATM    3  C   UNL     1      -8.212   4.447  67.406  1.00  0.00    -0.100 C  
HETATM    4  C   UNL     1      -8.811   6.840  67.012  1.00  0.00    -0.115 C  
ENDROOT
BRANCH   2   5
HETATM    5  C   UNL     1     -10.036   5.520  68.805  1.00  0.00    -0.191 C  
BRANCH   5   6
HETATM    6  C   UNL     1      -9.917   6.880  69.518  1.00  0.00    -0.164 C  
BRANCH   6   7
HETATM    7  O   UNL     1     -11.183   7.429  69.927  1.00  0.00    -0.228 OA 
BRANCH   7   8
HETATM    8  C   UNL     1     -11.110   8.317  70.958  1.00  0.00    -0.251 C  
HETATM    9  O   UNL     1     -10.475   8.114  71.983  1.00  0.00    -0.224 OA 
BRANCH   8  10
HETATM   10  C   UNL     1     -11.780   9.621  70.610  1.00  0.00    -0.353 C  
BRANCH  10  11
HETATM   11  C   UNL     1     -10.867  10.555  69.837  1.00  0.00    -0.334 C  
BRANCH  11  12
HETATM   12  C   UNL     1     -11.168  10.568  68.362  1.00  0.00    -0.279 C  
HETATM   13  O   UNL     1     -11.252   9.570  67.660  1.00  0.00    -0.081 OA 
BRANCH  12  14
HETATM   14  O   UNL     1     -11.209  11.838  67.872  1.00  0.00    -0.229 OA 
BRANCH  14  15
HETATM   15  C   UNL     1     -11.202  12.870  68.877  1.00  0.00    -0.279 C  
BRANCH  15  16
HETATM   16  C   UNL     1     -11.604  14.255  68.341  1.00  0.00    -0.320 C  
BRANCH  16  17
HETATM   17  N   UNL     1     -10.937  15.436  69.091  1.00  0.00    -0.237 N  
HETATM   18  C   UNL     1      -9.583  15.043  69.670  1.00  0.00    -0.034 C  
HETATM   19  C   UNL     1     -11.854  15.843  70.250  1.00  0.00    -0.327 C  
HETATM   20  C   UNL     1     -10.776  16.649  68.176  1.00  0.00    -0.349 C  
ENDBRANCH  16  17
ENDBRANCH  15  16
ENDBRANCH  14  15
ENDBRANCH  12  14
ENDBRANCH  11  12
ENDBRANCH  10  11
ENDBRANCH   8  10
ENDBRANCH   7   8
ENDBRANCH   6   7
ENDBRANCH   5   6
ENDBRANCH   2   5
TORSDOF 11
ENDMDL
MODEL      234
REMARK 921   NORMALIZED FREE ENERGY PREDICTED BY IDOCK:   -2.62 KCAL/MOL
REMARK 922        TOTAL FREE ENERGY PREDICTED BY IDOCK:   -5.07 KCAL/MOL
REMARK 923 INTER-LIGAND FREE ENERGY PREDICTED BY IDOCK:   -4.53 KCAL/MOL
REMARK 924 INTRA-LIGAND FREE ENERGY PREDICTED BY IDOCK:   -0.54 KCAL/MOL
REMARK 927      BINDING AFFINITY PREDICTED BY RF-SCORE:    0.00 PKD
ROOT
HETATM    1  C   UNL     1     -10.207   8.146  66.931  1.00  0.00    -0.316 C  
HETATM    2  N   UNL     1      -9.285   9.225  66.349  1.00  0.00    -0.167 N  
HETATM    3  C   UNL     1      -7.928   8.579  66.075  1.00  0.00    -0.107 C  
HETATM    4  C   UNL     1      -9.897   9.719  65.044  1.00  0.00    -0.173 C  
ENDROOT
BRANCH   2   5
HETATM    5  C   UNL     1      -9.163  10.363  67.391  1.00  0.00    -0.142 C  
BRANCH   5   6
HETATM    6  C   UNL     1      -8.210  11.496  66.969  1.00  0.00    -0.167 C  
BRANCH   6   7
HETATM    7  O   UNL     1      -8.885  12.725  66.642  1.00  0.00    -0.196 OA 
BRANCH   7   8
HETATM    8  C   UNL     1      -9.066  13.571  67.694  1.00  0.00    -0.205 C  
HETATM    9  O   UNL     1      -8.391  13.538  68.713  1.00  0.00    -0.070 OA 
BRANCH   8  10
HETATM   10  C   UNL     1     -10.091  14.630  67.379  1.00  0.00    -0.232 C  
BRANCH  10  11
HETATM   11  C   UNL     1     -10.351  15.554  68.554  1.00  0.00    -0.225 C  
BRANCH  11  12
HETATM   12  C   UNL     1      -9.963  16.980  68.265  1.00  0.00    -0.285 C  
HETATM   13  O   UNL     1     -10.740  17.850  67.893  1.00  0.00    -0.392 OA 
BRANCH  12  14
HETATM   14  O   UNL     1      -8.616  17.158  68.343  1.00  0.00    -0.230 OA 
BRANCH  14  15
HETATM   15  C   UNL     1      -8.204  18.502  68.658  1.00  0.00    -0.308 C  
BRANCH  15  16
HETATM   16  C   UNL     1      -6.950  18.958  67.892  1.00  0.00    -0.229 C  
BRANCH  16  17
HETATM   17  N   UNL     1      -7.235  20.012  66.792  1.00  0.00    -0.231 N  
HETATM   18  C   UNL     1      -8.730  20.251  66.614  1.00  0.00    -0.228 C  
HETATM   19  C   UNL     1      -6.675  19.481  65.467  1.00  0.00    -0.283 C  
HETATM   20  C   UNL     1      -6.533  21.333  67.100  1.00  0.00    -0.341 C  
ENDBRANCH  16  17
ENDBRANCH  15  16
ENDBRANCH  14  15
ENDBRANCH  12  14
ENDBRANCH  11  12
ENDBRANCH  10  11
ENDBRANCH   8  10
ENDBRANCH   7   8
ENDBRANCH   6   7
ENDBRANCH   5   6
ENDBRANCH   2   5
TORSDOF 11
ENDMDL
MODEL      235
REMARK 921   NORMALIZED FREE ENERGY PREDICTED BY IDOCK:   -2.62 KCAL/MOL
REMARK 922        TOTAL FREE ENERGY PREDICTED BY IDOCK:   -5.06 KCAL/MOL
REMARK 923 INTER-LIGAND FREE ENERGY PREDICTED BY IDOCK:   -4.19 KCAL/MOL
REMARK 924 INTRA-LIGAND FREE ENERGY PREDICTED BY IDOCK:   -0.87 KCAL/MOL
REMARK 927      BINDING AFFINITY PREDICTED BY RF-SCORE:    0.00 PKD
ROOT
HETATM    1  C   UNL     1      -8.540   8.661  67.194  1.00  0.00    -0.121 C  
HETATM    2  N   UNL     1      -8.102   9.952  66.491  1.00  0.00    -0.116 N  
HETATM    3  C   UNL     1      -7.110  10.668  67.406  1.00  0.00    -0.090 C  
HETATM    4  C   UNL     1      -7.420   9.572  65.182  1.00  0.00    -0.109 C  
ENDROOT
BRANCH   2   5
HETATM    5  C   UNL     1      -9.363  10.816  66.248  1.00  0.00    -0.180 C  
BRANCH   5   6
HETATM    6  C   UNL     1     -10.335  10.852  67.442  1.00  0.00    -0.211 C  
BRANCH   6   7
HETATM    7  O   UNL     1     -10.270  12.073  68.202  1.00  0.00    -0.189 OA 
BRANCH   7   8
HETATM    8  C   UNL     1     -11.291  12.245  69.088  1.00  0.00    -0.272 C  
HETATM    9  O   UNL     1     -11.543  13.311  69.630  1.00  0.00    -0.285 OA 
BRANCH   8  10
HETATM   10  C   UNL     1     -12.143  11.007  69.192  1.00  0.00    -0.333 C  
BRANCH  10  11
HETATM   11  C   UNL     1     -12.144  10.419  70.591  1.00  0.00    -0.443 C  
BRANCH  11  12
HETATM   12  C   UNL     1     -11.145   9.304  70.750  1.00  0.00    -0.285 C  
HETATM   13  O   UNL     1     -10.261   9.277  71.596  1.00  0.00    -0.332 OA 
BRANCH  12  14
HETATM   14  O   UNL     1     -11.261   8.383  69.754  1.00  0.00    -0.128 OA 
BRANCH  14  15
HETATM   15  C   UNL     1     -11.361   7.019  70.206  1.00  0.00    -0.295 C  
BRANCH  15  16
HETATM   16  C   UNL     1     -10.366   6.067  69.519  1.00  0.00    -0.233 C  
BRANCH  16  17
HETATM   17  N   UNL     1      -9.451   5.298  70.505  1.00  0.00    -0.159 N  
HETATM   18  C   UNL     1      -7.976   5.493  70.175  1.00  0.00    -0.090 C  
HETATM   19  C   UNL     1      -9.774   3.803  70.387  1.00  0.00    -0.154 C  
HETATM   20  C   UNL     1      -9.719   5.720  71.948  1.00  0.00    -0.159 C  
ENDBRANCH  16  17
ENDBRANCH  15  16
ENDBRANCH  14  15
ENDBRANCH  12  14
ENDBRANCH  11  12
ENDBRANCH  10  11
ENDBRANCH   8  10
ENDBRANCH   7   8
ENDBRANCH   6   7
ENDBRANCH   5   6
ENDBRANCH   2   5
TORSDOF 11
ENDMDL
MODEL      236
REMARK 921   NORMALIZED FREE ENERGY PREDICTED BY IDOCK:   -2.61 KCAL/MOL
REMARK 922        TOTAL FREE ENERGY PREDICTED BY IDOCK:   -5.04 KCAL/MOL
REMARK 923 INTER-LIGAND FREE ENERGY PREDICTED BY IDOCK:   -4.04 KCAL/MOL
REMARK 924 INTRA-LIGAND FREE ENERGY PREDICTED BY IDOCK:   -1.00 KCAL/MOL
REMARK 927      BINDING AFFINITY PREDICTED BY RF-SCORE:    0.00 PKD
ROOT
HETATM    1  C   UNL     1     -10.185   8.623  72.240  1.00  0.00    -0.301 C  
HETATM    2  N   UNL     1      -9.540   7.430  72.956  1.00  0.00    -0.175 N  
HETATM    3  C   UNL     1      -8.715   7.975  74.121  1.00  0.00    -0.137 C  
HETATM    4  C   UNL     1     -10.654   6.534  73.485  1.00  0.00    -0.290 C  
ENDROOT
BRANCH   2   5
HETATM    5  C   UNL     1      -8.644   6.686  71.936  1.00  0.00    -0.124 C  
BRANCH   5   6
HETATM    6  C   UNL     1      -9.342   5.506  71.235  1.00  0.00    -0.147 C  
BRANCH   6   7
HETATM    7  O   UNL     1      -9.329   5.601  69.798  1.00  0.00    -0.137 OA 
BRANCH   7   8
HETATM    8  C   UNL     1     -10.543   5.859  69.236  1.00  0.00    -0.308 C  
HETATM    9  O   UNL     1     -11.487   6.333  69.852  1.00  0.00    -0.422 OA 
BRANCH   8  10
HETATM   10  C   UNL     1     -10.521   5.628  67.747  1.00  0.00    -0.275 C  
BRANCH  10  11
HETATM   11  C   UNL     1     -11.117   6.787  66.970  1.00  0.00    -0.369 C  
BRANCH  11  12
HETATM   12  C   UNL     1     -10.103   7.854  66.655  1.00  0.00    -0.240 C  
HETATM   13  O   UNL     1      -8.997   7.644  66.175  1.00  0.00    -0.166 OA 
BRANCH  12  14
HETATM   14  O   UNL     1     -10.514   9.078  67.089  1.00  0.00    -0.266 OA 
BRANCH  14  15
HETATM   15  C   UNL     1      -9.448   9.979  67.442  1.00  0.00    -0.152 C  
BRANCH  15  16
HETATM   16  C   UNL     1      -8.935   9.795  68.881  1.00  0.00    -0.144 C  
BRANCH  16  17
HETATM   17  N   UNL     1      -7.441  10.166  69.067  1.00  0.00    -0.084 N  
HETATM   18  C   UNL     1      -7.213  11.667  68.939  1.00  0.00    -0.113 C  
HETATM   19  C   UNL     1      -6.636   9.464  67.967  1.00  0.00    -0.063 C  
HETATM   20  C   UNL     1      -6.916   9.676  70.414  1.00  0.00    -0.128 C  
ENDBRANCH  16  17
ENDBRANCH  15  16
ENDBRANCH  14  15
ENDBRANCH  12  14
ENDBRANCH  11  12
ENDBRANCH  10  11
ENDBRANCH   8  10
ENDBRANCH   7   8
ENDBRANCH   6   7
ENDBRANCH   5   6
ENDBRANCH   2   5
TORSDOF 11
ENDMDL
MODEL      237
REMARK 921   NORMALIZED FREE ENERGY PREDICTED BY IDOCK:   -2.61 KCAL/MOL
REMARK 922        TOTAL FREE ENERGY PREDICTED BY IDOCK:   -5.04 KCAL/MOL
REMARK 923 INTER-LIGAND FREE ENERGY PREDICTED BY IDOCK:   -3.94 KCAL/MOL
REMARK 924 INTRA-LIGAND FREE ENERGY PREDICTED BY IDOCK:   -1.10 KCAL/MOL
REMARK 927      BINDING AFFINITY PREDICTED BY RF-SCORE:    0.00 PKD
ROOT
HETATM    1  C   UNL     1     -12.316  13.908  66.443  1.00  0.00    -0.426 C  
HETATM    2  N   UNL     1     -11.473  13.013  65.524  1.00  0.00    -0.311 N  
HETATM    3  C   UNL     1     -12.369  12.549  64.376  1.00  0.00    -0.455 C  
HETATM    4  C   UNL     1     -10.319  13.845  64.978  1.00  0.00    -0.396 C  
ENDROOT
BRANCH   2   5
HETATM    5  C   UNL     1     -10.968  11.811  66.359  1.00  0.00    -0.294 C  
BRANCH   5   6
HETATM    6  C   UNL     1     -10.066  12.208  67.542  1.00  0.00    -0.196 C  
BRANCH   6   7
HETATM    7  O   UNL     1     -10.593  11.817  68.824  1.00  0.00    -0.208 OA 
BRANCH   7   8
HETATM    8  C   UNL     1     -10.250  10.559  69.218  1.00  0.00    -0.225 C  
HETATM    9  O   UNL     1     -11.019   9.609  69.195  1.00  0.00    -0.218 OA 
BRANCH   8  10
HETATM   10  C   UNL     1      -8.781  10.464  69.540  1.00  0.00    -0.102 C  
BRANCH  10  11
HETATM   11  C   UNL     1      -8.434   9.199  70.302  1.00  0.00    -0.208 C  
BRANCH  11  12
HETATM   12  C   UNL     1      -7.710   8.190  69.450  1.00  0.00    -0.103 C  
HETATM   13  O   UNL     1      -6.506   8.198  69.235  1.00  0.00    -0.038 OA 
BRANCH  12  14
HETATM   14  O   UNL     1      -8.578   7.338  68.839  1.00  0.00    -0.128 OA 
BRANCH  14  15
HETATM   15  C   UNL     1      -8.269   7.052  67.461  1.00  0.00    -0.116 C  
BRANCH  15  16
HETATM   16  C   UNL     1      -8.605   8.207  66.502  1.00  0.00    -0.138 C  
BRANCH  16  17
HETATM   17  N   UNL     1      -7.386   8.730  65.700  1.00  0.00    -0.084 N  
HETATM   18  C   UNL     1      -6.937  10.103  66.188  1.00  0.00    -0.113 C  
HETATM   19  C   UNL     1      -7.802   8.858  64.230  1.00  0.00    -0.134 C  
HETATM   20  C   UNL     1      -6.218   7.749  65.771  1.00  0.00    -0.042 C  
ENDBRANCH  16  17
ENDBRANCH  15  16
ENDBRANCH  14  15
ENDBRANCH  12  14
ENDBRANCH  11  12
ENDBRANCH  10  11
ENDBRANCH   8  10
ENDBRANCH   7   8
ENDBRANCH   6   7
ENDBRANCH   5   6
ENDBRANCH   2   5
TORSDOF 11
ENDMDL
MODEL      238
REMARK 921   NORMALIZED FREE ENERGY PREDICTED BY IDOCK:   -2.60 KCAL/MOL
REMARK 922        TOTAL FREE ENERGY PREDICTED BY IDOCK:   -5.03 KCAL/MOL
REMARK 923 INTER-LIGAND FREE ENERGY PREDICTED BY IDOCK:   -4.42 KCAL/MOL
REMARK 924 INTRA-LIGAND FREE ENERGY PREDICTED BY IDOCK:   -0.61 KCAL/MOL
REMARK 927      BINDING AFFINITY PREDICTED BY RF-SCORE:    0.00 PKD
ROOT
HETATM    1  C   UNL     1      -9.638   4.106  67.260  1.00  0.00    -0.190 C  
HETATM    2  N   UNL     1      -9.459   4.954  68.526  1.00  0.00    -0.135 N  
HETATM    3  C   UNL     1     -10.826   5.522  68.904  1.00  0.00    -0.061 C  
HETATM    4  C   UNL     1      -8.949   4.044  69.638  1.00  0.00    -0.101 C  
ENDROOT
BRANCH   2   5
HETATM    5  C   UNL     1      -8.452   6.085  68.206  1.00  0.00    -0.112 C  
BRANCH   5   6
HETATM    6  C   UNL     1      -8.538   7.287  69.165  1.00  0.00    -0.133 C  
BRANCH   6   7
HETATM    7  O   UNL     1      -8.683   8.552  68.493  1.00  0.00    -0.137 OA 
BRANCH   7   8
HETATM    8  C   UNL     1      -9.972   8.962  68.327  1.00  0.00    -0.175 C  
HETATM    9  O   UNL     1     -10.466   9.218  67.239  1.00  0.00    -0.252 OA 
BRANCH   8  10
HETATM   10  C   UNL     1     -10.736   8.913  69.625  1.00  0.00    -0.222 C  
BRANCH  10  11
HETATM   11  C   UNL     1     -10.774  10.258  70.327  1.00  0.00    -0.310 C  
BRANCH  11  12
HETATM   12  C   UNL     1     -11.957  11.092  69.915  1.00  0.00    -0.363 C  
HETATM   13  O   UNL     1     -12.905  10.679  69.259  1.00  0.00    -0.103 OA 
BRANCH  12  14
HETATM   14  O   UNL     1     -11.787  12.401  70.250  1.00  0.00    -0.322 OA 
BRANCH  14  15
HETATM   15  C   UNL     1     -11.669  13.297  69.128  1.00  0.00    -0.329 C  
BRANCH  15  16
HETATM   16  C   UNL     1     -10.524  12.933  68.166  1.00  0.00    -0.237 C  
BRANCH  16  17
HETATM   17  N   UNL     1     -10.741  13.435  66.716  1.00  0.00    -0.276 N  
HETATM   18  C   UNL     1     -10.172  12.460  65.691  1.00  0.00    -0.262 C  
HETATM   19  C   UNL     1     -10.008  14.773  66.560  1.00  0.00    -0.271 C  
HETATM   20  C   UNL     1     -12.222  13.678  66.432  1.00  0.00    -0.423 C  
ENDBRANCH  16  17
ENDBRANCH  15  16
ENDBRANCH  14  15
ENDBRANCH  12  14
ENDBRANCH  11  12
ENDBRANCH  10  11
ENDBRANCH   8  10
ENDBRANCH   7   8
ENDBRANCH   6   7
ENDBRANCH   5   6
ENDBRANCH   2   5
TORSDOF 11
ENDMDL
MODEL      239
REMARK 921   NORMALIZED FREE ENERGY PREDICTED BY IDOCK:   -2.60 KCAL/MOL
REMARK 922        TOTAL FREE ENERGY PREDICTED BY IDOCK:   -5.02 KCAL/MOL
REMARK 923 INTER-LIGAND FREE ENERGY PREDICTED BY IDOCK:   -4.62 KCAL/MOL
REMARK 924 INTRA-LIGAND FREE ENERGY PREDICTED BY IDOCK:   -0.41 KCAL/MOL
REMARK 927      BINDING AFFINITY PREDICTED BY RF-SCORE:    0.00 PKD
ROOT
HETATM    1  C   UNL     1     -12.614  13.824  65.219  1.00  0.00    -0.473 C  
HETATM    2  N   UNL     1     -11.392  13.343  66.012  1.00  0.00    -0.304 N  
HETATM    3  C   UNL     1     -10.185  14.154  65.543  1.00  0.00    -0.351 C  
HETATM    4  C   UNL     1     -11.651  13.605  67.491  1.00  0.00    -0.350 C  
ENDROOT
BRANCH   2   5
HETATM    5  C   UNL     1     -11.197  11.835  65.724  1.00  0.00    -0.281 C  
BRANCH   5   6
HETATM    6  C   UNL     1      -9.828  11.286  66.164  1.00  0.00    -0.225 C  
BRANCH   6   7
HETATM    7  O   UNL     1      -9.727  11.057  67.582  1.00  0.00    -0.166 OA 
BRANCH   7   8
HETATM    8  C   UNL     1     -10.516  10.049  68.051  1.00  0.00    -0.218 C  
HETATM    9  O   UNL     1     -11.542  10.234  68.689  1.00  0.00    -0.173 OA 
BRANCH   8  10
HETATM   10  C   UNL     1     -10.043   8.706  67.559  1.00  0.00    -0.277 C  
BRANCH  10  11
HETATM   11  C   UNL     1      -9.285   7.932  68.621  1.00  0.00    -0.142 C  
BRANCH  11  12
HETATM   12  C   UNL     1     -10.164   6.968  69.373  1.00  0.00    -0.189 C  
HETATM   13  O   UNL     1     -11.350   6.779  69.136  1.00  0.00    -0.211 OA 
BRANCH  12  14
HETATM   14  O   UNL     1      -9.513   6.423  70.437  1.00  0.00    -0.161 OA 
BRANCH  14  15
HETATM   15  C   UNL     1     -10.175   5.288  71.028  1.00  0.00    -0.229 C  
BRANCH  15  16
HETATM   16  C   UNL     1      -9.318   4.550  72.072  1.00  0.00    -0.139 C  
BRANCH  16  17
HETATM   17  N   UNL     1      -9.729   4.838  73.538  1.00  0.00    -0.134 N  
HETATM   18  C   UNL     1     -10.323   6.233  73.694  1.00  0.00    -0.273 C  
HETATM   19  C   UNL     1      -8.472   4.754  74.411  1.00  0.00    -0.104 C  
HETATM   20  C   UNL     1     -10.721   3.794  74.047  1.00  0.00    -0.216 C  
ENDBRANCH  16  17
ENDBRANCH  15  16
ENDBRANCH  14  15
ENDBRANCH  12  14
ENDBRANCH  11  12
ENDBRANCH  10  11
ENDBRANCH   8  10
ENDBRANCH   7   8
ENDBRANCH   6   7
ENDBRANCH   5   6
ENDBRANCH   2   5
TORSDOF 11
ENDMDL
MODEL      240
REMARK 921   NORMALIZED FREE ENERGY PREDICTED BY IDOCK:   -2.60 KCAL/MOL
REMARK 922        TOTAL FREE ENERGY PREDICTED BY IDOCK:   -5.02 KCAL/MOL
REMARK 923 INTER-LIGAND FREE ENERGY PREDICTED BY IDOCK:   -4.38 KCAL/MOL
REMARK 924 INTRA-LIGAND FREE ENERGY PREDICTED BY IDOCK:   -0.64 KCAL/MOL
REMARK 927      BINDING AFFINITY PREDICTED BY RF-SCORE:    0.00 PKD
ROOT
HETATM    1  C   UNL     1      -6.981   7.628  66.064  1.00  0.00    -0.065 C  
HETATM    2  N   UNL     1      -7.351   6.276  65.440  1.00  0.00    -0.074 N  
HETATM    3  C   UNL     1      -7.885   6.542  64.033  1.00  0.00    -0.108 C  
HETATM    4  C   UNL     1      -6.088   5.427  65.364  1.00  0.00    -0.026 C  
ENDROOT
BRANCH   2   5
HETATM    5  C   UNL     1      -8.430   5.616  66.332  1.00  0.00    -0.121 C  
BRANCH   5   6
HETATM    6  C   UNL     1      -8.622   6.306  67.695  1.00  0.00    -0.114 C  
BRANCH   6   7
HETATM    7  O   UNL     1     -10.003   6.476  68.066  1.00  0.00    -0.127 OA 
BRANCH   7   8
HETATM    8  C   UNL     1     -10.381   7.769  68.268  1.00  0.00    -0.198 C  
HETATM    9  O   UNL     1     -10.566   8.255  69.374  1.00  0.00    -0.224 OA 
BRANCH   8  10
HETATM   10  C   UNL     1     -10.393   8.547  66.977  1.00  0.00    -0.379 C  
BRANCH  10  11
HETATM   11  C   UNL     1     -10.401  10.047  67.203  1.00  0.00    -0.300 C  
BRANCH  11  12
HETATM   12  C   UNL     1     -10.074  10.822  65.954  1.00  0.00    -0.256 C  
HETATM   13  O   UNL     1     -10.521  10.570  64.843  1.00  0.00    -0.301 OA 
BRANCH  12  14
HETATM   14  O   UNL     1      -9.116  11.762  66.184  1.00  0.00    -0.215 OA 
BRANCH  14  15
HETATM   15  C   UNL     1      -9.338  12.569  67.356  1.00  0.00    -0.187 C  
BRANCH  15  16
HETATM   16  C   UNL     1      -9.923  13.958  67.046  1.00  0.00    -0.258 C  
BRANCH  16  17
HETATM   17  N   UNL     1     -11.366  14.162  67.574  1.00  0.00    -0.306 N  
HETATM   18  C   UNL     1     -11.519  15.495  68.297  1.00  0.00    -0.353 C  
HETATM   19  C   UNL     1     -11.672  13.039  68.571  1.00  0.00    -0.342 C  
HETATM   20  C   UNL     1     -12.385  14.069  66.440  1.00  0.00    -0.431 C  
ENDBRANCH  16  17
ENDBRANCH  15  16
ENDBRANCH  14  15
ENDBRANCH  12  14
ENDBRANCH  11  12
ENDBRANCH  10  11
ENDBRANCH   8  10
ENDBRANCH   7   8
ENDBRANCH   6   7
ENDBRANCH   5   6
ENDBRANCH   2   5
TORSDOF 11
ENDMDL
MODEL      241
REMARK 921   NORMALIZED FREE ENERGY PREDICTED BY IDOCK:   -2.55 KCAL/MOL
REMARK 922        TOTAL FREE ENERGY PREDICTED BY IDOCK:   -4.95 KCAL/MOL
REMARK 923 INTER-LIGAND FREE ENERGY PREDICTED BY IDOCK:   -4.37 KCAL/MOL
REMARK 924 INTRA-LIGAND FREE ENERGY PREDICTED BY IDOCK:   -0.58 KCAL/MOL
REMARK 927      BINDING AFFINITY PREDICTED BY RF-SCORE:    0.00 PKD
ROOT
HETATM    1  C   UNL     1      -6.812  15.418  68.468  1.00  0.00    -0.113 C  
HETATM    2  N   UNL     1      -8.211  15.887  68.051  1.00  0.00    -0.147 N  
HETATM    3  C   UNL     1      -9.231  14.997  68.759  1.00  0.00    -0.200 C  
HETATM    4  C   UNL     1      -8.382  17.333  68.502  1.00  0.00    -0.267 C  
ENDROOT
BRANCH   2   5
HETATM    5  C   UNL     1      -8.323  15.751  66.513  1.00  0.00    -0.278 C  
BRANCH   5   6
HETATM    6  C   UNL     1      -9.770  15.637  66.000  1.00  0.00    -0.346 C  
BRANCH   6   7
HETATM    7  O   UNL     1     -10.089  14.341  65.458  1.00  0.00    -0.329 OA 
BRANCH   7   8
HETATM    8  C   UNL     1     -11.382  13.954  65.638  1.00  0.00    -0.309 C  
HETATM    9  O   UNL     1     -12.344  14.629  65.303  1.00  0.00    -0.319 OA 
BRANCH   8  10
HETATM   10  C   UNL     1     -11.466  12.541  66.158  1.00  0.00    -0.426 C  
BRANCH  10  11
HETATM   11  C   UNL     1     -10.100  11.945  66.441  1.00  0.00    -0.241 C  
BRANCH  11  12
HETATM   12  C   UNL     1      -9.899  10.614  65.766  1.00  0.00    -0.241 C  
HETATM   13  O   UNL     1      -9.755  10.460  64.561  1.00  0.00    -0.281 OA 
BRANCH  12  14
HETATM   14  O   UNL     1     -10.026   9.583  66.647  1.00  0.00    -0.212 OA 
BRANCH  14  15
HETATM   15  C   UNL     1      -8.799   9.190  67.291  1.00  0.00    -0.124 C  
BRANCH  15  16
HETATM   16  C   UNL     1      -8.882   7.823  67.993  1.00  0.00    -0.124 C  
BRANCH  16  17
HETATM   17  N   UNL     1      -8.042   7.733  69.293  1.00  0.00    -0.125 N  
HETATM   18  C   UNL     1      -6.770   8.568  69.200  1.00  0.00    -0.047 C  
HETATM   19  C   UNL     1      -7.638   6.269  69.498  1.00  0.00    -0.094 C  
HETATM   20  C   UNL     1      -8.859   8.167  70.508  1.00  0.00    -0.144 C  
ENDBRANCH  16  17
ENDBRANCH  15  16
ENDBRANCH  14  15
ENDBRANCH  12  14
ENDBRANCH  11  12
ENDBRANCH  10  11
ENDBRANCH   8  10
ENDBRANCH   7   8
ENDBRANCH   6   7
ENDBRANCH   5   6
ENDBRANCH   2   5
TORSDOF 11
ENDMDL
MODEL      242
REMARK 921   NORMALIZED FREE ENERGY PREDICTED BY IDOCK:   -2.55 KCAL/MOL
REMARK 922        TOTAL FREE ENERGY PREDICTED BY IDOCK:   -4.95 KCAL/MOL
REMARK 923 INTER-LIGAND FREE ENERGY PREDICTED BY IDOCK:   -4.35 KCAL/MOL
REMARK 924 INTRA-LIGAND FREE ENERGY PREDICTED BY IDOCK:   -0.60 KCAL/MOL
REMARK 927      BINDING AFFINITY PREDICTED BY RF-SCORE:    0.00 PKD
ROOT
HETATM    1  C   UNL     1      -6.878   9.947  67.794  1.00  0.00    -0.080 C  
HETATM    2  N   UNL     1      -6.460  11.419  67.680  1.00  0.00    -0.059 N  
HETATM    3  C   UNL     1      -6.265  11.959  69.096  1.00  0.00    -0.085 C  
HETATM    4  C   UNL     1      -5.142  11.480  66.916  1.00  0.00    -0.105 C  
ENDROOT
BRANCH   2   5
HETATM    5  C   UNL     1      -7.586  12.181  66.940  1.00  0.00    -0.029 C  
BRANCH   5   6
HETATM    6  C   UNL     1      -8.886  11.373  66.780  1.00  0.00    -0.179 C  
BRANCH   6   7
HETATM    7  O   UNL     1      -9.827  11.577  67.850  1.00  0.00    -0.176 OA 
BRANCH   7   8
HETATM    8  C   UNL     1     -10.907  10.746  67.824  1.00  0.00    -0.269 C  
HETATM    9  O   UNL     1     -12.051  11.116  68.038  1.00  0.00    -0.635 OA 
BRANCH   8  10
HETATM   10  C   UNL     1     -10.526   9.365  67.356  1.00  0.00    -0.343 C  
BRANCH  10  11
HETATM   11  C   UNL     1     -10.513   8.352  68.485  1.00  0.00    -0.201 C  
BRANCH  11  12
HETATM   12  C   UNL     1     -10.879   6.966  68.024  1.00  0.00    -0.200 C  
HETATM   13  O   UNL     1     -10.999   6.632  66.853  1.00  0.00    -0.376 OA 
BRANCH  12  14
HETATM   14  O   UNL     1     -11.187   6.155  69.073  1.00  0.00    -0.383 OA 
BRANCH  14  15
HETATM   15  C   UNL     1     -10.596   6.545  70.328  1.00  0.00    -0.228 C  
BRANCH  15  16
HETATM   16  C   UNL     1     -11.271   5.904  71.553  1.00  0.00    -0.225 C  
BRANCH  16  17
HETATM   17  N   UNL     1     -10.287   5.546  72.695  1.00  0.00    -0.190 N  
HETATM   18  C   UNL     1      -9.603   6.785  73.260  1.00  0.00    -0.162 C  
HETATM   19  C   UNL     1      -9.206   4.623  72.120  1.00  0.00    -0.127 C  
HETATM   20  C   UNL     1     -10.997   4.791  73.817  1.00  0.00    -0.300 C  
ENDBRANCH  16  17
ENDBRANCH  15  16
ENDBRANCH  14  15
ENDBRANCH  12  14
ENDBRANCH  11  12
ENDBRANCH  10  11
ENDBRANCH   8  10
ENDBRANCH   7   8
ENDBRANCH   6   7
ENDBRANCH   5   6
ENDBRANCH   2   5
TORSDOF 11
ENDMDL
MODEL      243
REMARK 921   NORMALIZED FREE ENERGY PREDICTED BY IDOCK:   -2.53 KCAL/MOL
REMARK 922        TOTAL FREE ENERGY PREDICTED BY IDOCK:   -4.91 KCAL/MOL
REMARK 923 INTER-LIGAND FREE ENERGY PREDICTED BY IDOCK:   -4.15 KCAL/MOL
REMARK 924 INTRA-LIGAND FREE ENERGY PREDICTED BY IDOCK:   -0.76 KCAL/MOL
REMARK 927      BINDING AFFINITY PREDICTED BY RF-SCORE:    0.00 PKD
ROOT
HETATM    1  C   UNL     1     -11.819  14.047  67.316  1.00  0.00    -0.411 C  
HETATM    2  N   UNL     1     -10.383  14.349  66.870  1.00  0.00    -0.263 N  
HETATM    3  C   UNL     1     -10.054  13.423  65.700  1.00  0.00    -0.274 C  
HETATM    4  C   UNL     1     -10.323  15.802  66.414  1.00  0.00    -0.299 C  
ENDROOT
BRANCH   2   5
HETATM    5  C   UNL     1      -9.443  14.087  68.071  1.00  0.00    -0.206 C  
BRANCH   5   6
HETATM    6  C   UNL     1      -8.528  12.861  67.894  1.00  0.00    -0.181 C  
BRANCH   6   7
HETATM    7  O   UNL     1      -8.768  11.818  68.857  1.00  0.00    -0.030 OA 
BRANCH   7   8
HETATM    8  C   UNL     1      -8.648  10.553  68.365  1.00  0.00    -0.132 C  
HETATM    9  O   UNL     1      -8.515  10.299  67.177  1.00  0.00    -0.125 OA 
BRANCH   8  10
HETATM   10  C   UNL     1      -8.553   9.538  69.475  1.00  0.00    -0.171 C  
BRANCH  10  11
HETATM   11  C   UNL     1      -9.880   9.323  70.179  1.00  0.00    -0.250 C  
BRANCH  11  12
HETATM   12  C   UNL     1     -10.521   8.010  69.817  1.00  0.00    -0.227 C  
HETATM   13  O   UNL     1     -10.168   7.297  68.887  1.00  0.00    -0.182 OA 
BRANCH  12  14
HETATM   14  O   UNL     1     -11.629   7.769  70.570  1.00  0.00    -0.253 OA 
BRANCH  14  15
HETATM   15  C   UNL     1     -11.545   6.599  71.405  1.00  0.00    -0.313 C  
BRANCH  15  16
HETATM   16  C   UNL     1     -10.878   6.859  72.767  1.00  0.00    -0.272 C  
BRANCH  16  17
HETATM   17  N   UNL     1      -9.571   6.056  72.989  1.00  0.00    -0.153 N  
HETATM   18  C   UNL     1      -8.339   6.867  72.608  1.00  0.00    -0.109 C  
HETATM   19  C   UNL     1      -9.620   4.811  72.095  1.00  0.00    -0.153 C  
HETATM   20  C   UNL     1      -9.454   5.586  74.438  1.00  0.00    -0.145 C  
ENDBRANCH  16  17
ENDBRANCH  15  16
ENDBRANCH  14  15
ENDBRANCH  12  14
ENDBRANCH  11  12
ENDBRANCH  10  11
ENDBRANCH   8  10
ENDBRANCH   7   8
ENDBRANCH   6   7
ENDBRANCH   5   6
ENDBRANCH   2   5
TORSDOF 11
ENDMDL
MODEL      244
REMARK 921   NORMALIZED FREE ENERGY PREDICTED BY IDOCK:   -2.52 KCAL/MOL
REMARK 922        TOTAL FREE ENERGY PREDICTED BY IDOCK:   -4.89 KCAL/MOL
REMARK 923 INTER-LIGAND FREE ENERGY PREDICTED BY IDOCK:   -4.33 KCAL/MOL
REMARK 924 INTRA-LIGAND FREE ENERGY PREDICTED BY IDOCK:   -0.56 KCAL/MOL
REMARK 927      BINDING AFFINITY PREDICTED BY RF-SCORE:    0.00 PKD
ROOT
HETATM    1  C   UNL     1     -12.804  13.663  65.065  1.00  0.00    -0.272 C  
HETATM    2  N   UNL     1     -11.530  13.077  65.687  1.00  0.00    -0.321 N  
HETATM    3  C   UNL     1     -10.400  14.083  65.470  1.00  0.00    -0.339 C  
HETATM    4  C   UNL     1     -11.774  12.885  67.179  1.00  0.00    -0.377 C  
ENDROOT
BRANCH   2   5
HETATM    5  C   UNL     1     -11.225  11.734  64.980  1.00  0.00    -0.257 C  
BRANCH   5   6
HETATM    6  C   UNL     1      -9.758  11.283  65.100  1.00  0.00    -0.244 C  
BRANCH   6   7
HETATM    7  O   UNL     1      -9.408  10.806  66.412  1.00  0.00    -0.167 OA 
BRANCH   7   8
HETATM    8  C   UNL     1      -9.853   9.550  66.697  1.00  0.00    -0.231 C  
HETATM    9  O   UNL     1     -10.848   9.321  67.369  1.00  0.00    -0.255 OA 
BRANCH   8  10
HETATM   10  C   UNL     1      -9.056   8.504  65.961  1.00  0.00    -0.246 C  
BRANCH  10  11
HETATM   11  C   UNL     1      -7.930   7.934  66.802  1.00  0.00    -0.107 C  
BRANCH  11  12
HETATM   12  C   UNL     1      -8.410   6.912  67.798  1.00  0.00    -0.120 C  
HETATM   13  O   UNL     1      -9.259   6.061  67.566  1.00  0.00    -0.114 OA 
BRANCH  12  14
HETATM   14  O   UNL     1      -7.880   7.129  69.033  1.00  0.00    -0.110 OA 
BRANCH  14  15
HETATM   15  C   UNL     1      -8.517   6.396  70.097  1.00  0.00    -0.135 C  
BRANCH  15  16
HETATM   16  C   UNL     1      -8.751   7.233  71.367  1.00  0.00    -0.126 C  
BRANCH  16  17
HETATM   17  N   UNL     1      -9.864   6.674  72.290  1.00  0.00    -0.154 N  
HETATM   18  C   UNL     1     -10.815   5.755  71.534  1.00  0.00    -0.253 C  
HETATM   19  C   UNL     1     -10.672   7.858  72.833  1.00  0.00    -0.375 C  
HETATM   20  C   UNL     1      -9.267   5.931  73.484  1.00  0.00    -0.131 C  
ENDBRANCH  16  17
ENDBRANCH  15  16
ENDBRANCH  14  15
ENDBRANCH  12  14
ENDBRANCH  11  12
ENDBRANCH  10  11
ENDBRANCH   8  10
ENDBRANCH   7   8
ENDBRANCH   6   7
ENDBRANCH   5   6
ENDBRANCH   2   5
TORSDOF 11
ENDMDL
MODEL      245
REMARK 921   NORMALIZED FREE ENERGY PREDICTED BY IDOCK:   -2.52 KCAL/MOL
REMARK 922        TOTAL FREE ENERGY PREDICTED BY IDOCK:   -4.89 KCAL/MOL
REMARK 923 INTER-LIGAND FREE ENERGY PREDICTED BY IDOCK:   -4.37 KCAL/MOL
REMARK 924 INTRA-LIGAND FREE ENERGY PREDICTED BY IDOCK:   -0.52 KCAL/MOL
REMARK 927      BINDING AFFINITY PREDICTED BY RF-SCORE:    0.00 PKD
ROOT
HETATM    1  C   UNL     1     -13.203  13.343  72.536  1.00  0.00    -0.413 C  
HETATM    2  N   UNL     1     -13.002  14.569  71.636  1.00  0.00    -0.319 N  
HETATM    3  C   UNL     1     -14.231  15.465  71.788  1.00  0.00    -0.527 C  
HETATM    4  C   UNL     1     -11.758  15.310  72.112  1.00  0.00    -0.448 C  
ENDROOT
BRANCH   2   5
HETATM    5  C   UNL     1     -12.850  14.073  70.177  1.00  0.00    -0.024 C  
BRANCH   5   6
HETATM    6  C   UNL     1     -11.669  13.108  69.966  1.00  0.00    -0.221 C  
BRANCH   6   7
HETATM    7  O   UNL     1     -12.040  11.878  69.316  1.00  0.00    -0.282 OA 
BRANCH   7   8
HETATM    8  C   UNL     1     -12.168  10.810  70.152  1.00  0.00    -0.346 C  
HETATM    9  O   UNL     1     -13.238  10.425  70.601  1.00  0.00    -0.350 OA 
BRANCH   8  10
HETATM   10  C   UNL     1     -10.856  10.089  70.328  1.00  0.00    -0.370 C  
BRANCH  10  11
HETATM   11  C   UNL     1     -10.687   8.943  69.347  1.00  0.00    -0.192 C  
BRANCH  11  12
HETATM   12  C   UNL     1      -9.347   8.269  69.470  1.00  0.00    -0.158 C  
HETATM   13  O   UNL     1      -8.856   7.537  68.621  1.00  0.00    -0.128 OA 
BRANCH  12  14
HETATM   14  O   UNL     1      -8.798   8.468  70.700  1.00  0.00    -0.137 OA 
BRANCH  14  15
HETATM   15  C   UNL     1      -8.633   7.271  71.484  1.00  0.00    -0.118 C  
BRANCH  15  16
HETATM   16  C   UNL     1      -7.168   6.817  71.615  1.00  0.00    -0.080 C  
BRANCH  16  17
HETATM   17  N   UNL     1      -7.007   5.322  71.990  1.00  0.00    -0.075 N  
HETATM   18  C   UNL     1      -5.625   4.795  71.622  1.00  0.00    -0.008 C  
HETATM   19  C   UNL     1      -8.050   4.519  71.203  1.00  0.00    -0.086 C  
HETATM   20  C   UNL     1      -7.268   5.095  73.477  1.00  0.00    -0.083 C  
ENDBRANCH  16  17
ENDBRANCH  15  16
ENDBRANCH  14  15
ENDBRANCH  12  14
ENDBRANCH  11  12
ENDBRANCH  10  11
ENDBRANCH   8  10
ENDBRANCH   7   8
ENDBRANCH   6   7
ENDBRANCH   5   6
ENDBRANCH   2   5
TORSDOF 11
ENDMDL
MODEL      246
REMARK 921   NORMALIZED FREE ENERGY PREDICTED BY IDOCK:   -2.51 KCAL/MOL
REMARK 922        TOTAL FREE ENERGY PREDICTED BY IDOCK:   -4.87 KCAL/MOL
REMARK 923 INTER-LIGAND FREE ENERGY PREDICTED BY IDOCK:   -4.06 KCAL/MOL
REMARK 924 INTRA-LIGAND FREE ENERGY PREDICTED BY IDOCK:   -0.81 KCAL/MOL
REMARK 927      BINDING AFFINITY PREDICTED BY RF-SCORE:    0.00 PKD
ROOT
HETATM    1  C   UNL     1      -9.516   3.626  66.696  1.00  0.00    -0.176 C  
HETATM    2  N   UNL     1      -8.811   4.929  67.094  1.00  0.00    -0.107 N  
HETATM    3  C   UNL     1      -9.639   5.591  68.194  1.00  0.00    -0.119 C  
HETATM    4  C   UNL     1      -7.427   4.577  67.627  1.00  0.00    -0.074 C  
ENDROOT
BRANCH   2   5
HETATM    5  C   UNL     1      -8.728   5.831  65.838  1.00  0.00    -0.149 C  
BRANCH   5   6
HETATM    6  C   UNL     1      -7.988   7.161  66.072  1.00  0.00    -0.112 C  
BRANCH   6   7
HETATM    7  O   UNL     1      -8.747   8.319  65.679  1.00  0.00    -0.160 OA 
BRANCH   7   8
HETATM    8  C   UNL     1      -9.449   8.907  66.689  1.00  0.00    -0.202 C  
HETATM    9  O   UNL     1     -10.669   8.903  66.756  1.00  0.00    -0.198 OA 
BRANCH   8  10
HETATM   10  C   UNL     1      -8.533   9.423  67.768  1.00  0.00    -0.116 C  
BRANCH  10  11
HETATM   11  C   UNL     1      -8.097  10.855  67.524  1.00  0.00    -0.116 C  
BRANCH  11  12
HETATM   12  C   UNL     1      -9.004  11.857  68.188  1.00  0.00    -0.185 C  
HETATM   13  O   UNL     1     -10.063  11.581  68.736  1.00  0.00    -0.213 OA 
BRANCH  12  14
HETATM   14  O   UNL     1      -8.567  13.132  67.995  1.00  0.00    -0.164 OA 
BRANCH  14  15
HETATM   15  C   UNL     1      -9.573  14.045  67.516  1.00  0.00    -0.228 C  
BRANCH  15  16
HETATM   16  C   UNL     1      -9.958  13.822  66.044  1.00  0.00    -0.306 C  
BRANCH  16  17
HETATM   17  N   UNL     1     -11.487  13.807  65.790  1.00  0.00    -0.312 N  
HETATM   18  C   UNL     1     -11.984  12.416  65.416  1.00  0.00    -0.398 C  
HETATM   19  C   UNL     1     -11.785  14.752  64.620  1.00  0.00    -0.422 C  
HETATM   20  C   UNL     1     -12.252  14.319  67.009  1.00  0.00    -0.303 C  
ENDBRANCH  16  17
ENDBRANCH  15  16
ENDBRANCH  14  15
ENDBRANCH  12  14
ENDBRANCH  11  12
ENDBRANCH  10  11
ENDBRANCH   8  10
ENDBRANCH   7   8
ENDBRANCH   6   7
ENDBRANCH   5   6
ENDBRANCH   2   5
TORSDOF 11
ENDMDL
MODEL      247
REMARK 921   NORMALIZED FREE ENERGY PREDICTED BY IDOCK:   -2.51 KCAL/MOL
REMARK 922        TOTAL FREE ENERGY PREDICTED BY IDOCK:   -4.87 KCAL/MOL
REMARK 923 INTER-LIGAND FREE ENERGY PREDICTED BY IDOCK:   -4.18 KCAL/MOL
REMARK 924 INTRA-LIGAND FREE ENERGY PREDICTED BY IDOCK:   -0.69 KCAL/MOL
REMARK 927      BINDING AFFINITY PREDICTED BY RF-SCORE:    0.00 PKD
ROOT
HETATM    1  C   UNL     1     -11.747  12.259  66.796  1.00  0.00    -0.342 C  
HETATM    2  N   UNL     1     -11.494  13.765  66.658  1.00  0.00    -0.331 N  
HETATM    3  C   UNL     1     -12.171  14.236  65.372  1.00  0.00    -0.405 C  
HETATM    4  C   UNL     1     -12.119  14.464  67.859  1.00  0.00    -0.245 C  
ENDROOT
BRANCH   2   5
HETATM    5  C   UNL     1      -9.963  13.990  66.598  1.00  0.00    -0.278 C  
BRANCH   5   6
HETATM    6  C   UNL     1      -9.148  12.950  67.389  1.00  0.00    -0.197 C  
BRANCH   6   7
HETATM    7  O   UNL     1      -7.729  13.196  67.371  1.00  0.00    -0.161 OA 
BRANCH   7   8
HETATM    8  C   UNL     1      -7.006  12.409  68.216  1.00  0.00    -0.091 C  
HETATM    9  O   UNL     1      -7.001  11.188  68.166  1.00  0.00    -0.066 OA 
BRANCH   8  10
HETATM   10  C   UNL     1      -6.114  13.234  69.108  1.00  0.00    -0.094 C  
BRANCH  10  11
HETATM   11  C   UNL     1      -6.899  14.165  70.014  1.00  0.00     0.072 C  
BRANCH  11  12
HETATM   12  C   UNL     1      -6.853  15.597  69.551  1.00  0.00    -0.189 C  
HETATM   13  O   UNL     1      -5.946  16.379  69.800  1.00  0.00    -0.182 OA 
BRANCH  12  14
HETATM   14  O   UNL     1      -8.009  15.958  68.928  1.00  0.00    -0.174 OA 
BRANCH  14  15
HETATM   15  C   UNL     1      -8.104  17.359  68.606  1.00  0.00    -0.264 C  
BRANCH  15  16
HETATM   16  C   UNL     1      -7.945  17.658  67.105  1.00  0.00    -0.211 C  
BRANCH  16  17
HETATM   17  N   UNL     1      -7.350  19.057  66.803  1.00  0.00    -0.208 N  
HETATM   18  C   UNL     1      -6.476  19.556  67.947  1.00  0.00    -0.221 C  
HETATM   19  C   UNL     1      -8.512  20.040  66.625  1.00  0.00    -0.317 C  
HETATM   20  C   UNL     1      -6.546  19.044  65.505  1.00  0.00    -0.274 C  
ENDBRANCH  16  17
ENDBRANCH  15  16
ENDBRANCH  14  15
ENDBRANCH  12  14
ENDBRANCH  11  12
ENDBRANCH  10  11
ENDBRANCH   8  10
ENDBRANCH   7   8
ENDBRANCH   6   7
ENDBRANCH   5   6
ENDBRANCH   2   5
TORSDOF 11
ENDMDL
MODEL      248
REMARK 921   NORMALIZED FREE ENERGY PREDICTED BY IDOCK:   -2.50 KCAL/MOL
REMARK 922        TOTAL FREE ENERGY PREDICTED BY IDOCK:   -4.87 KCAL/MOL
REMARK 923 INTER-LIGAND FREE ENERGY PREDICTED BY IDOCK:   -4.68 KCAL/MOL
REMARK 924 INTRA-LIGAND FREE ENERGY PREDICTED BY IDOCK:   -0.18 KCAL/MOL
REMARK 927      BINDING AFFINITY PREDICTED BY RF-SCORE:    0.00 PKD
ROOT
HETATM    1  C   UNL     1      -8.216   7.920  71.211  1.00  0.00    -0.101 C  
HETATM    2  N   UNL     1      -8.291   8.885  70.021  1.00  0.00    -0.123 N  
HETATM    3  C   UNL     1      -7.287  10.010  70.270  1.00  0.00    -0.141 C  
HETATM    4  C   UNL     1      -7.906   8.117  68.762  1.00  0.00    -0.113 C  
ENDROOT
BRANCH   2   5
HETATM    5  C   UNL     1      -9.736   9.433  69.938  1.00  0.00    -0.212 C  
BRANCH   5   6
HETATM    6  C   UNL     1     -10.429   9.166  68.590  1.00  0.00    -0.207 C  
BRANCH   6   7
HETATM    7  O   UNL     1     -10.479  10.319  67.729  1.00  0.00    -0.193 OA 
BRANCH   7   8
HETATM    8  C   UNL     1     -10.092  10.085  66.444  1.00  0.00    -0.241 C  
HETATM    9  O   UNL     1      -9.949   8.966  65.973  1.00  0.00    -0.270 OA 
BRANCH   8  10
HETATM   10  C   UNL     1     -10.010  11.364  65.652  1.00  0.00    -0.282 C  
BRANCH  10  11
HETATM   11  C   UNL     1     -11.378  11.930  65.321  1.00  0.00    -0.333 C  
BRANCH  11  12
HETATM   12  C   UNL     1     -11.584  13.312  65.883  1.00  0.00    -0.347 C  
HETATM   13  O   UNL     1     -12.606  13.971  65.751  1.00  0.00    -0.491 OA 
BRANCH  12  14
HETATM   14  O   UNL     1     -10.444  13.796  66.450  1.00  0.00    -0.277 OA 
BRANCH  14  15
HETATM   15  C   UNL     1     -10.314  13.528  67.859  1.00  0.00    -0.249 C  
BRANCH  15  16
HETATM   16  C   UNL     1     -11.588  13.835  68.666  1.00  0.00    -0.334 C  
BRANCH  16  17
HETATM   17  N   UNL     1     -11.573  15.222  69.357  1.00  0.00    -0.309 N  
HETATM   18  C   UNL     1     -10.257  15.476  70.082  1.00  0.00    -0.214 C  
HETATM   19  C   UNL     1     -12.703  15.249  70.393  1.00  0.00    -0.356 C  
HETATM   20  C   UNL     1     -11.835  16.341  68.352  1.00  0.00     0.111 C  
ENDBRANCH  16  17
ENDBRANCH  15  16
ENDBRANCH  14  15
ENDBRANCH  12  14
ENDBRANCH  11  12
ENDBRANCH  10  11
ENDBRANCH   8  10
ENDBRANCH   7   8
ENDBRANCH   6   7
ENDBRANCH   5   6
ENDBRANCH   2   5
TORSDOF 11
ENDMDL
MODEL      249
REMARK 921   NORMALIZED FREE ENERGY PREDICTED BY IDOCK:   -2.50 KCAL/MOL
REMARK 922        TOTAL FREE ENERGY PREDICTED BY IDOCK:   -4.86 KCAL/MOL
REMARK 923 INTER-LIGAND FREE ENERGY PREDICTED BY IDOCK:   -4.06 KCAL/MOL
REMARK 924 INTRA-LIGAND FREE ENERGY PREDICTED BY IDOCK:   -0.81 KCAL/MOL
REMARK 927      BINDING AFFINITY PREDICTED BY RF-SCORE:    0.00 PKD
ROOT
HETATM    1  C   UNL     1      -9.753  11.504  68.192  1.00  0.00    -0.192 C  
HETATM    2  N   UNL     1      -9.256  10.433  67.212  1.00  0.00    -0.142 N  
HETATM    3  C   UNL     1      -9.041  11.106  65.857  1.00  0.00    -0.203 C  
HETATM    4  C   UNL     1      -7.933   9.887  67.735  1.00  0.00    -0.105 C  
ENDROOT
BRANCH   2   5
HETATM    5  C   UNL     1     -10.337   9.329  67.123  1.00  0.00    -0.260 C  
BRANCH   5   6
HETATM    6  C   UNL     1      -9.839   8.019  66.484  1.00  0.00    -0.219 C  
BRANCH   6   7
HETATM    7  O   UNL     1     -10.548   6.851  66.939  1.00  0.00    -0.288 OA 
BRANCH   7   8
HETATM    8  C   UNL     1      -9.904   5.672  66.711  1.00  0.00    -0.164 C  
HETATM    9  O   UNL     1      -9.140   5.488  65.775  1.00  0.00    -0.158 OA 
BRANCH   8  10
HETATM   10  C   UNL     1     -10.137   4.692  67.832  1.00  0.00    -0.085 C  
BRANCH  10  11
HETATM   11  C   UNL     1      -8.876   4.404  68.624  1.00  0.00    -0.135 C  
BRANCH  11  12
HETATM   12  C   UNL     1      -8.892   5.038  69.990  1.00  0.00    -0.102 C  
HETATM   13  O   UNL     1      -7.959   5.010  70.781  1.00  0.00    -0.083 OA 
BRANCH  12  14
HETATM   14  O   UNL     1     -10.121   5.538  70.294  1.00  0.00    -0.200 OA 
BRANCH  14  15
HETATM   15  C   UNL     1     -10.107   6.864  70.857  1.00  0.00    -0.194 C  
BRANCH  15  16
HETATM   16  C   UNL     1     -11.295   7.735  70.413  1.00  0.00    -0.207 C  
BRANCH  16  17
HETATM   17  N   UNL     1     -12.085   8.364  71.589  1.00  0.00    -0.297 N  
HETATM   18  C   UNL     1     -13.540   7.910  71.597  1.00  0.00    -0.345 C  
HETATM   19  C   UNL     1     -12.060   9.888  71.419  1.00  0.00    -0.413 C  
HETATM   20  C   UNL     1     -11.433   8.033  72.930  1.00  0.00    -0.264 C  
ENDBRANCH  16  17
ENDBRANCH  15  16
ENDBRANCH  14  15
ENDBRANCH  12  14
ENDBRANCH  11  12
ENDBRANCH  10  11
ENDBRANCH   8  10
ENDBRANCH   7   8
ENDBRANCH   6   7
ENDBRANCH   5   6
ENDBRANCH   2   5
TORSDOF 11
ENDMDL
MODEL      250
REMARK 921   NORMALIZED FREE ENERGY PREDICTED BY IDOCK:   -2.48 KCAL/MOL
REMARK 922        TOTAL FREE ENERGY PREDICTED BY IDOCK:   -4.84 KCAL/MOL
REMARK 923 INTER-LIGAND FREE ENERGY PREDICTED BY IDOCK:   -4.25 KCAL/MOL
REMARK 924 INTRA-LIGAND FREE ENERGY PREDICTED BY IDOCK:   -0.59 KCAL/MOL
REMARK 927      BINDING AFFINITY PREDICTED BY RF-SCORE:    0.00 PKD
ROOT
HETATM    1  C   UNL     1      -9.406   2.609  68.637  1.00  0.00    -0.181 C  
HETATM    2  N   UNL     1      -9.242   4.129  68.502  1.00  0.00    -0.134 N  
HETATM    3  C   UNL     1      -9.917   4.779  69.709  1.00  0.00    -0.238 C  
HETATM    4  C   UNL     1      -7.752   4.448  68.506  1.00  0.00    -0.074 C  
ENDROOT
BRANCH   2   5
HETATM    5  C   UNL     1      -9.918   4.568  67.181  1.00  0.00    -0.159 C  
BRANCH   5   6
HETATM    6  C   UNL     1      -9.152   5.667  66.423  1.00  0.00    -0.147 C  
BRANCH   6   7
HETATM    7  O   UNL     1      -9.780   6.961  66.493  1.00  0.00    -0.175 OA 
BRANCH   7   8
HETATM    8  C   UNL     1      -9.249   7.800  67.426  1.00  0.00    -0.136 C  
HETATM    9  O   UNL     1      -8.050   8.002  67.550  1.00  0.00    -0.120 OA 
BRANCH   8  10
HETATM   10  C   UNL     1     -10.325   8.546  68.171  1.00  0.00    -0.258 C  
BRANCH  10  11
HETATM   11  C   UNL     1      -9.951   9.992  68.439  1.00  0.00    -0.178 C  
BRANCH  11  12
HETATM   12  C   UNL     1     -11.017  10.735  69.198  1.00  0.00    -0.244 C  
HETATM   13  O   UNL     1     -11.536  10.342  70.234  1.00  0.00    -0.271 OA 
BRANCH  12  14
HETATM   14  O   UNL     1     -11.432  11.843  68.522  1.00  0.00    -0.244 OA 
BRANCH  14  15
HETATM   15  C   UNL     1     -11.762  12.968  69.359  1.00  0.00    -0.326 C  
BRANCH  15  16
HETATM   16  C   UNL     1     -11.755  14.314  68.614  1.00  0.00    -0.345 C  
BRANCH  16  17
HETATM   17  N   UNL     1     -10.722  15.330  69.164  1.00  0.00    -0.239 N  
HETATM   18  C   UNL     1      -9.293  14.914  68.838  1.00  0.00    -0.197 C  
HETATM   19  C   UNL     1     -10.869  15.380  70.689  1.00  0.00    -0.284 C  
HETATM   20  C   UNL     1     -10.989  16.733  68.624  1.00  0.00    -0.298 C  
ENDBRANCH  16  17
ENDBRANCH  15  16
ENDBRANCH  14  15
ENDBRANCH  12  14
ENDBRANCH  11  12
ENDBRANCH  10  11
ENDBRANCH   8  10
ENDBRANCH   7   8
ENDBRANCH   6   7
ENDBRANCH   5   6
ENDBRANCH   2   5
TORSDOF 11
ENDMDL
MODEL      251
REMARK 921   NORMALIZED FREE ENERGY PREDICTED BY IDOCK:   -2.47 KCAL/MOL
REMARK 922        TOTAL FREE ENERGY PREDICTED BY IDOCK:   -4.82 KCAL/MOL
REMARK 923 INTER-LIGAND FREE ENERGY PREDICTED BY IDOCK:   -3.96 KCAL/MOL
REMARK 924 INTRA-LIGAND FREE ENERGY PREDICTED BY IDOCK:   -0.86 KCAL/MOL
REMARK 927      BINDING AFFINITY PREDICTED BY RF-SCORE:    0.00 PKD
ROOT
HETATM    1  C   UNL     1     -11.014   8.054  72.823  1.00  0.00    -0.382 C  
HETATM    2  N   UNL     1     -11.958   8.382  71.659  1.00  0.00    -0.290 N  
HETATM    3  C   UNL     1     -13.188   9.079  72.239  1.00  0.00    -0.460 C  
HETATM    4  C   UNL     1     -11.229   9.323  70.707  1.00  0.00    -0.288 C  
ENDROOT
BRANCH   2   5
HETATM    5  C   UNL     1     -12.343   7.053  70.966  1.00  0.00    -0.356 C  
BRANCH   5   6
HETATM    6  C   UNL     1     -11.211   6.010  70.941  1.00  0.00    -0.265 C  
BRANCH   6   7
HETATM    7  O   UNL     1     -10.458   6.005  69.714  1.00  0.00    -0.206 OA 
BRANCH   7   8
HETATM    8  C   UNL     1      -9.111   6.130  69.873  1.00  0.00    -0.143 C  
HETATM    9  O   UNL     1      -8.572   6.324  70.953  1.00  0.00    -0.133 OA 
BRANCH   8  10
HETATM   10  C   UNL     1      -8.376   5.852  68.587  1.00  0.00    -0.109 C  
BRANCH  10  11
HETATM   11  C   UNL     1      -7.658   7.077  68.052  1.00  0.00    -0.111 C  
BRANCH  11  12
HETATM   12  C   UNL     1      -8.597   8.064  67.412  1.00  0.00    -0.125 C  
HETATM   13  O   UNL     1      -9.036   9.065  67.963  1.00  0.00    -0.132 OA 
BRANCH  12  14
HETATM   14  O   UNL     1      -9.005   7.642  66.184  1.00  0.00    -0.166 OA 
BRANCH  14  15
HETATM   15  C   UNL     1      -7.940   7.428  65.238  1.00  0.00    -0.127 C  
BRANCH  15  16
HETATM   16  C   UNL     1      -7.154   8.706  64.896  1.00  0.00    -0.080 C  
BRANCH  16  17
HETATM   17  N   UNL     1      -7.668   9.439  63.630  1.00  0.00    -0.117 N  
HETATM   18  C   UNL     1      -6.536  10.128  62.879  1.00  0.00    -0.134 C  
HETATM   19  C   UNL     1      -8.670  10.511  64.076  1.00  0.00    -0.169 C  
HETATM   20  C   UNL     1      -8.399   8.477  62.696  1.00  0.00    -0.167 C  
ENDBRANCH  16  17
ENDBRANCH  15  16
ENDBRANCH  14  15
ENDBRANCH  12  14
ENDBRANCH  11  12
ENDBRANCH  10  11
ENDBRANCH   8  10
ENDBRANCH   7   8
ENDBRANCH   6   7
ENDBRANCH   5   6
ENDBRANCH   2   5
TORSDOF 11
ENDMDL
MODEL      252
REMARK 921   NORMALIZED FREE ENERGY PREDICTED BY IDOCK:   -2.47 KCAL/MOL
REMARK 922        TOTAL FREE ENERGY PREDICTED BY IDOCK:   -4.81 KCAL/MOL
REMARK 923 INTER-LIGAND FREE ENERGY PREDICTED BY IDOCK:   -4.07 KCAL/MOL
REMARK 924 INTRA-LIGAND FREE ENERGY PREDICTED BY IDOCK:   -0.74 KCAL/MOL
REMARK 927      BINDING AFFINITY PREDICTED BY RF-SCORE:    0.00 PKD
ROOT
HETATM    1  C   UNL     1     -11.650  14.601  67.312  1.00  0.00    -0.387 C  
HETATM    2  N   UNL     1     -11.503  13.846  65.984  1.00  0.00    -0.331 N  
HETATM    3  C   UNL     1     -12.857  13.880  65.277  1.00  0.00    -0.398 C  
HETATM    4  C   UNL     1     -10.459  14.568  65.141  1.00  0.00    -0.416 C  
ENDROOT
BRANCH   2   5
HETATM    5  C   UNL     1     -11.075  12.394  66.304  1.00  0.00    -0.303 C  
BRANCH   5   6
HETATM    6  C   UNL     1      -9.584  12.245  66.658  1.00  0.00    -0.223 C  
BRANCH   6   7
HETATM    7  O   UNL     1      -9.339  12.081  68.067  1.00  0.00    -0.182 OA 
BRANCH   7   8
HETATM    8  C   UNL     1      -9.596  10.832  68.547  1.00  0.00    -0.183 C  
HETATM    9  O   UNL     1     -10.384  10.603  69.452  1.00  0.00    -0.218 OA 
BRANCH   8  10
HETATM   10  C   UNL     1      -8.902   9.775  67.726  1.00  0.00    -0.129 C  
BRANCH  10  11
HETATM   11  C   UNL     1      -8.076   8.829  68.577  1.00  0.00    -0.116 C  
BRANCH  11  12
HETATM   12  C   UNL     1      -8.669   7.447  68.650  1.00  0.00    -0.128 C  
HETATM   13  O   UNL     1      -9.811   7.199  69.014  1.00  0.00    -0.152 OA 
BRANCH  12  14
HETATM   14  O   UNL     1      -7.739   6.489  68.384  1.00  0.00    -0.101 OA 
BRANCH  14  15
HETATM   15  C   UNL     1      -7.245   6.491  67.031  1.00  0.00    -0.078 C  
BRANCH  15  16
HETATM   16  C   UNL     1      -8.342   6.274  65.974  1.00  0.00    -0.138 C  
BRANCH  16  17
HETATM   17  N   UNL     1      -8.659   4.782  65.697  1.00  0.00    -0.124 N  
HETATM   18  C   UNL     1      -8.921   4.526  64.218  1.00  0.00    -0.150 C  
HETATM   19  C   UNL     1      -9.926   4.412  66.478  1.00  0.00    -0.223 C  
HETATM   20  C   UNL     1      -7.529   3.879  66.186  1.00  0.00    -0.087 C  
ENDBRANCH  16  17
ENDBRANCH  15  16
ENDBRANCH  14  15
ENDBRANCH  12  14
ENDBRANCH  11  12
ENDBRANCH  10  11
ENDBRANCH   8  10
ENDBRANCH   7   8
ENDBRANCH   6   7
ENDBRANCH   5   6
ENDBRANCH   2   5
TORSDOF 11
ENDMDL
MODEL      253
REMARK 921   NORMALIZED FREE ENERGY PREDICTED BY IDOCK:   -2.47 KCAL/MOL
REMARK 922        TOTAL FREE ENERGY PREDICTED BY IDOCK:   -4.81 KCAL/MOL
REMARK 923 INTER-LIGAND FREE ENERGY PREDICTED BY IDOCK:   -4.85 KCAL/MOL
REMARK 924 INTRA-LIGAND FREE ENERGY PREDICTED BY IDOCK:    0.05 KCAL/MOL
REMARK 927      BINDING AFFINITY PREDICTED BY RF-SCORE:    0.00 PKD
ROOT
HETATM    1  C   UNL     1     -11.386  14.531  69.471  1.00  0.00    -0.275 C  
HETATM    2  N   UNL     1     -10.781  15.193  68.227  1.00  0.00    -0.245 N  
HETATM    3  C   UNL     1     -10.788  16.704  68.452  1.00  0.00    -0.361 C  
HETATM    4  C   UNL     1      -9.347  14.698  68.076  1.00  0.00    -0.198 C  
ENDROOT
BRANCH   2   5
HETATM    5  C   UNL     1     -11.651  14.805  67.007  1.00  0.00    -0.339 C  
BRANCH   5   6
HETATM    6  C   UNL     1     -12.140  13.346  67.026  1.00  0.00    -0.339 C  
BRANCH   6   7
HETATM    7  O   UNL     1     -11.966  12.663  65.770  1.00  0.00    -0.423 OA 
BRANCH   7   8
HETATM    8  C   UNL     1     -10.702  12.715  65.266  1.00  0.00    -0.289 C  
HETATM    9  O   UNL     1     -10.347  13.508  64.407  1.00  0.00    -0.433 OA 
BRANCH   8  10
HETATM   10  C   UNL     1      -9.777  11.781  66.004  1.00  0.00    -0.254 C  
BRANCH  10  11
HETATM   11  C   UNL     1     -10.525  10.812  66.901  1.00  0.00    -0.304 C  
BRANCH  11  12
HETATM   12  C   UNL     1     -10.038  10.849  68.326  1.00  0.00    -0.174 C  
HETATM   13  O   UNL     1      -8.965  11.318  68.682  1.00  0.00    -0.168 OA 
BRANCH  12  14
HETATM   14  O   UNL     1     -10.881  10.179  69.159  1.00  0.00    -0.207 OA 
BRANCH  14  15
HETATM   15  C   UNL     1     -10.359   8.938  69.671  1.00  0.00    -0.212 C  
BRANCH  15  16
HETATM   16  C   UNL     1      -9.800   8.008  68.580  1.00  0.00    -0.174 C  
BRANCH  16  17
HETATM   17  N   UNL     1      -8.397   7.435  68.903  1.00  0.00    -0.128 N  
HETATM   18  C   UNL     1      -8.203   6.047  68.304  1.00  0.00    -0.110 C  
HETATM   19  C   UNL     1      -8.268   7.321  70.426  1.00  0.00    -0.125 C  
HETATM   20  C   UNL     1      -7.294   8.370  68.410  1.00  0.00    -0.094 C  
ENDBRANCH  16  17
ENDBRANCH  15  16
ENDBRANCH  14  15
ENDBRANCH  12  14
ENDBRANCH  11  12
ENDBRANCH  10  11
ENDBRANCH   8  10
ENDBRANCH   7   8
ENDBRANCH   6   7
ENDBRANCH   5   6
ENDBRANCH   2   5
TORSDOF 11
ENDMDL
MODEL      254
REMARK 921   NORMALIZED FREE ENERGY PREDICTED BY IDOCK:   -2.46 KCAL/MOL
REMARK 922        TOTAL FREE ENERGY PREDICTED BY IDOCK:   -4.79 KCAL/MOL
REMARK 923 INTER-LIGAND FREE ENERGY PREDICTED BY IDOCK:   -3.81 KCAL/MOL
REMARK 924 INTRA-LIGAND FREE ENERGY PREDICTED BY IDOCK:   -0.99 KCAL/MOL
REMARK 927      BINDING AFFINITY PREDICTED BY RF-SCORE:    0.00 PKD
ROOT
HETATM    1  C   UNL     1      -8.913   2.643  65.466  1.00  0.00    -0.135 C  
HETATM    2  N   UNL     1      -8.090   3.570  64.562  1.00  0.00    -0.086 N  
HETATM    3  C   UNL     1      -6.788   2.848  64.216  1.00  0.00    -0.036 C  
HETATM    4  C   UNL     1      -8.892   3.829  63.292  1.00  0.00    -0.100 C  
ENDROOT
BRANCH   2   5
HETATM    5  C   UNL     1      -7.814   4.878  65.341  1.00  0.00    -0.091 C  
BRANCH   5   6
HETATM    6  C   UNL     1      -8.687   5.053  66.597  1.00  0.00    -0.108 C  
BRANCH   6   7
HETATM    7  O   UNL     1      -8.879   6.428  66.979  1.00  0.00    -0.113 OA 
BRANCH   7   8
HETATM    8  C   UNL     1      -7.960   6.905  67.864  1.00  0.00    -0.114 C  
HETATM    9  O   UNL     1      -7.464   8.020  67.791  1.00  0.00    -0.090 OA 
BRANCH   8  10
HETATM   10  C   UNL     1      -7.752   5.949  69.010  1.00  0.00    -0.091 C  
BRANCH  10  11
HETATM   11  C   UNL     1      -8.671   6.239  70.183  1.00  0.00    -0.138 C  
BRANCH  11  12
HETATM   12  C   UNL     1      -9.717   5.173  70.376  1.00  0.00    -0.202 C  
HETATM   13  O   UNL     1      -9.593   4.202  71.110  1.00  0.00    -0.154 OA 
BRANCH  12  14
HETATM   14  O   UNL     1     -10.772   5.350  69.534  1.00  0.00    -0.295 OA 
BRANCH  14  15
HETATM   15  C   UNL     1     -11.375   6.657  69.594  1.00  0.00    -0.329 C  
BRANCH  15  16
HETATM   16  C   UNL     1     -12.254   6.874  70.838  1.00  0.00    -0.353 C  
BRANCH  16  17
HETATM   17  N   UNL     1     -11.885   8.139  71.653  1.00  0.00    -0.278 N  
HETATM   18  C   UNL     1     -13.126   8.910  72.090  1.00  0.00    -0.421 C  
HETATM   19  C   UNL     1     -11.044   9.055  70.756  1.00  0.00    -0.272 C  
HETATM   20  C   UNL     1     -11.042   7.781  72.875  1.00  0.00    -0.398 C  
ENDBRANCH  16  17
ENDBRANCH  15  16
ENDBRANCH  14  15
ENDBRANCH  12  14
ENDBRANCH  11  12
ENDBRANCH  10  11
ENDBRANCH   8  10
ENDBRANCH   7   8
ENDBRANCH   6   7
ENDBRANCH   5   6
ENDBRANCH   2   5
TORSDOF 11
ENDMDL
MODEL      255
REMARK 921   NORMALIZED FREE ENERGY PREDICTED BY IDOCK:   -2.46 KCAL/MOL
REMARK 922        TOTAL FREE ENERGY PREDICTED BY IDOCK:   -4.79 KCAL/MOL
REMARK 923 INTER-LIGAND FREE ENERGY PREDICTED BY IDOCK:   -4.34 KCAL/MOL
REMARK 924 INTRA-LIGAND FREE ENERGY PREDICTED BY IDOCK:   -0.45 KCAL/MOL
REMARK 927      BINDING AFFINITY PREDICTED BY RF-SCORE:    0.00 PKD
ROOT
HETATM    1  C   UNL     1      -9.372   1.798  64.326  1.00  0.00    -0.128 C  
HETATM    2  N   UNL     1     -10.025   2.790  63.355  1.00  0.00    -0.123 N  
HETATM    3  C   UNL     1      -8.968   3.205  62.333  1.00  0.00    -0.084 C  
HETATM    4  C   UNL     1     -11.175   2.079  62.652  1.00  0.00    -0.234 C  
ENDROOT
BRANCH   2   5
HETATM    5  C   UNL     1     -10.520   4.007  64.173  1.00  0.00    -0.175 C  
BRANCH   5   6
HETATM    6  C   UNL     1      -9.970   4.059  65.610  1.00  0.00    -0.156 C  
BRANCH   6   7
HETATM    7  O   UNL     1     -10.753   4.879  66.497  1.00  0.00    -0.253 OA 
BRANCH   7   8
HETATM    8  C   UNL     1     -10.031   5.773  67.230  1.00  0.00    -0.154 C  
HETATM    9  O   UNL     1      -8.858   6.035  67.012  1.00  0.00    -0.113 OA 
BRANCH   8  10
HETATM   10  C   UNL     1     -10.898   6.492  68.231  1.00  0.00    -0.359 C  
BRANCH  10  11
HETATM   11  C   UNL     1     -10.816   5.880  69.616  1.00  0.00    -0.444 C  
BRANCH  11  12
HETATM   12  C   UNL     1     -10.757   6.919  70.705  1.00  0.00    -0.236 C  
HETATM   13  O   UNL     1     -10.383   6.705  71.850  1.00  0.00    -0.198 OA 
BRANCH  12  14
HETATM   14  O   UNL     1     -11.295   8.101  70.297  1.00  0.00    -0.236 OA 
BRANCH  14  15
HETATM   15  C   UNL     1     -10.449   9.249  70.505  1.00  0.00    -0.255 C  
BRANCH  15  16
HETATM   16  C   UNL     1     -11.058  10.565  69.990  1.00  0.00    -0.308 C  
BRANCH  16  17
HETATM   17  N   UNL     1     -10.367  11.121  68.719  1.00  0.00    -0.199 N  
HETATM   18  C   UNL     1     -10.769  12.565  68.445  1.00  0.00    -0.240 C  
HETATM   19  C   UNL     1     -10.808  10.266  67.525  1.00  0.00    -0.298 C  
HETATM   20  C   UNL     1      -8.847  11.018  68.830  1.00  0.00    -0.147 C  
ENDBRANCH  16  17
ENDBRANCH  15  16
ENDBRANCH  14  15
ENDBRANCH  12  14
ENDBRANCH  11  12
ENDBRANCH  10  11
ENDBRANCH   8  10
ENDBRANCH   7   8
ENDBRANCH   6   7
ENDBRANCH   5   6
ENDBRANCH   2   5
TORSDOF 11
ENDMDL
MODEL      256
REMARK 921   NORMALIZED FREE ENERGY PREDICTED BY IDOCK:   -2.44 KCAL/MOL
REMARK 922        TOTAL FREE ENERGY PREDICTED BY IDOCK:   -4.77 KCAL/MOL
REMARK 923 INTER-LIGAND FREE ENERGY PREDICTED BY IDOCK:   -4.38 KCAL/MOL
REMARK 924 INTRA-LIGAND FREE ENERGY PREDICTED BY IDOCK:   -0.38 KCAL/MOL
REMARK 927      BINDING AFFINITY PREDICTED BY RF-SCORE:    0.00 PKD
ROOT
HETATM    1  C   UNL     1     -10.617   7.811  72.900  1.00  0.00    -0.366 C  
HETATM    2  N   UNL     1     -11.522   8.540  71.898  1.00  0.00    -0.311 N  
HETATM    3  C   UNL     1     -12.026   7.508  70.890  1.00  0.00    -0.251 C  
HETATM    4  C   UNL     1     -12.698   9.134  72.664  1.00  0.00    -0.184 C  
ENDROOT
BRANCH   2   5
HETATM    5  C   UNL     1     -10.680   9.636  71.202  1.00  0.00    -0.294 C  
BRANCH   5   6
HETATM    6  C   UNL     1      -9.527   9.087  70.342  1.00  0.00    -0.210 C  
BRANCH   6   7
HETATM    7  O   UNL     1      -9.127   9.973  69.280  1.00  0.00    -0.174 OA 
BRANCH   7   8
HETATM    8  C   UNL     1      -9.566   9.609  68.043  1.00  0.00    -0.143 C  
HETATM    9  O   UNL     1     -10.748   9.507  67.747  1.00  0.00    -0.261 OA 
BRANCH   8  10
HETATM   10  C   UNL     1      -8.425   9.498  67.064  1.00  0.00    -0.128 C  
BRANCH  10  11
HETATM   11  C   UNL     1      -7.808  10.845  66.737  1.00  0.00    -0.141 C  
BRANCH  11  12
HETATM   12  C   UNL     1      -8.835  11.939  66.621  1.00  0.00    -0.191 C  
HETATM   13  O   UNL     1      -9.673  12.016  65.732  1.00  0.00    -0.240 OA 
BRANCH  12  14
HETATM   14  O   UNL     1      -8.639  12.910  67.555  1.00  0.00    -0.166 OA 
BRANCH  14  15
HETATM   15  C   UNL     1      -8.495  14.240  67.018  1.00  0.00    -0.166 C  
BRANCH  15  16
HETATM   16  C   UNL     1      -8.688  15.351  68.065  1.00  0.00    -0.160 C  
BRANCH  16  17
HETATM   17  N   UNL     1      -9.185  16.693  67.469  1.00  0.00    -0.206 N  
HETATM   18  C   UNL     1     -10.552  17.082  68.019  1.00  0.00    -0.373 C  
HETATM   19  C   UNL     1      -9.310  16.523  65.951  1.00  0.00    -0.191 C  
HETATM   20  C   UNL     1      -8.184  17.816  67.732  1.00  0.00    -0.227 C  
ENDBRANCH  16  17
ENDBRANCH  15  16
ENDBRANCH  14  15
ENDBRANCH  12  14
ENDBRANCH  11  12
ENDBRANCH  10  11
ENDBRANCH   8  10
ENDBRANCH   7   8
ENDBRANCH   6   7
ENDBRANCH   5   6
ENDBRANCH   2   5
TORSDOF 11
ENDMDL
MODEL      257
REMARK 921   NORMALIZED FREE ENERGY PREDICTED BY IDOCK:   -2.44 KCAL/MOL
REMARK 922        TOTAL FREE ENERGY PREDICTED BY IDOCK:   -4.76 KCAL/MOL
REMARK 923 INTER-LIGAND FREE ENERGY PREDICTED BY IDOCK:   -3.85 KCAL/MOL
REMARK 924 INTRA-LIGAND FREE ENERGY PREDICTED BY IDOCK:   -0.92 KCAL/MOL
REMARK 927      BINDING AFFINITY PREDICTED BY RF-SCORE:    0.00 PKD
ROOT
HETATM    1  C   UNL     1     -11.093   8.150  72.699  1.00  0.00    -0.380 C  
HETATM    2  N   UNL     1     -12.171   8.423  71.642  1.00  0.00    -0.301 N  
HETATM    3  C   UNL     1     -12.310   7.166  70.784  1.00  0.00    -0.229 C  
HETATM    4  C   UNL     1     -13.483   8.706  72.364  1.00  0.00    -0.340 C  
ENDROOT
BRANCH   2   5
HETATM    5  C   UNL     1     -11.713   9.633  70.792  1.00  0.00    -0.314 C  
BRANCH   5   6
HETATM    6  C   UNL     1     -10.253   9.542  70.312  1.00  0.00    -0.260 C  
BRANCH   6   7
HETATM    7  O   UNL     1     -10.125   9.178  68.924  1.00  0.00    -0.185 OA 
BRANCH   7   8
HETATM    8  C   UNL     1      -9.973  10.230  68.073  1.00  0.00    -0.153 C  
HETATM    9  O   UNL     1      -9.476  11.298  68.399  1.00  0.00    -0.179 OA 
BRANCH   8  10
HETATM   10  C   UNL     1     -10.355   9.858  66.663  1.00  0.00    -0.275 C  
BRANCH  10  11
HETATM   11  C   UNL     1      -9.463   8.774  66.088  1.00  0.00    -0.315 C  
BRANCH  11  12
HETATM   12  C   UNL     1      -7.999   9.066  66.281  1.00  0.00    -0.103 C  
HETATM   13  O   UNL     1      -7.407  10.015  65.784  1.00  0.00    -0.105 OA 
BRANCH  12  14
HETATM   14  O   UNL     1      -7.377   8.071  66.972  1.00  0.00    -0.087 OA 
BRANCH  14  15
HETATM   15  C   UNL     1      -7.907   6.753  66.734  1.00  0.00    -0.107 C  
BRANCH  15  16
HETATM   16  C   UNL     1      -7.432   5.704  67.754  1.00  0.00    -0.077 C  
BRANCH  16  17
HETATM   17  N   UNL     1      -8.562   5.155  68.662  1.00  0.00    -0.087 N  
HETATM   18  C   UNL     1      -8.255   3.747  69.156  1.00  0.00    -0.060 C  
HETATM   19  C   UNL     1      -9.853   5.102  67.836  1.00  0.00    -0.155 C  
HETATM   20  C   UNL     1      -8.808   6.079  69.853  1.00  0.00    -0.138 C  
ENDBRANCH  16  17
ENDBRANCH  15  16
ENDBRANCH  14  15
ENDBRANCH  12  14
ENDBRANCH  11  12
ENDBRANCH  10  11
ENDBRANCH   8  10
ENDBRANCH   7   8
ENDBRANCH   6   7
ENDBRANCH   5   6
ENDBRANCH   2   5
TORSDOF 11
ENDMDL
MODEL      258
REMARK 921   NORMALIZED FREE ENERGY PREDICTED BY IDOCK:   -2.44 KCAL/MOL
REMARK 922        TOTAL FREE ENERGY PREDICTED BY IDOCK:   -4.76 KCAL/MOL
REMARK 923 INTER-LIGAND FREE ENERGY PREDICTED BY IDOCK:   -4.17 KCAL/MOL
REMARK 924 INTRA-LIGAND FREE ENERGY PREDICTED BY IDOCK:   -0.59 KCAL/MOL
REMARK 927      BINDING AFFINITY PREDICTED BY RF-SCORE:    0.00 PKD
ROOT
HETATM    1  C   UNL     1     -10.440   3.921  64.404  1.00  0.00    -0.224 C  
HETATM    2  N   UNL     1      -9.471   4.203  65.559  1.00  0.00    -0.163 N  
HETATM    3  C   UNL     1      -8.705   2.914  65.850  1.00  0.00    -0.129 C  
HETATM    4  C   UNL     1      -8.503   5.292  65.112  1.00  0.00    -0.149 C  
ENDROOT
BRANCH   2   5
HETATM    5  C   UNL     1     -10.304   4.647  66.786  1.00  0.00    -0.125 C  
BRANCH   5   6
HETATM    6  C   UNL     1     -10.803   6.101  66.709  1.00  0.00    -0.285 C  
BRANCH   6   7
HETATM    7  O   UNL     1     -10.644   6.831  67.940  1.00  0.00    -0.196 OA 
BRANCH   7   8
HETATM    8  C   UNL     1      -9.450   7.475  68.067  1.00  0.00    -0.142 C  
HETATM    9  O   UNL     1      -8.580   7.140  68.858  1.00  0.00    -0.128 OA 
BRANCH   8  10
HETATM   10  C   UNL     1      -9.287   8.544  67.017  1.00  0.00    -0.204 C  
BRANCH  10  11
HETATM   11  C   UNL     1      -9.980   9.840  67.396  1.00  0.00    -0.239 C  
BRANCH  11  12
HETATM   12  C   UNL     1      -9.021  10.880  67.910  1.00  0.00    -0.141 C  
HETATM   13  O   UNL     1      -7.815  10.715  68.033  1.00  0.00    -0.102 OA 
BRANCH  12  14
HETATM   14  O   UNL     1      -9.676  11.991  68.347  1.00  0.00    -0.208 OA 
BRANCH  14  15
HETATM   15  C   UNL     1      -9.340  13.202  67.643  1.00  0.00    -0.205 C  
BRANCH  15  16
HETATM   16  C   UNL     1      -9.701  14.484  68.414  1.00  0.00    -0.224 C  
BRANCH  16  17
HETATM   17  N   UNL     1     -10.843  15.306  67.765  1.00  0.00    -0.287 N  
HETATM   18  C   UNL     1     -10.318  16.251  66.691  1.00  0.00    -0.302 C  
HETATM   19  C   UNL     1     -11.505  16.150  68.861  1.00  0.00    -0.331 C  
HETATM   20  C   UNL     1     -11.912  14.390  67.171  1.00  0.00    -0.389 C  
ENDBRANCH  16  17
ENDBRANCH  15  16
ENDBRANCH  14  15
ENDBRANCH  12  14
ENDBRANCH  11  12
ENDBRANCH  10  11
ENDBRANCH   8  10
ENDBRANCH   7   8
ENDBRANCH   6   7
ENDBRANCH   5   6
ENDBRANCH   2   5
TORSDOF 11
ENDMDL
MODEL      259
REMARK 921   NORMALIZED FREE ENERGY PREDICTED BY IDOCK:   -2.43 KCAL/MOL
REMARK 922        TOTAL FREE ENERGY PREDICTED BY IDOCK:   -4.74 KCAL/MOL
REMARK 923 INTER-LIGAND FREE ENERGY PREDICTED BY IDOCK:   -4.31 KCAL/MOL
REMARK 924 INTRA-LIGAND FREE ENERGY PREDICTED BY IDOCK:   -0.43 KCAL/MOL
REMARK 927      BINDING AFFINITY PREDICTED BY RF-SCORE:    0.00 PKD
ROOT
HETATM    1  C   UNL     1      -8.370   8.989  66.647  1.00  0.00    -0.118 C  
HETATM    2  N   UNL     1      -8.414   9.826  67.932  1.00  0.00    -0.124 N  
HETATM    3  C   UNL     1      -7.974   8.929  69.088  1.00  0.00    -0.105 C  
HETATM    4  C   UNL     1      -7.438  10.986  67.776  1.00  0.00    -0.094 C  
ENDROOT
BRANCH   2   5
HETATM    5  C   UNL     1      -9.866  10.323  68.131  1.00  0.00    -0.148 C  
BRANCH   5   6
HETATM    6  C   UNL     1     -10.613  10.612  66.816  1.00  0.00    -0.237 C  
BRANCH   6   7
HETATM    7  O   UNL     1     -10.675  12.012  66.485  1.00  0.00    -0.240 OA 
BRANCH   7   8
HETATM    8  C   UNL     1     -11.236  12.799  67.445  1.00  0.00    -0.294 C  
HETATM    9  O   UNL     1     -12.086  12.405  68.230  1.00  0.00    -0.313 OA 
BRANCH   8  10
HETATM   10  C   UNL     1     -10.573  14.151  67.507  1.00  0.00    -0.257 C  
BRANCH  10  11
HETATM   11  C   UNL     1      -9.174  14.138  66.920  1.00  0.00    -0.270 C  
BRANCH  11  12
HETATM   12  C   UNL     1      -8.146  14.703  67.864  1.00  0.00    -0.145 C  
HETATM   13  O   UNL     1      -7.857  14.216  68.949  1.00  0.00    -0.135 OA 
BRANCH  12  14
HETATM   14  O   UNL     1      -7.663  15.897  67.422  1.00  0.00    -0.144 OA 
BRANCH  14  15
HETATM   15  C   UNL     1      -8.461  17.039  67.789  1.00  0.00    -0.198 C  
BRANCH  15  16
HETATM   16  C   UNL     1      -8.892  17.901  66.590  1.00  0.00    -0.268 C  
BRANCH  16  17
HETATM   17  N   UNL     1      -8.777  19.426  66.840  1.00  0.00    -0.290 N  
HETATM   18  C   UNL     1     -10.141  20.106  66.819  1.00  0.00    -0.457 C  
HETATM   19  C   UNL     1      -7.925  20.029  65.716  1.00  0.00    -0.158 C  
HETATM   20  C   UNL     1      -8.074  19.715  68.164  1.00  0.00    -0.318 C  
ENDBRANCH  16  17
ENDBRANCH  15  16
ENDBRANCH  14  15
ENDBRANCH  12  14
ENDBRANCH  11  12
ENDBRANCH  10  11
ENDBRANCH   8  10
ENDBRANCH   7   8
ENDBRANCH   6   7
ENDBRANCH   5   6
ENDBRANCH   2   5
TORSDOF 11
ENDMDL
MODEL      260
REMARK 921   NORMALIZED FREE ENERGY PREDICTED BY IDOCK:   -2.43 KCAL/MOL
REMARK 922        TOTAL FREE ENERGY PREDICTED BY IDOCK:   -4.74 KCAL/MOL
REMARK 923 INTER-LIGAND FREE ENERGY PREDICTED BY IDOCK:   -3.99 KCAL/MOL
REMARK 924 INTRA-LIGAND FREE ENERGY PREDICTED BY IDOCK:   -0.75 KCAL/MOL
REMARK 927      BINDING AFFINITY PREDICTED BY RF-SCORE:    0.00 PKD
ROOT
HETATM    1  C   UNL     1     -10.166  13.957  66.413  1.00  0.00    -0.292 C  
HETATM    2  N   UNL     1     -10.105  13.574  67.898  1.00  0.00    -0.242 N  
HETATM    3  C   UNL     1     -10.113  14.866  68.713  1.00  0.00    -0.241 C  
HETATM    4  C   UNL     1     -11.342  12.746  68.226  1.00  0.00    -0.296 C  
ENDROOT
BRANCH   2   5
HETATM    5  C   UNL     1      -8.802  12.773  68.132  1.00  0.00    -0.194 C  
BRANCH   5   6
HETATM    6  C   UNL     1      -8.209  12.155  66.853  1.00  0.00    -0.134 C  
BRANCH   6   7
HETATM    7  O   UNL     1      -8.154  10.717  66.879  1.00  0.00    -0.118 OA 
BRANCH   7   8
HETATM    8  C   UNL     1      -8.361  10.119  65.672  1.00  0.00    -0.152 C  
HETATM    9  O   UNL     1      -7.664  10.319  64.689  1.00  0.00    -0.149 OA 
BRANCH   8  10
HETATM   10  C   UNL     1      -9.453   9.084  65.751  1.00  0.00    -0.305 C  
BRANCH  10  11
HETATM   11  C   UNL     1     -10.531   9.452  66.753  1.00  0.00    -0.265 C  
BRANCH  11  12
HETATM   12  C   UNL     1     -10.564   8.522  67.936  1.00  0.00    -0.156 C  
HETATM   13  O   UNL     1     -10.546   7.300  67.861  1.00  0.00    -0.211 OA 
BRANCH  12  14
HETATM   14  O   UNL     1     -10.748   9.201  69.102  1.00  0.00    -0.225 OA 
BRANCH  14  15
HETATM   15  C   UNL     1     -10.710   8.383  70.287  1.00  0.00    -0.234 C  
BRANCH  15  16
HETATM   16  C   UNL     1      -9.682   8.854  71.330  1.00  0.00    -0.289 C  
BRANCH  16  17
HETATM   17  N   UNL     1      -8.590   7.803  71.653  1.00  0.00    -0.114 N  
HETATM   18  C   UNL     1      -8.698   7.302  73.089  1.00  0.00    -0.136 C  
HETATM   19  C   UNL     1      -7.220   8.470  71.481  1.00  0.00    -0.095 C  
HETATM   20  C   UNL     1      -8.658   6.622  70.687  1.00  0.00    -0.142 C  
ENDBRANCH  16  17
ENDBRANCH  15  16
ENDBRANCH  14  15
ENDBRANCH  12  14
ENDBRANCH  11  12
ENDBRANCH  10  11
ENDBRANCH   8  10
ENDBRANCH   7   8
ENDBRANCH   6   7
ENDBRANCH   5   6
ENDBRANCH   2   5
TORSDOF 11
ENDMDL
MODEL      261
REMARK 921   NORMALIZED FREE ENERGY PREDICTED BY IDOCK:   -2.41 KCAL/MOL
REMARK 922        TOTAL FREE ENERGY PREDICTED BY IDOCK:   -4.72 KCAL/MOL
REMARK 923 INTER-LIGAND FREE ENERGY PREDICTED BY IDOCK:   -4.44 KCAL/MOL
REMARK 924 INTRA-LIGAND FREE ENERGY PREDICTED BY IDOCK:   -0.28 KCAL/MOL
REMARK 927      BINDING AFFINITY PREDICTED BY RF-SCORE:    0.00 PKD
ROOT
HETATM    1  C   UNL     1      -7.431   5.477  68.184  1.00  0.00    -0.073 C  
HETATM    2  N   UNL     1      -8.667   4.887  67.493  1.00  0.00    -0.104 N  
HETATM    3  C   UNL     1      -8.452   4.992  65.984  1.00  0.00    -0.116 C  
HETATM    4  C   UNL     1      -8.786   3.423  67.899  1.00  0.00    -0.123 C  
ENDROOT
BRANCH   2   5
HETATM    5  C   UNL     1      -9.902   5.707  67.939  1.00  0.00    -0.133 C  
BRANCH   5   6
HETATM    6  C   UNL     1      -9.572   7.144  68.382  1.00  0.00    -0.137 C  
BRANCH   6   7
HETATM    7  O   UNL     1     -10.392   8.144  67.750  1.00  0.00    -0.214 OA 
BRANCH   7   8
HETATM    8  C   UNL     1      -9.853   9.396  67.738  1.00  0.00    -0.170 C  
HETATM    9  O   UNL     1      -8.799   9.684  68.286  1.00  0.00    -0.120 OA 
BRANCH   8  10
HETATM   10  C   UNL     1     -10.639  10.325  66.850  1.00  0.00    -0.282 C  
BRANCH  10  11
HETATM   11  C   UNL     1      -9.969  10.550  65.507  1.00  0.00    -0.342 C  
BRANCH  11  12
HETATM   12  C   UNL     1     -10.465  11.791  64.814  1.00  0.00    -0.293 C  
HETATM   13  O   UNL     1     -10.879  11.826  63.663  1.00  0.00    -0.369 OA 
BRANCH  12  14
HETATM   14  O   UNL     1     -10.276  12.901  65.580  1.00  0.00    -0.284 OA 
BRANCH  14  15
HETATM   15  C   UNL     1     -11.391  13.813  65.599  1.00  0.00    -0.305 C  
BRANCH  15  16
HETATM   16  C   UNL     1     -10.983  15.280  65.824  1.00  0.00    -0.338 C  
BRANCH  16  17
HETATM   17  N   UNL     1     -10.433  15.567  67.244  1.00  0.00    -0.273 N  
HETATM   18  C   UNL     1      -8.927  15.348  67.321  1.00  0.00    -0.198 C  
HETATM   19  C   UNL     1     -11.108  14.597  68.221  1.00  0.00    -0.271 C  
HETATM   20  C   UNL     1     -10.772  16.988  67.689  1.00  0.00    -0.295 C  
ENDBRANCH  16  17
ENDBRANCH  15  16
ENDBRANCH  14  15
ENDBRANCH  12  14
ENDBRANCH  11  12
ENDBRANCH  10  11
ENDBRANCH   8  10
ENDBRANCH   7   8
ENDBRANCH   6   7
ENDBRANCH   5   6
ENDBRANCH   2   5
TORSDOF 11
ENDMDL
MODEL      262
REMARK 921   NORMALIZED FREE ENERGY PREDICTED BY IDOCK:   -2.40 KCAL/MOL
REMARK 922        TOTAL FREE ENERGY PREDICTED BY IDOCK:   -4.70 KCAL/MOL
REMARK 923 INTER-LIGAND FREE ENERGY PREDICTED BY IDOCK:   -4.55 KCAL/MOL
REMARK 924 INTRA-LIGAND FREE ENERGY PREDICTED BY IDOCK:   -0.15 KCAL/MOL
REMARK 927      BINDING AFFINITY PREDICTED BY RF-SCORE:    0.00 PKD
ROOT
HETATM    1  C   UNL     1     -12.140  14.029  66.046  1.00  0.00    -0.439 C  
HETATM    2  N   UNL     1     -11.124  12.887  66.176  1.00  0.00    -0.280 N  
HETATM    3  C   UNL     1     -11.091  12.138  64.845  1.00  0.00    -0.319 C  
HETATM    4  C   UNL     1      -9.757  13.498  66.461  1.00  0.00    -0.283 C  
ENDROOT
BRANCH   2   5
HETATM    5  C   UNL     1     -11.588  11.962  67.327  1.00  0.00    -0.293 C  
BRANCH   5   6
HETATM    6  C   UNL     1     -10.886  12.235  68.670  1.00  0.00    -0.236 C  
BRANCH   6   7
HETATM    7  O   UNL     1     -11.708  11.951  69.818  1.00  0.00    -0.308 OA 
BRANCH   7   8
HETATM    8  C   UNL     1     -11.688  10.650  70.223  1.00  0.00    -0.344 C  
HETATM    9  O   UNL     1     -12.679  10.043  70.600  1.00  0.00    -0.282 OA 
BRANCH   8  10
HETATM   10  C   UNL     1     -10.332  10.027  70.005  1.00  0.00    -0.323 C  
BRANCH  10  11
HETATM   11  C   UNL     1     -10.039   8.915  70.994  1.00  0.00    -0.324 C  
BRANCH  11  12
HETATM   12  C   UNL     1      -9.107   7.873  70.434  1.00  0.00    -0.154 C  
HETATM   13  O   UNL     1      -7.891   7.990  70.371  1.00  0.00    -0.087 OA 
BRANCH  12  14
HETATM   14  O   UNL     1      -9.793   6.834  69.884  1.00  0.00    -0.164 OA 
BRANCH  14  15
HETATM   15  C   UNL     1     -10.276   5.863  70.833  1.00  0.00    -0.213 C  
BRANCH  15  16
HETATM   16  C   UNL     1      -9.162   5.223  71.679  1.00  0.00    -0.146 C  
BRANCH  16  17
HETATM   17  N   UNL     1      -8.332   4.156  70.920  1.00  0.00    -0.077 N  
HETATM   18  C   UNL     1      -7.426   4.789  69.870  1.00  0.00    -0.055 C  
HETATM   19  C   UNL     1      -9.308   3.214  70.204  1.00  0.00    -0.168 C  
HETATM   20  C   UNL     1      -7.498   3.318  71.886  1.00  0.00    -0.052 C  
ENDBRANCH  16  17
ENDBRANCH  15  16
ENDBRANCH  14  15
ENDBRANCH  12  14
ENDBRANCH  11  12
ENDBRANCH  10  11
ENDBRANCH   8  10
ENDBRANCH   7   8
ENDBRANCH   6   7
ENDBRANCH   5   6
ENDBRANCH   2   5
TORSDOF 11
ENDMDL
MODEL      263
REMARK 921   NORMALIZED FREE ENERGY PREDICTED BY IDOCK:   -2.40 KCAL/MOL
REMARK 922        TOTAL FREE ENERGY PREDICTED BY IDOCK:   -4.69 KCAL/MOL
REMARK 923 INTER-LIGAND FREE ENERGY PREDICTED BY IDOCK:   -4.00 KCAL/MOL
REMARK 924 INTRA-LIGAND FREE ENERGY PREDICTED BY IDOCK:   -0.69 KCAL/MOL
REMARK 927      BINDING AFFINITY PREDICTED BY RF-SCORE:    0.00 PKD
ROOT
HETATM    1  C   UNL     1     -10.552   8.009  72.787  1.00  0.00    -0.351 C  
HETATM    2  N   UNL     1     -11.610   8.360  71.733  1.00  0.00    -0.287 N  
HETATM    3  C   UNL     1     -11.769   7.151  70.812  1.00  0.00    -0.323 C  
HETATM    4  C   UNL     1     -12.924   8.639  72.453  1.00  0.00    -0.351 C  
ENDROOT
BRANCH   2   5
HETATM    5  C   UNL     1     -11.113   9.598  70.950  1.00  0.00    -0.352 C  
BRANCH   5   6
HETATM    6  C   UNL     1      -9.641   9.509  70.507  1.00  0.00    -0.251 C  
BRANCH   6   7
HETATM    7  O   UNL     1      -9.477   9.222  69.106  1.00  0.00    -0.152 OA 
BRANCH   7   8
HETATM    8  C   UNL     1      -9.286  10.319  68.321  1.00  0.00    -0.139 C  
HETATM    9  O   UNL     1      -8.371  11.114  68.481  1.00  0.00    -0.141 OA 
BRANCH   8  10
HETATM   10  C   UNL     1     -10.246  10.340  67.159  1.00  0.00    -0.277 C  
BRANCH  10  11
HETATM   11  C   UNL     1     -10.129   9.103  66.288  1.00  0.00    -0.319 C  
BRANCH  11  12
HETATM   12  C   UNL     1      -8.798   9.009  65.592  1.00  0.00    -0.185 C  
HETATM   13  O   UNL     1      -8.414   9.775  64.718  1.00  0.00    -0.142 OA 
BRANCH  12  14
HETATM   14  O   UNL     1      -8.119   7.888  65.961  1.00  0.00    -0.101 OA 
BRANCH  14  15
HETATM   15  C   UNL     1      -7.697   7.053  64.865  1.00  0.00    -0.114 C  
BRANCH  15  16
HETATM   16  C   UNL     1      -7.237   5.651  65.300  1.00  0.00    -0.067 C  
BRANCH  16  17
HETATM   17  N   UNL     1      -8.179   4.510  64.838  1.00  0.00    -0.103 N  
HETATM   18  C   UNL     1      -7.435   3.189  64.691  1.00  0.00    -0.075 C  
HETATM   19  C   UNL     1      -8.752   4.892  63.468  1.00  0.00    -0.107 C  
HETATM   20  C   UNL     1      -9.351   4.340  65.802  1.00  0.00    -0.164 C  
ENDBRANCH  16  17
ENDBRANCH  15  16
ENDBRANCH  14  15
ENDBRANCH  12  14
ENDBRANCH  11  12
ENDBRANCH  10  11
ENDBRANCH   8  10
ENDBRANCH   7   8
ENDBRANCH   6   7
ENDBRANCH   5   6
ENDBRANCH   2   5
TORSDOF 11
ENDMDL
MODEL      264
REMARK 921   NORMALIZED FREE ENERGY PREDICTED BY IDOCK:   -2.38 KCAL/MOL
REMARK 922        TOTAL FREE ENERGY PREDICTED BY IDOCK:   -4.67 KCAL/MOL
REMARK 923 INTER-LIGAND FREE ENERGY PREDICTED BY IDOCK:   -3.99 KCAL/MOL
REMARK 924 INTRA-LIGAND FREE ENERGY PREDICTED BY IDOCK:   -0.68 KCAL/MOL
REMARK 927      BINDING AFFINITY PREDICTED BY RF-SCORE:    0.00 PKD
ROOT
HETATM    1  C   UNL     1      -7.471  10.896  68.949  1.00  0.00    -0.116 C  
HETATM    2  N   UNL     1      -7.384   9.373  69.111  1.00  0.00    -0.070 N  
HETATM    3  C   UNL     1      -5.939   8.958  68.836  1.00  0.00    -0.044 C  
HETATM    4  C   UNL     1      -7.760   9.025  70.546  1.00  0.00    -0.119 C  
ENDROOT
BRANCH   2   5
HETATM    5  C   UNL     1      -8.354   8.727  68.092  1.00  0.00    -0.122 C  
BRANCH   5   6
HETATM    6  C   UNL     1      -7.687   8.319  66.766  1.00  0.00    -0.094 C  
BRANCH   6   7
HETATM    7  O   UNL     1      -7.655   9.376  65.788  1.00  0.00    -0.097 OA 
BRANCH   7   8
HETATM    8  C   UNL     1      -8.529   9.219  64.755  1.00  0.00    -0.175 C  
HETATM    9  O   UNL     1      -8.420   8.351  63.902  1.00  0.00    -0.107 OA 
BRANCH   8  10
HETATM   10  C   UNL     1      -9.709  10.147  64.887  1.00  0.00    -0.392 C  
BRANCH  10  11
HETATM   11  C   UNL     1      -9.298  11.558  65.268  1.00  0.00    -0.155 C  
BRANCH  11  12
HETATM   12  C   UNL     1     -10.111  12.608  64.558  1.00  0.00    -0.246 C  
HETATM   13  O   UNL     1     -10.200  12.715  63.342  1.00  0.00    -0.370 OA 
BRANCH  12  14
HETATM   14  O   UNL     1     -10.634  13.510  65.433  1.00  0.00    -0.288 OA 
BRANCH  14  15
HETATM   15  C   UNL     1      -9.800  14.658  65.684  1.00  0.00    -0.321 C  
BRANCH  15  16
HETATM   16  C   UNL     1      -9.043  14.589  67.021  1.00  0.00    -0.239 C  
BRANCH  16  17
HETATM   17  N   UNL     1      -9.812  15.216  68.211  1.00  0.00    -0.219 N  
HETATM   18  C   UNL     1      -8.864  15.829  69.235  1.00  0.00    -0.262 C  
HETATM   19  C   UNL     1     -10.610  14.104  68.902  1.00  0.00    -0.239 C  
HETATM   20  C   UNL     1     -10.805  16.272  67.729  1.00  0.00    -0.315 C  
ENDBRANCH  16  17
ENDBRANCH  15  16
ENDBRANCH  14  15
ENDBRANCH  12  14
ENDBRANCH  11  12
ENDBRANCH  10  11
ENDBRANCH   8  10
ENDBRANCH   7   8
ENDBRANCH   6   7
ENDBRANCH   5   6
ENDBRANCH   2   5
TORSDOF 11
ENDMDL
MODEL      265
REMARK 921   NORMALIZED FREE ENERGY PREDICTED BY IDOCK:   -2.38 KCAL/MOL
REMARK 922        TOTAL FREE ENERGY PREDICTED BY IDOCK:   -4.66 KCAL/MOL
REMARK 923 INTER-LIGAND FREE ENERGY PREDICTED BY IDOCK:   -4.06 KCAL/MOL
REMARK 924 INTRA-LIGAND FREE ENERGY PREDICTED BY IDOCK:   -0.60 KCAL/MOL
REMARK 927      BINDING AFFINITY PREDICTED BY RF-SCORE:    0.00 PKD
ROOT
HETATM    1  C   UNL     1     -11.653  14.599  67.313  1.00  0.00    -0.387 C  
HETATM    2  N   UNL     1     -11.506  13.817  66.001  1.00  0.00    -0.318 N  
HETATM    3  C   UNL     1     -12.845  13.878  65.269  1.00  0.00    -0.398 C  
HETATM    4  C   UNL     1     -10.426  14.493  65.164  1.00  0.00    -0.416 C  
ENDROOT
BRANCH   2   5
HETATM    5  C   UNL     1     -11.127  12.358  66.353  1.00  0.00    -0.301 C  
BRANCH   5   6
HETATM    6  C   UNL     1      -9.650  12.174  66.747  1.00  0.00    -0.211 C  
BRANCH   6   7
HETATM    7  O   UNL     1      -9.445  12.045  68.167  1.00  0.00    -0.189 OA 
BRANCH   7   8
HETATM    8  C   UNL     1      -9.768  10.824  68.678  1.00  0.00    -0.186 C  
HETATM    9  O   UNL     1     -10.595  10.658  69.562  1.00  0.00    -0.227 OA 
BRANCH   8  10
HETATM   10  C   UNL     1      -9.091   9.712  67.918  1.00  0.00    -0.130 C  
BRANCH  10  11
HETATM   11  C   UNL     1      -8.911   8.461  68.757  1.00  0.00    -0.140 C  
BRANCH  11  12
HETATM   12  C   UNL     1      -9.800   7.331  68.310  1.00  0.00    -0.154 C  
HETATM   13  O   UNL     1     -11.015   7.409  68.187  1.00  0.00    -0.087 OA 
BRANCH  12  14
HETATM   14  O   UNL     1      -9.103   6.168  68.182  1.00  0.00    -0.114 OA 
BRANCH  14  15
HETATM   15  C   UNL     1      -9.744   5.017  68.765  1.00  0.00    -0.161 C  
BRANCH  15  16
HETATM   16  C   UNL     1      -9.984   5.147  70.279  1.00  0.00    -0.250 C  
BRANCH  16  17
HETATM   17  N   UNL     1      -8.773   4.717  71.145  1.00  0.00    -0.114 N  
HETATM   18  C   UNL     1      -9.214   3.975  72.402  1.00  0.00    -0.116 C  
HETATM   19  C   UNL     1      -8.022   5.982  71.575  1.00  0.00    -0.113 C  
HETATM   20  C   UNL     1      -7.805   3.848  70.345  1.00  0.00    -0.051 C  
ENDBRANCH  16  17
ENDBRANCH  15  16
ENDBRANCH  14  15
ENDBRANCH  12  14
ENDBRANCH  11  12
ENDBRANCH  10  11
ENDBRANCH   8  10
ENDBRANCH   7   8
ENDBRANCH   6   7
ENDBRANCH   5   6
ENDBRANCH   2   5
TORSDOF 11
ENDMDL
MODEL      266
REMARK 921   NORMALIZED FREE ENERGY PREDICTED BY IDOCK:   -2.38 KCAL/MOL
REMARK 922        TOTAL FREE ENERGY PREDICTED BY IDOCK:   -4.66 KCAL/MOL
REMARK 923 INTER-LIGAND FREE ENERGY PREDICTED BY IDOCK:   -4.52 KCAL/MOL
REMARK 924 INTRA-LIGAND FREE ENERGY PREDICTED BY IDOCK:   -0.14 KCAL/MOL
REMARK 927      BINDING AFFINITY PREDICTED BY RF-SCORE:    0.00 PKD
ROOT
HETATM    1  C   UNL     1     -14.403  15.330  71.964  1.00  0.00    -0.589 C  
HETATM    2  N   UNL     1     -12.967  14.853  71.715  1.00  0.00    -0.316 N  
HETATM    3  C   UNL     1     -12.531  15.380  70.349  1.00  0.00    -0.404 C  
HETATM    4  C   UNL     1     -12.077  15.439  72.805  1.00  0.00    -0.433 C  
ENDROOT
BRANCH   2   5
HETATM    5  C   UNL     1     -12.963  13.306  71.745  1.00  0.00    -0.335 C  
BRANCH   5   6
HETATM    6  C   UNL     1     -12.388  12.658  70.472  1.00  0.00    -0.268 C  
BRANCH   6   7
HETATM    7  O   UNL     1     -12.658  11.247  70.371  1.00  0.00    -0.270 OA 
BRANCH   7   8
HETATM    8  C   UNL     1     -12.000  10.614  69.360  1.00  0.00    -0.226 C  
HETATM    9  O   UNL     1     -12.250  10.788  68.176  1.00  0.00    -0.399 OA 
BRANCH   8  10
HETATM   10  C   UNL     1     -10.844   9.800  69.881  1.00  0.00    -0.306 C  
BRANCH  10  11
HETATM   11  C   UNL     1     -10.280   8.856  68.836  1.00  0.00    -0.220 C  
BRANCH  11  12
HETATM   12  C   UNL     1      -8.803   8.617  69.008  1.00  0.00    -0.138 C  
HETATM   13  O   UNL     1      -8.304   7.983  69.929  1.00  0.00    -0.118 OA 
BRANCH  12  14
HETATM   14  O   UNL     1      -8.075   9.302  68.084  1.00  0.00    -0.106 OA 
BRANCH  14  15
HETATM   15  C   UNL     1      -8.710  10.493  67.581  1.00  0.00    -0.121 C  
BRANCH  15  16
HETATM   16  C   UNL     1      -7.717  11.585  67.148  1.00  0.00    -0.160 C  
BRANCH  16  17
HETATM   17  N   UNL     1      -7.338  12.574  68.280  1.00  0.00    -0.106 N  
HETATM   18  C   UNL     1      -7.067  11.850  69.593  1.00  0.00     0.228 C  
HETATM   19  C   UNL     1      -8.520  13.527  68.495  1.00  0.00    -0.092 C  
HETATM   20  C   UNL     1      -6.124  13.416  67.893  1.00  0.00    -0.146 C  
ENDBRANCH  16  17
ENDBRANCH  15  16
ENDBRANCH  14  15
ENDBRANCH  12  14
ENDBRANCH  11  12
ENDBRANCH  10  11
ENDBRANCH   8  10
ENDBRANCH   7   8
ENDBRANCH   6   7
ENDBRANCH   5   6
ENDBRANCH   2   5
TORSDOF 11
ENDMDL
MODEL      267
REMARK 921   NORMALIZED FREE ENERGY PREDICTED BY IDOCK:   -2.36 KCAL/MOL
REMARK 922        TOTAL FREE ENERGY PREDICTED BY IDOCK:   -4.64 KCAL/MOL
REMARK 923 INTER-LIGAND FREE ENERGY PREDICTED BY IDOCK:   -3.94 KCAL/MOL
REMARK 924 INTRA-LIGAND FREE ENERGY PREDICTED BY IDOCK:   -0.70 KCAL/MOL
REMARK 927      BINDING AFFINITY PREDICTED BY RF-SCORE:    0.00 PKD
ROOT
HETATM    1  C   UNL     1      -6.995   9.102  66.921  1.00  0.00    -0.081 C  
HETATM    2  N   UNL     1      -6.924  10.331  66.005  1.00  0.00    -0.113 N  
HETATM    3  C   UNL     1      -6.486  11.522  66.857  1.00  0.00    -0.144 C  
HETATM    4  C   UNL     1      -5.886  10.058  64.923  1.00  0.00    -0.104 C  
ENDROOT
BRANCH   2   5
HETATM    5  C   UNL     1      -8.331  10.562  65.403  1.00  0.00    -0.165 C  
BRANCH   5   6
HETATM    6  C   UNL     1      -9.485  10.147  66.335  1.00  0.00    -0.176 C  
BRANCH   6   7
HETATM    7  O   UNL     1     -10.150  11.261  66.959  1.00  0.00    -0.197 OA 
BRANCH   7   8
HETATM    8  C   UNL     1     -11.056  10.917  67.917  1.00  0.00    -0.302 C  
HETATM    9  O   UNL     1     -12.055  11.573  68.171  1.00  0.00    -0.604 OA 
BRANCH   8  10
HETATM   10  C   UNL     1     -10.745   9.565  68.508  1.00  0.00    -0.222 C  
BRANCH  10  11
HETATM   11  C   UNL     1     -10.373   9.645  69.976  1.00  0.00    -0.298 C  
BRANCH  11  12
HETATM   12  C   UNL     1      -8.975   9.155  70.246  1.00  0.00    -0.217 C  
HETATM   13  O   UNL     1      -7.988   9.875  70.320  1.00  0.00    -0.182 OA 
BRANCH  12  14
HETATM   14  O   UNL     1      -8.918   7.795  70.269  1.00  0.00    -0.146 OA 
BRANCH  14  15
HETATM   15  C   UNL     1      -8.582   7.230  71.551  1.00  0.00    -0.118 C  
BRANCH  15  16
HETATM   16  C   UNL     1      -9.808   6.874  72.409  1.00  0.00    -0.157 C  
BRANCH  16  17
HETATM   17  N   UNL     1     -10.000   5.351  72.627  1.00  0.00    -0.162 N  
HETATM   18  C   UNL     1      -9.004   4.797  73.638  1.00  0.00    -0.104 C  
HETATM   19  C   UNL     1      -9.765   4.645  71.286  1.00  0.00    -0.182 C  
HETATM   20  C   UNL     1     -11.425   5.035  73.077  1.00  0.00    -0.265 C  
ENDBRANCH  16  17
ENDBRANCH  15  16
ENDBRANCH  14  15
ENDBRANCH  12  14
ENDBRANCH  11  12
ENDBRANCH  10  11
ENDBRANCH   8  10
ENDBRANCH   7   8
ENDBRANCH   6   7
ENDBRANCH   5   6
ENDBRANCH   2   5
TORSDOF 11
ENDMDL
MODEL      268
REMARK 921   NORMALIZED FREE ENERGY PREDICTED BY IDOCK:   -2.34 KCAL/MOL
REMARK 922        TOTAL FREE ENERGY PREDICTED BY IDOCK:   -4.61 KCAL/MOL
REMARK 923 INTER-LIGAND FREE ENERGY PREDICTED BY IDOCK:   -4.23 KCAL/MOL
REMARK 924 INTRA-LIGAND FREE ENERGY PREDICTED BY IDOCK:   -0.38 KCAL/MOL
REMARK 927      BINDING AFFINITY PREDICTED BY RF-SCORE:    0.00 PKD
ROOT
HETATM    1  C   UNL     1     -10.127  20.284  69.522  1.00  0.00     0.200 C  
HETATM    2  N   UNL     1     -10.001  19.397  68.277  1.00  0.00    -0.396 N  
HETATM    3  C   UNL     1     -10.480  17.996  68.652  1.00  0.00    -0.226 C  
HETATM    4  C   UNL     1     -10.896  19.977  67.188  1.00  0.00    -0.122 C  
ENDROOT
BRANCH   2   5
HETATM    5  C   UNL     1      -8.514  19.383  67.847  1.00  0.00    -0.313 C  
BRANCH   5   6
HETATM    6  C   UNL     1      -8.275  18.796  66.444  1.00  0.00    -0.284 C  
BRANCH   6   7
HETATM    7  O   UNL     1      -7.945  17.394  66.454  1.00  0.00    -0.249 OA 
BRANCH   7   8
HETATM    8  C   UNL     1      -8.935  16.574  66.004  1.00  0.00    -0.241 C  
HETATM    9  O   UNL     1      -9.917  16.971  65.392  1.00  0.00    -0.556 OA 
BRANCH   8  10
HETATM   10  C   UNL     1      -8.592  15.124  66.225  1.00  0.00    -0.020 C  
BRANCH  10  11
HETATM   11  C   UNL     1      -9.672  14.382  66.990  1.00  0.00    -0.256 C  
BRANCH  11  12
HETATM   12  C   UNL     1     -10.686  13.738  66.083  1.00  0.00    -0.283 C  
HETATM   13  O   UNL     1     -11.899  13.826  66.222  1.00  0.00    -0.357 OA 
BRANCH  12  14
HETATM   14  O   UNL     1     -10.091  12.935  65.158  1.00  0.00    -0.278 OA 
BRANCH  14  15
HETATM   15  C   UNL     1      -9.315  11.855  65.711  1.00  0.00    -0.155 C  
BRANCH  15  16
HETATM   16  C   UNL     1      -9.888  10.461  65.399  1.00  0.00    -0.283 C  
BRANCH  16  17
HETATM   17  N   UNL     1      -8.807   9.385  65.125  1.00  0.00    -0.184 N  
HETATM   18  C   UNL     1      -7.483   9.732  65.796  1.00  0.00    -0.105 C  
HETATM   19  C   UNL     1      -8.573   9.319  63.612  1.00  0.00    -0.196 C  
HETATM   20  C   UNL     1      -9.274   8.006  65.586  1.00  0.00     0.075 C  
ENDBRANCH  16  17
ENDBRANCH  15  16
ENDBRANCH  14  15
ENDBRANCH  12  14
ENDBRANCH  11  12
ENDBRANCH  10  11
ENDBRANCH   8  10
ENDBRANCH   7   8
ENDBRANCH   6   7
ENDBRANCH   5   6
ENDBRANCH   2   5
TORSDOF 11
ENDMDL
MODEL      269
REMARK 921   NORMALIZED FREE ENERGY PREDICTED BY IDOCK:   -2.34 KCAL/MOL
REMARK 922        TOTAL FREE ENERGY PREDICTED BY IDOCK:   -4.59 KCAL/MOL
REMARK 923 INTER-LIGAND FREE ENERGY PREDICTED BY IDOCK:   -3.92 KCAL/MOL
REMARK 924 INTRA-LIGAND FREE ENERGY PREDICTED BY IDOCK:   -0.67 KCAL/MOL
REMARK 927      BINDING AFFINITY PREDICTED BY RF-SCORE:    0.00 PKD
ROOT
HETATM    1  C   UNL     1     -10.117  14.444  66.478  1.00  0.00    -0.276 C  
HETATM    2  N   UNL     1     -11.358  13.591  66.769  1.00  0.00    -0.317 N  
HETATM    3  C   UNL     1     -12.032  14.160  68.018  1.00  0.00    -0.337 C  
HETATM    4  C   UNL     1     -12.301  13.700  65.577  1.00  0.00    -0.482 C  
ENDROOT
BRANCH   2   5
HETATM    5  C   UNL     1     -10.894  12.133  67.000  1.00  0.00    -0.247 C  
BRANCH   5   6
HETATM    6  C   UNL     1     -11.024  11.232  65.758  1.00  0.00    -0.145 C  
BRANCH   6   7
HETATM    7  O   UNL     1      -9.799  11.100  65.012  1.00  0.00    -0.235 OA 
BRANCH   7   8
HETATM    8  C   UNL     1      -8.888  10.249  65.562  1.00  0.00    -0.172 C  
HETATM    9  O   UNL     1      -7.705  10.523  65.702  1.00  0.00    -0.148 OA 
BRANCH   8  10
HETATM   10  C   UNL     1      -9.551   9.008  66.103  1.00  0.00    -0.341 C  
BRANCH  10  11
HETATM   11  C   UNL     1      -9.123   8.694  67.525  1.00  0.00    -0.146 C  
BRANCH  11  12
HETATM   12  C   UNL     1      -8.146   7.551  67.596  1.00  0.00    -0.118 C  
HETATM   13  O   UNL     1      -7.011   7.576  67.139  1.00  0.00    -0.078 OA 
BRANCH  12  14
HETATM   14  O   UNL     1      -8.723   6.433  68.118  1.00  0.00    -0.117 OA 
BRANCH  14  15
HETATM   15  C   UNL     1      -8.506   5.232  67.353  1.00  0.00    -0.106 C  
BRANCH  15  16
HETATM   16  C   UNL     1      -9.470   5.077  66.163  1.00  0.00    -0.160 C  
BRANCH  16  17
HETATM   17  N   UNL     1      -9.024   4.012  65.130  1.00  0.00    -0.127 N  
HETATM   18  C   UNL     1      -9.969   3.956  63.935  1.00  0.00    -0.180 C  
HETATM   19  C   UNL     1      -9.042   2.643  65.819  1.00  0.00    -0.115 C  
HETATM   20  C   UNL     1      -7.598   4.274  64.650  1.00  0.00    -0.077 C  
ENDBRANCH  16  17
ENDBRANCH  15  16
ENDBRANCH  14  15
ENDBRANCH  12  14
ENDBRANCH  11  12
ENDBRANCH  10  11
ENDBRANCH   8  10
ENDBRANCH   7   8
ENDBRANCH   6   7
ENDBRANCH   5   6
ENDBRANCH   2   5
TORSDOF 11
ENDMDL
MODEL      270
REMARK 921   NORMALIZED FREE ENERGY PREDICTED BY IDOCK:   -2.29 KCAL/MOL
REMARK 922        TOTAL FREE ENERGY PREDICTED BY IDOCK:   -4.52 KCAL/MOL
REMARK 923 INTER-LIGAND FREE ENERGY PREDICTED BY IDOCK:   -4.25 KCAL/MOL
REMARK 924 INTRA-LIGAND FREE ENERGY PREDICTED BY IDOCK:   -0.27 KCAL/MOL
REMARK 927      BINDING AFFINITY PREDICTED BY RF-SCORE:    0.00 PKD
ROOT
HETATM    1  C   UNL     1      -9.857  19.446  68.816  1.00  0.00    -0.456 C  
HETATM    2  N   UNL     1      -9.910  18.130  68.029  1.00  0.00    -0.309 N  
HETATM    3  C   UNL     1     -10.546  17.073  68.931  1.00  0.00    -0.328 C  
HETATM    4  C   UNL     1     -10.778  18.349  66.795  1.00  0.00    -0.237 C  
ENDROOT
BRANCH   2   5
HETATM    5  C   UNL     1      -8.461  17.741  67.648  1.00  0.00    -0.229 C  
BRANCH   5   6
HETATM    6  C   UNL     1      -8.369  16.747  66.476  1.00  0.00    -0.285 C  
BRANCH   6   7
HETATM    7  O   UNL     1      -8.183  15.381  66.892  1.00  0.00    -0.219 OA 
BRANCH   7   8
HETATM    8  C   UNL     1      -9.242  14.562  66.639  1.00  0.00    -0.266 C  
HETATM    9  O   UNL     1      -9.863  14.564  65.587  1.00  0.00    -0.327 OA 
BRANCH   8  10
HETATM   10  C   UNL     1      -9.447  13.568  67.753  1.00  0.00    -0.216 C  
BRANCH  10  11
HETATM   11  C   UNL     1      -9.687  12.161  67.239  1.00  0.00    -0.193 C  
BRANCH  11  12
HETATM   12  C   UNL     1      -8.470  11.284  67.364  1.00  0.00    -0.137 C  
HETATM   13  O   UNL     1      -8.024  10.581  66.467  1.00  0.00    -0.122 OA 
BRANCH  12  14
HETATM   14  O   UNL     1      -7.997  11.264  68.641  1.00  0.00    -0.133 OA 
BRANCH  14  15
HETATM   15  C   UNL     1      -8.604  10.273  69.491  1.00  0.00    -0.138 C  
BRANCH  15  16
HETATM   16  C   UNL     1      -8.856   8.928  68.788  1.00  0.00    -0.137 C  
BRANCH  16  17
HETATM   17  N   UNL     1      -8.616   7.692  69.692  1.00  0.00    -0.135 N  
HETATM   18  C   UNL     1      -7.351   6.940  69.295  1.00  0.00    -0.092 C  
HETATM   19  C   UNL     1      -9.808   6.742  69.527  1.00  0.00    -0.157 C  
HETATM   20  C   UNL     1      -8.539   8.093  71.163  1.00  0.00    -0.133 C  
ENDBRANCH  16  17
ENDBRANCH  15  16
ENDBRANCH  14  15
ENDBRANCH  12  14
ENDBRANCH  11  12
ENDBRANCH  10  11
ENDBRANCH   8  10
ENDBRANCH   7   8
ENDBRANCH   6   7
ENDBRANCH   5   6
ENDBRANCH   2   5
TORSDOF 11
ENDMDL
MODEL      271
REMARK 921   NORMALIZED FREE ENERGY PREDICTED BY IDOCK:   -2.29 KCAL/MOL
REMARK 922        TOTAL FREE ENERGY PREDICTED BY IDOCK:   -4.51 KCAL/MOL
REMARK 923 INTER-LIGAND FREE ENERGY PREDICTED BY IDOCK:   -3.71 KCAL/MOL
REMARK 924 INTRA-LIGAND FREE ENERGY PREDICTED BY IDOCK:   -0.80 KCAL/MOL
REMARK 927      BINDING AFFINITY PREDICTED BY RF-SCORE:    0.00 PKD
ROOT
HETATM    1  C   UNL     1     -11.266   7.739  72.936  1.00  0.00    -0.376 C  
HETATM    2  N   UNL     1     -11.922   8.167  71.617  1.00  0.00    -0.286 N  
HETATM    3  C   UNL     1     -12.199   6.903  70.803  1.00  0.00    -0.312 C  
HETATM    4  C   UNL     1     -13.234   8.870  71.944  1.00  0.00    -0.393 C  
ENDROOT
BRANCH   2   5
HETATM    5  C   UNL     1     -10.940   9.105  70.875  1.00  0.00    -0.282 C  
BRANCH   5   6
HETATM    6  C   UNL     1      -9.881   8.364  70.038  1.00  0.00    -0.182 C  
BRANCH   6   7
HETATM    7  O   UNL     1      -9.623   8.979  68.761  1.00  0.00    -0.150 OA 
BRANCH   7   8
HETATM    8  C   UNL     1      -9.075   8.147  67.832  1.00  0.00    -0.132 C  
HETATM    9  O   UNL     1      -7.872   8.044  67.640  1.00  0.00    -0.117 OA 
BRANCH   8  10
HETATM   10  C   UNL     1     -10.123   7.278  67.186  1.00  0.00    -0.306 C  
BRANCH  10  11
HETATM   11  C   UNL     1      -9.856   5.798  67.388  1.00  0.00    -0.154 C  
BRANCH  11  12
HETATM   12  C   UNL     1      -9.430   5.108  66.119  1.00  0.00    -0.159 C  
HETATM   13  O   UNL     1     -10.195   4.574  65.328  1.00  0.00    -0.206 OA 
BRANCH  12  14
HETATM   14  O   UNL     1      -8.074   5.036  66.020  1.00  0.00    -0.106 OA 
BRANCH  14  15
HETATM   15  C   UNL     1      -7.551   5.341  64.713  1.00  0.00    -0.083 C  
BRANCH  15  16
HETATM   16  C   UNL     1      -6.729   6.641  64.665  1.00  0.00    -0.042 C  
BRANCH  16  17
HETATM   17  N   UNL     1      -7.210   7.648  63.589  1.00  0.00    -0.074 N  
HETATM   18  C   UNL     1      -6.051   8.451  63.011  1.00  0.00    -0.082 C  
HETATM   19  C   UNL     1      -8.185   8.626  64.255  1.00  0.00    -0.158 C  
HETATM   20  C   UNL     1      -7.958   6.936  62.464  1.00  0.00    -0.109 C  
ENDBRANCH  16  17
ENDBRANCH  15  16
ENDBRANCH  14  15
ENDBRANCH  12  14
ENDBRANCH  11  12
ENDBRANCH  10  11
ENDBRANCH   8  10
ENDBRANCH   7   8
ENDBRANCH   6   7
ENDBRANCH   5   6
ENDBRANCH   2   5
TORSDOF 11
ENDMDL
MODEL      272
REMARK 921   NORMALIZED FREE ENERGY PREDICTED BY IDOCK:   -2.28 KCAL/MOL
REMARK 922        TOTAL FREE ENERGY PREDICTED BY IDOCK:   -4.49 KCAL/MOL
REMARK 923 INTER-LIGAND FREE ENERGY PREDICTED BY IDOCK:   -4.36 KCAL/MOL
REMARK 924 INTRA-LIGAND FREE ENERGY PREDICTED BY IDOCK:   -0.13 KCAL/MOL
REMARK 927      BINDING AFFINITY PREDICTED BY RF-SCORE:    0.00 PKD
ROOT
HETATM    1  C   UNL     1      -9.737  18.976  68.637  1.00  0.00    -0.410 C  
HETATM    2  N   UNL     1      -9.971  17.670  67.867  1.00  0.00    -0.307 N  
HETATM    3  C   UNL     1     -11.040  16.873  68.615  1.00  0.00    -0.194 C  
HETATM    4  C   UNL     1     -10.470  18.024  66.471  1.00  0.00    -0.334 C  
ENDROOT
BRANCH   2   5
HETATM    5  C   UNL     1      -8.631  16.897  67.817  1.00  0.00    -0.208 C  
BRANCH   5   6
HETATM    6  C   UNL     1      -8.426  16.087  66.524  1.00  0.00    -0.313 C  
BRANCH   6   7
HETATM    7  O   UNL     1      -8.225  14.679  66.751  1.00  0.00    -0.146 OA 
BRANCH   7   8
HETATM    8  C   UNL     1      -9.362  13.981  67.028  1.00  0.00    -0.250 C  
HETATM    9  O   UNL     1     -10.326  13.932  66.278  1.00  0.00    -0.281 OA 
BRANCH   8  10
HETATM   10  C   UNL     1      -9.217  13.171  68.291  1.00  0.00    -0.194 C  
BRANCH  10  11
HETATM   11  C   UNL     1     -10.556  12.827  68.917  1.00  0.00    -0.154 C  
BRANCH  11  12
HETATM   12  C   UNL     1     -10.893  11.365  68.792  1.00  0.00    -0.208 C  
HETATM   13  O   UNL     1     -11.710  10.778  69.489  1.00  0.00    -0.272 OA 
BRANCH  12  14
HETATM   14  O   UNL     1     -10.084  10.740  67.893  1.00  0.00    -0.166 OA 
BRANCH  14  15
HETATM   15  C   UNL     1      -8.844  10.250  68.440  1.00  0.00    -0.129 C  
BRANCH  15  16
HETATM   16  C   UNL     1      -8.902   8.775  68.874  1.00  0.00    -0.137 C  
BRANCH  16  17
HETATM   17  N   UNL     1      -8.896   7.773  67.691  1.00  0.00    -0.128 N  
HETATM   18  C   UNL     1     -10.306   7.485  67.190  1.00  0.00    -0.313 C  
HETATM   19  C   UNL     1      -8.286   6.456  68.186  1.00  0.00    -0.116 C  
HETATM   20  C   UNL     1      -8.032   8.284  66.540  1.00  0.00    -0.100 C  
ENDBRANCH  16  17
ENDBRANCH  15  16
ENDBRANCH  14  15
ENDBRANCH  12  14
ENDBRANCH  11  12
ENDBRANCH  10  11
ENDBRANCH   8  10
ENDBRANCH   7   8
ENDBRANCH   6   7
ENDBRANCH   5   6
ENDBRANCH   2   5
TORSDOF 11
ENDMDL
MODEL      273
REMARK 921   NORMALIZED FREE ENERGY PREDICTED BY IDOCK:   -2.27 KCAL/MOL
REMARK 922        TOTAL FREE ENERGY PREDICTED BY IDOCK:   -4.48 KCAL/MOL
REMARK 923 INTER-LIGAND FREE ENERGY PREDICTED BY IDOCK:   -3.94 KCAL/MOL
REMARK 924 INTRA-LIGAND FREE ENERGY PREDICTED BY IDOCK:   -0.53 KCAL/MOL
REMARK 927      BINDING AFFINITY PREDICTED BY RF-SCORE:    0.00 PKD
ROOT
HETATM    1  C   UNL     1      -9.212   8.631  65.882  1.00  0.00    -0.202 C  
HETATM    2  N   UNL     1      -8.645  10.045  65.704  1.00  0.00    -0.149 N  
HETATM    3  C   UNL     1      -7.148   9.914  65.425  1.00  0.00    -0.121 C  
HETATM    4  C   UNL     1      -9.340  10.690  64.511  1.00  0.00    -0.243 C  
ENDROOT
BRANCH   2   5
HETATM    5  C   UNL     1      -8.903  10.832  67.012  1.00  0.00    -0.135 C  
BRANCH   5   6
HETATM    6  C   UNL     1      -9.351   9.952  68.193  1.00  0.00    -0.131 C  
BRANCH   6   7
HETATM    7  O   UNL     1      -8.800  10.362  69.458  1.00  0.00    -0.167 OA 
BRANCH   7   8
HETATM    8  C   UNL     1      -7.639   9.735  69.801  1.00  0.00    -0.137 C  
HETATM    9  O   UNL     1      -6.938  10.077  70.741  1.00  0.00    -0.305 OA 
BRANCH   8  10
HETATM   10  C   UNL     1      -7.418   8.496  68.972  1.00  0.00    -0.089 C  
BRANCH  10  11
HETATM   11  C   UNL     1      -7.828   7.230  69.701  1.00  0.00    -0.118 C  
BRANCH  11  12
HETATM   12  C   UNL     1      -8.215   6.120  68.759  1.00  0.00    -0.108 C  
HETATM   13  O   UNL     1      -7.434   5.524  68.029  1.00  0.00    -0.072 OA 
BRANCH  12  14
HETATM   14  O   UNL     1      -9.565   5.944  68.721  1.00  0.00    -0.123 OA 
BRANCH  14  15
HETATM   15  C   UNL     1     -10.208   5.953  70.010  1.00  0.00    -0.224 C  
BRANCH  15  16
HETATM   16  C   UNL     1     -11.443   6.867  70.077  1.00  0.00    -0.277 C  
BRANCH  16  17
HETATM   17  N   UNL     1     -11.939   7.148  71.519  1.00  0.00    -0.306 N  
HETATM   18  C   UNL     1     -11.321   8.419  72.089  1.00  0.00    -0.366 C  
HETATM   19  C   UNL     1     -11.515   5.971  72.405  1.00  0.00    -0.308 C  
HETATM   20  C   UNL     1     -13.462   7.245  71.568  1.00  0.00    -0.363 C  
ENDBRANCH  16  17
ENDBRANCH  15  16
ENDBRANCH  14  15
ENDBRANCH  12  14
ENDBRANCH  11  12
ENDBRANCH  10  11
ENDBRANCH   8  10
ENDBRANCH   7   8
ENDBRANCH   6   7
ENDBRANCH   5   6
ENDBRANCH   2   5
TORSDOF 11
ENDMDL
MODEL      274
REMARK 921   NORMALIZED FREE ENERGY PREDICTED BY IDOCK:   -2.26 KCAL/MOL
REMARK 922        TOTAL FREE ENERGY PREDICTED BY IDOCK:   -4.47 KCAL/MOL
REMARK 923 INTER-LIGAND FREE ENERGY PREDICTED BY IDOCK:   -3.70 KCAL/MOL
REMARK 924 INTRA-LIGAND FREE ENERGY PREDICTED BY IDOCK:   -0.77 KCAL/MOL
REMARK 927      BINDING AFFINITY PREDICTED BY RF-SCORE:    0.00 PKD
ROOT
HETATM    1  C   UNL     1     -10.804   8.112  72.615  1.00  0.00    -0.359 C  
HETATM    2  N   UNL     1     -11.772   8.296  71.439  1.00  0.00    -0.279 N  
HETATM    3  C   UNL     1     -13.035   8.967  71.976  1.00  0.00    -0.407 C  
HETATM    4  C   UNL     1     -11.102   9.198  70.409  1.00  0.00    -0.253 C  
ENDROOT
BRANCH   2   5
HETATM    5  C   UNL     1     -12.087   6.898  70.855  1.00  0.00    -0.373 C  
BRANCH   5   6
HETATM    6  C   UNL     1     -10.932   5.889  70.990  1.00  0.00    -0.266 C  
BRANCH   6   7
HETATM    7  O   UNL     1     -10.189   5.697  69.771  1.00  0.00    -0.204 OA 
BRANCH   7   8
HETATM    8  C   UNL     1      -8.927   6.209  69.790  1.00  0.00    -0.138 C  
HETATM    9  O   UNL     1      -8.510   6.951  70.667  1.00  0.00    -0.133 OA 
BRANCH   8  10
HETATM   10  C   UNL     1      -8.081   5.628  68.685  1.00  0.00    -0.100 C  
BRANCH  10  11
HETATM   11  C   UNL     1      -7.400   6.698  67.852  1.00  0.00    -0.096 C  
BRANCH  11  12
HETATM   12  C   UNL     1      -8.380   7.546  67.086  1.00  0.00    -0.121 C  
HETATM   13  O   UNL     1      -8.843   8.606  67.485  1.00  0.00    -0.133 OA 
BRANCH  12  14
HETATM   14  O   UNL     1      -8.792   6.926  65.946  1.00  0.00    -0.155 OA 
BRANCH  14  15
HETATM   15  C   UNL     1      -7.735   6.322  65.175  1.00  0.00    -0.099 C  
BRANCH  15  16
HETATM   16  C   UNL     1      -8.241   5.452  64.011  1.00  0.00    -0.125 C  
BRANCH  16  17
HETATM   17  N   UNL     1      -8.551   3.987  64.411  1.00  0.00    -0.104 N  
HETATM   18  C   UNL     1      -7.715   3.540  65.604  1.00  0.00    -0.082 C  
HETATM   19  C   UNL     1      -8.208   3.085  63.220  1.00  0.00    -0.085 C  
HETATM   20  C   UNL     1     -10.035   3.804  64.723  1.00  0.00    -0.187 C  
ENDBRANCH  16  17
ENDBRANCH  15  16
ENDBRANCH  14  15
ENDBRANCH  12  14
ENDBRANCH  11  12
ENDBRANCH  10  11
ENDBRANCH   8  10
ENDBRANCH   7   8
ENDBRANCH   6   7
ENDBRANCH   5   6
ENDBRANCH   2   5
TORSDOF 11
ENDMDL
MODEL      275
REMARK 921   NORMALIZED FREE ENERGY PREDICTED BY IDOCK:   -2.26 KCAL/MOL
REMARK 922        TOTAL FREE ENERGY PREDICTED BY IDOCK:   -4.46 KCAL/MOL
REMARK 923 INTER-LIGAND FREE ENERGY PREDICTED BY IDOCK:   -3.68 KCAL/MOL
REMARK 924 INTRA-LIGAND FREE ENERGY PREDICTED BY IDOCK:   -0.78 KCAL/MOL
REMARK 927      BINDING AFFINITY PREDICTED BY RF-SCORE:    0.00 PKD
ROOT
HETATM    1  C   UNL     1     -14.216   9.584  70.863  1.00  0.00     0.443 C  
HETATM    2  N   UNL     1     -12.889  10.179  71.351  1.00  0.00    -0.392 N  
HETATM    3  C   UNL     1     -11.883  10.078  70.205  1.00  0.00    -0.216 C  
HETATM    4  C   UNL     1     -13.126  11.642  71.706  1.00  0.00    -0.382 C  
ENDROOT
BRANCH   2   5
HETATM    5  C   UNL     1     -12.420   9.361  72.579  1.00  0.00    -0.069 C  
BRANCH   5   6
HETATM    6  C   UNL     1     -11.444   8.222  72.236  1.00  0.00    -0.384 C  
BRANCH   6   7
HETATM    7  O   UNL     1     -12.096   7.025  71.771  1.00  0.00    -0.303 OA 
BRANCH   7   8
HETATM    8  C   UNL     1     -11.250   6.007  71.446  1.00  0.00    -0.262 C  
HETATM    9  O   UNL     1     -10.930   5.119  72.222  1.00  0.00    -0.211 OA 
BRANCH   8  10
HETATM   10  C   UNL     1     -10.885   6.040  69.985  1.00  0.00    -0.429 C  
BRANCH  10  11
HETATM   11  C   UNL     1      -9.458   5.590  69.732  1.00  0.00    -0.195 C  
BRANCH  11  12
HETATM   12  C   UNL     1      -8.455   6.689  69.962  1.00  0.00    -0.139 C  
HETATM   13  O   UNL     1      -7.990   6.989  71.053  1.00  0.00    -0.099 OA 
BRANCH  12  14
HETATM   14  O   UNL     1      -8.221   7.398  68.823  1.00  0.00    -0.126 OA 
BRANCH  14  15
HETATM   15  C   UNL     1      -8.794   8.720  68.811  1.00  0.00    -0.134 C  
BRANCH  15  16
HETATM   16  C   UNL     1      -8.195   9.641  67.734  1.00  0.00    -0.114 C  
BRANCH  16  17
HETATM   17  N   UNL     1      -8.960   9.609  66.386  1.00  0.00    -0.149 N  
HETATM   18  C   UNL     1     -10.374   9.065  66.552  1.00  0.00    -0.193 C  
HETATM   19  C   UNL     1      -8.201   8.682  65.429  1.00  0.00    -0.136 C  
HETATM   20  C   UNL     1      -9.011  10.996  65.749  1.00  0.00    -0.195 C  
ENDBRANCH  16  17
ENDBRANCH  15  16
ENDBRANCH  14  15
ENDBRANCH  12  14
ENDBRANCH  11  12
ENDBRANCH  10  11
ENDBRANCH   8  10
ENDBRANCH   7   8
ENDBRANCH   6   7
ENDBRANCH   5   6
ENDBRANCH   2   5
TORSDOF 11
ENDMDL
MODEL      276
REMARK 921   NORMALIZED FREE ENERGY PREDICTED BY IDOCK:   -2.26 KCAL/MOL
REMARK 922        TOTAL FREE ENERGY PREDICTED BY IDOCK:   -4.46 KCAL/MOL
REMARK 923 INTER-LIGAND FREE ENERGY PREDICTED BY IDOCK:   -3.81 KCAL/MOL
REMARK 924 INTRA-LIGAND FREE ENERGY PREDICTED BY IDOCK:   -0.65 KCAL/MOL
REMARK 927      BINDING AFFINITY PREDICTED BY RF-SCORE:    0.00 PKD
ROOT
HETATM    1  C   UNL     1     -12.992  11.232  71.905  1.00  0.00    -0.365 C  
HETATM    2  N   UNL     1     -12.622   9.954  71.141  1.00  0.00    -0.343 N  
HETATM    3  C   UNL     1     -11.345   9.393  71.763  1.00  0.00    -0.317 C  
HETATM    4  C   UNL     1     -13.762   8.956  71.306  1.00  0.00    -0.181 C  
ENDROOT
BRANCH   2   5
HETATM    5  C   UNL     1     -12.402  10.331  69.656  1.00  0.00     0.112 C  
BRANCH   5   6
HETATM    6  C   UNL     1     -12.146  11.831  69.423  1.00  0.00    -0.238 C  
BRANCH   6   7
HETATM    7  O   UNL     1     -10.870  12.111  68.819  1.00  0.00    -0.221 OA 
BRANCH   7   8
HETATM    8  C   UNL     1     -10.898  12.234  67.463  1.00  0.00    -0.234 C  
HETATM    9  O   UNL     1     -11.927  12.214  66.803  1.00  0.00    -0.606 OA 
BRANCH   8  10
HETATM   10  C   UNL     1      -9.531  12.543  66.909  1.00  0.00    -0.219 C  
BRANCH  10  11
HETATM   11  C   UNL     1      -8.866  11.327  66.293  1.00  0.00    -0.194 C  
BRANCH  11  12
HETATM   12  C   UNL     1      -7.888  10.666  67.228  1.00  0.00    -0.112 C  
HETATM   13  O   UNL     1      -6.793  11.124  67.527  1.00  0.00    -0.078 OA 
BRANCH  12  14
HETATM   14  O   UNL     1      -8.314   9.429  67.604  1.00  0.00    -0.117 OA 
BRANCH  14  15
HETATM   15  C   UNL     1      -7.747   8.342  66.846  1.00  0.00    -0.092 C  
BRANCH  15  16
HETATM   16  C   UNL     1      -7.597   7.041  67.653  1.00  0.00    -0.110 C  
BRANCH  16  17
HETATM   17  N   UNL     1      -8.504   5.887  67.155  1.00  0.00    -0.108 N  
HETATM   18  C   UNL     1      -7.944   4.523  67.541  1.00  0.00    -0.100 C  
HETATM   19  C   UNL     1      -8.571   5.960  65.625  1.00  0.00    -0.155 C  
HETATM   20  C   UNL     1      -9.926   6.033  67.692  1.00  0.00    -0.135 C  
ENDBRANCH  16  17
ENDBRANCH  15  16
ENDBRANCH  14  15
ENDBRANCH  12  14
ENDBRANCH  11  12
ENDBRANCH  10  11
ENDBRANCH   8  10
ENDBRANCH   7   8
ENDBRANCH   6   7
ENDBRANCH   5   6
ENDBRANCH   2   5
TORSDOF 11
ENDMDL
MODEL      277
REMARK 921   NORMALIZED FREE ENERGY PREDICTED BY IDOCK:   -2.22 KCAL/MOL
REMARK 922        TOTAL FREE ENERGY PREDICTED BY IDOCK:   -4.40 KCAL/MOL
REMARK 923 INTER-LIGAND FREE ENERGY PREDICTED BY IDOCK:   -4.00 KCAL/MOL
REMARK 924 INTRA-LIGAND FREE ENERGY PREDICTED BY IDOCK:   -0.40 KCAL/MOL
REMARK 927      BINDING AFFINITY PREDICTED BY RF-SCORE:    0.00 PKD
ROOT
HETATM    1  C   UNL     1      -9.415   1.655  64.575  1.00  0.00    -0.110 C  
HETATM    2  N   UNL     1     -10.038   2.502  63.458  1.00  0.00    -0.141 N  
HETATM    3  C   UNL     1      -8.955   2.765  62.413  1.00  0.00    -0.081 C  
HETATM    4  C   UNL     1     -11.177   1.703  62.835  1.00  0.00    -0.254 C  
ENDROOT
BRANCH   2   5
HETATM    5  C   UNL     1     -10.543   3.824  64.084  1.00  0.00    -0.250 C  
BRANCH   5   6
HETATM    6  C   UNL     1      -9.857   4.188  65.414  1.00  0.00    -0.208 C  
BRANCH   6   7
HETATM    7  O   UNL     1     -10.274   5.458  65.949  1.00  0.00    -0.100 OA 
BRANCH   7   8
HETATM    8  C   UNL     1      -9.303   6.137  66.622  1.00  0.00    -0.146 C  
HETATM    9  O   UNL     1      -8.400   5.591  67.239  1.00  0.00    -0.105 OA 
BRANCH   8  10
HETATM   10  C   UNL     1      -9.403   7.621  66.384  1.00  0.00    -0.228 C  
BRANCH  10  11
HETATM   11  C   UNL     1      -8.608   8.070  65.172  1.00  0.00    -0.077 C  
BRANCH  11  12
HETATM   12  C   UNL     1      -9.063   9.404  64.643  1.00  0.00    -0.173 C  
HETATM   13  O   UNL     1      -9.273   9.648  63.462  1.00  0.00    -0.242 OA 
BRANCH  12  14
HETATM   14  O   UNL     1      -9.091  10.348  65.623  1.00  0.00    -0.161 OA 
BRANCH  14  15
HETATM   15  C   UNL     1     -10.355  11.023  65.771  1.00  0.00    -0.257 C  
BRANCH  15  16
HETATM   16  C   UNL     1     -10.232  12.555  65.835  1.00  0.00    -0.261 C  
BRANCH  16  17
HETATM   17  N   UNL     1     -10.798  13.176  67.138  1.00  0.00    -0.255 N  
HETATM   18  C   UNL     1     -11.729  12.212  67.864  1.00  0.00    -0.336 C  
HETATM   19  C   UNL     1     -11.603  14.425  66.759  1.00  0.00    -0.385 C  
HETATM   20  C   UNL     1      -9.673  13.612  68.074  1.00  0.00    -0.226 C  
ENDBRANCH  16  17
ENDBRANCH  15  16
ENDBRANCH  14  15
ENDBRANCH  12  14
ENDBRANCH  11  12
ENDBRANCH  10  11
ENDBRANCH   8  10
ENDBRANCH   7   8
ENDBRANCH   6   7
ENDBRANCH   5   6
ENDBRANCH   2   5
TORSDOF 11
ENDMDL
MODEL      278
REMARK 921   NORMALIZED FREE ENERGY PREDICTED BY IDOCK:   -2.18 KCAL/MOL
REMARK 922        TOTAL FREE ENERGY PREDICTED BY IDOCK:   -4.34 KCAL/MOL
REMARK 923 INTER-LIGAND FREE ENERGY PREDICTED BY IDOCK:   -3.81 KCAL/MOL
REMARK 924 INTRA-LIGAND FREE ENERGY PREDICTED BY IDOCK:   -0.53 KCAL/MOL
REMARK 927      BINDING AFFINITY PREDICTED BY RF-SCORE:    0.00 PKD
ROOT
HETATM    1  C   UNL     1      -7.152   6.555  66.148  1.00  0.00    -0.067 C  
HETATM    2  N   UNL     1      -7.633   5.151  66.539  1.00  0.00    -0.087 N  
HETATM    3  C   UNL     1      -8.560   4.652  65.431  1.00  0.00    -0.130 C  
HETATM    4  C   UNL     1      -6.414   4.243  66.644  1.00  0.00    -0.037 C  
ENDROOT
BRANCH   2   5
HETATM    5  C   UNL     1      -8.383   5.260  67.888  1.00  0.00    -0.098 C  
BRANCH   5   6
HETATM    6  C   UNL     1      -7.915   6.432  68.770  1.00  0.00    -0.110 C  
BRANCH   6   7
HETATM    7  O   UNL     1      -8.927   6.912  69.676  1.00  0.00    -0.143 OA 
BRANCH   7   8
HETATM    8  C   UNL     1      -9.012   8.268  69.764  1.00  0.00    -0.146 C  
HETATM    9  O   UNL     1      -8.326   8.942  70.519  1.00  0.00    -0.124 OA 
BRANCH   8  10
HETATM   10  C   UNL     1      -9.940   8.831  68.718  1.00  0.00    -0.197 C  
BRANCH  10  11
HETATM   11  C   UNL     1      -9.223   9.734  67.732  1.00  0.00    -0.141 C  
BRANCH  11  12
HETATM   12  C   UNL     1      -9.143  11.161  68.206  1.00  0.00    -0.162 C  
HETATM   13  O   UNL     1      -8.113  11.722  68.553  1.00  0.00    -0.147 OA 
BRANCH  12  14
HETATM   14  O   UNL     1     -10.380  11.718  68.326  1.00  0.00    -0.192 OA 
BRANCH  14  15
HETATM   15  C   UNL     1     -11.095  11.866  67.084  1.00  0.00    -0.293 C  
BRANCH  15  16
HETATM   16  C   UNL     1     -11.290  13.331  66.657  1.00  0.00    -0.321 C  
BRANCH  16  17
HETATM   17  N   UNL     1     -11.546  13.513  65.139  1.00  0.00    -0.308 N  
HETATM   18  C   UNL     1     -12.770  12.732  64.676  1.00  0.00    -0.362 C  
HETATM   19  C   UNL     1     -10.324  12.978  64.383  1.00  0.00    -0.374 C  
HETATM   20  C   UNL     1     -11.707  14.988  64.780  1.00  0.00    -0.370 C  
ENDBRANCH  16  17
ENDBRANCH  15  16
ENDBRANCH  14  15
ENDBRANCH  12  14
ENDBRANCH  11  12
ENDBRANCH  10  11
ENDBRANCH   8  10
ENDBRANCH   7   8
ENDBRANCH   6   7
ENDBRANCH   5   6
ENDBRANCH   2   5
TORSDOF 11
ENDMDL
MODEL      279
REMARK 921   NORMALIZED FREE ENERGY PREDICTED BY IDOCK:   -2.15 KCAL/MOL
REMARK 922        TOTAL FREE ENERGY PREDICTED BY IDOCK:   -4.28 KCAL/MOL
REMARK 923 INTER-LIGAND FREE ENERGY PREDICTED BY IDOCK:   -3.39 KCAL/MOL
REMARK 924 INTRA-LIGAND FREE ENERGY PREDICTED BY IDOCK:   -0.89 KCAL/MOL
REMARK 927      BINDING AFFINITY PREDICTED BY RF-SCORE:    0.00 PKD
ROOT
HETATM    1  C   UNL     1     -12.802  10.884  70.068  1.00  0.00    -0.012 C  
HETATM    2  N   UNL     1     -11.533  11.330  69.330  1.00  0.00    -0.270 N  
HETATM    3  C   UNL     1     -11.787  11.175  67.831  1.00  0.00    -0.082 C  
HETATM    4  C   UNL     1     -11.279  12.795  69.664  1.00  0.00    -0.002 C  
ENDROOT
BRANCH   2   5
HETATM    5  C   UNL     1     -10.365  10.426  69.795  1.00  0.00    -0.208 C  
BRANCH   5   6
HETATM    6  C   UNL     1     -10.385   9.015  69.182  1.00  0.00    -0.219 C  
BRANCH   6   7
HETATM    7  O   UNL     1     -11.046   8.037  70.007  1.00  0.00    -0.238 OA 
BRANCH   7   8
HETATM    8  C   UNL     1     -10.311   6.918  70.260  1.00  0.00    -0.199 C  
HETATM    9  O   UNL     1      -9.405   6.875  71.079  1.00  0.00    -0.156 OA 
BRANCH   8  10
HETATM   10  C   UNL     1     -10.853   5.724  69.518  1.00  0.00    -0.410 C  
BRANCH  10  11
HETATM   11  C   UNL     1      -9.884   5.201  68.473  1.00  0.00    -0.218 C  
BRANCH  11  12
HETATM   12  C   UNL     1     -10.147   5.771  67.105  1.00  0.00    -0.181 C  
HETATM   13  O   UNL     1     -11.063   6.535  66.833  1.00  0.00    -0.399 OA 
BRANCH  12  14
HETATM   14  O   UNL     1      -9.315   5.231  66.171  1.00  0.00    -0.148 OA 
BRANCH  14  15
HETATM   15  C   UNL     1      -8.003   5.822  66.122  1.00  0.00    -0.102 C  
BRANCH  15  16
HETATM   16  C   UNL     1      -7.821   6.824  64.969  1.00  0.00    -0.118 C  
BRANCH  16  17
HETATM   17  N   UNL     1      -7.533   8.274  65.436  1.00  0.00    -0.082 N  
HETATM   18  C   UNL     1      -7.262   8.339  66.934  1.00  0.00    -0.083 C  
HETATM   19  C   UNL     1      -8.772   9.126  65.136  1.00  0.00    -0.195 C  
HETATM   20  C   UNL     1      -6.356   8.875  64.671  1.00  0.00    -0.066 C  
ENDBRANCH  16  17
ENDBRANCH  15  16
ENDBRANCH  14  15
ENDBRANCH  12  14
ENDBRANCH  11  12
ENDBRANCH  10  11
ENDBRANCH   8  10
ENDBRANCH   7   8
ENDBRANCH   6   7
ENDBRANCH   5   6
ENDBRANCH   2   5
TORSDOF 11
ENDMDL
MODEL      280
REMARK 921   NORMALIZED FREE ENERGY PREDICTED BY IDOCK:   -2.14 KCAL/MOL
REMARK 922        TOTAL FREE ENERGY PREDICTED BY IDOCK:   -4.27 KCAL/MOL
REMARK 923 INTER-LIGAND FREE ENERGY PREDICTED BY IDOCK:   -4.14 KCAL/MOL
REMARK 924 INTRA-LIGAND FREE ENERGY PREDICTED BY IDOCK:   -0.12 KCAL/MOL
REMARK 927      BINDING AFFINITY PREDICTED BY RF-SCORE:    0.00 PKD
ROOT
HETATM    1  C   UNL     1     -10.332   8.329  66.702  1.00  0.00    -0.223 C  
HETATM    2  N   UNL     1      -9.671   9.708  66.588  1.00  0.00    -0.194 N  
HETATM    3  C   UNL     1      -8.193   9.546  66.940  1.00  0.00    -0.113 C  
HETATM    4  C   UNL     1      -9.812  10.185  65.148  1.00  0.00    -0.325 C  
ENDROOT
BRANCH   2   5
HETATM    5  C   UNL     1     -10.380  10.663  67.579  1.00  0.00    -0.214 C  
BRANCH   5   6
HETATM    6  C   UNL     1      -9.638  11.993  67.804  1.00  0.00    -0.193 C  
BRANCH   6   7
HETATM    7  O   UNL     1     -10.239  13.110  67.121  1.00  0.00    -0.241 OA 
BRANCH   7   8
HETATM    8  C   UNL     1     -11.161  13.794  67.855  1.00  0.00    -0.264 C  
HETATM    9  O   UNL     1     -12.345  13.861  67.561  1.00  0.00    -0.292 OA 
BRANCH   8  10
HETATM   10  C   UNL     1     -10.564  14.322  69.134  1.00  0.00    -0.201 C  
BRANCH  10  11
HETATM   11  C   UNL     1     -11.557  15.131  69.948  1.00  0.00    -0.329 C  
BRANCH  11  12
HETATM   12  C   UNL     1     -12.090  14.370  71.132  1.00  0.00    -0.341 C  
HETATM   13  O   UNL     1     -11.956  14.715  72.299  1.00  0.00    -0.279 OA 
BRANCH  12  14
HETATM   14  O   UNL     1     -12.631  13.177  70.758  1.00  0.00    -0.324 OA 
BRANCH  14  15
HETATM   15  C   UNL     1     -13.570  12.622  71.699  1.00  0.00     0.061 C  
BRANCH  15  16
HETATM   16  C   UNL     1     -13.102  11.299  72.329  1.00  0.00     0.072 C  
BRANCH  16  17
HETATM   17  N   UNL     1     -12.873  10.161  71.302  1.00  0.00    -0.378 N  
HETATM   18  C   UNL     1     -13.144  10.626  69.876  1.00  0.00     0.389 C  
HETATM   19  C   UNL     1     -13.848   9.023  71.627  1.00  0.00    -0.368 C  
HETATM   20  C   UNL     1     -11.455   9.605  71.404  1.00  0.00    -0.385 C  
ENDBRANCH  16  17
ENDBRANCH  15  16
ENDBRANCH  14  15
ENDBRANCH  12  14
ENDBRANCH  11  12
ENDBRANCH  10  11
ENDBRANCH   8  10
ENDBRANCH   7   8
ENDBRANCH   6   7
ENDBRANCH   5   6
ENDBRANCH   2   5
TORSDOF 11
ENDMDL
MODEL      281
REMARK 921   NORMALIZED FREE ENERGY PREDICTED BY IDOCK:   -2.14 KCAL/MOL
REMARK 922        TOTAL FREE ENERGY PREDICTED BY IDOCK:   -4.27 KCAL/MOL
REMARK 923 INTER-LIGAND FREE ENERGY PREDICTED BY IDOCK:   -4.33 KCAL/MOL
REMARK 924 INTRA-LIGAND FREE ENERGY PREDICTED BY IDOCK:    0.06 KCAL/MOL
REMARK 927      BINDING AFFINITY PREDICTED BY RF-SCORE:    0.00 PKD
ROOT
HETATM    1  C   UNL     1     -12.432  15.877  72.387  1.00  0.00    -0.474 C  
HETATM    2  N   UNL     1     -13.096  14.758  71.574  1.00  0.00    -0.331 N  
HETATM    3  C   UNL     1     -14.055  14.014  72.502  1.00  0.00    -0.372 C  
HETATM    4  C   UNL     1     -13.872  15.399  70.430  1.00  0.00     0.549 C  
ENDROOT
BRANCH   2   5
HETATM    5  C   UNL     1     -11.981  13.819  71.054  1.00  0.00    -0.121 C  
BRANCH   5   6
HETATM    6  C   UNL     1     -11.325  14.294  69.744  1.00  0.00    -0.227 C  
BRANCH   6   7
HETATM    7  O   UNL     1     -11.087  15.714  69.701  1.00  0.00    -0.251 OA 
BRANCH   7   8
HETATM    8  C   UNL     1     -10.069  16.094  68.879  1.00  0.00    -0.238 C  
HETATM    9  O   UNL     1      -9.288  16.997  69.142  1.00  0.00    -0.208 OA 
BRANCH   8  10
HETATM   10  C   UNL     1      -9.944  15.171  67.694  1.00  0.00    -0.229 C  
BRANCH  10  11
HETATM   11  C   UNL     1      -8.540  14.618  67.534  1.00  0.00    -0.196 C  
BRANCH  11  12
HETATM   12  C   UNL     1      -8.516  13.115  67.453  1.00  0.00    -0.201 C  
HETATM   13  O   UNL     1      -7.536  12.451  67.142  1.00  0.00    -0.152 OA 
BRANCH  12  14
HETATM   14  O   UNL     1      -9.756  12.584  67.641  1.00  0.00    -0.188 OA 
BRANCH  14  15
HETATM   15  C   UNL     1     -10.200  11.707  66.588  1.00  0.00    -0.216 C  
BRANCH  15  16
HETATM   16  C   UNL     1     -11.466  12.200  65.867  1.00  0.00    -0.363 C  
BRANCH  16  17
HETATM   17  N   UNL     1     -11.212  12.692  64.420  1.00  0.00    -0.326 N  
HETATM   18  C   UNL     1     -11.555  14.168  64.257  1.00  0.00    -0.309 C  
HETATM   19  C   UNL     1     -12.113  11.885  63.477  1.00  0.00    -0.470 C  
HETATM   20  C   UNL     1      -9.763  12.449  64.002  1.00  0.00    -0.004 C  
ENDBRANCH  16  17
ENDBRANCH  15  16
ENDBRANCH  14  15
ENDBRANCH  12  14
ENDBRANCH  11  12
ENDBRANCH  10  11
ENDBRANCH   8  10
ENDBRANCH   7   8
ENDBRANCH   6   7
ENDBRANCH   5   6
ENDBRANCH   2   5
TORSDOF 11
ENDMDL
MODEL      282
REMARK 921   NORMALIZED FREE ENERGY PREDICTED BY IDOCK:   -2.08 KCAL/MOL
REMARK 922        TOTAL FREE ENERGY PREDICTED BY IDOCK:   -4.18 KCAL/MOL
REMARK 923 INTER-LIGAND FREE ENERGY PREDICTED BY IDOCK:   -3.68 KCAL/MOL
REMARK 924 INTRA-LIGAND FREE ENERGY PREDICTED BY IDOCK:   -0.50 KCAL/MOL
REMARK 927      BINDING AFFINITY PREDICTED BY RF-SCORE:    0.00 PKD
ROOT
HETATM    1  C   UNL     1     -13.890   9.549  70.962  1.00  0.00     0.050 C  
HETATM    2  N   UNL     1     -12.683  10.488  71.084  1.00  0.00    -0.383 N  
HETATM    3  C   UNL     1     -12.322  10.968  69.679  1.00  0.00    -0.234 C  
HETATM    4  C   UNL     1     -13.089  11.675  71.950  1.00  0.00    -0.385 C  
ENDROOT
BRANCH   2   5
HETATM    5  C   UNL     1     -11.518   9.689  71.718  1.00  0.00    -0.188 C  
BRANCH   5   6
HETATM    6  C   UNL     1     -11.069   8.474  70.887  1.00  0.00    -0.255 C  
BRANCH   6   7
HETATM    7  O   UNL     1     -11.457   7.210  71.458  1.00  0.00    -0.251 OA 
BRANCH   7   8
HETATM    8  C   UNL     1     -10.894   6.121  70.863  1.00  0.00    -0.281 C  
HETATM    9  O   UNL     1     -10.512   5.136  71.477  1.00  0.00    -0.218 OA 
BRANCH   8  10
HETATM   10  C   UNL     1     -10.942   6.229  69.361  1.00  0.00    -0.440 C  
BRANCH  10  11
HETATM   11  C   UNL     1      -9.871   5.394  68.684  1.00  0.00    -0.204 C  
BRANCH  11  12
HETATM   12  C   UNL     1      -8.575   6.142  68.514  1.00  0.00    -0.113 C  
HETATM   13  O   UNL     1      -7.734   6.284  69.392  1.00  0.00    -0.096 OA 
BRANCH  12  14
HETATM   14  O   UNL     1      -8.507   6.754  67.300  1.00  0.00    -0.119 OA 
BRANCH  14  15
HETATM   15  C   UNL     1      -7.818   6.000  66.285  1.00  0.00    -0.104 C  
BRANCH  15  16
HETATM   16  C   UNL     1      -8.760   5.325  65.273  1.00  0.00    -0.151 C  
BRANCH  16  17
HETATM   17  N   UNL     1      -8.099   4.174  64.472  1.00  0.00    -0.092 N  
HETATM   18  C   UNL     1      -7.367   3.198  65.386  1.00  0.00    -0.072 C  
HETATM   19  C   UNL     1      -7.074   4.789  63.511  1.00  0.00    -0.048 C  
HETATM   20  C   UNL     1      -9.131   3.423  63.634  1.00  0.00    -0.094 C  
ENDBRANCH  16  17
ENDBRANCH  15  16
ENDBRANCH  14  15
ENDBRANCH  12  14
ENDBRANCH  11  12
ENDBRANCH  10  11
ENDBRANCH   8  10
ENDBRANCH   7   8
ENDBRANCH   6   7
ENDBRANCH   5   6
ENDBRANCH   2   5
TORSDOF 11
ENDMDL
MODEL      283
REMARK 921   NORMALIZED FREE ENERGY PREDICTED BY IDOCK:   -2.05 KCAL/MOL
REMARK 922        TOTAL FREE ENERGY PREDICTED BY IDOCK:   -4.13 KCAL/MOL
REMARK 923 INTER-LIGAND FREE ENERGY PREDICTED BY IDOCK:   -3.75 KCAL/MOL
REMARK 924 INTRA-LIGAND FREE ENERGY PREDICTED BY IDOCK:   -0.38 KCAL/MOL
REMARK 927      BINDING AFFINITY PREDICTED BY RF-SCORE:    0.00 PKD
ROOT
HETATM    1  C   UNL     1      -6.520  15.089  70.232  1.00  0.00    -0.095 C  
HETATM    2  N   UNL     1      -7.329  15.720  69.091  1.00  0.00    -0.180 N  
HETATM    3  C   UNL     1      -8.676  16.158  69.663  1.00  0.00     0.201 C  
HETATM    4  C   UNL     1      -6.562  16.934  68.580  1.00  0.00    -0.173 C  
ENDROOT
BRANCH   2   5
HETATM    5  C   UNL     1      -7.511  14.652  67.986  1.00  0.00    -0.131 C  
BRANCH   5   6
HETATM    6  C   UNL     1      -8.234  15.170  66.730  1.00  0.00    -0.137 C  
BRANCH   6   7
HETATM    7  O   UNL     1      -9.560  14.633  66.565  1.00  0.00    -0.261 OA 
BRANCH   7   8
HETATM    8  C   UNL     1     -10.519  15.561  66.294  1.00  0.00    -0.307 C  
HETATM    9  O   UNL     1     -10.392  16.440  65.454  1.00  0.00    -0.535 OA 
BRANCH   8  10
HETATM   10  C   UNL     1     -11.791  15.275  67.049  1.00  0.00     0.081 C  
BRANCH  10  11
HETATM   11  C   UNL     1     -11.702  14.008  67.879  1.00  0.00    -0.397 C  
BRANCH  11  12
HETATM   12  C   UNL     1     -11.731  12.761  67.036  1.00  0.00    -0.374 C  
HETATM   13  O   UNL     1     -12.536  12.546  66.140  1.00  0.00    -0.397 OA 
BRANCH  12  14
HETATM   14  O   UNL     1     -10.832  11.839  67.477  1.00  0.00    -0.217 OA 
BRANCH  14  15
HETATM   15  C   UNL     1     -10.062  11.206  66.436  1.00  0.00    -0.226 C  
BRANCH  15  16
HETATM   16  C   UNL     1      -9.274   9.974  66.915  1.00  0.00    -0.147 C  
BRANCH  16  17
HETATM   17  N   UNL     1      -8.082   9.598  65.998  1.00  0.00    -0.111 N  
HETATM   18  C   UNL     1      -8.553   9.119  64.629  1.00  0.00    -0.182 C  
HETATM   19  C   UNL     1      -7.311   8.453  66.665  1.00  0.00    -0.082 C  
HETATM   20  C   UNL     1      -7.121  10.773  65.833  1.00  0.00    -0.080 C  
ENDBRANCH  16  17
ENDBRANCH  15  16
ENDBRANCH  14  15
ENDBRANCH  12  14
ENDBRANCH  11  12
ENDBRANCH  10  11
ENDBRANCH   8  10
ENDBRANCH   7   8
ENDBRANCH   6   7
ENDBRANCH   5   6
ENDBRANCH   2   5
TORSDOF 11
ENDMDL
MODEL      284
REMARK 921   NORMALIZED FREE ENERGY PREDICTED BY IDOCK:   -2.02 KCAL/MOL
REMARK 922        TOTAL FREE ENERGY PREDICTED BY IDOCK:   -4.07 KCAL/MOL
REMARK 923 INTER-LIGAND FREE ENERGY PREDICTED BY IDOCK:   -3.53 KCAL/MOL
REMARK 924 INTRA-LIGAND FREE ENERGY PREDICTED BY IDOCK:   -0.53 KCAL/MOL
REMARK 927      BINDING AFFINITY PREDICTED BY RF-SCORE:    0.00 PKD
ROOT
HETATM    1  C   UNL     1      -8.204   8.571  63.557  1.00  0.00    -0.133 C  
HETATM    2  N   UNL     1      -6.829   9.230  63.724  1.00  0.00    -0.090 N  
HETATM    3  C   UNL     1      -5.766   8.172  63.428  1.00  0.00    -0.066 C  
HETATM    4  C   UNL     1      -6.722  10.368  62.715  1.00  0.00    -0.122 C  
ENDROOT
BRANCH   2   5
HETATM    5  C   UNL     1      -6.717   9.743  65.179  1.00  0.00    -0.101 C  
BRANCH   5   6
HETATM    6  C   UNL     1      -8.073  10.054  65.838  1.00  0.00    -0.126 C  
BRANCH   6   7
HETATM    7  O   UNL     1      -8.498  11.419  65.666  1.00  0.00    -0.051 OA 
BRANCH   7   8
HETATM    8  C   UNL     1      -9.757  11.683  66.115  1.00  0.00    -0.229 C  
HETATM    9  O   UNL     1     -10.705  11.907  65.378  1.00  0.00    -0.267 OA 
BRANCH   8  10
HETATM   10  C   UNL     1      -9.854  11.516  67.610  1.00  0.00    -0.192 C  
BRANCH  10  11
HETATM   11  C   UNL     1     -10.831  10.426  68.010  1.00  0.00    -0.319 C  
BRANCH  11  12
HETATM   12  C   UNL     1     -10.191   9.358  68.856  1.00  0.00    -0.200 C  
HETATM   13  O   UNL     1      -9.816   8.270  68.437  1.00  0.00    -0.162 OA 
BRANCH  12  14
HETATM   14  O   UNL     1     -10.195   9.696  70.175  1.00  0.00    -0.229 OA 
BRANCH  14  15
HETATM   15  C   UNL     1      -9.381   8.852  71.013  1.00  0.00    -0.249 C  
BRANCH  15  16
HETATM   16  C   UNL     1     -10.177   8.117  72.105  1.00  0.00    -0.262 C  
BRANCH  16  17
HETATM   17  N   UNL     1      -9.861   6.602  72.199  1.00  0.00    -0.158 N  
HETATM   18  C   UNL     1      -9.806   5.951  70.822  1.00  0.00    -0.183 C  
HETATM   19  C   UNL     1     -10.982   5.931  73.001  1.00  0.00    -0.268 C  
HETATM   20  C   UNL     1      -8.547   6.359  72.939  1.00  0.00    -0.124 C  
ENDBRANCH  16  17
ENDBRANCH  15  16
ENDBRANCH  14  15
ENDBRANCH  12  14
ENDBRANCH  11  12
ENDBRANCH  10  11
ENDBRANCH   8  10
ENDBRANCH   7   8
ENDBRANCH   6   7
ENDBRANCH   5   6
ENDBRANCH   2   5
TORSDOF 11
ENDMDL
MODEL      285
REMARK 921   NORMALIZED FREE ENERGY PREDICTED BY IDOCK:   -1.98 KCAL/MOL
REMARK 922        TOTAL FREE ENERGY PREDICTED BY IDOCK:   -4.00 KCAL/MOL
REMARK 923 INTER-LIGAND FREE ENERGY PREDICTED BY IDOCK:   -3.37 KCAL/MOL
REMARK 924 INTRA-LIGAND FREE ENERGY PREDICTED BY IDOCK:   -0.63 KCAL/MOL
REMARK 927      BINDING AFFINITY PREDICTED BY RF-SCORE:    0.00 PKD
ROOT
HETATM    1  C   UNL     1     -10.268   8.440  72.628  1.00  0.00    -0.249 C  
HETATM    2  N   UNL     1     -11.006   8.757  71.321  1.00  0.00    -0.254 N  
HETATM    3  C   UNL     1     -12.118   9.755  71.644  1.00  0.00    -0.394 C  
HETATM    4  C   UNL     1     -10.011   9.385  70.354  1.00  0.00    -0.252 C  
ENDROOT
BRANCH   2   5
HETATM    5  C   UNL     1     -11.587   7.434  70.766  1.00  0.00    -0.290 C  
BRANCH   5   6
HETATM    6  C   UNL     1     -10.837   6.175  71.240  1.00  0.00    -0.266 C  
BRANCH   6   7
HETATM    7  O   UNL     1      -9.893   5.670  70.278  1.00  0.00    -0.175 OA 
BRANCH   7   8
HETATM    8  C   UNL     1      -9.694   4.324  70.331  1.00  0.00    -0.209 C  
HETATM    9  O   UNL     1      -9.719   3.676  71.367  1.00  0.00    -0.161 OA 
BRANCH   8  10
HETATM   10  C   UNL     1      -9.589   3.728  68.950  1.00  0.00    -0.183 C  
BRANCH  10  11
HETATM   11  C   UNL     1      -8.153   3.445  68.548  1.00  0.00    -0.073 C  
BRANCH  11  12
HETATM   12  C   UNL     1      -7.485   4.636  67.914  1.00  0.00    -0.077 C  
HETATM   13  O   UNL     1      -6.856   5.488  68.526  1.00  0.00    -0.055 OA 
BRANCH  12  14
HETATM   14  O   UNL     1      -7.773   4.722  66.586  1.00  0.00    -0.093 OA 
BRANCH  14  15
HETATM   15  C   UNL     1      -7.367   3.579  65.808  1.00  0.00    -0.076 C  
BRANCH  15  16
HETATM   16  C   UNL     1      -7.660   3.722  64.304  1.00  0.00    -0.079 C  
BRANCH  16  17
HETATM   17  N   UNL     1      -8.873   2.887  63.819  1.00  0.00    -0.092 N  
HETATM   18  C   UNL     1      -8.770   2.552  62.336  1.00  0.00    -0.074 C  
HETATM   19  C   UNL     1     -10.142   3.720  64.035  1.00  0.00    -0.210 C  
HETATM   20  C   UNL     1      -9.015   1.601  64.631  1.00  0.00    -0.111 C  
ENDBRANCH  16  17
ENDBRANCH  15  16
ENDBRANCH  14  15
ENDBRANCH  12  14
ENDBRANCH  11  12
ENDBRANCH  10  11
ENDBRANCH   8  10
ENDBRANCH   7   8
ENDBRANCH   6   7
ENDBRANCH   5   6
ENDBRANCH   2   5
TORSDOF 11
ENDMDL
MODEL      286
REMARK 921   NORMALIZED FREE ENERGY PREDICTED BY IDOCK:   -1.97 KCAL/MOL
REMARK 922        TOTAL FREE ENERGY PREDICTED BY IDOCK:   -3.99 KCAL/MOL
REMARK 923 INTER-LIGAND FREE ENERGY PREDICTED BY IDOCK:   -3.70 KCAL/MOL
REMARK 924 INTRA-LIGAND FREE ENERGY PREDICTED BY IDOCK:   -0.28 KCAL/MOL
REMARK 927      BINDING AFFINITY PREDICTED BY RF-SCORE:    0.00 PKD
ROOT
HETATM    1  C   UNL     1     -11.889  11.829  68.531  1.00  0.00    -0.303 C  
HETATM    2  N   UNL     1     -10.777  12.181  67.535  1.00  0.00    -0.226 N  
HETATM    3  C   UNL     1     -11.051  11.416  66.241  1.00  0.00    -0.221 C  
HETATM    4  C   UNL     1     -10.833  13.681  67.272  1.00  0.00    -0.284 C  
ENDROOT
BRANCH   2   5
HETATM    5  C   UNL     1      -9.425  11.759  68.158  1.00  0.00    -0.193 C  
BRANCH   5   6
HETATM    6  C   UNL     1      -9.219  10.235  68.232  1.00  0.00    -0.139 C  
BRANCH   6   7
HETATM    7  O   UNL     1      -9.938   9.609  69.312  1.00  0.00    -0.173 OA 
BRANCH   7   8
HETATM    8  C   UNL     1      -9.760   8.261  69.406  1.00  0.00    -0.177 C  
HETATM    9  O   UNL     1     -10.300   7.453  68.665  1.00  0.00    -0.191 OA 
BRANCH   8  10
HETATM   10  C   UNL     1      -8.710   7.916  70.430  1.00  0.00    -0.137 C  
BRANCH  10  11
HETATM   11  C   UNL     1      -9.070   8.407  71.820  1.00  0.00    -0.283 C  
BRANCH  11  12
HETATM   12  C   UNL     1      -7.973   8.164  72.822  1.00  0.00    -0.155 C  
HETATM   13  O   UNL     1      -7.760   8.864  73.803  1.00  0.00    -0.393 OA 
BRANCH  12  14
HETATM   14  O   UNL     1      -7.161   7.142  72.436  1.00  0.00    -0.067 OA 
BRANCH  14  15
HETATM   15  C   UNL     1      -7.449   5.877  73.061  1.00  0.00    -0.095 C  
BRANCH  15  16
HETATM   16  C   UNL     1      -8.381   4.977  72.230  1.00  0.00    -0.121 C  
BRANCH  16  17
HETATM   17  N   UNL     1      -9.748   4.697  72.907  1.00  0.00    -0.134 N  
HETATM   18  C   UNL     1     -10.911   5.187  72.053  1.00  0.00    -0.125 C  
HETATM   19  C   UNL     1      -9.782   5.451  74.241  1.00  0.00    -0.172 C  
HETATM   20  C   UNL     1      -9.918   3.209  73.207  1.00  0.00    -0.115 C  
ENDBRANCH  16  17
ENDBRANCH  15  16
ENDBRANCH  14  15
ENDBRANCH  12  14
ENDBRANCH  11  12
ENDBRANCH  10  11
ENDBRANCH   8  10
ENDBRANCH   7   8
ENDBRANCH   6   7
ENDBRANCH   5   6
ENDBRANCH   2   5
TORSDOF 11
ENDMDL
MODEL      287
REMARK 921   NORMALIZED FREE ENERGY PREDICTED BY IDOCK:   -1.90 KCAL/MOL
REMARK 922        TOTAL FREE ENERGY PREDICTED BY IDOCK:   -3.87 KCAL/MOL
REMARK 923 INTER-LIGAND FREE ENERGY PREDICTED BY IDOCK:   -3.13 KCAL/MOL
REMARK 924 INTRA-LIGAND FREE ENERGY PREDICTED BY IDOCK:   -0.74 KCAL/MOL
REMARK 927      BINDING AFFINITY PREDICTED BY RF-SCORE:    0.00 PKD
ROOT
HETATM    1  C   UNL     1      -7.483   8.295  63.443  1.00  0.00    -0.119 C  
HETATM    2  N   UNL     1      -7.183   8.082  64.932  1.00  0.00    -0.071 N  
HETATM    3  C   UNL     1      -5.892   8.832  65.259  1.00  0.00    -0.048 C  
HETATM    4  C   UNL     1      -8.339   8.665  65.737  1.00  0.00    -0.144 C  
ENDROOT
BRANCH   2   5
HETATM    5  C   UNL     1      -7.024   6.563  65.177  1.00  0.00    -0.052 C  
BRANCH   5   6
HETATM    6  C   UNL     1      -8.360   5.808  65.310  1.00  0.00    -0.146 C  
BRANCH   6   7
HETATM    7  O   UNL     1      -8.298   4.679  66.202  1.00  0.00    -0.110 OA 
BRANCH   7   8
HETATM    8  C   UNL     1      -8.477   4.985  67.518  1.00  0.00    -0.105 C  
HETATM    9  O   UNL     1      -7.601   5.456  68.228  1.00  0.00    -0.079 OA 
BRANCH   8  10
HETATM   10  C   UNL     1      -9.914   4.807  67.933  1.00  0.00    -0.161 C  
BRANCH  10  11
HETATM   11  C   UNL     1     -10.579   6.121  68.301  1.00  0.00    -0.324 C  
BRANCH  11  12
HETATM   12  C   UNL     1     -11.122   6.121  69.705  1.00  0.00    -0.416 C  
HETATM   13  O   UNL     1     -12.133   6.711  70.060  1.00  0.00    -0.280 OA 
BRANCH  12  14
HETATM   14  O   UNL     1     -10.278   5.489  70.567  1.00  0.00    -0.208 OA 
BRANCH  14  15
HETATM   15  C   UNL     1     -10.127   6.138  71.844  1.00  0.00    -0.189 C  
BRANCH  15  16
HETATM   16  C   UNL     1      -8.664   6.253  72.308  1.00  0.00    -0.132 C  
BRANCH  16  17
HETATM   17  N   UNL     1      -8.046   7.658  72.092  1.00  0.00    -0.101 N  
HETATM   18  C   UNL     1      -6.867   7.613  71.127  1.00  0.00    -0.049 C  
HETATM   19  C   UNL     1      -7.537   8.167  73.446  1.00  0.00    -0.150 C  
HETATM   20  C   UNL     1      -9.093   8.648  71.585  1.00  0.00    -0.247 C  
ENDBRANCH  16  17
ENDBRANCH  15  16
ENDBRANCH  14  15
ENDBRANCH  12  14
ENDBRANCH  11  12
ENDBRANCH  10  11
ENDBRANCH   8  10
ENDBRANCH   7   8
ENDBRANCH   6   7
ENDBRANCH   5   6
ENDBRANCH   2   5
TORSDOF 11
ENDMDL
MODEL      288
REMARK 921   NORMALIZED FREE ENERGY PREDICTED BY IDOCK:   -1.85 KCAL/MOL
REMARK 922        TOTAL FREE ENERGY PREDICTED BY IDOCK:   -3.79 KCAL/MOL
REMARK 923 INTER-LIGAND FREE ENERGY PREDICTED BY IDOCK:   -3.05 KCAL/MOL
REMARK 924 INTRA-LIGAND FREE ENERGY PREDICTED BY IDOCK:   -0.75 KCAL/MOL
REMARK 927      BINDING AFFINITY PREDICTED BY RF-SCORE:    0.00 PKD
ROOT
HETATM    1  C   UNL     1     -10.773  12.903  68.655  1.00  0.00    -0.247 C  
HETATM    2  N   UNL     1     -11.037  11.393  68.713  1.00  0.00    -0.215 N  
HETATM    3  C   UNL     1     -12.263  11.168  69.597  1.00  0.00    -0.290 C  
HETATM    4  C   UNL     1     -11.323  10.906  67.297  1.00  0.00    -0.151 C  
ENDROOT
BRANCH   2   5
HETATM    5  C   UNL     1      -9.784  10.710  69.311  1.00  0.00    -0.160 C  
BRANCH   5   6
HETATM    6  C   UNL     1      -9.377   9.411  68.591  1.00  0.00    -0.142 C  
BRANCH   6   7
HETATM    7  O   UNL     1      -9.988   8.230  69.143  1.00  0.00    -0.185 OA 
BRANCH   7   8
HETATM    8  C   UNL     1      -9.136   7.420  69.832  1.00  0.00    -0.141 C  
HETATM    9  O   UNL     1      -8.698   7.686  70.942  1.00  0.00    -0.135 OA 
BRANCH   8  10
HETATM   10  C   UNL     1      -8.927   6.108  69.120  1.00  0.00    -0.126 C  
BRANCH  10  11
HETATM   11  C   UNL     1      -7.841   6.188  68.063  1.00  0.00    -0.106 C  
BRANCH  11  12
HETATM   12  C   UNL     1      -8.262   5.573  66.755  1.00  0.00    -0.105 C  
HETATM   13  O   UNL     1      -7.778   4.556  66.277  1.00  0.00    -0.092 OA 
BRANCH  12  14
HETATM   14  O   UNL     1      -9.160   6.359  66.099  1.00  0.00    -0.156 OA 
BRANCH  14  15
HETATM   15  C   UNL     1      -8.636   7.623  65.648  1.00  0.00    -0.123 C  
BRANCH  15  16
HETATM   16  C   UNL     1      -7.832   7.524  64.340  1.00  0.00    -0.128 C  
BRANCH  16  17
HETATM   17  N   UNL     1      -7.438   8.899  63.741  1.00  0.00    -0.108 N  
HETATM   18  C   UNL     1      -8.568   9.498  62.913  1.00  0.00    -0.216 C  
HETATM   19  C   UNL     1      -6.230   8.688  62.821  1.00  0.00    -0.091 C  
HETATM   20  C   UNL     1      -7.024   9.878  64.837  1.00  0.00    -0.131 C  
ENDBRANCH  16  17
ENDBRANCH  15  16
ENDBRANCH  14  15
ENDBRANCH  12  14
ENDBRANCH  11  12
ENDBRANCH  10  11
ENDBRANCH   8  10
ENDBRANCH   7   8
ENDBRANCH   6   7
ENDBRANCH   5   6
ENDBRANCH   2   5
TORSDOF 11
ENDMDL
MODEL      289
REMARK 921   NORMALIZED FREE ENERGY PREDICTED BY IDOCK:   -1.81 KCAL/MOL
REMARK 922        TOTAL FREE ENERGY PREDICTED BY IDOCK:   -3.73 KCAL/MOL
REMARK 923 INTER-LIGAND FREE ENERGY PREDICTED BY IDOCK:   -3.23 KCAL/MOL
REMARK 924 INTRA-LIGAND FREE ENERGY PREDICTED BY IDOCK:   -0.50 KCAL/MOL
REMARK 927      BINDING AFFINITY PREDICTED BY RF-SCORE:    0.00 PKD
ROOT
HETATM    1  C   UNL     1     -13.002  11.171  70.519  1.00  0.00    -0.028 C  
HETATM    2  N   UNL     1     -11.774  11.444  69.641  1.00  0.00    -0.314 N  
HETATM    3  C   UNL     1     -12.135  11.066  68.205  1.00  0.00     0.133 C  
HETATM    4  C   UNL     1     -11.455  12.932  69.720  1.00  0.00    -0.132 C  
ENDROOT
BRANCH   2   5
HETATM    5  C   UNL     1     -10.605  10.579  70.170  1.00  0.00    -0.105 C  
BRANCH   5   6
HETATM    6  C   UNL     1     -10.821   9.064  69.999  1.00  0.00    -0.231 C  
BRANCH   6   7
HETATM    7  O   UNL     1     -11.850   8.528  70.851  1.00  0.00    -0.281 OA 
BRANCH   7   8
HETATM    8  C   UNL     1     -11.390   7.861  71.946  1.00  0.00    -0.276 C  
HETATM    9  O   UNL     1     -10.824   8.405  72.883  1.00  0.00    -0.246 OA 
BRANCH   8  10
HETATM   10  C   UNL     1     -11.797   6.410  71.917  1.00  0.00    -0.380 C  
BRANCH  10  11
HETATM   11  C   UNL     1     -10.622   5.482  71.674  1.00  0.00    -0.294 C  
BRANCH  11  12
HETATM   12  C   UNL     1     -10.257   5.381  70.217  1.00  0.00    -0.267 C  
HETATM   13  O   UNL     1     -10.999   5.680  69.291  1.00  0.00    -0.304 OA 
BRANCH  12  14
HETATM   14  O   UNL     1      -9.040   4.793  70.046  1.00  0.00    -0.095 OA 
BRANCH  14  15
HETATM   15  C   UNL     1      -7.947   5.478  70.687  1.00  0.00    -0.103 C  
BRANCH  15  16
HETATM   16  C   UNL     1      -7.583   6.816  70.022  1.00  0.00    -0.100 C  
BRANCH  16  17
HETATM   17  N   UNL     1      -6.562   7.660  70.827  1.00  0.00    -0.038 N  
HETATM   18  C   UNL     1      -5.222   7.761  70.108  1.00  0.00    -0.023 C  
HETATM   19  C   UNL     1      -6.331   6.968  72.176  1.00  0.00    -0.045 C  
HETATM   20  C   UNL     1      -7.105   9.060  71.109  1.00  0.00    -0.098 C  
ENDBRANCH  16  17
ENDBRANCH  15  16
ENDBRANCH  14  15
ENDBRANCH  12  14
ENDBRANCH  11  12
ENDBRANCH  10  11
ENDBRANCH   8  10
ENDBRANCH   7   8
ENDBRANCH   6   7
ENDBRANCH   5   6
ENDBRANCH   2   5
TORSDOF 11
ENDMDL
MODEL      290
REMARK 921   NORMALIZED FREE ENERGY PREDICTED BY IDOCK:   -1.79 KCAL/MOL
REMARK 922        TOTAL FREE ENERGY PREDICTED BY IDOCK:   -3.70 KCAL/MOL
REMARK 923 INTER-LIGAND FREE ENERGY PREDICTED BY IDOCK:   -3.08 KCAL/MOL
REMARK 924 INTRA-LIGAND FREE ENERGY PREDICTED BY IDOCK:   -0.62 KCAL/MOL
REMARK 927      BINDING AFFINITY PREDICTED BY RF-SCORE:    0.00 PKD
ROOT
HETATM    1  C   UNL     1     -10.912   8.055  72.705  1.00  0.00    -0.382 C  
HETATM    2  N   UNL     1     -11.981   8.221  71.618  1.00  0.00    -0.288 N  
HETATM    3  C   UNL     1     -12.627   6.856  71.388  1.00  0.00    -0.353 C  
HETATM    4  C   UNL     1     -13.024   9.211  72.124  1.00  0.00    -0.425 C  
ENDROOT
BRANCH   2   5
HETATM    5  C   UNL     1     -11.283   8.732  70.334  1.00  0.00    -0.223 C  
BRANCH   5   6
HETATM    6  C   UNL     1      -9.779   8.408  70.269  1.00  0.00    -0.172 C  
BRANCH   6   7
HETATM    7  O   UNL     1      -9.486   7.165  69.604  1.00  0.00    -0.153 OA 
BRANCH   7   8
HETATM    8  C   UNL     1      -8.832   7.297  68.416  1.00  0.00    -0.128 C  
HETATM    9  O   UNL     1      -8.090   8.232  68.152  1.00  0.00    -0.120 OA 
BRANCH   8  10
HETATM   10  C   UNL     1      -9.025   6.084  67.543  1.00  0.00    -0.111 C  
BRANCH  10  11
HETATM   11  C   UNL     1      -8.083   4.951  67.907  1.00  0.00    -0.093 C  
BRANCH  11  12
HETATM   12  C   UNL     1      -8.744   3.601  67.827  1.00  0.00    -0.106 C  
HETATM   13  O   UNL     1      -9.511   3.151  68.668  1.00  0.00    -0.176 OA 
BRANCH  12  14
HETATM   14  O   UNL     1      -8.284   2.882  66.766  1.00  0.00    -0.083 OA 
BRANCH  14  15
HETATM   15  C   UNL     1      -6.917   3.155  66.402  1.00  0.00    -0.054 C  
BRANCH  15  16
HETATM   16  C   UNL     1      -6.494   2.513  65.069  1.00  0.00    -0.027 C  
BRANCH  16  17
HETATM   17  N   UNL     1      -6.838   3.369  63.824  1.00  0.00    -0.042 N  
HETATM   18  C   UNL     1      -5.772   3.244  62.742  1.00  0.00    -0.009 C  
HETATM   19  C   UNL     1      -6.907   4.837  64.259  1.00  0.00    -0.048 C  
HETATM   20  C   UNL     1      -8.202   2.987  63.252  1.00  0.00    -0.085 C  
ENDBRANCH  16  17
ENDBRANCH  15  16
ENDBRANCH  14  15
ENDBRANCH  12  14
ENDBRANCH  11  12
ENDBRANCH  10  11
ENDBRANCH   8  10
ENDBRANCH   7   8
ENDBRANCH   6   7
ENDBRANCH   5   6
ENDBRANCH   2   5
TORSDOF 11
ENDMDL
MODEL      291
REMARK 921   NORMALIZED FREE ENERGY PREDICTED BY IDOCK:   -1.79 KCAL/MOL
REMARK 922        TOTAL FREE ENERGY PREDICTED BY IDOCK:   -3.69 KCAL/MOL
REMARK 923 INTER-LIGAND FREE ENERGY PREDICTED BY IDOCK:   -3.02 KCAL/MOL
REMARK 924 INTRA-LIGAND FREE ENERGY PREDICTED BY IDOCK:   -0.67 KCAL/MOL
REMARK 927      BINDING AFFINITY PREDICTED BY RF-SCORE:    0.00 PKD
ROOT
HETATM    1  C   UNL     1     -12.801  10.889  70.077  1.00  0.00    -0.012 C  
HETATM    2  N   UNL     1     -11.524  11.338  69.354  1.00  0.00    -0.272 N  
HETATM    3  C   UNL     1     -11.775  11.223  67.851  1.00  0.00    -0.214 C  
HETATM    4  C   UNL     1     -11.253  12.791  69.725  1.00  0.00     0.080 C  
ENDROOT
BRANCH   2   5
HETATM    5  C   UNL     1     -10.369  10.409  69.800  1.00  0.00    -0.208 C  
BRANCH   5   6
HETATM    6  C   UNL     1     -10.406   9.012  69.154  1.00  0.00    -0.219 C  
BRANCH   6   7
HETATM    7  O   UNL     1     -11.070   8.021  69.961  1.00  0.00    -0.238 OA 
BRANCH   7   8
HETATM    8  C   UNL     1     -10.273   6.993  70.367  1.00  0.00    -0.196 C  
HETATM    9  O   UNL     1      -9.462   7.083  71.276  1.00  0.00    -0.164 OA 
BRANCH   8  10
HETATM   10  C   UNL     1     -10.625   5.711  69.657  1.00  0.00    -0.401 C  
BRANCH  10  11
HETATM   11  C   UNL     1      -9.525   5.242  68.724  1.00  0.00    -0.171 C  
BRANCH  11  12
HETATM   12  C   UNL     1      -9.731   5.708  67.307  1.00  0.00    -0.135 C  
HETATM   13  O   UNL     1      -9.502   6.842  66.907  1.00  0.00    -0.144 OA 
BRANCH  12  14
HETATM   14  O   UNL     1     -10.327   4.748  66.547  1.00  0.00    -0.256 OA 
BRANCH  14  15
HETATM   15  C   UNL     1      -9.518   3.580  66.311  1.00  0.00    -0.144 C  
BRANCH  15  16
HETATM   16  C   UNL     1      -8.840   3.568  64.930  1.00  0.00    -0.122 C  
BRANCH  16  17
HETATM   17  N   UNL     1      -7.291   3.601  64.991  1.00  0.00    -0.071 N  
HETATM   18  C   UNL     1      -6.672   2.456  64.198  1.00  0.00    -0.031 C  
HETATM   19  C   UNL     1      -6.869   3.450  66.457  1.00  0.00    -0.053 C  
HETATM   20  C   UNL     1      -6.748   4.935  64.483  1.00  0.00    -0.048 C  
ENDBRANCH  16  17
ENDBRANCH  15  16
ENDBRANCH  14  15
ENDBRANCH  12  14
ENDBRANCH  11  12
ENDBRANCH  10  11
ENDBRANCH   8  10
ENDBRANCH   7   8
ENDBRANCH   6   7
ENDBRANCH   5   6
ENDBRANCH   2   5
TORSDOF 11
ENDMDL
MODEL      292
REMARK 921   NORMALIZED FREE ENERGY PREDICTED BY IDOCK:   -1.78 KCAL/MOL
REMARK 922        TOTAL FREE ENERGY PREDICTED BY IDOCK:   -3.68 KCAL/MOL
REMARK 923 INTER-LIGAND FREE ENERGY PREDICTED BY IDOCK:   -3.60 KCAL/MOL
REMARK 924 INTRA-LIGAND FREE ENERGY PREDICTED BY IDOCK:   -0.08 KCAL/MOL
REMARK 927      BINDING AFFINITY PREDICTED BY RF-SCORE:    0.00 PKD
ROOT
HETATM    1  C   UNL     1     -14.269   8.780  71.266  1.00  0.00    -0.130 C  
HETATM    2  N   UNL     1     -13.065   9.717  71.421  1.00  0.00    -0.378 N  
HETATM    3  C   UNL     1     -12.607  10.122  70.021  1.00  0.00     0.092 C  
HETATM    4  C   UNL     1     -13.519  10.950  72.194  1.00  0.00    -0.100 C  
ENDROOT
BRANCH   2   5
HETATM    5  C   UNL     1     -11.952   8.948  72.173  1.00  0.00    -0.349 C  
BRANCH   5   6
HETATM    6  C   UNL     1     -11.131   8.003  71.277  1.00  0.00    -0.247 C  
BRANCH   6   7
HETATM    7  O   UNL     1     -11.697   6.684  71.160  1.00  0.00    -0.314 OA 
BRANCH   7   8
HETATM    8  C   UNL     1     -11.091   5.887  70.236  1.00  0.00    -0.298 C  
HETATM    9  O   UNL     1     -10.616   4.791  70.496  1.00  0.00    -0.109 OA 
BRANCH   8  10
HETATM   10  C   UNL     1     -11.216   6.460  68.848  1.00  0.00    -0.385 C  
BRANCH  10  11
HETATM   11  C   UNL     1     -10.262   5.810  67.864  1.00  0.00    -0.231 C  
BRANCH  11  12
HETATM   12  C   UNL     1      -9.027   6.638  67.624  1.00  0.00    -0.111 C  
HETATM   13  O   UNL     1      -8.112   6.771  68.426  1.00  0.00    -0.117 OA 
BRANCH  12  14
HETATM   14  O   UNL     1      -9.107   7.328  66.453  1.00  0.00    -0.152 OA 
BRANCH  14  15
HETATM   15  C   UNL     1      -9.253   8.753  66.605  1.00  0.00    -0.177 C  
BRANCH  15  16
HETATM   16  C   UNL     1      -8.934   9.258  68.023  1.00  0.00    -0.128 C  
BRANCH  16  17
HETATM   17  N   UNL     1      -7.999  10.494  68.054  1.00  0.00    -0.105 N  
HETATM   18  C   UNL     1      -6.759  10.284  67.194  1.00  0.00    -0.078 C  
HETATM   19  C   UNL     1      -7.546  10.712  69.502  1.00  0.00    -0.124 C  
HETATM   20  C   UNL     1      -8.736  11.752  67.600  1.00  0.00    -0.159 C  
ENDBRANCH  16  17
ENDBRANCH  15  16
ENDBRANCH  14  15
ENDBRANCH  12  14
ENDBRANCH  11  12
ENDBRANCH  10  11
ENDBRANCH   8  10
ENDBRANCH   7   8
ENDBRANCH   6   7
ENDBRANCH   5   6
ENDBRANCH   2   5
TORSDOF 11
ENDMDL
MODEL      293
REMARK 921   NORMALIZED FREE ENERGY PREDICTED BY IDOCK:   -1.76 KCAL/MOL
REMARK 922        TOTAL FREE ENERGY PREDICTED BY IDOCK:   -3.65 KCAL/MOL
REMARK 923 INTER-LIGAND FREE ENERGY PREDICTED BY IDOCK:   -2.95 KCAL/MOL
REMARK 924 INTRA-LIGAND FREE ENERGY PREDICTED BY IDOCK:   -0.70 KCAL/MOL
REMARK 927      BINDING AFFINITY PREDICTED BY RF-SCORE:    0.00 PKD
ROOT
HETATM    1  C   UNL     1     -13.898   9.554  70.835  1.00  0.00     0.152 C  
HETATM    2  N   UNL     1     -12.681  10.486  70.908  1.00  0.00    -0.376 N  
HETATM    3  C   UNL     1     -12.442  11.050  69.507  1.00  0.00    -0.080 C  
HETATM    4  C   UNL     1     -13.008  11.619  71.873  1.00  0.00    -0.337 C  
ENDROOT
BRANCH   2   5
HETATM    5  C   UNL     1     -11.469   9.655  71.390  1.00  0.00    -0.385 C  
BRANCH   5   6
HETATM    6  C   UNL     1     -11.253   8.349  70.604  1.00  0.00    -0.255 C  
BRANCH   6   7
HETATM    7  O   UNL     1     -11.269   7.169  71.430  1.00  0.00    -0.243 OA 
BRANCH   7   8
HETATM    8  C   UNL     1     -10.881   6.028  70.796  1.00  0.00    -0.292 C  
HETATM    9  O   UNL     1     -10.553   5.006  71.382  1.00  0.00    -0.183 OA 
BRANCH   8  10
HETATM   10  C   UNL     1     -11.050   6.142  69.303  1.00  0.00    -0.463 C  
BRANCH  10  11
HETATM   11  C   UNL     1     -10.501   4.937  68.562  1.00  0.00     0.062 C  
BRANCH  11  12
HETATM   12  C   UNL     1      -9.052   5.100  68.186  1.00  0.00    -0.112 C  
HETATM   13  O   UNL     1      -8.581   6.091  67.645  1.00  0.00    -0.108 OA 
BRANCH  12  14
HETATM   14  O   UNL     1      -8.348   3.955  68.404  1.00  0.00    -0.088 OA 
BRANCH  14  15
HETATM   15  C   UNL     1      -7.545   3.963  69.600  1.00  0.00    -0.052 C  
BRANCH  15  16
HETATM   16  C   UNL     1      -7.801   2.757  70.522  1.00  0.00    -0.042 C  
BRANCH  16  17
HETATM   17  N   UNL     1      -7.093   2.859  71.897  1.00  0.00    -0.037 N  
HETATM   18  C   UNL     1      -7.265   4.239  72.519  1.00  0.00    -0.067 C  
HETATM   19  C   UNL     1      -5.595   2.614  71.681  1.00  0.00    -0.008 C  
HETATM   20  C   UNL     1      -7.607   1.790  72.860  1.00  0.00    -0.033 C  
ENDBRANCH  16  17
ENDBRANCH  15  16
ENDBRANCH  14  15
ENDBRANCH  12  14
ENDBRANCH  11  12
ENDBRANCH  10  11
ENDBRANCH   8  10
ENDBRANCH   7   8
ENDBRANCH   6   7
ENDBRANCH   5   6
ENDBRANCH   2   5
TORSDOF 11
ENDMDL
MODEL      294
REMARK 921   NORMALIZED FREE ENERGY PREDICTED BY IDOCK:   -1.71 KCAL/MOL
REMARK 922        TOTAL FREE ENERGY PREDICTED BY IDOCK:   -3.56 KCAL/MOL
REMARK 923 INTER-LIGAND FREE ENERGY PREDICTED BY IDOCK:   -2.96 KCAL/MOL
REMARK 924 INTRA-LIGAND FREE ENERGY PREDICTED BY IDOCK:   -0.60 KCAL/MOL
REMARK 927      BINDING AFFINITY PREDICTED BY RF-SCORE:    0.00 PKD
ROOT
HETATM    1  C   UNL     1      -7.990   8.053  62.930  1.00  0.00    -0.152 C  
HETATM    2  N   UNL     1      -6.672   8.795  63.181  1.00  0.00    -0.090 N  
HETATM    3  C   UNL     1      -5.585   8.107  62.356  1.00  0.00    -0.070 C  
HETATM    4  C   UNL     1      -6.842  10.236  62.717  1.00  0.00    -0.136 C  
ENDROOT
BRANCH   2   5
HETATM    5  C   UNL     1      -6.358   8.715  64.695  1.00  0.00    -0.066 C  
BRANCH   5   6
HETATM    6  C   UNL     1      -7.609   8.616  65.588  1.00  0.00    -0.086 C  
BRANCH   6   7
HETATM    7  O   UNL     1      -8.053   9.886  66.099  1.00  0.00    -0.115 OA 
BRANCH   7   8
HETATM    8  C   UNL     1      -9.367   9.924  66.460  1.00  0.00    -0.164 C  
HETATM    9  O   UNL     1     -10.289   9.933  65.658  1.00  0.00    -0.220 OA 
BRANCH   8  10
HETATM   10  C   UNL     1      -9.530   9.806  67.954  1.00  0.00    -0.146 C  
BRANCH  10  11
HETATM   11  C   UNL     1     -10.362   8.601  68.353  1.00  0.00    -0.239 C  
BRANCH  11  12
HETATM   12  C   UNL     1      -9.650   7.705  69.331  1.00  0.00    -0.159 C  
HETATM   13  O   UNL     1      -8.501   7.872  69.718  1.00  0.00    -0.128 OA 
BRANCH  12  14
HETATM   14  O   UNL     1     -10.395   6.607  69.637  1.00  0.00    -0.180 OA 
BRANCH  14  15
HETATM   15  C   UNL     1     -10.733   6.481  71.032  1.00  0.00    -0.243 C  
BRANCH  15  16
HETATM   16  C   UNL     1     -10.475   5.076  71.604  1.00  0.00    -0.162 C  
BRANCH  16  17
HETATM   17  N   UNL     1      -9.708   5.078  72.950  1.00  0.00    -0.146 N  
HETATM   18  C   UNL     1     -10.623   5.420  74.120  1.00  0.00    -0.240 C  
HETATM   19  C   UNL     1      -8.612   6.148  72.872  1.00  0.00    -0.123 C  
HETATM   20  C   UNL     1      -9.030   3.733  73.200  1.00  0.00    -0.099 C  
ENDBRANCH  16  17
ENDBRANCH  15  16
ENDBRANCH  14  15
ENDBRANCH  12  14
ENDBRANCH  11  12
ENDBRANCH  10  11
ENDBRANCH   8  10
ENDBRANCH   7   8
ENDBRANCH   6   7
ENDBRANCH   5   6
ENDBRANCH   2   5
TORSDOF 11
ENDMDL
MODEL      295
REMARK 921   NORMALIZED FREE ENERGY PREDICTED BY IDOCK:   -1.59 KCAL/MOL
REMARK 922        TOTAL FREE ENERGY PREDICTED BY IDOCK:   -3.37 KCAL/MOL
REMARK 923 INTER-LIGAND FREE ENERGY PREDICTED BY IDOCK:   -3.67 KCAL/MOL
REMARK 924 INTRA-LIGAND FREE ENERGY PREDICTED BY IDOCK:    0.30 KCAL/MOL
REMARK 927      BINDING AFFINITY PREDICTED BY RF-SCORE:    0.00 PKD
ROOT
HETATM    1  C   UNL     1      -7.009   8.983  62.397  1.00  0.00    -0.091 C  
HETATM    2  N   UNL     1      -7.063   8.931  63.930  1.00  0.00    -0.091 N  
HETATM    3  C   UNL     1      -5.680   9.311  64.457  1.00  0.00    -0.068 C  
HETATM    4  C   UNL     1      -8.095   9.947  64.404  1.00  0.00    -0.157 C  
ENDROOT
BRANCH   2   5
HETATM    5  C   UNL     1      -7.444   7.490  64.347  1.00  0.00    -0.096 C  
BRANCH   5   6
HETATM    6  C   UNL     1      -8.761   7.397  65.139  1.00  0.00     0.146 C  
BRANCH   6   7
HETATM    7  O   UNL     1      -8.791   6.309  66.081  1.00  0.00    -0.147 OA 
BRANCH   7   8
HETATM    8  C   UNL     1     -10.039   5.949  66.493  1.00  0.00    -0.156 C  
HETATM    9  O   UNL     1     -10.614   4.941  66.109  1.00  0.00    -0.309 OA 
BRANCH   8  10
HETATM   10  C   UNL     1     -10.545   6.864  67.578  1.00  0.00    -0.351 C  
BRANCH  10  11
HETATM   11  C   UNL     1     -10.064   8.292  67.405  1.00  0.00    -0.298 C  
BRANCH  11  12
HETATM   12  C   UNL     1     -10.737   9.248  68.354  1.00  0.00    -0.145 C  
HETATM   13  O   UNL     1     -10.919  10.437  68.130  1.00  0.00    -0.243 OA 
BRANCH  12  14
HETATM   14  O   UNL     1     -11.005   8.659  69.552  1.00  0.00    -0.179 OA 
BRANCH  14  15
HETATM   15  C   UNL     1     -10.512   9.378  70.698  1.00  0.00    -0.290 C  
BRANCH  15  16
HETATM   16  C   UNL     1      -9.256   8.750  71.327  1.00  0.00    -0.241 C  
BRANCH  16  17
HETATM   17  N   UNL     1      -9.562   7.648  72.373  1.00  0.00    -0.158 N  
HETATM   18  C   UNL     1      -9.441   6.252  71.773  1.00  0.00    -0.150 C  
HETATM   19  C   UNL     1     -11.004   7.837  72.856  1.00  0.00    -0.407 C  
HETATM   20  C   UNL     1      -8.643   7.771  73.586  1.00  0.00    -0.241 C  
ENDBRANCH  16  17
ENDBRANCH  15  16
ENDBRANCH  14  15
ENDBRANCH  12  14
ENDBRANCH  11  12
ENDBRANCH  10  11
ENDBRANCH   8  10
ENDBRANCH   7   8
ENDBRANCH   6   7
ENDBRANCH   5   6
ENDBRANCH   2   5
TORSDOF 11
ENDMDL
MODEL      296
REMARK 921   NORMALIZED FREE ENERGY PREDICTED BY IDOCK:   -1.29 KCAL/MOL
REMARK 922        TOTAL FREE ENERGY PREDICTED BY IDOCK:   -2.88 KCAL/MOL
REMARK 923 INTER-LIGAND FREE ENERGY PREDICTED BY IDOCK:   -3.69 KCAL/MOL
REMARK 924 INTRA-LIGAND FREE ENERGY PREDICTED BY IDOCK:    0.81 KCAL/MOL
REMARK 927      BINDING AFFINITY PREDICTED BY RF-SCORE:    0.00 PKD
ROOT
HETATM    1  C   UNL     1     -12.234  14.585  73.574  1.00  0.00    -0.062 C  
HETATM    2  N   UNL     1     -12.688  14.351  72.127  1.00  0.00    -0.330 N  
HETATM    3  C   UNL     1     -13.751  15.398  71.797  1.00  0.00    -0.511 C  
HETATM    4  C   UNL     1     -11.480  14.533  71.215  1.00  0.00     0.018 C  
ENDROOT
BRANCH   2   5
HETATM    5  C   UNL     1     -13.266  12.919  72.032  1.00  0.00    -0.448 C  
BRANCH   5   6
HETATM    6  C   UNL     1     -12.347  11.922  71.303  1.00  0.00    -0.107 C  
BRANCH   6   7
HETATM    7  O   UNL     1     -11.951  12.358  69.989  1.00  0.00    -0.328 OA 
BRANCH   7   8
HETATM    8  C   UNL     1     -11.759  11.352  69.091  1.00  0.00    -0.342 C  
HETATM    9  O   UNL     1     -12.454  11.187  68.099  1.00  0.00    -0.202 OA 
BRANCH   8  10
HETATM   10  C   UNL     1     -10.506  10.572  69.398  1.00  0.00    -0.264 C  
BRANCH  10  11
HETATM   11  C   UNL     1     -10.143   9.597  68.293  1.00  0.00    -0.203 C  
BRANCH  11  12
HETATM   12  C   UNL     1     -10.347   8.161  68.699  1.00  0.00    -0.200 C  
HETATM   13  O   UNL     1     -10.964   7.800  69.693  1.00  0.00    -0.220 OA 
BRANCH  12  14
HETATM   14  O   UNL     1      -9.650   7.311  67.896  1.00  0.00    -0.137 OA 
BRANCH  14  15
HETATM   15  C   UNL     1      -8.348   6.947  68.394  1.00  0.00    -0.120 C  
BRANCH  15  16
HETATM   16  C   UNL     1      -7.460   8.155  68.738  1.00  0.00    -0.090 C  
BRANCH  16  17
HETATM   17  N   UNL     1      -6.036   8.080  68.132  1.00  0.00    -0.040 N  
HETATM   18  C   UNL     1      -6.069   8.123  66.609  1.00  0.00    -0.053 C  
HETATM   19  C   UNL     1      -5.406   6.750  68.559  1.00  0.00    -0.016 C  
HETATM   20  C   UNL     1      -5.151   9.207  68.662  1.00  0.00    -0.034 C  
ENDBRANCH  16  17
ENDBRANCH  15  16
ENDBRANCH  14  15
ENDBRANCH  12  14
ENDBRANCH  11  12
ENDBRANCH  10  11
ENDBRANCH   8  10
ENDBRANCH   7   8
ENDBRANCH   6   7
ENDBRANCH   5   6
ENDBRANCH   2   5
TORSDOF 11
ENDMDL
MODEL      297
REMARK 921   NORMALIZED FREE ENERGY PREDICTED BY IDOCK:   -1.26 KCAL/MOL
REMARK 922        TOTAL FREE ENERGY PREDICTED BY IDOCK:   -2.83 KCAL/MOL
REMARK 923 INTER-LIGAND FREE ENERGY PREDICTED BY IDOCK:   -2.08 KCAL/MOL
REMARK 924 INTRA-LIGAND FREE ENERGY PREDICTED BY IDOCK:   -0.75 KCAL/MOL
REMARK 927      BINDING AFFINITY PREDICTED BY RF-SCORE:    0.00 PKD
ROOT
HETATM    1  C   UNL     1      -6.990   8.807  71.358  1.00  0.00    -0.089 C  
HETATM    2  N   UNL     1      -6.624   7.829  72.482  1.00  0.00    -0.061 N  
HETATM    3  C   UNL     1      -5.368   7.073  72.052  1.00  0.00    -0.036 C  
HETATM    4  C   UNL     1      -6.338   8.638  73.741  1.00  0.00    -0.077 C  
ENDROOT
BRANCH   2   5
HETATM    5  C   UNL     1      -7.816   6.862  72.682  1.00  0.00    -0.098 C  
BRANCH   5   6
HETATM    6  C   UNL     1      -8.619   6.586  71.398  1.00  0.00    -0.126 C  
BRANCH   6   7
HETATM    7  O   UNL     1      -8.216   5.384  70.714  1.00  0.00    -0.110 OA 
BRANCH   7   8
HETATM    8  C   UNL     1      -7.711   5.585  69.464  1.00  0.00    -0.082 C  
HETATM    9  O   UNL     1      -6.790   4.934  68.994  1.00  0.00    -0.048 OA 
BRANCH   8  10
HETATM   10  C   UNL     1      -8.524   6.598  68.699  1.00  0.00    -0.122 C  
BRANCH  10  11
HETATM   11  C   UNL     1      -8.576   6.296  67.212  1.00  0.00    -0.107 C  
BRANCH  11  12
HETATM   12  C   UNL     1      -9.766   5.455  66.834  1.00  0.00    -0.153 C  
HETATM   13  O   UNL     1     -10.916   5.869  66.765  1.00  0.00    -0.299 OA 
BRANCH  12  14
HETATM   14  O   UNL     1      -9.429   4.143  66.703  1.00  0.00    -0.164 OA 
BRANCH  14  15
HETATM   15  C   UNL     1      -9.636   3.599  65.385  1.00  0.00    -0.156 C  
BRANCH  15  16
HETATM   16  C   UNL     1      -8.642   4.127  64.336  1.00  0.00    -0.115 C  
BRANCH  16  17
HETATM   17  N   UNL     1      -7.867   3.012  63.589  1.00  0.00    -0.075 N  
HETATM   18  C   UNL     1      -8.641   2.500  62.381  1.00  0.00    -0.074 C  
HETATM   19  C   UNL     1      -7.664   1.842  64.559  1.00  0.00    -0.064 C  
HETATM   20  C   UNL     1      -6.487   3.499  63.151  1.00  0.00    -0.026 C  
ENDBRANCH  16  17
ENDBRANCH  15  16
ENDBRANCH  14  15
ENDBRANCH  12  14
ENDBRANCH  11  12
ENDBRANCH  10  11
ENDBRANCH   8  10
ENDBRANCH   7   8
ENDBRANCH   6   7
ENDBRANCH   5   6
ENDBRANCH   2   5
TORSDOF 11
ENDMDL
MODEL      298
REMARK 921   NORMALIZED FREE ENERGY PREDICTED BY IDOCK:   -1.23 KCAL/MOL
REMARK 922        TOTAL FREE ENERGY PREDICTED BY IDOCK:   -2.77 KCAL/MOL
REMARK 923 INTER-LIGAND FREE ENERGY PREDICTED BY IDOCK:   -2.11 KCAL/MOL
REMARK 924 INTRA-LIGAND FREE ENERGY PREDICTED BY IDOCK:   -0.66 KCAL/MOL
REMARK 927      BINDING AFFINITY PREDICTED BY RF-SCORE:    0.00 PKD
ROOT
HETATM    1  C   UNL     1      -7.017   8.936  62.396  1.00  0.00    -0.092 C  
HETATM    2  N   UNL     1      -6.803   8.410  63.821  1.00  0.00    -0.079 N  
HETATM    3  C   UNL     1      -5.363   8.726  64.223  1.00  0.00    -0.055 C  
HETATM    4  C   UNL     1      -7.771   9.136  64.747  1.00  0.00    -0.111 C  
ENDROOT
BRANCH   2   5
HETATM    5  C   UNL     1      -7.057   6.883  63.810  1.00  0.00    -0.061 C  
BRANCH   5   6
HETATM    6  C   UNL     1      -8.046   6.407  64.891  1.00  0.00    -0.120 C  
BRANCH   6   7
HETATM    7  O   UNL     1      -7.883   5.022  65.251  1.00  0.00    -0.085 OA 
BRANCH   7   8
HETATM    8  C   UNL     1      -8.916   4.497  65.967  1.00  0.00    -0.122 C  
HETATM    9  O   UNL     1      -9.807   3.822  65.473  1.00  0.00    -0.172 OA 
BRANCH   8  10
HETATM   10  C   UNL     1      -8.736   4.729  67.445  1.00  0.00    -0.103 C  
BRANCH  10  11
HETATM   11  C   UNL     1     -10.009   5.208  68.117  1.00  0.00    -0.203 C  
BRANCH  11  12
HETATM   12  C   UNL     1      -9.880   5.281  69.615  1.00  0.00    -0.204 C  
HETATM   13  O   UNL     1     -10.814   5.184  70.399  1.00  0.00    -0.160 OA 
BRANCH  12  14
HETATM   14  O   UNL     1      -8.611   5.598  69.993  1.00  0.00    -0.119 OA 
BRANCH  14  15
HETATM   15  C   UNL     1      -8.512   6.737  70.870  1.00  0.00    -0.136 C  
BRANCH  15  16
HETATM   16  C   UNL     1      -8.102   8.034  70.153  1.00  0.00    -0.114 C  
BRANCH  16  17
HETATM   17  N   UNL     1      -6.569   8.211  70.003  1.00  0.00    -0.036 N  
HETATM   18  C   UNL     1      -6.084   7.781  68.624  1.00  0.00    -0.035 C  
HETATM   19  C   UNL     1      -5.884   7.324  71.049  1.00  0.00    -0.035 C  
HETATM   20  C   UNL     1      -6.153   9.655  70.271  1.00  0.00    -0.062 C  
ENDBRANCH  16  17
ENDBRANCH  15  16
ENDBRANCH  14  15
ENDBRANCH  12  14
ENDBRANCH  11  12
ENDBRANCH  10  11
ENDBRANCH   8  10
ENDBRANCH   7   8
ENDBRANCH   6   7
ENDBRANCH   5   6
ENDBRANCH   2   5
TORSDOF 11
ENDMDL
MODEL      299
REMARK 921   NORMALIZED FREE ENERGY PREDICTED BY IDOCK:   -1.15 KCAL/MOL
REMARK 922        TOTAL FREE ENERGY PREDICTED BY IDOCK:   -2.64 KCAL/MOL
REMARK 923 INTER-LIGAND FREE ENERGY PREDICTED BY IDOCK:   -1.95 KCAL/MOL
REMARK 924 INTRA-LIGAND FREE ENERGY PREDICTED BY IDOCK:   -0.69 KCAL/MOL
REMARK 927      BINDING AFFINITY PREDICTED BY RF-SCORE:    0.00 PKD
ROOT
HETATM    1  C   UNL     1     -14.195   8.549  71.005  1.00  0.00     0.047 C  
HETATM    2  N   UNL     1     -12.885   9.219  71.437  1.00  0.00    -0.329 N  
HETATM    3  C   UNL     1     -12.371  10.042  70.256  1.00  0.00    -0.070 C  
HETATM    4  C   UNL     1     -13.187  10.138  72.616  1.00  0.00     0.358 C  
ENDROOT
BRANCH   2   5
HETATM    5  C   UNL     1     -11.881   8.106  71.822  1.00  0.00    -0.300 C  
BRANCH   5   6
HETATM    6  C   UNL     1     -10.795   7.851  70.761  1.00  0.00    -0.232 C  
BRANCH   6   7
HETATM    7  O   UNL     1     -11.215   6.964  69.707  1.00  0.00    -0.283 OA 
BRANCH   7   8
HETATM    8  C   UNL     1     -10.214   6.546  68.883  1.00  0.00    -0.181 C  
HETATM    9  O   UNL     1      -9.760   5.411  68.891  1.00  0.00    -0.132 OA 
BRANCH   8  10
HETATM   10  C   UNL     1      -9.850   7.608  67.878  1.00  0.00    -0.190 C  
BRANCH  10  11
HETATM   11  C   UNL     1      -8.366   7.626  67.564  1.00  0.00    -0.120 C  
BRANCH  11  12
HETATM   12  C   UNL     1      -7.573   8.430  68.560  1.00  0.00    -0.096 C  
HETATM   13  O   UNL     1      -7.312   8.065  69.698  1.00  0.00    -0.080 OA 
BRANCH  12  14
HETATM   14  O   UNL     1      -7.289   9.674  68.085  1.00  0.00    -0.080 OA 
BRANCH  14  15
HETATM   15  C   UNL     1      -7.878  10.753  68.836  1.00  0.00    -0.136 C  
BRANCH  15  16
HETATM   16  C   UNL     1      -7.398  12.146  68.393  1.00  0.00    -0.108 C  
BRANCH  16  17
HETATM   17  N   UNL     1      -8.517  13.031  67.787  1.00  0.00    -0.174 N  
HETATM   18  C   UNL     1      -9.345  13.714  68.869  1.00  0.00     0.154 C  
HETATM   19  C   UNL     1      -9.449  12.128  66.970  1.00  0.00    -0.201 C  
HETATM   20  C   UNL     1      -7.936  14.080  66.840  1.00  0.00     0.209 C  
ENDBRANCH  16  17
ENDBRANCH  15  16
ENDBRANCH  14  15
ENDBRANCH  12  14
ENDBRANCH  11  12
ENDBRANCH  10  11
ENDBRANCH   8  10
ENDBRANCH   7   8
ENDBRANCH   6   7
ENDBRANCH   5   6
ENDBRANCH   2   5
TORSDOF 11
ENDMDL
MODEL      300
REMARK 921   NORMALIZED FREE ENERGY PREDICTED BY IDOCK:   -1.10 KCAL/MOL
REMARK 922        TOTAL FREE ENERGY PREDICTED BY IDOCK:   -2.57 KCAL/MOL
REMARK 923 INTER-LIGAND FREE ENERGY PREDICTED BY IDOCK:   -1.94 KCAL/MOL
REMARK 924 INTRA-LIGAND FREE ENERGY PREDICTED BY IDOCK:   -0.63 KCAL/MOL
REMARK 927      BINDING AFFINITY PREDICTED BY RF-SCORE:    0.00 PKD
ROOT
HETATM    1  C   UNL     1      -7.095   9.198  63.375  1.00  0.00    -0.089 C  
HETATM    2  N   UNL     1      -6.630   9.057  64.830  1.00  0.00    -0.066 N  
HETATM    3  C   UNL     1      -5.231   9.663  64.932  1.00  0.00    -0.050 C  
HETATM    4  C   UNL     1      -7.597   9.834  65.715  1.00  0.00    -0.108 C  
ENDROOT
BRANCH   2   5
HETATM    5  C   UNL     1      -6.614   7.551  65.184  1.00  0.00    -0.044 C  
BRANCH   5   6
HETATM    6  C   UNL     1      -7.861   7.077  65.953  1.00  0.00    -0.106 C  
BRANCH   6   7
HETATM    7  O   UNL     1      -7.636   5.894  66.744  1.00  0.00    -0.095 OA 
BRANCH   7   8
HETATM    8  C   UNL     1      -7.948   6.026  68.063  1.00  0.00    -0.109 C  
HETATM    9  O   UNL     1      -8.697   5.266  68.660  1.00  0.00    -0.094 OA 
BRANCH   8  10
HETATM   10  C   UNL     1      -7.146   7.124  68.712  1.00  0.00    -0.088 C  
BRANCH  10  11
HETATM   11  C   UNL     1      -6.156   6.594  69.733  1.00  0.00    -0.026 C  
BRANCH  11  12
HETATM   12  C   UNL     1      -6.377   7.171  71.106  1.00  0.00    -0.037 C  
HETATM   13  O   UNL     1      -5.560   7.131  72.017  1.00  0.00    -0.036 OA 
BRANCH  12  14
HETATM   14  O   UNL     1      -7.649   7.631  71.256  1.00  0.00    -0.077 OA 
BRANCH  14  15
HETATM   15  C   UNL     1      -8.382   7.029  72.340  1.00  0.00    -0.113 C  
BRANCH  15  16
HETATM   16  C   UNL     1      -9.343   5.914  71.890  1.00  0.00    -0.151 C  
BRANCH  16  17
HETATM   17  N   UNL     1     -10.048   5.184  73.061  1.00  0.00    -0.164 N  
HETATM   18  C   UNL     1     -11.517   4.917  72.757  1.00  0.00    -0.110 C  
HETATM   19  C   UNL     1      -9.972   6.085  74.300  1.00  0.00    -0.268 C  
HETATM   20  C   UNL     1      -9.342   3.871  73.395  1.00  0.00    -0.107 C  
ENDBRANCH  16  17
ENDBRANCH  15  16
ENDBRANCH  14  15
ENDBRANCH  12  14
ENDBRANCH  11  12
ENDBRANCH  10  11
ENDBRANCH   8  10
ENDBRANCH   7   8
ENDBRANCH   6   7
ENDBRANCH   5   6
ENDBRANCH   2   5
TORSDOF 11
ENDMDL
MODEL      301
REMARK 921   NORMALIZED FREE ENERGY PREDICTED BY IDOCK:   -1.00 KCAL/MOL
REMARK 922        TOTAL FREE ENERGY PREDICTED BY IDOCK:   -2.39 KCAL/MOL
REMARK 923 INTER-LIGAND FREE ENERGY PREDICTED BY IDOCK:   -2.13 KCAL/MOL
REMARK 924 INTRA-LIGAND FREE ENERGY PREDICTED BY IDOCK:   -0.27 KCAL/MOL
REMARK 927      BINDING AFFINITY PREDICTED BY RF-SCORE:    0.00 PKD
ROOT
HETATM    1  C   UNL     1      -6.574  15.408  68.863  1.00  0.00    -0.110 C  
HETATM    2  N   UNL     1      -7.994  15.618  68.321  1.00  0.00    -0.127 N  
HETATM    3  C   UNL     1      -8.936  15.733  69.518  1.00  0.00    -0.183 C  
HETATM    4  C   UNL     1      -8.010  16.916  67.522  1.00  0.00    -0.170 C  
ENDROOT
BRANCH   2   5
HETATM    5  C   UNL     1      -8.355  14.399  67.440  1.00  0.00    -0.201 C  
BRANCH   5   6
HETATM    6  C   UNL     1      -9.847  14.316  67.069  1.00  0.00    -0.254 C  
BRANCH   6   7
HETATM    7  O   UNL     1     -10.465  13.069  67.440  1.00  0.00    -0.232 OA 
BRANCH   7   8
HETATM    8  C   UNL     1     -11.732  13.187  67.927  1.00  0.00    -0.357 C  
HETATM    9  O   UNL     1     -12.507  14.071  67.593  1.00  0.00    -0.153 OA 
BRANCH   8  10
HETATM   10  C   UNL     1     -12.095  12.016  68.804  1.00  0.00    -0.166 C  
BRANCH  10  11
HETATM   11  C   UNL     1     -10.952  11.030  68.959  1.00  0.00    -0.284 C  
BRANCH  11  12
HETATM   12  C   UNL     1     -10.687  10.249  67.700  1.00  0.00    -0.288 C  
HETATM   13  O   UNL     1     -11.546   9.911  66.897  1.00  0.00     0.481 OA 
BRANCH  12  14
HETATM   14  O   UNL     1      -9.387   9.850  67.624  1.00  0.00    -0.139 OA 
BRANCH  14  15
HETATM   15  C   UNL     1      -8.760  10.085  66.348  1.00  0.00    -0.129 C  
BRANCH  15  16
HETATM   16  C   UNL     1      -7.452   9.299  66.150  1.00  0.00    -0.096 C  
BRANCH  16  17
HETATM   17  N   UNL     1      -6.476   9.952  65.139  1.00  0.00    -0.096 N  
HETATM   18  C   UNL     1      -7.072  10.010  63.737  1.00  0.00    -0.129 C  
HETATM   19  C   UNL     1      -5.206   9.095  65.083  1.00  0.00    -0.037 C  
HETATM   20  C   UNL     1      -6.074  11.355  65.588  1.00  0.00     0.544 C  
ENDBRANCH  16  17
ENDBRANCH  15  16
ENDBRANCH  14  15
ENDBRANCH  12  14
ENDBRANCH  11  12
ENDBRANCH  10  11
ENDBRANCH   8  10
ENDBRANCH   7   8
ENDBRANCH   6   7
ENDBRANCH   5   6
ENDBRANCH   2   5
TORSDOF 11
ENDMDL
MODEL      302
REMARK 921   NORMALIZED FREE ENERGY PREDICTED BY IDOCK:    0.68 KCAL/MOL
REMARK 922        TOTAL FREE ENERGY PREDICTED BY IDOCK:    0.37 KCAL/MOL
REMARK 923 INTER-LIGAND FREE ENERGY PREDICTED BY IDOCK:   -2.04 KCAL/MOL
REMARK 924 INTRA-LIGAND FREE ENERGY PREDICTED BY IDOCK:    2.41 KCAL/MOL
REMARK 927      BINDING AFFINITY PREDICTED BY RF-SCORE:    0.00 PKD
ROOT
HETATM    1  C   UNL     1     -11.984  14.677  73.667  1.00  0.00    -0.048 C  
HETATM    2  N   UNL     1     -12.258  14.949  72.183  1.00  0.00    -0.349 N  
HETATM    3  C   UNL     1     -12.842  16.357  72.067  1.00  0.00     0.508 C  
HETATM    4  C   UNL     1     -10.933  14.875  71.433  1.00  0.00     0.184 C  
ENDROOT
BRANCH   2   5
HETATM    5  C   UNL     1     -13.261  13.885  71.678  1.00  0.00    -0.370 C  
BRANCH   5   6
HETATM    6  C   UNL     1     -12.770  13.095  70.451  1.00  0.00    -0.010 C  
BRANCH   6   7
HETATM    7  O   UNL     1     -11.393  13.352  70.114  1.00  0.00    -0.059 OA 
BRANCH   7   8
HETATM    8  C   UNL     1     -11.095  13.201  68.793  1.00  0.00    -0.269 C  
HETATM    9  O   UNL     1     -11.016  14.132  68.006  1.00  0.00    -0.246 OA 
BRANCH   8  10
HETATM   10  C   UNL     1     -10.734  11.774  68.470  1.00  0.00    -0.251 C  
BRANCH  10  11
HETATM   11  C   UNL     1      -9.276  11.465  68.755  1.00  0.00    -0.108 C  
BRANCH  11  12
HETATM   12  C   UNL     1      -8.504  11.116  67.510  1.00  0.00    -0.126 C  
HETATM   13  O   UNL     1      -8.919  11.271  66.369  1.00  0.00    -0.176 OA 
BRANCH  12  14
HETATM   14  O   UNL     1      -7.336  10.484  67.807  1.00  0.00    -0.085 OA 
BRANCH  14  15
HETATM   15  C   UNL     1      -7.462   9.068  68.044  1.00  0.00    -0.084 C  
BRANCH  15  16
HETATM   16  C   UNL     1      -8.553   8.710  69.068  1.00  0.00    -0.129 C  
BRANCH  16  17
HETATM   17  N   UNL     1      -8.089   7.708  70.155  1.00  0.00    -0.116 N  
HETATM   18  C   UNL     1      -7.000   8.303  71.041  1.00  0.00    -0.054 C  
HETATM   19  C   UNL     1      -7.512   6.474  69.452  1.00  0.00    -0.094 C  
HETATM   20  C   UNL     1      -9.263   7.248  71.018  1.00  0.00    -0.154 C  
ENDBRANCH  16  17
ENDBRANCH  15  16
ENDBRANCH  14  15
ENDBRANCH  12  14
ENDBRANCH  11  12
ENDBRANCH  10  11
ENDBRANCH   8  10
ENDBRANCH   7   8
ENDBRANCH   6   7
ENDBRANCH   5   6
ENDBRANCH   2   5
TORSDOF 11
ENDMDL
MODEL      303
REMARK 921   NORMALIZED FREE ENERGY PREDICTED BY IDOCK:    0.72 KCAL/MOL
REMARK 922        TOTAL FREE ENERGY PREDICTED BY IDOCK:    0.43 KCAL/MOL
REMARK 923 INTER-LIGAND FREE ENERGY PREDICTED BY IDOCK:   -2.17 KCAL/MOL
REMARK 924 INTRA-LIGAND FREE ENERGY PREDICTED BY IDOCK:    2.61 KCAL/MOL
REMARK 927      BINDING AFFINITY PREDICTED BY RF-SCORE:    0.00 PKD
ROOT
HETATM    1  C   UNL     1     -12.066  14.751  73.665  1.00  0.00    -0.255 C  
HETATM    2  N   UNL     1     -12.599  15.056  72.260  1.00  0.00    -0.324 N  
HETATM    3  C   UNL     1     -13.215  16.454  72.289  1.00  0.00     0.704 C  
HETATM    4  C   UNL     1     -11.424  15.027  71.289  1.00  0.00    -0.311 C  
ENDROOT
BRANCH   2   5
HETATM    5  C   UNL     1     -13.659  13.985  71.906  1.00  0.00    -0.435 C  
BRANCH   5   6
HETATM    6  C   UNL     1     -13.380  13.241  70.587  1.00  0.00     0.450 C  
BRANCH   6   7
HETATM    7  O   UNL     1     -12.192  13.693  69.911  1.00  0.00    -0.321 OA 
BRANCH   7   8
HETATM    8  C   UNL     1     -12.103  13.313  68.605  1.00  0.00    -0.222 C  
HETATM    9  O   UNL     1     -12.515  13.989  67.674  1.00  0.00    -0.153 OA 
BRANCH   8  10
HETATM   10  C   UNL     1     -11.309  12.041  68.456  1.00  0.00    -0.323 C  
BRANCH  10  11
HETATM   11  C   UNL     1      -9.812  12.287  68.457  1.00  0.00    -0.157 C  
BRANCH  11  12
HETATM   12  C   UNL     1      -9.120  11.651  67.282  1.00  0.00    -0.167 C  
HETATM   13  O   UNL     1      -9.694  11.109  66.346  1.00  0.00    -0.194 OA 
BRANCH  12  14
HETATM   14  O   UNL     1      -7.768  11.634  67.446  1.00  0.00    -0.130 OA 
BRANCH  14  15
HETATM   15  C   UNL     1      -7.025  11.261  66.270  1.00  0.00     0.003 C  
BRANCH  15  16
HETATM   16  C   UNL     1      -7.511   9.952  65.623  1.00  0.00    -0.116 C  
BRANCH  16  17
HETATM   17  N   UNL     1      -6.379   8.930  65.349  1.00  0.00    -0.063 N  
HETATM   18  C   UNL     1      -5.683   8.500  66.635  1.00  0.00    -0.044 C  
HETATM   19  C   UNL     1      -5.339   9.602  64.445  1.00  0.00    -0.063 C  
HETATM   20  C   UNL     1      -6.912   7.702  64.614  1.00  0.00    -0.052 C  
ENDBRANCH  16  17
ENDBRANCH  15  16
ENDBRANCH  14  15
ENDBRANCH  12  14
ENDBRANCH  11  12
ENDBRANCH  10  11
ENDBRANCH   8  10
ENDBRANCH   7   8
ENDBRANCH   6   7
ENDBRANCH   5   6
ENDBRANCH   2   5
TORSDOF 11
ENDMDL
